data_PCOD9118184
_publ_section_title
;
Structure prediction by ZEFSAII (Michael W. Deem and Ramdas Pophale) SiO2 
 PCOD9118184
Probable space group: P 21
;
_chemical_formula_sum "Si O2"
_cell_formula_units_Z 16
_cell_length_a 9.780769
_cell_length_b 4.921554
_cell_length_c 22.580186
_cell_angle_alpha 90.000000
_cell_angle_beta 32.855092
_cell_angle_gamma 90.000000
_cell_volume 589.678752
_symmetry_space_group_name_H-M "P 21"
_symmetry_group_IT_number 4
_symmetry_cell_setting 'monoclinic'
loop_
_space_group_symop_operation_xyz
x,y,z
-x,1/2+y,-z
loop_
_atom_site_type_symbol
_atom_site_label
_atom_site_fract_x
_atom_site_fract_y
_atom_site_fract_z
Si Si1 0.766083 0.232440 0.835430
Si Si2 0.519081 0.997616 0.249316
Si Si3 0.822261 0.095469 0.244307
Si Si4 0.549632 0.858921 0.520987
Si Si5 0.235460 0.476301 0.042277
Si Si6 0.867380 0.755537 0.535623
Si Si7 0.945448 0.226680 0.647186
Si Si8 0.136277 0.801217 0.968352
O O1 0.860413 0.103652 0.739875
O O2 0.979521 0.431608 0.786153
O O3 0.707566 0.031122 0.909960
O O4 0.495175 0.363812 0.921217
O O5 0.306063 0.812004 0.296707
O O6 0.662791 0.150020 0.145207
O O7 0.680128 0.898363 0.248004
O O8 0.373015 0.233408 0.337416
O O9 0.627841 0.261860 0.358641
O O10 0.987826 0.289266 0.140215
O O11 0.578704 0.605443 0.466152
O O12 0.845660 0.958876 0.415400
O O13 0.182411 0.736174 0.020065
O O14 0.069049 0.566679 0.495218
O O15 0.878088 0.600101 0.468474
O O16 0.106911 0.113907 0.961153
#
# Coordination Sequence:
#
# PCOD9118184 Si02
#       8
#     2   2   2   2   2   2   2   2
#     4  12  25  48  75 114 156 205 267 323 394 470
#     4  11  24  48  77 113 154 203 255 327 386 470
#     4  12  25  50  76 112 155 211 255 330 398 465
#     4  12  27  50  79 117 160 208 267 324 392 478
#     4  12  26  47  78 112 158 209 268 327 394 472
#     4  10  24  47  71 109 153 194 251 314 387 457
#     4  11  24  49  74 114 153 204 261 320 391 459
#     4  12  27  49  76 113 155 204 264 323 394 465
#
# _framework density 27.133417999999999
#
# number of rings (size 3 to 8) (size 9 to 14) (size 15 to 20)
#    0.000    0.500    6.250    1.500    0.000    4.000 
#   11.250    0.000    0.000    0.000    0.000    0.000 
#    0.000    0.000    0.000    0.000    0.000    0.000 
#
# Total GULP energy -89258.622248 kJ/mol
# GULP energy per Si atom -5578.663891 kJ/mol
# Density = 2.707166 g / cm^3
# Si number density = 27.133418 Si / 1000 Ang^3
#
#
#
# Elastic Constant Matrix: (Units=GPa)
#
#
# Indices 1 2 3 4 5 6 
#
# 1 134.0240 19.6176 47.2141 0.0000 15.4065 0.0000
# 2 19.6176 74.3166 23.0821 0.0000 2.8187 0.0000
# 3 47.2141 23.0821 151.6790 0.0000 17.3198 0.0000
# 4 0.0000 0.0000 0.0000 28.7359 0.0000 -1.6664
# 5 15.4065 2.8187 17.3198 0.0000 58.7193 0.0000
# 6 0.0000 0.0000 0.0000 -1.6664 0.0000 31.5343
#
#
#
# Elastic Compliance Matrix: (Units=1/GPa)
#
#
# Indices 1 2 3 4 5 6 
#
# 1 0.008666 -0.001518 -0.002293 0.000000 -0.001525 0.000000
# 2 -0.001518 0.014389 -0.001743 0.000000 0.000221 0.000000
# 3 -0.002293 -0.001743 0.007755 0.000000 -0.001602 0.000000
# 4 0.000000 0.000000 0.000000 0.034907 0.000000 0.001845
# 5 -0.001525 0.000221 -0.001602 0.000000 0.017892 0.000000
# 6 0.000000 0.000000 0.000000 0.001845 0.000000 0.031809
#
#
# Mechanical properties :
#
#
# Convention : Reuss Voigt Hill
#
# Bulk Modulus (GPa) = 50.74970 59.98304 55.36637
# Shear Modulus (GPa) = 37.56788 41.80495 39.68641
#
# Velocity S-wave (km/s) = 3.72501 3.92946 3.82860
# Velocity P-wave (km/s) = 6.10289 6.53775 6.32406
#
# Compressibility (1/GPa) = 0.01970455
#
# Stress axis : x y z
#
# Youngs Moduli (GPa) = 115.38778 69.49543 128.95548
#
# Poissons Ratio (x) = 0.10548 0.29564
# Poissons Ratio (y) = 0.17514 0.22471
# Poissons Ratio (z) = 0.26453 0.12110
#
# Static dielectric constant tensor:
#      x y z
#    x 2.684740 0.000000 -0.083650 
#    y 0.000000 2.160370 0.000000 
#    z -0.083650 0.000000 2.143510 
# 
# From -- ./inp_files/7301.got.cif
#   From: 2010.05.17/outbox.cif.g08.bks.cpg/sg4_4_cif.got.tgz:7301.got - 2010.06.03 18:43:04.
