data_PCOD9118860
_publ_section_title
;
Structure prediction by ZEFSAII (Michael W. Deem and Ramdas Pophale) SiO2 
 PCOD9118860
Probable space group: P 21
;
_chemical_formula_sum "Si O2"
_cell_formula_units_Z 16
_cell_length_a 9.386538
_cell_length_b 4.951802
_cell_length_c 29.743650
_cell_angle_alpha 90.000000
_cell_angle_beta 27.905133
_cell_angle_gamma 90.000000
_cell_volume 647.019200
_symmetry_space_group_name_H-M "P 21"
_symmetry_group_IT_number 4
_symmetry_cell_setting 'monoclinic'
loop_
_space_group_symop_operation_xyz
x,y,z
-x,1/2+y,-z
loop_
_atom_site_type_symbol
_atom_site_label
_atom_site_fract_x
_atom_site_fract_y
_atom_site_fract_z
Si Si1 0.189574 0.018380 0.758136
Si Si2 0.335491 0.447582 0.301978
Si Si3 0.202310 0.639307 0.890391
Si Si4 0.249635 0.763166 0.239532
Si Si5 0.390463 0.912340 0.925011
Si Si6 0.373273 0.162679 0.058037
Si Si7 0.237394 0.504541 0.684416
Si Si8 0.908221 0.267038 0.496116
O O1 0.464910 0.092826 0.715220
O O2 0.107659 0.305373 0.759405
O O3 0.274859 0.802813 0.694728
O O4 0.933694 0.842277 0.855079
O O5 0.594461 0.280767 0.203740
O O6 0.173168 0.619220 0.308043
O O7 0.096250 0.275896 0.397315
O O8 0.420199 0.391342 0.842603
O O9 0.197180 0.817186 0.936532
O O10 0.854230 0.575008 0.977004
O O11 0.326727 0.559072 0.177305
O O12 0.994810 0.969571 0.292622
O O13 0.512596 0.675002 0.922089
O O14 0.600430 0.360810 0.967000
O O15 0.566696 0.372944 0.582701
O O16 0.946412 0.978574 0.508838
#
# Coordination Sequence:
#
# PCOD9118860 Si02
#       8
#     2   2   2   2   2   2   2   2
#     4  12  25  46  75 102 150 188 247 302 372 441
#     4  11  27  45  72 110 138 188 254 307 369 449
#     4  11  24  42  71  98 147 191 245 296 367 444
#     4  11  26  45  72 105 149 192 247 305 372 448
#     4  11  23  43  67  98 142 198 236 292 365 443
#     4  12  27  41  67 105 143 186 247 300 359 432
#     4  12  25  49  76 105 142 199 239 309 378 447
#     4  12  25  51  80 107 143 194 245 311 388 460
#
# _framework density 24.728787000000001
#
# number of rings (size 3 to 8) (size 9 to 14) (size 15 to 20)
#    0.000    0.500    5.000    2.250    8.750    0.000 
#    2.250    0.000    0.000    0.000    0.000    0.000 
#    0.000    0.000    0.000    0.000    0.000    0.000 
#
# Total GULP energy -89488.084071 kJ/mol
# GULP energy per Si atom -5593.005254 kJ/mol
# Density = 2.467250 g / cm^3
# Si number density = 24.728787 Si / 1000 Ang^3
#
#
#
# Elastic Constant Matrix: (Units=GPa)
#
#
# Indices 1 2 3 4 5 6 
#
# 1 109.4606 27.5717 45.0158 0.0000 3.6471 0.0000
# 2 27.5717 97.0756 -2.7356 0.0000 5.8972 0.0002
# 3 45.0158 -2.7356 83.1989 0.0007 6.2440 0.0015
# 4 0.0000 0.0000 0.0007 31.5948 0.0001 -3.9847
# 5 3.6471 5.8972 6.2440 0.0001 36.4192 0.0003
# 6 0.0000 0.0002 0.0015 -3.9847 0.0003 31.9652
#
#
#
# Elastic Compliance Matrix: (Units=1/GPa)
#
#
# Indices 1 2 3 4 5 6 
#
# 1 0.013100 -0.003960 -0.007261 0.000000 0.000574 0.000000
# 2 -0.003960 0.011619 0.002671 0.000000 -0.001943 0.000000
# 3 -0.007261 0.002671 0.016223 0.000000 -0.002487 -0.000001
# 4 0.000000 0.000000 0.000000 0.032156 0.000000 0.004009
# 5 0.000574 -0.001943 -0.002487 0.000000 0.028141 0.000000
# 6 0.000000 0.000000 -0.000001 0.004009 0.000000 0.031784
#
#
# Mechanical properties :
#
#
# Convention : Reuss Voigt Hill
#
# Bulk Modulus (GPa) = 41.94601 47.71543 44.83072
# Shear Modulus (GPa) = 31.63094 34.65472 33.14283
#
# Velocity S-wave (km/s) = 3.58035 3.74758 3.66492
# Velocity P-wave (km/s) = 5.83876 6.16954 6.00643
#
# Compressibility (1/GPa) = 0.02384017
#
# Stress axis : x y z
#
# Youngs Moduli (GPa) = 76.33340 86.06328 61.64191
#
# Poissons Ratio (x) = 0.34084 0.44761
# Poissons Ratio (y) = 0.30231 -0.16462
# Poissons Ratio (z) = 0.55429 -0.22984
#
# Static dielectric constant tensor:
#      x y z
#    x 1.949900 0.000000 0.009640 
#    y 0.000000 2.004790 0.000000 
#    z 0.009640 0.000000 2.035620 
# 
# From -- ./inp_files/8616.got.cif
#   From: 2010.05.17/outbox.cif.g08.bks.cpg/sg4_5_cif.got.tgz:8616.got - 2010.06.03 18:43:04.
