data_PCOD9118727
_publ_section_title
;
Structure prediction by ZEFSAII (Michael W. Deem and Ramdas Pophale) SiO2 
 PCOD9118727
Probable space group: P 21
;
_chemical_formula_sum "Si O2"
_cell_formula_units_Z 16
_cell_length_a 8.819299
_cell_length_b 7.469498
_cell_length_c 9.220911
_cell_angle_alpha 90.000000
_cell_angle_beta 97.561556
_cell_angle_gamma 90.000000
_cell_volume 602.152087
_symmetry_space_group_name_H-M "P 21"
_symmetry_group_IT_number 4
_symmetry_cell_setting 'monoclinic'
loop_
_space_group_symop_operation_xyz
x,y,z
-x,1/2+y,-z
loop_
_atom_site_type_symbol
_atom_site_label
_atom_site_fract_x
_atom_site_fract_y
_atom_site_fract_z
Si Si1 0.112763 0.584840 0.823341
Si Si2 0.449167 0.569809 0.547418
Si Si3 0.337340 0.179129 0.050235
Si Si4 0.744460 0.409288 0.471047
Si Si5 0.949499 0.484078 0.075905
Si Si6 0.034900 0.196094 0.488266
Si Si7 0.227528 0.442726 0.290324
Si Si8 0.431819 0.401449 0.821954
O O1 0.103491 0.791491 0.872718
O O2 0.281602 0.507138 0.857243
O O3 0.049961 0.585807 0.652381
O O4 0.003611 0.476349 0.916260
O O5 0.629106 0.535414 0.546997
O O6 0.376247 0.755749 0.602537
O O7 0.363263 0.549588 0.383725
O O8 0.406829 0.402742 0.646926
O O9 0.447214 0.239697 0.933628
O O10 0.187577 0.120601 0.946401
O O11 0.296686 0.316870 0.172500
O O12 0.416553 0.015204 0.138507
O O13 0.851374 0.563846 0.409066
O O14 0.886202 0.285573 0.544174
O O15 0.095455 0.544811 0.186529
O O16 0.137823 0.334380 0.406438
#
# Coordination Sequence:
#
# PCOD9118727 Si02
#       8
#     2   2   2   2   2   2   2   2
#     4  11  22  44  73 108 148 191 257 318 385 455
#     4  12  28  49  77 111 162 206 258 327 399 479
#     4  12  25  48  77 107 154 195 259 322 389 464
#     4  12  26  50  75 111 157 208 260 318 401 464
#     4  11  22  46  76 108 147 200 252 322 378 467
#     4  11  24  45  77 108 154 201 261 325 377 477
#     4  11  25  50  75 112 153 206 259 323 392 474
#     4  12  26  48  72 113 151 203 252 321 393 468
#
# _framework density 26.571362000000001
#
# number of rings (size 3 to 8) (size 9 to 14) (size 15 to 20)
#    0.000    0.500    5.000    3.750    0.000    3.000 
#    9.000    0.000    0.000    0.000    0.000    0.000 
#    0.000    0.000    0.000    0.000    0.000    0.000 
#
# Total GULP energy -89382.979223 kJ/mol
# GULP energy per Si atom -5586.436201 kJ/mol
# Density = 2.651088 g / cm^3
# Si number density = 26.571362 Si / 1000 Ang^3
#
#
#
# Elastic Constant Matrix: (Units=GPa)
#
#
# Indices 1 2 3 4 5 6 
#
# 1 127.6999 35.2509 30.1928 0.0000 -9.4298 0.0000
# 2 35.2509 72.2406 24.4070 0.0000 5.0381 0.0000
# 3 30.1928 24.4070 80.3274 0.0000 23.6886 0.0000
# 4 0.0000 0.0000 0.0000 37.8454 0.0000 10.7643
# 5 -9.4298 5.0381 23.6886 0.0000 33.2325 0.0000
# 6 0.0000 0.0000 0.0000 10.7643 0.0000 69.7248
#
#
#
# Elastic Compliance Matrix: (Units=1/GPa)
#
#
# Indices 1 2 3 4 5 6 
#
# 1 0.010615 -0.004034 -0.004853 0.000000 0.007083 0.000000
# 2 -0.004034 0.017002 -0.003231 0.000000 -0.001419 0.000000
# 3 -0.004853 -0.003231 0.019646 0.000000 -0.014891 0.000000
# 4 0.000000 0.000000 0.000000 0.027637 0.000000 -0.004267
# 5 0.007083 -0.001419 -0.014891 0.000000 0.042931 0.000000
# 6 0.000000 0.000000 0.000000 -0.004267 0.000000 0.015001
#
#
# Mechanical properties :
#
#
# Convention : Reuss Voigt Hill
#
# Bulk Modulus (GPa) = 43.42748 51.10771 47.26759
# Shear Modulus (GPa) = 30.35040 40.85504 35.60272
#
# Velocity S-wave (km/s) = 3.38334 3.92543 3.66442
# Velocity P-wave (km/s) = 5.62511 6.31040 5.97759
#
# Compressibility (1/GPa) = 0.02302690
#
# Stress axis : x y z
#
# Youngs Moduli (GPa) = 94.20800 58.81756 50.90032
#
# Poissons Ratio (x) = 0.23727 0.24701
# Poissons Ratio (y) = 0.38004 0.16447
# Poissons Ratio (z) = 0.45717 0.19005
#
# Static dielectric constant tensor:
#      x y z
#    x 2.067160 0.000000 -0.056350 
#    y 0.000000 2.222000 0.000000 
#    z -0.056350 0.000000 2.063870 
# 
# From -- ./inp_files/5824.got.cif
#   From: 2010.05.17/outbox.cif.g08.bks.cpg/sg4_3_cif.got.tgz:5824.got - 2010.06.03 18:43:04.
