data_PCOD9118383
_publ_section_title
;
Structure prediction by ZEFSAII (Michael W. Deem and Ramdas Pophale) SiO2 
 PCOD9118383
Probable space group: P 21
;
_chemical_formula_sum "Si O2"
_cell_formula_units_Z 14
_cell_length_a 14.186063
_cell_length_b 5.222575
_cell_length_c 18.610725
_cell_angle_alpha 90.000000
_cell_angle_beta 22.957805
_cell_angle_gamma 90.000000
_cell_volume 537.815882
_symmetry_space_group_name_H-M "P 21"
_symmetry_group_IT_number 4
_symmetry_cell_setting 'monoclinic'
loop_
_space_group_symop_operation_xyz
x,y,z
-x,1/2+y,-z
loop_
_atom_site_type_symbol
_atom_site_label
_atom_site_fract_x
_atom_site_fract_y
_atom_site_fract_z
Si Si1 0.597337 0.296770 0.905461
Si Si2 0.030399 0.633931 0.571891
Si Si3 0.344392 0.673525 0.709543
Si Si4 0.884761 0.394374 0.992649
Si Si5 0.267646 0.144039 0.369744
Si Si6 0.317688 0.309784 0.968582
Si Si7 0.837386 0.496493 0.301357
O O1 0.522516 0.201218 0.878391
O O2 0.834478 0.466030 0.753636
O O3 0.405470 0.529649 0.050968
O O4 0.139598 0.915928 0.505018
O O5 0.882031 0.652263 0.600417
O O6 0.241645 0.426070 0.418393
O O7 0.135255 0.460670 0.858002
O O8 0.615752 0.579437 0.506134
O O9 0.278495 0.841729 0.684797
O O10 0.298221 0.805513 0.817482
O O11 0.003762 0.219567 0.846724
O O12 0.759440 0.635399 0.043371
O O13 0.537659 0.056963 0.162298
O O14 0.052452 0.344508 0.190030
#
# Coordination Sequence:
#
# PCOD9118383 Si02
#       7
#     2   2   2   2   2   2   2
#     4  11  24  44  70  97 144 201 246 305 381 451
#     4   9  18  35  62  90 118 176 234 283 346 432
#     4  11  22  43  72 100 140 194 236 288 377 453
#     4  11  23  42  71 104 141 186 242 297 367 451
#     4   9  18  36  62  89 125 170 228 288 352 412
#     4  10  26  42  66 102 144 186 243 313 371 434
#     4  11  23  42  71 104 146 187 239 304 366 455
#
# _framework density 26.031213000000001
#
# number of rings (size 3 to 8) (size 9 to 14) (size 15 to 20)
#    0.000    1.714    2.857    0.857    4.000    2.286 
#    2.571    2.857    0.000    0.000    0.000    0.000 
#    0.000    0.000    0.000    0.000    0.000    0.000 
#
# Total GULP energy -78173.566493 kJ/mol
# GULP energy per Si atom -5583.826178 kJ/mol
# Density = 2.597196 g / cm^3
# Si number density = 26.031213 Si / 1000 Ang^3
#
#
#
# Elastic Constant Matrix: (Units=GPa)
#
#
# Indices 1 2 3 4 5 6 
#
# 1 65.1875 21.9495 54.4288 0.0000 -1.8346 0.0000
# 2 21.9495 63.1534 18.3315 0.0000 -3.1191 0.0000
# 3 54.4288 18.3315 198.3899 0.0000 -5.4161 0.0000
# 4 0.0000 0.0000 0.0000 50.9131 0.0000 1.5108
# 5 -1.8346 -3.1191 -5.4161 0.0000 37.0090 0.0000
# 6 0.0000 0.0000 0.0000 1.5108 0.0000 34.4807
#
#
#
# Elastic Compliance Matrix: (Units=1/GPa)
#
#
# Indices 1 2 3 4 5 6 
#
# 1 0.021933 -0.006048 -0.005465 0.000000 -0.000222 0.000000
# 2 -0.006048 0.017988 0.000030 0.000000 0.001221 0.000000
# 3 -0.005465 0.000030 0.006556 0.000000 0.000691 0.000000
# 4 0.000000 0.000000 0.000000 0.019667 0.000000 -0.000862
# 5 -0.000222 0.001221 0.000691 0.000000 0.027213 0.000000
# 6 0.000000 0.000000 0.000000 -0.000862 0.000000 0.029040
#
#
# Mechanical properties :
#
#
# Convention : Reuss Voigt Hill
#
# Bulk Modulus (GPa) = 42.52984 57.35005 49.93995
# Shear Modulus (GPa) = 32.63736 39.94864 36.29300
#
# Velocity S-wave (km/s) = 3.54471 3.92170 3.73796
# Velocity P-wave (km/s) = 5.75559 6.52575 6.15273
#
# Compressibility (1/GPa) = 0.02351290
#
# Stress axis : x y z
#
# Youngs Moduli (GPa) = 45.59276 55.59300 152.53470
#
# Poissons Ratio (x) = 0.33622 0.83356
# Poissons Ratio (y) = 0.27574 -0.00465
# Poissons Ratio (z) = 0.24915 -0.00169
#
# Static dielectric constant tensor:
#      x y z
#    x 2.089060 0.000000 0.077330 
#    y 0.000000 2.150790 0.000000 
#    z 0.077330 0.000000 2.147630 
# 
# From -- ./inp_files/15788.got.cif
#   From: 2010.05.17/outbox.cif.g08.bks.cpg/sg4_8_cif.got.tgz:15788.got - 2010.06.03 18:43:04.
