data_PCOD9118613
_publ_section_title
;
Structure prediction by ZEFSAII (Michael W. Deem and Ramdas Pophale) SiO2 
 PCOD9118613
Probable space group: P 21
;
_chemical_formula_sum "Si O2"
_cell_formula_units_Z 16
_cell_length_a 9.103227
_cell_length_b 13.047924
_cell_length_c 7.626451
_cell_angle_alpha 90.000000
_cell_angle_beta 47.345711
_cell_angle_gamma 90.000000
_cell_volume 666.216857
_symmetry_space_group_name_H-M "P 21"
_symmetry_group_IT_number 4
_symmetry_cell_setting 'monoclinic'
loop_
_space_group_symop_operation_xyz
x,y,z
-x,1/2+y,-z
loop_
_atom_site_type_symbol
_atom_site_label
_atom_site_fract_x
_atom_site_fract_y
_atom_site_fract_z
Si Si1 0.008696 0.085150 0.956449
Si Si2 0.633291 0.820995 0.604091
Si Si3 0.430195 0.601508 0.748157
Si Si4 0.323549 0.807936 0.292874
Si Si5 0.695317 0.434120 0.357207
Si Si6 0.290067 0.171858 0.009615
Si Si7 0.033347 0.189589 0.576128
Si Si8 0.512049 0.981544 0.949824
O O1 0.012253 0.104603 0.742900
O O2 0.109429 0.973556 0.902908
O O3 0.136482 0.162638 0.973715
O O4 0.776181 0.098246 0.190014
O O5 0.504024 0.715781 0.734509
O O6 0.491307 0.880895 0.586370
O O7 0.854651 0.778326 0.402743
O O8 0.659717 0.904084 0.736559
O O9 0.600528 0.539883 0.507825
O O10 0.406782 0.536128 0.943886
O O11 0.247473 0.855162 0.535965
O O12 0.177411 0.724803 0.329455
O O13 0.548150 0.763019 0.133977
O O14 0.337303 0.904531 0.151755
O O15 0.171435 0.170083 0.292122
O O16 0.424739 0.069471 0.898591
#
# Coordination Sequence:
#
# PCOD9118613 Si02
#       8
#     2   2   2   2   2   2   2   2
#     4  12  26  46  74 103 144 190 237 297 360 427
#     4  12  23  45  72 103 147 186 236 304 359 424
#     4  11  26  49  69 104 148 187 240 305 358 432
#     4  11  26  45  73 104 142 189 239 298 358 433
#     4  11  26  46  70 106 148 185 244 300 357 434
#     4  12  25  47  71 106 144 187 240 298 354 429
#     4  12  25  46  73 103 141 194 235 294 368 423
#     4  11  21  46  70  97 146 182 233 300 356 414
#
# _framework density 24.016203999999998
#
# number of rings (size 3 to 8) (size 9 to 14) (size 15 to 20)
#    0.000    0.500    5.000    3.000    3.500    1.000 
#    6.750    0.000    0.000    0.000    0.000    0.000 
#    0.000    0.000    0.000    0.000    0.000    0.000 
#
# Total GULP energy -89380.765542 kJ/mol
# GULP energy per Si atom -5586.297846 kJ/mol
# Density = 2.396154 g / cm^3
# Si number density = 24.016204 Si / 1000 Ang^3
#
#
#
# Elastic Constant Matrix: (Units=GPa)
#
#
# Indices 1 2 3 4 5 6 
#
# 1 124.5259 13.8263 19.7889 0.0000 -20.5276 0.0000
# 2 13.8263 91.4459 17.0914 0.0000 1.7864 0.0000
# 3 19.7889 17.0914 37.5273 0.0000 -9.2832 0.0000
# 4 0.0000 0.0000 0.0000 29.9112 0.0000 2.0093
# 5 -20.5276 1.7864 -9.2832 0.0000 37.9960 0.0000
# 6 0.0000 0.0000 0.0000 2.0093 0.0000 32.9999
#
#
#
# Elastic Compliance Matrix: (Units=1/GPa)
#
#
# Indices 1 2 3 4 5 6 
#
# 1 0.009383 -0.000845 -0.003511 0.000000 0.004251 0.000000
# 2 -0.000845 0.012176 -0.005698 0.000000 -0.002421 0.000000
# 3 -0.003511 -0.005698 0.032665 0.000000 0.006352 0.000000
# 4 0.000000 0.000000 0.000000 0.033570 0.000000 -0.002044
# 5 0.004251 -0.002421 0.006352 0.000000 0.030281 0.000000
# 6 0.000000 0.000000 0.000000 -0.002044 0.000000 0.030428
#
#
# Mechanical properties :
#
#
# Convention : Reuss Voigt Hill
#
# Bulk Modulus (GPa) = 29.31362 39.43470 34.37416
# Shear Modulus (GPa) = 27.78028 33.70091 30.74059
#
# Velocity S-wave (km/s) = 3.40476 3.75007 3.58158
# Velocity P-wave (km/s) = 5.26202 5.93350 5.60782
#
# Compressibility (1/GPa) = 0.03411384
#
# Stress axis : x y z
#
# Youngs Moduli (GPa) = 106.57449 82.13138 30.61347
#
# Poissons Ratio (x) = 0.06944 0.10749
# Poissons Ratio (y) = 0.09011 0.17445
# Poissons Ratio (z) = 0.37421 0.46802
#
# Static dielectric constant tensor:
#      x y z
#    x 1.937000 0.000000 0.039180 
#    y 0.000000 1.888780 0.000000 
#    z 0.039180 0.000000 2.008830 
# 
# From -- ./inp_files/6396.got.cif
#   From: 2010.05.17/outbox.cif.g08.bks.cpg/sg4_4_cif.got.tgz:6396.got - 2010.06.03 18:43:04.
