data_PCOD9118559
_publ_section_title
;
Structure prediction by ZEFSAII (Michael W. Deem and Ramdas Pophale) SiO2 
 PCOD9118559
Probable space group: P 21
;
_chemical_formula_sum "Si O2"
_cell_formula_units_Z 16
_cell_length_a 7.483948
_cell_length_b 8.051916
_cell_length_c 16.664593
_cell_angle_alpha 90.000000
_cell_angle_beta 36.869875
_cell_angle_gamma 90.000000
_cell_volume 602.525913
_symmetry_space_group_name_H-M "P 21"
_symmetry_group_IT_number 4
_symmetry_cell_setting 'monoclinic'
loop_
_space_group_symop_operation_xyz
x,y,z
-x,1/2+y,-z
loop_
_atom_site_type_symbol
_atom_site_label
_atom_site_fract_x
_atom_site_fract_y
_atom_site_fract_z
Si Si1 0.328113 0.018790 0.827991
Si Si2 0.961564 0.165495 0.102550
Si Si3 0.890478 0.197312 0.584800
Si Si4 0.036826 0.680433 0.184044
Si Si5 0.911013 0.222960 0.387744
Si Si6 0.556940 0.498449 0.787265
Si Si7 0.398927 0.375868 0.021259
Si Si8 0.332879 0.086181 0.539245
O O1 0.678102 0.047089 0.690852
O O2 0.174232 0.122589 0.811517
O O3 0.212530 0.832476 0.862236
O O4 0.205626 0.102628 0.951719
O O5 0.699320 0.031642 0.186570
O O6 0.153483 0.227477 0.109660
O O7 0.859323 0.215977 0.501966
O O8 0.772529 0.360357 0.672266
O O9 0.222501 0.154568 0.493606
O O10 0.266814 0.823950 0.077566
O O11 0.832981 0.700788 0.334799
O O12 0.262131 0.526833 0.119136
O O13 0.681972 0.096977 0.427508
O O14 0.797155 0.402689 0.401148
O O15 0.247412 0.158982 0.259124
O O16 0.417616 0.435258 0.921115
#
# Coordination Sequence:
#
# PCOD9118559 Si02
#       8
#     2   2   2   2   2   2   2   2
#     4  11  21  40  71  98 145 178 232 285 350 423
#     4  11  21  42  67 105 134 186 226 288 355 414
#     4  12  24  49  72 103 140 190 238 291 349 413
#     4  11  24  44  68 105 141 182 228 293 357 417
#     4  12  29  47  74 106 139 193 242 290 352 415
#     4  12  24  45  73 102 141 186 239 288 353 422
#     4  11  25  43  69 105 139 181 228 290 359 427
#     4  12  26  50  74 102 147 184 237 303 343 421
#
# _framework density 26.554874999999999
#
# number of rings (size 3 to 8) (size 9 to 14) (size 15 to 20)
#    0.000    0.500    6.250    2.250    1.750    3.000 
#    9.000    0.000    0.000    0.000    0.000    0.000 
#    0.000    0.000    0.000    0.000    0.000    0.000 
#
# Total GULP energy -89736.631564 kJ/mol
# GULP energy per Si atom -5608.539473 kJ/mol
# Density = 2.649443 g / cm^3
# Si number density = 26.554875 Si / 1000 Ang^3
#
#
#
# Elastic Constant Matrix: (Units=GPa)
#
#
# Indices 1 2 3 4 5 6 
#
# 1 102.2217 8.1112 31.4565 0.0000 -32.1921 0.0000
# 2 8.1112 71.1178 2.9543 0.0000 -1.5755 0.0000
# 3 31.4565 2.9543 85.8525 0.0000 -13.2049 0.0000
# 4 0.0000 0.0000 0.0000 38.8529 0.0000 -14.8226
# 5 -32.1921 -1.5755 -13.2049 0.0000 42.4911 0.0000
# 6 0.0000 0.0000 0.0000 -14.8226 0.0000 42.7832
#
#
#
# Elastic Compliance Matrix: (Units=1/GPa)
#
#
# Indices 1 2 3 4 5 6 
#
# 1 0.013957 -0.001233 -0.003625 0.000000 0.009402 0.000000
# 2 -0.001233 0.014196 -0.000104 0.000000 -0.000440 0.000000
# 3 -0.003625 -0.000104 0.013187 0.000000 0.001348 0.000000
# 4 0.000000 0.000000 0.000000 0.029658 0.000000 0.010275
# 5 0.009402 -0.000440 0.001348 0.000000 0.031060 0.000000
# 6 0.000000 0.000000 0.000000 0.010275 0.000000 0.026934
#
#
# Mechanical properties :
#
#
# Convention : Reuss Voigt Hill
#
# Bulk Modulus (GPa) = 31.83205 38.24843 35.04024
# Shear Modulus (GPa) = 33.46962 39.27010 36.36986
#
# Velocity S-wave (km/s) = 3.55405 3.84973 3.70484
# Velocity P-wave (km/s) = 5.37169 5.84768 5.61473
#
# Compressibility (1/GPa) = 0.03141488
#
# Stress axis : x y z
#
# Youngs Moduli (GPa) = 71.64893 70.44045 75.83174
#
# Poissons Ratio (x) = 0.08685 0.27492
# Poissons Ratio (y) = 0.08834 0.00792
# Poissons Ratio (z) = 0.25975 0.00736
#
# Static dielectric constant tensor:
#      x y z
#    x 2.028210 0.000000 -0.015210 
#    y 0.000000 2.129270 0.000000 
#    z -0.015210 0.000000 2.023890 
# 
# From -- ./inp_files/15618.got.cif
#   From: 2010.05.17/outbox.cif.g08.bks.cpg/sg4_8_cif.got.tgz:15618.got - 2010.06.03 18:43:04.
