data_PCOD9118000
_publ_section_title
;
Structure prediction by ZEFSAII (Michael W. Deem and Ramdas Pophale) SiO2 
 PCOD9118000
Probable space group: P 21
;
_chemical_formula_sum "Si O2"
_cell_formula_units_Z 12
_cell_length_a 7.670900
_cell_length_b 4.952016
_cell_length_c 16.941149
_cell_angle_alpha 90.000000
_cell_angle_beta 44.828575
_cell_angle_gamma 90.000000
_cell_volume 453.683464
_symmetry_space_group_name_H-M "P 21"
_symmetry_group_IT_number 4
_symmetry_cell_setting 'monoclinic'
loop_
_space_group_symop_operation_xyz
x,y,z
-x,1/2+y,-z
loop_
_atom_site_type_symbol
_atom_site_label
_atom_site_fract_x
_atom_site_fract_y
_atom_site_fract_z
Si Si1 0.021074 0.576990 0.041504
Si Si2 0.856505 0.190082 0.281692
Si Si3 0.925817 0.005111 0.656514
Si Si4 0.208267 0.516072 0.531459
Si Si5 0.555877 0.536725 0.276732
Si Si6 0.655614 0.683507 0.958517
O O1 0.225677 0.382513 0.014173
O O2 0.890977 0.347193 0.029055
O O3 0.809289 0.676145 0.169729
O O4 0.965291 0.463764 0.290365
O O5 0.718347 0.053318 0.399893
O O6 0.672193 0.250958 0.269588
O O7 0.116940 0.075636 0.168021
O O8 0.103118 0.218292 0.557451
O O9 0.641775 0.064460 0.729970
O O10 0.973406 0.713948 0.602725
O O11 0.405435 0.607277 0.404276
O O12 0.510623 0.414833 0.030084
#
# Coordination Sequence:
#
# PCOD9118000 Si02
#       6
#     2   2   2   2   2   2
#     4  11  27  46  68 103 133 181 233 281 342 403
#     4   9  26  44  67 104 131 181 225 278 341 404
#     4  10  24  43  67 100 136 176 222 275 337 404
#     4  10  24  44  68  99 139 171 226 273 345 398
#     4  11  24  47  70 101 139 182 224 286 338 412
#     4  11  25  44  72  97 138 179 230 283 341 403
#
# _framework density 26.450157999999998
#
# number of rings (size 3 to 8) (size 9 to 14) (size 15 to 20)
#    1.000    0.667    0.000    2.000    9.333    2.667 
#    6.000    0.000    0.000    0.000    0.000    0.000 
#    0.000    0.000    0.000    0.000    0.000    0.000 
#
# Total GULP energy -66917.089909 kJ/mol
# GULP energy per Si atom -5576.424159 kJ/mol
# Density = 2.638996 g / cm^3
# Si number density = 26.450158 Si / 1000 Ang^3
#
#
#
# Elastic Constant Matrix: (Units=GPa)
#
#
# Indices 1 2 3 4 5 6 
#
# 1 115.8215 28.6161 10.6808 0.0000 -19.1104 0.0000
# 2 28.6161 107.4098 17.6078 0.0000 -5.5185 0.0000
# 3 10.6808 17.6078 110.9899 0.0000 3.6879 0.0000
# 4 0.0000 0.0000 0.0000 14.0137 0.0000 -10.8843
# 5 -19.1104 -5.5185 3.6879 0.0000 24.0377 0.0000
# 6 0.0000 0.0000 0.0000 -10.8843 0.0000 20.8532
#
#
#
# Elastic Compliance Matrix: (Units=1/GPa)
#
#
# Indices 1 2 3 4 5 6 
#
# 1 0.010607 -0.002260 -0.000930 0.000000 0.008057 0.000000
# 2 -0.002260 0.010185 -0.001424 0.000000 0.000760 0.000000
# 3 -0.000930 -0.001424 0.009409 0.000000 -0.002510 0.000000
# 4 0.000000 0.000000 0.000000 0.120010 0.000000 0.062639
# 5 0.008057 0.000760 -0.002510 0.000000 0.048566 0.000000
# 6 0.000000 0.000000 0.000000 0.062639 0.000000 0.080649
#
#
# Mechanical properties :
#
#
# Convention : Reuss Voigt Hill
#
# Bulk Modulus (GPa) = 47.67759 49.78119 48.72939
# Shear Modulus (GPa) = 16.91224 30.26868 23.59046
#
# Velocity S-wave (km/s) = 2.53138 3.38652 2.98968
# Velocity P-wave (km/s) = 5.15834 5.84405 5.51187
#
# Compressibility (1/GPa) = 0.02097422
#
# Stress axis : x y z
#
# Youngs Moduli (GPa) = 94.27358 98.18788 106.28632
#
# Poissons Ratio (x) = 0.22187 0.09885
# Poissons Ratio (y) = 0.21302 0.15130
# Poissons Ratio (z) = 0.08768 0.13977
#
# Static dielectric constant tensor:
#      x y z
#    x 2.279450 0.000000 0.045980 
#    y 0.000000 2.044890 0.000000 
#    z 0.045980 0.000000 2.044720 
# 
# From -- ./inp_files/9983.got.cif
#   From: 2010.05.17/outbox.cif.g08.bks.cpg/sg4_5_cif.got.tgz:9983.got - 2010.06.03 18:43:04.
