data_PCOD9118436
_publ_section_title
;
Structure prediction by ZEFSAII (Michael W. Deem and Ramdas Pophale) SiO2 
 PCOD9118436
Probable space group: P 21
;
_chemical_formula_sum "Si O2"
_cell_formula_units_Z 10
_cell_length_a 5.032537
_cell_length_b 5.194813
_cell_length_c 14.717664
_cell_angle_alpha 90.000000
_cell_angle_beta 73.356527
_cell_angle_gamma 90.000000
_cell_volume 368.645662
_symmetry_space_group_name_H-M "P 21"
_symmetry_group_IT_number 4
_symmetry_cell_setting 'monoclinic'
loop_
_space_group_symop_operation_xyz
x,y,z
-x,1/2+y,-z
loop_
_atom_site_type_symbol
_atom_site_label
_atom_site_fract_x
_atom_site_fract_y
_atom_site_fract_z
Si Si1 0.677251 0.290880 0.841596
Si Si2 0.327163 0.379096 0.514948
Si Si3 0.185398 0.519770 0.995706
Si Si4 0.700117 0.929848 0.685951
Si Si5 0.159201 0.593313 0.718670
O O1 0.976495 0.426126 0.805072
O O2 0.698593 0.067572 0.914552
O O3 0.596272 0.177714 0.751011
O O4 0.444393 0.476933 0.904266
O O5 0.581222 0.583331 0.498024
O O6 0.213450 0.459933 0.427545
O O7 0.165476 0.435211 0.622937
O O8 0.010178 0.771416 0.987463
O O9 0.456800 0.715951 0.711054
O O10 0.964784 0.835583 0.714840
#
# Coordination Sequence:
#
# PCOD9118436 Si02
#       5
#     2   2   2   2   2
#     4  12  32  52  84 124 166 224 282 364 416 516
#     4  10  26  52  80 124 172 222 270 338 410 500
#     4  12  32  56  86 118 168 220 292 356 438 504
#     4  11  30  50  85 124 171 220 282 339 422 501
#     4  11  30  50  85 124 171 220 282 339 422 501
#
# _framework density 27.126318000000001
#
# number of rings (size 3 to 8) (size 9 to 14) (size 15 to 20)
#    0.000    0.800    0.000    1.200   28.000    1.600 
#    0.000    0.000    0.000    0.000    0.000    0.000 
#    0.000    0.000    0.000    0.000    0.000    0.000 
#
# Total GULP energy -56160.371001 kJ/mol
# GULP energy per Si atom -5616.037100 kJ/mol
# Density = 2.706458 g / cm^3
# Si number density = 27.126318 Si / 1000 Ang^3
#
#
#
# Elastic Constant Matrix: (Units=GPa)
#
#
# Indices 1 2 3 4 5 6 
#
# 1 75.9176 53.6835 37.8139 0.0000 -18.2103 0.0000
# 2 53.6835 123.7771 48.7932 0.0000 -15.2449 0.0000
# 3 37.8139 48.7932 169.4323 0.0000 -22.8251 0.0000
# 4 0.0000 0.0000 0.0000 63.5281 0.0000 5.1476
# 5 -18.2103 -15.2449 -22.8251 0.0000 51.2360 0.0000
# 6 0.0000 0.0000 0.0000 5.1476 0.0000 49.1254
#
#
#
# Elastic Compliance Matrix: (Units=1/GPa)
#
#
# Indices 1 2 3 4 5 6 
#
# 1 0.020495 -0.007661 -0.001802 0.000000 0.004202 0.000000
# 2 -0.007661 0.012109 -0.001765 0.000000 0.000094 0.000000
# 3 -0.001802 -0.001765 0.007080 0.000000 0.001989 0.000000
# 4 0.000000 0.000000 0.000000 0.015876 0.000000 -0.001664
# 5 0.004202 0.000094 0.001989 0.000000 0.021925 0.000000
# 6 0.000000 0.000000 0.000000 -0.001664 0.000000 0.020530
#
#
# Mechanical properties :
#
#
# Convention : Reuss Voigt Hill
#
# Bulk Modulus (GPa) = 58.04110 72.18980 65.11545
# Shear Modulus (GPa) = 39.61541 48.03366 43.82454
#
# Velocity S-wave (km/s) = 3.82567 4.21258 4.02378
# Velocity P-wave (km/s) = 6.39980 7.09446 6.75606
#
# Compressibility (1/GPa) = 0.01722917
#
# Stress axis : x y z
#
# Youngs Moduli (GPa) = 48.79245 82.58353 141.23734
#
# Poissons Ratio (x) = 0.63268 0.25447
# Poissons Ratio (y) = 0.37380 0.24924
# Poissons Ratio (z) = 0.08791 0.14573
#
# Static dielectric constant tensor:
#      x y z
#    x 2.091000 0.000000 0.055440 
#    y 0.000000 2.096340 0.000000 
#    z 0.055440 0.000000 2.127390 
# 
# From -- ./inp_files/13158.got.cif
#   From: 2010.05.17/outbox.cif.g08.bks.cpg/sg4_7_cif.got.tgz:13158.got - 2010.06.03 18:43:04.
