data_PCOD9118018
_publ_section_title
;
Structure prediction by ZEFSAII (Michael W. Deem and Ramdas Pophale) SiO2 
 PCOD9118018
Probable space group: P 21
;
_chemical_formula_sum "Si O2"
_cell_formula_units_Z 14
_cell_length_a 8.309472
_cell_length_b 12.406778
_cell_length_c 5.130304
_cell_angle_alpha 90.000000
_cell_angle_beta 87.877909
_cell_angle_gamma 90.000000
_cell_volume 528.539677
_symmetry_space_group_name_H-M "P 21"
_symmetry_group_IT_number 4
_symmetry_cell_setting 'monoclinic'
loop_
_space_group_symop_operation_xyz
x,y,z
-x,1/2+y,-z
loop_
_atom_site_type_symbol
_atom_site_label
_atom_site_fract_x
_atom_site_fract_y
_atom_site_fract_z
Si Si1 0.352459 0.890300 0.564175
Si Si2 0.301751 0.117364 0.372031
Si Si3 0.962868 0.096233 0.163202
Si Si4 0.947376 0.266823 0.581677
Si Si5 0.617839 0.194198 0.067815
Si Si6 0.380115 0.292480 0.735211
Si Si7 0.096517 0.360856 0.056259
O O1 0.225587 0.823820 0.398418
O O2 0.359110 0.816211 0.820234
O O3 0.528949 0.884792 0.426883
O O4 0.294858 0.012357 0.554917
O O5 0.481621 0.133205 0.248535
O O6 0.271074 0.222936 0.548274
O O7 0.160987 0.112071 0.162027
O O8 0.935941 0.147491 0.457916
O O9 0.789958 0.137739 0.052694
O O10 0.952151 0.972890 0.071346
O O11 0.013652 0.273282 0.869375
O O12 0.032356 0.340807 0.349086
O O13 0.516979 0.208694 0.812112
O O14 0.283932 0.339683 0.985499
#
# Coordination Sequence:
#
# PCOD9118018 Si02
#       7
#     2   2   2   2   2   2   2
#     4  10  24  43  70  99 145 190 245 306 379 441
#     4  11  22  45  71 103 144 192 248 310 381 444
#     4  11  24  46  76 106 148 198 254 305 385 447
#     4  11  26  46  71 112 149 190 255 312 368 457
#     4  10  25  45  66 109 142 194 246 319 366 464
#     4  11  25  46  72 101 152 191 250 314 377 450
#     4  12  26  47  76 110 150 199 252 312 380 449
#
# _framework density 26.488081999999999
#
# number of rings (size 3 to 8) (size 9 to 14) (size 15 to 20)
#    0.000    1.143    2.857    1.714    6.000    5.714 
#    5.143    0.000    0.000    0.000    0.000    0.000 
#    0.000    0.000    0.000    0.000    0.000    0.000 
#
# Total GULP energy -78148.444058 kJ/mol
# GULP energy per Si atom -5582.031718 kJ/mol
# Density = 2.642779 g / cm^3
# Si number density = 26.488082 Si / 1000 Ang^3
#
#
#
# Elastic Constant Matrix: (Units=GPa)
#
#
# Indices 1 2 3 4 5 6 
#
# 1 161.5518 51.3981 48.8881 0.0000 0.3165 0.0000
# 2 51.3981 106.6465 17.5044 0.0000 8.4355 0.0000
# 3 48.8881 17.5044 66.8971 0.0000 15.9380 0.0000
# 4 0.0000 0.0000 0.0000 14.6500 0.0000 16.6944
# 5 0.3165 8.4355 15.9380 0.0000 65.1133 0.0000
# 6 0.0000 0.0000 0.0000 16.6944 0.0000 32.1219
#
#
#
# Elastic Compliance Matrix: (Units=1/GPa)
#
#
# Indices 1 2 3 4 5 6 
#
# 1 0.009218 -0.003568 -0.006268 0.000000 0.001952 0.000000
# 2 -0.003568 0.011207 0.000018 0.000000 -0.001439 0.000000
# 3 -0.006268 0.000018 0.020726 0.000000 -0.005045 0.000000
# 4 0.000000 0.000000 0.000000 0.167403 0.000000 -0.087003
# 5 0.001952 -0.001439 -0.005045 0.000000 0.016770 0.000000
# 6 0.000000 0.000000 0.000000 -0.087003 0.000000 0.076349
#
#
# Mechanical properties :
#
#
# Convention : Reuss Voigt Hill
#
# Bulk Modulus (GPa) = 46.47857 63.40851 54.94354
# Shear Modulus (GPa) = 15.22154 36.86403 26.04279
#
# Velocity S-wave (km/s) = 2.39980 3.73463 3.13899
# Velocity P-wave (km/s) = 5.02631 6.52588 5.82455
#
# Compressibility (1/GPa) = 0.02151529
#
# Stress axis : x y z
#
# Youngs Moduli (GPa) = 108.48153 89.22707 48.24821
#
# Poissons Ratio (x) = 0.31839 0.30241
# Poissons Ratio (y) = 0.38709 -0.00087
# Poissons Ratio (z) = 0.67995 -0.00160
#
# Static dielectric constant tensor:
#      x y z
#    x 2.195920 0.000000 -0.011010 
#    y 0.000000 2.097270 0.000000 
#    z -0.011010 0.000000 2.040270 
# 
# From -- ./inp_files/1432.got.cif
#   From: 2010.05.17/outbox.cif.g08.bks.cpg/sg4_1_cif.got.tgz:1432.got - 2010.06.03 18:43:04.
