data_PCOD9118817
_publ_section_title
;
Structure prediction by ZEFSAII (Michael W. Deem and Ramdas Pophale) SiO2 
 PCOD9118817
Probable space group: P 21
;
_chemical_formula_sum "Si O2"
_cell_formula_units_Z 10
_cell_length_a 7.458164
_cell_length_b 5.044509
_cell_length_c 9.480403
_cell_angle_alpha 90.000000
_cell_angle_beta 88.111562
_cell_angle_gamma 90.000000
_cell_volume 356.485356
_symmetry_space_group_name_H-M "P 21"
_symmetry_group_IT_number 4
_symmetry_cell_setting 'monoclinic'
loop_
_space_group_symop_operation_xyz
x,y,z
-x,1/2+y,-z
loop_
_atom_site_type_symbol
_atom_site_label
_atom_site_fract_x
_atom_site_fract_y
_atom_site_fract_z
Si Si1 0.703688 0.894060 0.474308
Si Si2 0.904851 0.276741 0.647424
Si Si3 0.646528 0.700088 0.768207
Si Si4 0.947033 0.524971 0.083860
Si Si5 0.441809 0.219836 0.826788
O O1 0.601253 0.746811 0.603477
O O2 0.617357 0.802281 0.331300
O O3 0.912815 0.813388 0.443373
O O4 0.751279 0.179986 0.543230
O O5 0.828421 0.528231 0.736913
O O6 0.959564 0.063724 0.766479
O O7 0.527061 0.500738 0.864249
O O8 0.591588 0.989790 0.827225
O O9 0.743409 0.624714 0.101679
O O10 0.957880 0.229438 0.025369
#
# Coordination Sequence:
#
# PCOD9118817 Si02
#       5
#     2   2   2   2   2
#     4  11  23  41  69 109 146 183 227 287 356 439
#     4  11  25  42  77 106 145 192 241 287 353 433
#     4  12  23  42  67 109 146 181 225 293 367 420
#     4  11  27  51  76  99 138 194 254 295 347 422
#     4  11  26  42  71 105 143 184 229 294 367 418
#
# _framework density 28.051645000000001
#
# number of rings (size 3 to 8) (size 9 to 14) (size 15 to 20)
#    0.000    0.800    4.000    2.400    5.600    0.000 
#    0.000    4.000    0.000    0.000    0.000    0.000 
#    0.000    0.000    0.000    0.000    0.000    0.000 
#
# Total GULP energy -55900.555073 kJ/mol
# GULP energy per Si atom -5590.055507 kJ/mol
# Density = 2.798780 g / cm^3
# Si number density = 28.051645 Si / 1000 Ang^3
#
#
#
# Elastic Constant Matrix: (Units=GPa)
#
#
# Indices 1 2 3 4 5 6 
#
# 1 149.0874 37.0155 30.3414 0.0000 -22.3049 0.0000
# 2 37.0155 164.5965 3.0558 0.0000 7.4723 0.0000
# 3 30.3414 3.0558 114.4995 0.0000 8.5516 0.0000
# 4 0.0000 0.0000 0.0000 31.1718 0.0000 -0.1234
# 5 -22.3049 7.4723 8.5516 0.0000 59.5029 0.0000
# 6 0.0000 0.0000 0.0000 -0.1234 0.0000 37.6181
#
#
#
# Elastic Compliance Matrix: (Units=1/GPa)
#
#
# Indices 1 2 3 4 5 6 
#
# 1 0.008238 -0.001975 -0.002405 0.000000 0.003682 0.000000
# 2 -0.001975 0.006585 0.000470 0.000000 -0.001635 0.000000
# 3 -0.002405 0.000470 0.009533 0.000000 -0.002331 0.000000
# 4 0.000000 0.000000 0.000000 0.032081 0.000000 0.000105
# 5 0.003682 -0.001635 -0.002331 0.000000 0.018726 0.000000
# 6 0.000000 0.000000 0.000000 0.000105 0.000000 0.026583
#
#
# Mechanical properties :
#
#
# Convention : Reuss Voigt Hill
#
# Bulk Modulus (GPa) = 60.47963 63.22321 61.85142
# Shear Modulus (GPa) = 43.44835 49.50995 46.47915
#
# Velocity S-wave (km/s) = 3.93984 4.20570 4.07494
# Velocity P-wave (km/s) = 6.50410 6.79492 6.65110
#
# Compressibility (1/GPa) = 0.01653449
#
# Stress axis : x y z
#
# Youngs Moduli (GPa) = 121.38535 151.85690 104.90327
#
# Poissons Ratio (x) = 0.29994 0.25233
# Poissons Ratio (y) = 0.23976 -0.04928
# Poissons Ratio (z) = 0.29197 -0.07134
#
# Static dielectric constant tensor:
#      x y z
#    x 2.198680 0.000000 0.059690 
#    y 0.000000 2.247610 0.000000 
#    z 0.059690 0.000000 2.188510 
# 
# From -- ./inp_files/5094.got.cif
#   From: 2010.05.17/outbox.cif.g08.bks.cpg/sg4_3_cif.got.tgz:5094.got - 2010.06.03 18:43:04.
