data_PCOD9118655
_publ_section_title
;
Structure prediction by ZEFSAII (Michael W. Deem and Ramdas Pophale) SiO2 
 PCOD9118655
Probable space group: P 21
;
_chemical_formula_sum "Si O2"
_cell_formula_units_Z 12
_cell_length_a 7.962320
_cell_length_b 12.995079
_cell_length_c 4.788220
_cell_angle_alpha 90.000000
_cell_angle_beta 116.040405
_cell_angle_gamma 90.000000
_cell_volume 445.146872
_symmetry_space_group_name_H-M "P 21"
_symmetry_group_IT_number 4
_symmetry_cell_setting 'monoclinic'
loop_
_space_group_symop_operation_xyz
x,y,z
-x,1/2+y,-z
loop_
_atom_site_type_symbol
_atom_site_label
_atom_site_fract_x
_atom_site_fract_y
_atom_site_fract_z
Si Si1 0.071705 0.688360 0.141693
Si Si2 0.153602 0.506641 0.852142
Si Si3 0.436627 0.342920 0.092782
Si Si4 0.036214 0.834666 0.656055
Si Si5 0.623961 0.419251 0.721169
Si Si6 0.560130 0.129968 0.339011
O O1 0.042779 0.746991 0.414404
O O2 0.301854 0.675068 0.321313
O O3 0.036522 0.573525 0.988778
O O4 0.959062 0.759604 0.843201
O O5 0.291447 0.580540 0.772486
O O6 0.040962 0.435437 0.554667
O O7 0.283563 0.421972 0.096563
O O8 0.618323 0.378567 0.403024
O O9 0.436679 0.221987 0.128041
O O10 0.456696 0.368606 0.782202
O O11 0.201680 0.880160 0.975289
O O12 0.577921 0.539119 0.677893
#
# Coordination Sequence:
#
# PCOD9118655 Si02
#       6
#     2   2   2   2   2   2
#     4  12  23  45  70  98 140 188 228 295 353 415
#     4  11  27  46  74 104 143 191 234 294 361 422
#     4  11  23  42  70  99 132 184 235 281 350 419
#     4  12  26  43  73 103 144 184 236 294 361 416
#     4  11  22  40  68 101 131 180 235 284 345 420
#     4  11  23  44  71  97 142 185 234 290 346 416
#
# _framework density 26.957397
#
# number of rings (size 3 to 8) (size 9 to 14) (size 15 to 20)
#    0.000    0.667    6.667    0.000    2.333    1.333 
#    0.000    0.000    0.000    0.000    0.000    0.000 
#    0.000    0.000    0.000    0.000    0.000    0.000 
#
# Total GULP energy -66908.433890 kJ/mol
# GULP energy per Si atom -5575.702824 kJ/mol
# Density = 2.689604 g / cm^3
# Si number density = 26.957397 Si / 1000 Ang^3
#
#
#
# Elastic Constant Matrix: (Units=GPa)
#
#
# Indices 1 2 3 4 5 6 
#
# 1 44.4744 38.7356 26.2736 0.0000 -9.3167 0.0000
# 2 38.7356 199.9360 44.4612 0.0000 -3.9003 0.0000
# 3 26.2736 44.4612 170.7008 0.0000 -5.5113 0.0000
# 4 0.0000 0.0000 0.0000 67.3564 0.0000 12.7338
# 5 -9.3167 -3.9003 -5.5113 0.0000 25.8871 0.0000
# 6 0.0000 0.0000 0.0000 12.7338 0.0000 47.6238
#
#
#
# Elastic Compliance Matrix: (Units=1/GPa)
#
#
# Indices 1 2 3 4 5 6 
#
# 1 0.030763 -0.005083 -0.003100 0.000000 0.009646 0.000000
# 2 -0.005083 0.006156 -0.000856 0.000000 -0.001084 0.000000
# 3 -0.003100 -0.000856 0.006563 0.000000 0.000153 0.000000
# 4 0.000000 0.000000 0.000000 0.015637 0.000000 -0.004181
# 5 0.009646 -0.001084 0.000153 0.000000 0.041970 0.000000
# 6 0.000000 0.000000 0.000000 -0.004181 0.000000 0.022116
#
#
# Mechanical properties :
#
#
# Convention : Reuss Voigt Hill
#
# Bulk Modulus (GPa) = 39.36156 70.45021 54.90588
# Shear Modulus (GPa) = 33.38897 48.54952 40.96925
#
# Velocity S-wave (km/s) = 3.52317 4.24839 3.90266
# Velocity P-wave (km/s) = 5.58421 7.08913 6.38119
#
# Compressibility (1/GPa) = 0.02540550
#
# Stress axis : x y z
#
# Youngs Moduli (GPa) = 32.50608 162.45602 152.36504
#
# Poissons Ratio (x) = 0.82570 0.47229
# Poissons Ratio (y) = 0.16522 0.13042
# Poissons Ratio (z) = 0.10076 0.13906
#
# Static dielectric constant tensor:
#      x y z
#    x 2.249300 0.000000 0.055510 
#    y 0.000000 2.102570 0.000000 
#    z 0.055510 0.000000 2.086160 
# 
# From -- ./inp_files/1363.got.cif
#   From: 2010.05.17/outbox.cif.g08.bks.cpg/sg4_1_cif.got.tgz:1363.got - 2010.06.03 18:43:04.
