data_PCOD9118756
_publ_section_title
;
Structure prediction by ZEFSAII (Michael W. Deem and Ramdas Pophale) SiO2 
 PCOD9118756
Probable space group: P 21
;
_chemical_formula_sum "Si O2"
_cell_formula_units_Z 16
_cell_length_a 16.984596
_cell_length_b 5.798333
_cell_length_c 6.696019
_cell_angle_alpha 90.000000
_cell_angle_beta 88.651807
_cell_angle_gamma 90.000000
_cell_volume 659.257092
_symmetry_space_group_name_H-M "P 21"
_symmetry_group_IT_number 4
_symmetry_cell_setting 'monoclinic'
loop_
_space_group_symop_operation_xyz
x,y,z
-x,1/2+y,-z
loop_
_atom_site_type_symbol
_atom_site_label
_atom_site_fract_x
_atom_site_fract_y
_atom_site_fract_z
Si Si1 0.911169 0.467190 0.829250
Si Si2 0.620583 0.757751 0.117496
Si Si3 0.200865 0.587153 0.113991
Si Si4 0.582454 0.149453 0.401138
Si Si5 0.469599 0.472654 0.196715
Si Si6 0.267572 0.911057 0.760106
Si Si7 0.911271 0.820089 0.157952
Si Si8 0.823065 0.743893 0.542339
O O1 0.837397 0.307477 0.779512
O O2 0.899059 0.660082 0.662644
O O3 0.996979 0.359503 0.813457
O O4 0.899862 0.567902 0.055397
O O5 0.547119 0.584649 0.096182
O O6 0.702816 0.628280 0.107013
O O7 0.609308 0.899317 0.321693
O O8 0.602642 0.937501 0.945690
O O9 0.224215 0.403469 0.290583
O O10 0.246521 0.706094 0.920639
O O11 0.124746 0.480085 0.009701
O O12 0.504548 0.241893 0.294746
O O13 0.653622 0.320087 0.352299
O O14 0.560595 0.139657 0.630927
O O15 0.218335 0.036250 0.584597
O O16 0.860959 0.881775 0.355845
#
# Coordination Sequence:
#
# PCOD9118756 Si02
#       8
#     2   2   2   2   2   2   2   2
#     4  11  24  44  74 110 141 195 250 319 379 440
#     4  11  24  45  74 108 141 189 238 303 381 442
#     4  11  26  49  73 102 154 200 245 315 378 453
#     4  11  24  45  76 105 145 186 238 308 374 443
#     4  11  22  46  74 108 139 177 238 306 367 442
#     4  11  28  52  68 107 156 201 250 310 375 474
#     4  11  24  45  74 108 146 190 251 317 373 445
#     4  11  28  46  73 108 152 200 256 304 387 465
#
# _framework density 24.269742999999998
#
# number of rings (size 3 to 8) (size 9 to 14) (size 15 to 20)
#    0.000    1.000    5.000    0.000    5.250    0.000 
#    6.750    0.000    0.000    0.000    0.000    0.000 
#    0.000    0.000    0.000    0.000    0.000    0.000 
#
# Total GULP energy -89178.215620 kJ/mol
# GULP energy per Si atom -5573.638476 kJ/mol
# Density = 2.421450 g / cm^3
# Si number density = 24.269743 Si / 1000 Ang^3
#
#
#
# Elastic Constant Matrix: (Units=GPa)
#
#
# Indices 1 2 3 4 5 6 
#
# 1 83.6877 22.0230 53.9908 0.0000 7.1208 0.0000
# 2 22.0230 54.9858 33.1453 0.0000 7.1051 0.0000
# 3 53.9908 33.1453 144.0091 0.0000 12.9231 0.0000
# 4 0.0000 0.0000 0.0000 45.1513 0.0000 3.0764
# 5 7.1208 7.1051 12.9231 0.0000 33.3550 0.0000
# 6 0.0000 0.0000 0.0000 3.0764 0.0000 34.9988
#
#
#
# Elastic Compliance Matrix: (Units=1/GPa)
#
#
# Indices 1 2 3 4 5 6 
#
# 1 0.016277 -0.003234 -0.005292 0.000000 -0.000736 0.000000
# 2 -0.003234 0.021998 -0.003618 0.000000 -0.002594 0.000000
# 3 -0.005292 -0.003618 0.009936 0.000000 -0.001949 0.000000
# 4 0.000000 0.000000 0.000000 0.022281 0.000000 -0.001959
# 5 -0.000736 -0.002594 -0.001949 0.000000 0.031445 0.000000
# 6 0.000000 0.000000 0.000000 -0.001959 0.000000 0.028745
#
#
# Mechanical properties :
#
#
# Convention : Reuss Voigt Hill
#
# Bulk Modulus (GPa) = 41.80173 55.66676 48.73425
# Shear Modulus (GPa) = 30.68547 34.26926 32.47737
#
# Velocity S-wave (km/s) = 3.55963 3.76176 3.66209
# Velocity P-wave (km/s) = 5.84430 6.46949 6.16482
#
# Compressibility (1/GPa) = 0.02392246
#
# Stress axis : x y z
#
# Youngs Moduli (GPa) = 61.43624 45.45911 100.64787
#
# Poissons Ratio (x) = 0.14702 0.53263
# Poissons Ratio (y) = 0.19870 0.36412
# Poissons Ratio (z) = 0.32512 0.16446
#
# Static dielectric constant tensor:
#      x y z
#    x 1.929900 0.000000 0.000790 
#    y 0.000000 2.069170 0.000000 
#    z 0.000790 0.000000 1.949720 
# 
# From -- ./inp_files/3986.got.cif
#   From: 2010.05.17/outbox.cif.g08.bks.cpg/sg4_2_cif.got.tgz:3986.got - 2010.06.03 18:43:04.
