data_PCOD9118851
_publ_section_title
;
Structure prediction by ZEFSAII (Michael W. Deem and Ramdas Pophale) SiO2 
 PCOD9118851
Probable space group: P 21
;
_chemical_formula_sum "Si O2"
_cell_formula_units_Z 16
_cell_length_a 13.028357
_cell_length_b 6.704248
_cell_length_c 8.787950
_cell_angle_alpha 90.000000
_cell_angle_beta 104.343408
_cell_angle_gamma 90.000000
_cell_volume 743.659492
_symmetry_space_group_name_H-M "P 21"
_symmetry_group_IT_number 4
_symmetry_cell_setting 'monoclinic'
loop_
_space_group_symop_operation_xyz
x,y,z
-x,1/2+y,-z
loop_
_atom_site_type_symbol
_atom_site_label
_atom_site_fract_x
_atom_site_fract_y
_atom_site_fract_z
Si Si1 0.576614 0.476960 0.182469
Si Si2 0.242506 0.641606 0.730476
Si Si3 0.521911 0.806965 0.398932
Si Si4 0.911721 0.404762 0.154320
Si Si5 0.582164 0.646018 0.847227
Si Si6 0.216703 0.285329 0.947470
Si Si7 0.683654 0.076377 0.580776
Si Si8 0.879616 0.092842 0.876146
O O1 0.669080 0.312211 0.209316
O O2 0.577685 0.647979 0.308833
O O3 0.471763 0.357900 0.182759
O O4 0.565066 0.570128 0.012984
O O5 0.130316 0.739690 0.740663
O O6 0.263820 0.445049 0.843062
O O7 0.255575 0.593857 0.557723
O O8 0.414556 0.729757 0.438372
O O9 0.476396 0.990447 0.282511
O O10 0.615770 0.873167 0.545259
O O11 0.834412 0.593477 0.147670
O O12 0.026729 0.509819 0.197128
O O13 0.898371 0.292072 0.984854
O O14 0.706406 0.690770 0.896343
O O15 0.132443 0.417090 0.005380
O O16 0.768879 0.106583 0.744583
#
# Coordination Sequence:
#
# PCOD9118851 Si02
#       8
#     2   2   2   2   2   2   2   2
#     4  12  22  41  65 101 140 184 240 290 346 417
#     4  11  25  45  65 103 145 181 240 289 357 429
#     4  12  27  44  66 100 150 191 234 287 355 440
#     4  11  23  48  76 102 133 181 241 310 348 413
#     4  12  22  37  69 103 134 185 234 290 348 414
#     4  11  23  42  74 101 132 181 235 299 352 406
#     4  12  27  48  65 103 149 190 230 288 360 436
#     4  11  25  47  74 103 137 179 244 297 358 423
#
# _framework density 21.515222999999999
#
# number of rings (size 3 to 8) (size 9 to 14) (size 15 to 20)
#    0.000    0.500    5.000    3.750    3.500    0.000 
#    4.500    0.000    0.000    0.000    0.000    0.000 
#    0.000    0.000    0.000    0.000    0.000    0.000 
#
# Total GULP energy -89280.887399 kJ/mol
# GULP energy per Si atom -5580.055462 kJ/mol
# Density = 2.146625 g / cm^3
# Si number density = 21.515223 Si / 1000 Ang^3
#
#
#
# Elastic Constant Matrix: (Units=GPa)
#
#
# Indices 1 2 3 4 5 6 
#
# 1 93.6498 22.0158 13.0401 0.0000 1.2405 0.0000
# 2 22.0158 93.4388 19.1605 0.0000 11.0359 0.0000
# 3 13.0401 19.1605 58.1552 0.0000 3.8009 0.0000
# 4 0.0000 0.0000 0.0000 24.8268 0.0000 -6.4563
# 5 1.2405 11.0359 3.8009 0.0000 23.6081 0.0000
# 6 0.0000 0.0000 0.0000 -6.4563 0.0000 42.9171
#
#
#
# Elastic Compliance Matrix: (Units=1/GPa)
#
#
# Indices 1 2 3 4 5 6 
#
# 1 0.011493 -0.002430 -0.001830 0.000000 0.000827 0.000000
# 2 -0.002430 0.012558 -0.003251 0.000000 -0.005219 0.000000
# 3 -0.001830 -0.003251 0.018769 0.000000 -0.001406 0.000000
# 4 0.000000 0.000000 0.000000 0.041919 0.000000 0.006306
# 5 0.000827 -0.005219 -0.001406 0.000000 0.044981 0.000000
# 6 0.000000 0.000000 0.000000 0.006306 0.000000 0.024249
#
#
# Mechanical properties :
#
#
# Convention : Reuss Voigt Hill
#
# Bulk Modulus (GPa) = 35.97667 39.29741 37.63704
# Shear Modulus (GPa) = 28.04900 31.00556 29.52728
#
# Velocity S-wave (km/s) = 3.61457 3.80030 3.70860
# Velocity P-wave (km/s) = 5.84619 6.12870 5.98911
#
# Compressibility (1/GPa) = 0.02779579
#
# Stress axis : x y z
#
# Youngs Moduli (GPa) = 87.00689 79.63066 53.27954
#
# Poissons Ratio (x) = 0.19353 0.09753
# Poissons Ratio (y) = 0.21146 0.17323
# Poissons Ratio (z) = 0.15926 0.25891
#
# Static dielectric constant tensor:
#      x y z
#    x 1.826010 0.000000 -0.023160 
#    y 0.000000 1.805370 0.000000 
#    z -0.023160 0.000000 1.799810 
# 
# From -- ./inp_files/8729.got.cif
#   From: 2010.05.17/outbox.cif.g08.bks.cpg/sg4_5_cif.got.tgz:8729.got - 2010.06.03 18:43:04.
