data_PCOD9118732
_publ_section_title
;
Structure prediction by ZEFSAII (Michael W. Deem and Ramdas Pophale) SiO2 
 PCOD9118732
Probable space group: P 21
;
_chemical_formula_sum "Si O2"
_cell_formula_units_Z 14
_cell_length_a 9.739281
_cell_length_b 5.170271
_cell_length_c 13.772287
_cell_angle_alpha 90.000000
_cell_angle_beta 129.542118
_cell_angle_gamma 90.000000
_cell_volume 534.796994
_symmetry_space_group_name_H-M "P 21"
_symmetry_group_IT_number 4
_symmetry_cell_setting 'monoclinic'
loop_
_space_group_symop_operation_xyz
x,y,z
-x,1/2+y,-z
loop_
_atom_site_type_symbol
_atom_site_label
_atom_site_fract_x
_atom_site_fract_y
_atom_site_fract_z
Si Si1 0.048893 0.478170 0.960503
Si Si2 0.014855 0.639470 0.241056
Si Si3 0.417767 0.731026 0.833714
Si Si4 0.113207 0.390365 0.623221
Si Si5 0.707694 0.513308 0.396462
Si Si6 0.403525 0.633299 0.481290
Si Si7 0.311699 0.833844 0.997228
O O1 0.245995 0.574099 0.019692
O O2 0.964901 0.389938 0.820022
O O3 0.037149 0.225998 0.024226
O O4 0.214536 0.547579 0.350578
O O5 0.927261 0.697887 0.305500
O O6 0.872786 0.463763 0.121499
O O7 0.222084 0.607508 0.729151
O O8 0.405350 0.956908 0.750411
O O9 0.424283 0.798257 0.949812
O O10 0.572604 0.524038 0.884887
O O11 0.918732 0.438949 0.492896
O O12 0.248592 0.316785 0.596919
O O13 0.627715 0.329928 0.442408
O O14 0.503482 0.358961 0.544331
#
# Coordination Sequence:
#
# PCOD9118732 Si02
#       7
#     2   2   2   2   2   2   2
#     4  12  27  49  75 108 150 215 269 302 376 479
#     4  11  25  50  79 106 158 205 258 326 393 464
#     4  12  26  44  75 116 158 188 259 324 390 471
#     4  11  22  44  76 111 142 193 248 328 391 453
#     4  11  25  44  79 107 148 193 256 314 392 459
#     4  11  30  52  77 113 155 205 261 320 388 457
#     4  12  27  47  75 117 161 207 251 324 406 457
#
# _framework density 26.178155
#
# number of rings (size 3 to 8) (size 9 to 14) (size 15 to 20)
#    0.000    0.571    5.714    0.857    4.000    1.143 
#    5.143    0.000    0.000    0.000    0.000    0.000 
#    0.000    0.000    0.000    0.000    0.000    0.000 
#
# Total GULP energy -78163.293576 kJ/mol
# GULP energy per Si atom -5583.092398 kJ/mol
# Density = 2.611857 g / cm^3
# Si number density = 26.178155 Si / 1000 Ang^3
#
#
#
# Elastic Constant Matrix: (Units=GPa)
#
#
# Indices 1 2 3 4 5 6 
#
# 1 59.8651 -2.4586 24.7723 0.0000 -15.1919 0.0000
# 2 -2.4586 92.9914 32.1869 0.0000 1.4630 0.0000
# 3 24.7723 32.1869 99.6411 0.0000 19.3677 0.0000
# 4 0.0000 0.0000 0.0000 45.0047 0.0000 11.7519
# 5 -15.1919 1.4630 19.3677 0.0000 37.3593 0.0000
# 6 0.0000 0.0000 0.0000 11.7519 0.0000 36.0353
#
#
#
# Elastic Compliance Matrix: (Units=1/GPa)
#
#
# Indices 1 2 3 4 5 6 
#
# 1 0.025235 0.004102 -0.010634 0.000000 0.015614 0.000000
# 2 0.004102 0.012875 -0.006011 0.000000 0.004280 0.000000
# 3 -0.010634 -0.006011 0.017144 0.000000 -0.012976 0.000000
# 4 0.000000 0.000000 0.000000 0.024288 0.000000 -0.007921
# 5 0.015614 0.004280 -0.012976 0.000000 0.039676 0.000000
# 6 0.000000 0.000000 0.000000 -0.007921 0.000000 0.030334
#
#
# Mechanical properties :
#
#
# Convention : Reuss Voigt Hill
#
# Bulk Modulus (GPa) = 33.14640 40.16653 36.65647
# Shear Modulus (GPa) = 27.07176 36.87967 31.97571
#
# Velocity S-wave (km/s) = 3.21929 3.75746 3.49874
# Velocity P-wave (km/s) = 5.14857 5.84821 5.50951
#
# Compressibility (1/GPa) = 0.03016919
#
# Stress axis : x y z
#
# Youngs Moduli (GPa) = 39.62686 77.66782 58.33017
#
# Poissons Ratio (x) = -0.31861 0.62028
# Poissons Ratio (y) = -0.16256 0.35062
# Poissons Ratio (z) = 0.42139 0.46686
#
# Static dielectric constant tensor:
#      x y z
#    x 2.200650 0.000000 -0.026940 
#    y 0.000000 2.235580 0.000000 
#    z -0.026940 0.000000 1.982180 
# 
# From -- ./inp_files/13493.got.cif
#   From: 2010.05.17/outbox.cif.g08.bks.cpg/sg4_7_cif.got.tgz:13493.got - 2010.06.03 18:43:04.
