data_PCOD9118724
_publ_section_title
;
Structure prediction by ZEFSAII (Michael W. Deem and Ramdas Pophale) SiO2 
 PCOD9118724
Probable space group: P 21
;
_chemical_formula_sum "Si O2"
_cell_formula_units_Z 16
_cell_length_a 12.906747
_cell_length_b 7.792533
_cell_length_c 12.078985
_cell_angle_alpha 90.000000
_cell_angle_beta 31.278683
_cell_angle_gamma 90.000000
_cell_volume 630.756238
_symmetry_space_group_name_H-M "P 21"
_symmetry_group_IT_number 4
_symmetry_cell_setting 'monoclinic'
loop_
_space_group_symop_operation_xyz
x,y,z
-x,1/2+y,-z
loop_
_atom_site_type_symbol
_atom_site_label
_atom_site_fract_x
_atom_site_fract_y
_atom_site_fract_z
Si Si1 0.577358 0.125000 0.166670
Si Si2 0.113392 0.430077 0.259485
Si Si3 0.468933 0.434869 0.564334
Si Si4 0.683055 0.474165 0.145010
Si Si5 0.718027 0.424877 0.719411
Si Si6 0.064193 0.258754 0.869078
Si Si7 0.117988 0.864663 0.742802
Si Si8 0.577254 0.653634 0.034570
O O1 0.550786 0.325202 0.208558
O O2 0.391349 0.033233 0.278058
O O3 0.605819 0.053144 0.266013
O O4 0.763781 0.078061 0.916865
O O5 0.281416 0.300434 0.145582
O O6 0.951032 0.466996 0.500636
O O7 0.975699 0.340118 0.291066
O O8 0.594042 0.510485 0.346737
O O9 0.279383 0.346677 0.681631
O O10 0.647485 0.327883 0.459709
O O11 0.655058 0.631271 0.088392
O O12 0.898789 0.380574 0.960931
O O13 0.626750 0.489268 0.917608
O O14 0.644950 0.228993 0.769585
O O15 0.082536 0.068547 0.801909
O O16 0.989103 0.253805 0.064898
#
# Coordination Sequence:
#
# PCOD9118724 Si02
#       8
#     2   2   2   2   2   2   2   2
#     4  11  22  44  72 103 142 181 235 289 341 418
#     4  11  24  45  72 100 135 183 228 290 352 411
#     4  11  23  38  67 106 144 190 229 272 342 409
#     4  11  25  42  68 105 141 190 234 285 346 409
#     4  11  26  50  75 101 135 179 230 299 356 411
#     4  11  23  41  63  98 146 184 227 278 329 413
#     4  11  23  41  65  98 139 187 229 276 342 399
#     4  11  28  49  72 105 136 178 238 293 350 426
#
# _framework density 25.366377
#
# number of rings (size 3 to 8) (size 9 to 14) (size 15 to 20)
#    0.000    1.000    3.750    1.500    3.500    7.000 
#    0.000    0.000    0.000    0.000    0.000    0.000 
#    0.000    0.000    0.000    0.000    0.000    0.000 
#
# Total GULP energy -89552.250779 kJ/mol
# GULP energy per Si atom -5597.015674 kJ/mol
# Density = 2.530864 g / cm^3
# Si number density = 25.366377 Si / 1000 Ang^3
#
#
#
# Elastic Constant Matrix: (Units=GPa)
#
#
# Indices 1 2 3 4 5 6 
#
# 1 66.0001 1.6264 25.3311 0.0000 2.0246 0.0000
# 2 1.6264 55.6675 31.0607 0.0000 -2.9967 0.0000
# 3 25.3311 31.0607 135.1356 0.0000 -15.7951 0.0000
# 4 0.0000 0.0000 0.0000 25.0006 0.0000 2.7901
# 5 2.0246 -2.9967 -15.7951 0.0000 43.4302 0.0000
# 6 0.0000 0.0000 0.0000 2.7901 0.0000 43.2086
#
#
#
# Elastic Compliance Matrix: (Units=1/GPa)
#
#
# Indices 1 2 3 4 5 6 
#
# 1 0.016590 0.001461 -0.003681 0.000000 -0.002011 0.000000
# 2 0.001461 0.020739 -0.005098 0.000000 -0.000491 0.000000
# 3 -0.003681 -0.005098 0.009651 0.000000 0.003330 0.000000
# 4 0.000000 0.000000 0.000000 0.040289 0.000000 -0.002602
# 5 -0.002011 -0.000491 0.003330 0.000000 0.024296 0.000000
# 6 0.000000 0.000000 0.000000 -0.002602 0.000000 0.023312
#
#
# Mechanical properties :
#
#
# Convention : Reuss Voigt Hill
#
# Bulk Modulus (GPa) = 30.91767 41.42663 36.17215
# Shear Modulus (GPa) = 31.19259 35.58021 33.38640
#
# Velocity S-wave (km/s) = 3.51049 3.74926 3.63184
# Velocity P-wave (km/s) = 5.35222 5.92532 5.64605
#
# Compressibility (1/GPa) = 0.03234396
#
# Stress axis : x y z
#
# Youngs Moduli (GPa) = 60.27795 48.21772 103.61752
#
# Poissons Ratio (x) = -0.07043 0.38137
# Poissons Ratio (y) = -0.08805 0.52825
# Poissons Ratio (z) = 0.22186 0.24582
#
# Static dielectric constant tensor:
#      x y z
#    x 2.010370 0.000000 0.002670 
#    y 0.000000 2.041080 0.000000 
#    z 0.002670 0.000000 2.049120 
# 
# From -- ./inp_files/12652.got.cif
#   From: 2010.05.17/outbox.cif.g08.bks.cpg/sg4_7_cif.got.tgz:12652.got - 2010.06.03 18:43:04.
