data_PCOD9118269
_publ_section_title
;
Structure prediction by ZEFSAII (Michael W. Deem and Ramdas Pophale) SiO2 
 PCOD9118269
Probable space group: P 21
;
_chemical_formula_sum "Si O2"
_cell_formula_units_Z 16
_cell_length_a 11.512912
_cell_length_b 14.236731
_cell_length_c 6.602644
_cell_angle_alpha 90.000000
_cell_angle_beta 45.486826
_cell_angle_gamma 90.000000
_cell_volume 771.715544
_symmetry_space_group_name_H-M "P 21"
_symmetry_group_IT_number 4
_symmetry_cell_setting 'monoclinic'
loop_
_space_group_symop_operation_xyz
x,y,z
-x,1/2+y,-z
loop_
_atom_site_type_symbol
_atom_site_label
_atom_site_fract_x
_atom_site_fract_y
_atom_site_fract_z
Si Si1 0.414046 0.918390 0.595075
Si Si2 0.182870 0.084052 0.975806
Si Si3 0.093878 0.649481 0.415993
Si Si4 0.547785 0.661435 0.068617
Si Si5 0.756071 0.252138 0.423225
Si Si6 0.391140 0.516220 0.984414
Si Si7 0.075408 0.218267 0.769232
Si Si8 0.630812 0.840951 0.695233
O O1 0.338329 0.844812 0.528558
O O2 0.506551 0.868388 0.667600
O O3 0.268984 0.984217 0.852106
O O4 0.540277 0.981350 0.312786
O O5 0.303633 0.147784 0.962341
O O6 0.160730 0.134314 0.787882
O O7 0.008624 0.087528 0.298898
O O8 0.166684 0.738862 0.448319
O O9 0.240035 0.587338 0.149312
O O10 0.972828 0.684263 0.392999
O O11 0.382506 0.671488 0.402610
O O12 0.527195 0.573821 0.943793
O O13 0.565619 0.753737 0.908901
O O14 0.906442 0.240393 0.088339
O O15 0.346027 0.427946 0.181073
O O16 0.199418 0.304942 0.606807
#
# Coordination Sequence:
#
# PCOD9118269 Si02
#       8
#     2   2   2   2   2   2   2   2
#     4  12  26  43  71 108 133 177 243 290 337 417
#     4  11  24  45  69 104 137 181 234 284 347 414
#     4  10  25  48  67  97 143 186 225 281 357 413
#     4  11  22  49  71  95 144 180 229 287 347 407
#     4  10  25  42  69  99 134 179 227 281 340 412
#     4  11  26  44  69 103 137 183 229 290 342 415
#     4  11  25  44  70  97 138 190 223 285 352 413
#     4  12  25  45  70 101 136 186 230 288 348 409
#
# _framework density 20.733028999999998
#
# number of rings (size 3 to 8) (size 9 to 14) (size 15 to 20)
#    0.000    1.000    3.750    1.500    7.000    1.000 
#    2.250    0.000    0.000    0.000    0.000    0.000 
#    0.000    0.000    0.000    0.000    0.000    0.000 
#
# Total GULP energy -89434.565892 kJ/mol
# GULP energy per Si atom -5589.660368 kJ/mol
# Density = 2.068584 g / cm^3
# Si number density = 20.733029 Si / 1000 Ang^3
#
#
#
# Elastic Constant Matrix: (Units=GPa)
#
#
# Indices 1 2 3 4 5 6 
#
# 1 107.6552 23.2559 11.8635 0.0000 12.7539 0.0000
# 2 23.2559 65.9852 7.5952 0.0000 16.1980 0.0000
# 3 11.8635 7.5952 57.3867 0.0000 -10.1649 0.0000
# 4 0.0000 0.0000 0.0000 38.0655 0.0000 3.7490
# 5 12.7539 16.1980 -10.1649 0.0000 28.9148 0.0000
# 6 0.0000 0.0000 0.0000 3.7490 0.0000 28.7414
#
#
#
# Elastic Compliance Matrix: (Units=1/GPa)
#
#
# Indices 1 2 3 4 5 6 
#
# 1 0.010599 -0.002386 -0.002630 0.000000 -0.004263 0.000000
# 2 -0.002386 0.019184 -0.004013 0.000000 -0.011105 0.000000
# 3 -0.002630 -0.004013 0.020373 0.000000 0.010570 0.000000
# 4 0.000000 0.000000 0.000000 0.026612 0.000000 -0.003471
# 5 -0.004263 -0.011105 0.010570 0.000000 0.046402 0.000000
# 6 0.000000 0.000000 0.000000 -0.003471 0.000000 0.035246
#
#
# Mechanical properties :
#
#
# Convention : Reuss Voigt Hill
#
# Bulk Modulus (GPa) = 31.15558 35.16182 33.15870
# Shear Modulus (GPa) = 26.71312 31.69848 29.20580
#
# Velocity S-wave (km/s) = 3.59337 3.91434 3.75728
# Velocity P-wave (km/s) = 5.68120 6.11764 5.90346
#
# Compressibility (1/GPa) = 0.03209698
#
# Stress axis : x y z
#
# Youngs Moduli (GPa) = 94.34535 52.12717 49.08500
#
# Poissons Ratio (x) = 0.12439 0.12912
# Poissons Ratio (y) = 0.22514 0.19696
# Poissons Ratio (z) = 0.24817 0.20917
#
# Static dielectric constant tensor:
#      x y z
#    x 1.721770 0.000000 -0.012570 
#    y 0.000000 1.721400 0.000000 
#    z -0.012570 0.000000 1.767970 
# 
# From -- ./inp_files/1454.got.cif
#   From: 2010.05.17/outbox.cif.g08.bks.cpg/sg4_1_cif.got.tgz:1454.got - 2010.06.03 18:43:04.
