data_PCOD9118425
_publ_section_title
;
Structure prediction by ZEFSAII (Michael W. Deem and Ramdas Pophale) SiO2 
 PCOD9118425
Probable space group: P 21
;
_chemical_formula_sum "Si O2"
_cell_formula_units_Z 14
_cell_length_a 6.747959
_cell_length_b 9.338061
_cell_length_c 9.837341
_cell_angle_alpha 90.000000
_cell_angle_beta 120.856181
_cell_angle_gamma 90.000000
_cell_volume 532.139648
_symmetry_space_group_name_H-M "P 21"
_symmetry_group_IT_number 4
_symmetry_cell_setting 'monoclinic'
loop_
_space_group_symop_operation_xyz
x,y,z
-x,1/2+y,-z
loop_
_atom_site_type_symbol
_atom_site_label
_atom_site_fract_x
_atom_site_fract_y
_atom_site_fract_z
Si Si1 0.653001 0.518800 0.657345
Si Si2 0.707986 0.966334 0.941874
Si Si3 0.987935 0.275590 0.260416
Si Si4 0.630302 0.441357 0.950491
Si Si5 0.016515 0.192808 0.906956
Si Si6 0.145245 0.571953 0.412021
Si Si7 0.742378 0.409815 0.397396
O O1 0.632716 0.426109 0.788668
O O2 0.757845 0.592311 0.016654
O O3 0.402666 0.592915 0.555843
O O4 0.686853 0.425565 0.534695
O O5 0.485811 0.937535 0.771045
O O6 0.896144 0.841204 0.003245
O O7 0.852371 0.918508 0.671670
O O8 0.617257 0.961354 0.065371
O O9 0.870335 0.275094 0.370083
O O10 0.143280 0.139833 0.272443
O O11 0.774640 0.326115 0.089460
O O12 0.172065 0.607204 0.072767
O O13 0.930789 0.190632 0.722607
O O14 0.930136 0.534339 0.432541
#
# Coordination Sequence:
#
# PCOD9118425 Si02
#       7
#     2   2   2   2   2   2   2
#     4  12  22  48  87 110 163 220 268 356 421 493
#     4  11  24  51  83 121 169 220 285 349 417 513
#     4   8  22  50  72 114 162 202 280 343 408 510
#     4  10  26  48  76 122 157 222 274 339 425 509
#     4  11  24  47  87 115 163 223 275 350 416 505
#     4   9  22  49  73 119 155 210 275 340 422 494
#     4   9  22  49  78 117 161 211 279 339 419 504
#
# _framework density 26.308885
#
# number of rings (size 3 to 8) (size 9 to 14) (size 15 to 20)
#    0.857    1.143    2.857    0.000    4.000    2.286 
#   15.429    2.857    3.143    0.000    0.000    0.000 
#    0.000    0.000    0.000    0.000    0.000    0.000 
#
# Total GULP energy -78328.467517 kJ/mol
# GULP energy per Si atom -5594.890537 kJ/mol
# Density = 2.624900 g / cm^3
# Si number density = 26.308885 Si / 1000 Ang^3
#
#
#
# Elastic Constant Matrix: (Units=GPa)
#
#
# Indices 1 2 3 4 5 6 
#
# 1 194.4287 37.0340 77.6805 0.0000 -19.6243 0.0000
# 2 37.0340 73.4126 28.4895 0.0000 -1.0214 0.0000
# 3 77.6805 28.4895 154.8957 0.0000 -19.6715 0.0000
# 4 0.0000 0.0000 0.0000 38.6765 0.0000 1.6226
# 5 -19.6243 -1.0214 -19.6715 0.0000 54.9875 0.0000
# 6 0.0000 0.0000 0.0000 1.6226 0.0000 21.7775
#
#
#
# Elastic Compliance Matrix: (Units=1/GPa)
#
#
# Indices 1 2 3 4 5 6 
#
# 1 0.006862 -0.002343 -0.002834 0.000000 0.001392 0.000000
# 2 -0.002343 0.015496 -0.001828 0.000000 -0.001202 0.000000
# 3 -0.002834 -0.001828 0.008465 0.000000 0.001983 0.000000
# 4 0.000000 0.000000 0.000000 0.025937 0.000000 -0.001933
# 5 0.001392 -0.001202 0.001983 0.000000 0.019370 0.000000
# 6 0.000000 0.000000 0.000000 -0.001933 0.000000 0.046063
#
#
# Mechanical properties :
#
#
# Convention : Reuss Voigt Hill
#
# Bulk Modulus (GPa) = 59.47204 78.79389 69.13297
# Shear Modulus (GPa) = 35.25939 41.72384 38.49162
#
# Velocity S-wave (km/s) = 3.66486 3.98668 3.82915
# Velocity P-wave (km/s) = 6.36888 7.15584 6.77380
#
# Compressibility (1/GPa) = 0.01681463
#
# Stress axis : x y z
#
# Youngs Moduli (GPa) = 145.72730 64.53251 118.13131
#
# Poissons Ratio (x) = 0.15118 0.33476
# Poissons Ratio (y) = 0.34138 0.21594
# Poissons Ratio (z) = 0.41296 0.11796
#
# Static dielectric constant tensor:
#      x y z
#    x 2.026550 0.000000 -0.072860 
#    y 0.000000 2.099590 0.000000 
#    z -0.072860 0.000000 2.164450 
# 
# From -- ./inp_files/4902.got.cif
#   From: 2010.05.17/outbox.cif.g08.bks.cpg/sg4_3_cif.got.tgz:4902.got - 2010.06.03 18:43:04.
