data_PCOD9118227
_publ_section_title
;
Structure prediction by ZEFSAII (Michael W. Deem and Ramdas Pophale) SiO2 
 PCOD9118227
Probable space group: P 21
;
_chemical_formula_sum "Si O2"
_cell_formula_units_Z 16
_cell_length_a 8.218996
_cell_length_b 9.560633
_cell_length_c 9.052258
_cell_angle_alpha 90.000000
_cell_angle_beta 67.944974
_cell_angle_gamma 90.000000
_cell_volume 659.264138
_symmetry_space_group_name_H-M "P 21"
_symmetry_group_IT_number 4
_symmetry_cell_setting 'monoclinic'
loop_
_space_group_symop_operation_xyz
x,y,z
-x,1/2+y,-z
loop_
_atom_site_type_symbol
_atom_site_label
_atom_site_fract_x
_atom_site_fract_y
_atom_site_fract_z
Si Si1 0.333855 0.539680 0.670759
Si Si2 0.540522 0.089237 0.702415
Si Si3 0.305901 0.351520 0.182488
Si Si4 0.848534 0.291185 0.117348
Si Si5 0.716043 0.546874 0.668323
Si Si6 0.802764 0.278009 0.804454
Si Si7 0.234537 0.285919 0.880977
Si Si8 0.051304 0.026708 0.701009
O O1 0.385562 0.544759 0.481981
O O2 0.244041 0.686362 0.739204
O O3 0.513626 0.518050 0.699813
O O4 0.213764 0.415579 0.775638
O O5 0.670749 0.196977 0.740619
O O6 0.356818 0.171232 0.761435
O O7 0.545052 0.948419 0.796772
O O8 0.282736 0.202160 0.266340
O O9 0.124735 0.436327 0.270669
O O10 0.331671 0.335402 0.998706
O O11 0.870495 0.442090 0.185818
O O12 0.751843 0.277565 0.993591
O O13 0.952720 0.742190 0.987837
O O14 0.803297 0.436512 0.749669
O O15 0.818795 0.527834 0.480296
O O16 0.979704 0.184736 0.739282
#
# Coordination Sequence:
#
# PCOD9118227 Si02
#       8
#     2   2   2   2   2   2   2   2
#     4  12  28  48  75 118 158 206 267 330 403 476
#     4  11  26  51  79 109 164 206 270 330 395 480
#     4  10  26  46  77 114 153 208 272 321 397 477
#     4  11  26  48  80 114 164 202 269 330 401 483
#     4  12  26  45  75 116 159 204 267 332 395 467
#     4  11  25  49  79 110 156 213 265 323 392 478
#     4  11  27  52  76 115 157 213 264 329 407 473
#     4  10  24  49  75 114 159 210 258 325 404 468
#
# _framework density 24.269482
#
# number of rings (size 3 to 8) (size 9 to 14) (size 15 to 20)
#    0.000    1.000    1.250    3.750    7.000    9.000 
#    2.250    0.000    0.000    0.000    0.000    0.000 
#    0.000    0.000    0.000    0.000    0.000    0.000 
#
# Total GULP energy -89621.494653 kJ/mol
# GULP energy per Si atom -5601.343416 kJ/mol
# Density = 2.421424 g / cm^3
# Si number density = 24.269482 Si / 1000 Ang^3
#
#
#
# Elastic Constant Matrix: (Units=GPa)
#
#
# Indices 1 2 3 4 5 6 
#
# 1 52.7028 12.5348 9.4114 0.0000 6.0350 0.0000
# 2 12.5348 107.0369 7.6412 0.0000 5.7348 0.0000
# 3 9.4114 7.6412 115.3666 0.0000 4.7506 0.0000
# 4 0.0000 0.0000 0.0000 57.4525 0.0000 9.1177
# 5 6.0350 5.7348 4.7506 0.0000 40.9674 0.0000
# 6 0.0000 0.0000 0.0000 9.1177 0.0000 64.9043
#
#
#
# Elastic Compliance Matrix: (Units=1/GPa)
#
#
# Indices 1 2 3 4 5 6 
#
# 1 0.020010 -0.002111 -0.001390 0.000000 -0.002491 0.000000
# 2 -0.002111 0.009674 -0.000428 0.000000 -0.000994 0.000000
# 3 -0.001390 -0.000428 0.008841 0.000000 -0.000761 0.000000
# 4 0.000000 0.000000 0.000000 0.017803 0.000000 -0.002501
# 5 -0.002491 -0.000994 -0.000761 0.000000 0.025004 0.000000
# 6 0.000000 0.000000 0.000000 -0.002501 0.000000 0.015759
#
#
# Mechanical properties :
#
#
# Convention : Reuss Voigt Hill
#
# Bulk Modulus (GPa) = 32.60735 37.14232 34.87484
# Shear Modulus (GPa) = 43.41468 49.03279 46.22373
#
# Velocity S-wave (km/s) = 4.23408 4.49970 4.36891
# Velocity P-wave (km/s) = 6.11293 6.50644 6.31275
#
# Compressibility (1/GPa) = 0.03066793
#
# Stress axis : x y z
#
# Youngs Moduli (GPa) = 49.97561 103.37517 113.10871
#
# Poissons Ratio (x) = 0.21818 0.15722
# Poissons Ratio (y) = 0.10548 0.04837
# Poissons Ratio (z) = 0.06947 0.04421
#
# Static dielectric constant tensor:
#      x y z
#    x 2.024580 0.000000 0.022460 
#    y 0.000000 1.916930 0.000000 
#    z 0.022460 0.000000 1.837660 
# 
# From -- ./inp_files/5787.got.cif
#   From: 2010.05.17/outbox.cif.g08.bks.cpg/sg4_3_cif.got.tgz:5787.got - 2010.06.03 18:43:04.
