data_PCOD9118776
_publ_section_title
;
Structure prediction by ZEFSAII (Michael W. Deem and Ramdas Pophale) SiO2 
 PCOD9118776
Probable space group: P 21
;
_chemical_formula_sum "Si O2"
_cell_formula_units_Z 16
_cell_length_a 11.340456
_cell_length_b 7.583235
_cell_length_c 11.743142
_cell_angle_alpha 90.000000
_cell_angle_beta 38.388171
_cell_angle_gamma 90.000000
_cell_volume 627.120695
_symmetry_space_group_name_H-M "P 21"
_symmetry_group_IT_number 4
_symmetry_cell_setting 'monoclinic'
loop_
_space_group_symop_operation_xyz
x,y,z
-x,1/2+y,-z
loop_
_atom_site_type_symbol
_atom_site_label
_atom_site_fract_x
_atom_site_fract_y
_atom_site_fract_z
Si Si1 0.410049 0.955080 0.646596
Si Si2 0.384423 0.101884 0.428504
Si Si3 0.384205 0.752915 0.063583
Si Si4 0.366863 0.401282 0.943312
Si Si5 0.051320 0.036459 0.330455
Si Si6 0.241850 0.313649 0.341849
Si Si7 0.872845 0.732611 0.056000
Si Si8 0.177070 0.535351 0.726388
O O1 0.480551 0.763914 0.633440
O O2 0.614483 0.055127 0.483264
O O3 0.329738 0.985476 0.579126
O O4 0.261791 0.060413 0.836117
O O5 0.498823 0.976956 0.257296
O O6 0.226576 0.194418 0.468769
O O7 0.210635 0.884105 0.214052
O O8 0.510886 0.756042 0.082032
O O9 0.329321 0.561191 0.059112
O O10 0.535283 0.824873 0.854854
O O11 0.185128 0.338106 0.012724
O O12 0.873053 0.987895 0.544994
O O13 0.969372 0.041294 0.266278
O O14 0.145148 0.210280 0.311160
O O15 0.828773 0.851227 0.199767
O O16 0.090578 0.675082 0.881213
#
# Coordination Sequence:
#
# PCOD9118776 Si02
#       8
#     2   2   2   2   2   2   2   2
#     4  12  24  49  77 104 151 192 242 307 364 436
#     4  11  22  48  73 107 144 191 247 295 366 437
#     4  11  25  46  73 100 146 188 247 293 367 436
#     4  11  25  47  74 108 140 199 243 297 373 427
#     4  12  26  47  71 105 146 186 244 301 359 428
#     4  11  26  46  69 107 140 191 241 298 363 428
#     4  12  29  46  76 110 148 192 249 299 369 437
#     4  12  29  47  71 115 143 193 247 300 369 433
#
# _framework density 25.513428000000001
#
# number of rings (size 3 to 8) (size 9 to 14) (size 15 to 20)
#    0.000    0.500    6.250    0.750    8.750    1.000 
#    2.250    0.000    0.000    0.000    0.000    0.000 
#    0.000    0.000    0.000    0.000    0.000    0.000 
#
# Total GULP energy -89629.463011 kJ/mol
# GULP energy per Si atom -5601.841438 kJ/mol
# Density = 2.545536 g / cm^3
# Si number density = 25.513428 Si / 1000 Ang^3
#
#
#
# Elastic Constant Matrix: (Units=GPa)
#
#
# Indices 1 2 3 4 5 6 
#
# 1 114.6409 13.3882 15.3826 0.0000 17.8405 0.0000
# 2 13.3882 85.2206 21.7121 0.0000 14.1441 0.0000
# 3 15.3826 21.7121 99.8158 0.0000 -3.5390 0.0000
# 4 0.0000 0.0000 0.0000 45.7010 0.0000 5.7959
# 5 17.8405 14.1441 -3.5390 0.0000 42.7172 0.0000
# 6 0.0000 0.0000 0.0000 5.7959 0.0000 52.4855
#
#
#
# Elastic Compliance Matrix: (Units=1/GPa)
#
#
# Indices 1 2 3 4 5 6 
#
# 1 0.009601 -0.000460 -0.001521 0.000000 -0.003983 0.000000
# 2 -0.000460 0.013307 -0.002982 0.000000 -0.004461 0.000000
# 3 -0.001521 -0.002982 0.010991 0.000000 0.002533 0.000000
# 4 0.000000 0.000000 0.000000 0.022192 0.000000 -0.002451
# 5 -0.003983 -0.004461 0.002533 0.000000 0.026760 0.000000
# 6 0.000000 0.000000 0.000000 -0.002451 0.000000 0.019324
#
#
# Mechanical properties :
#
#
# Convention : Reuss Voigt Hill
#
# Bulk Modulus (GPa) = 41.71214 44.51589 43.11402
# Shear Modulus (GPa) = 41.63543 44.79370 43.21456
#
# Velocity S-wave (km/s) = 4.04406 4.19464 4.12004
# Velocity P-wave (km/s) = 6.17985 6.39890 6.29033
#
# Compressibility (1/GPa) = 0.02397383
#
# Stress axis : x y z
#
# Youngs Moduli (GPa) = 104.16101 75.15096 90.98163
#
# Poissons Ratio (x) = 0.03454 0.13836
# Poissons Ratio (y) = 0.04788 0.27129
# Poissons Ratio (z) = 0.15841 0.22408
#
# Static dielectric constant tensor:
#      x y z
#    x 1.995080 0.000000 0.028280 
#    y 0.000000 2.058270 0.000000 
#    z 0.028280 0.000000 2.001840 
# 
# From -- ./inp_files/11988.got.cif
#   From: 2010.05.17/outbox.cif.g08.bks.cpg/sg4_6_cif.got.tgz:11988.got - 2010.06.03 18:43:04.
