data_PCOD9118785
_publ_section_title
;
Structure prediction by ZEFSAII (Michael W. Deem and Ramdas Pophale) SiO2 
 PCOD9118785
Probable space group: P 21
;
_chemical_formula_sum "Si O2"
_cell_formula_units_Z 16
_cell_length_a 10.964945
_cell_length_b 5.480705
_cell_length_c 13.475611
_cell_angle_alpha 90.000000
_cell_angle_beta 121.186466
_cell_angle_gamma 90.000000
_cell_volume 692.794708
_symmetry_space_group_name_H-M "P 21"
_symmetry_group_IT_number 4
_symmetry_cell_setting 'monoclinic'
loop_
_space_group_symop_operation_xyz
x,y,z
-x,1/2+y,-z
loop_
_atom_site_type_symbol
_atom_site_label
_atom_site_fract_x
_atom_site_fract_y
_atom_site_fract_z
Si Si1 0.689155 0.873920 0.144856
Si Si2 0.553444 0.254798 0.403026
Si Si3 0.736625 0.365156 0.049920
Si Si4 0.969090 0.875143 0.738705
Si Si5 0.065599 0.244979 0.625543
Si Si6 0.541243 0.376745 0.785245
Si Si7 0.682648 0.076079 0.664374
Si Si8 0.810098 0.570851 0.517181
O O1 0.705054 0.629892 0.085630
O O2 0.840779 0.914704 0.263777
O O3 0.575290 0.795866 0.181140
O O4 0.663378 0.127865 0.073965
O O5 0.623734 0.139209 0.530038
O O6 0.388266 0.313168 0.348539
O O7 0.647153 0.500203 0.435592
O O8 0.547931 0.097886 0.301961
O O9 0.906458 0.314989 0.131768
O O10 0.677843 0.400720 0.914636
O O11 0.866598 0.675438 0.644499
O O12 0.853084 0.064718 0.734478
O O13 0.052858 0.994658 0.680716
O O14 0.144123 0.238550 0.554389
O O15 0.905644 0.331492 0.541162
O O16 0.610041 0.237557 0.719575
#
# Coordination Sequence:
#
# PCOD9118785 Si02
#       8
#     2   2   2   2   2   2   2   2
#     4  11  26  48  78 112 149 198 256 328 383 456
#     4  12  27  44  70 104 149 191 256 310 381 461
#     4  11  27  53  78 113 151 198 264 319 390 457
#     4  11  25  45  69 104 149 197 248 324 373 463
#     4  11  23  38  69 105 149 189 248 312 397 458
#     4  12  29  48  75 107 147 208 251 318 384 465
#     4  12  26  48  67 104 145 197 251 306 381 454
#     4  12  23  40  68 109 149 196 248 319 399 464
#
# _framework density 23.094864000000001
#
# number of rings (size 3 to 8) (size 9 to 14) (size 15 to 20)
#    0.000    0.500    5.000    2.250   10.500    0.000 
#    2.250    0.000    0.000    0.000    0.000    0.000 
#    0.000    0.000    0.000    0.000    0.000    0.000 
#
# Total GULP energy -89227.103426 kJ/mol
# GULP energy per Si atom -5576.693964 kJ/mol
# Density = 2.304230 g / cm^3
# Si number density = 23.094864 Si / 1000 Ang^3
#
#
#
# Elastic Constant Matrix: (Units=GPa)
#
#
# Indices 1 2 3 4 5 6 
#
# 1 93.6566 21.3470 51.3499 0.0000 14.3804 0.0000
# 2 21.3470 71.4001 36.5984 0.0000 -3.0864 0.0000
# 3 51.3499 36.5984 161.9693 0.0000 14.8599 0.0000
# 4 0.0000 0.0000 0.0000 11.9938 0.0000 -8.1193
# 5 14.3804 -3.0864 14.8599 0.0000 28.7873 0.0000
# 6 0.0000 0.0000 0.0000 -8.1193 0.0000 28.5423
#
#
#
# Elastic Compliance Matrix: (Units=1/GPa)
#
#
# Indices 1 2 3 4 5 6 
#
# 1 0.013962 -0.002723 -0.003301 0.000000 -0.005563 0.000000
# 2 -0.002723 0.016761 -0.003373 0.000000 0.004898 0.000000
# 3 -0.003301 -0.003373 0.008256 0.000000 -0.002974 0.000000
# 4 0.000000 0.000000 0.000000 0.103261 0.000000 0.029374
# 5 -0.005563 0.004898 -0.002974 0.000000 0.039577 0.000000
# 6 0.000000 0.000000 0.000000 0.029374 0.000000 0.043392
#
#
# Mechanical properties :
#
#
# Convention : Reuss Voigt Hill
#
# Bulk Modulus (GPa) = 49.54428 60.62409 55.08419
# Shear Modulus (GPa) = 19.94183 28.38006 24.16094
#
# Velocity S-wave (km/s) = 2.94168 3.50929 3.23795
# Velocity P-wave (km/s) = 5.74779 6.53661 6.15485
#
# Compressibility (1/GPa) = 0.02018396
#
# Stress axis : x y z
#
# Youngs Moduli (GPa) = 71.62430 59.66403 121.12986
#
# Poissons Ratio (x) = 0.16245 0.39982
# Poissons Ratio (y) = 0.19502 0.40862
# Poissons Ratio (z) = 0.23642 0.20127
#
# Static dielectric constant tensor:
#      x y z
#    x 2.022200 0.000000 -0.043670 
#    y 0.000000 2.027650 0.000000 
#    z -0.043670 0.000000 1.870190 
# 
# From -- ./inp_files/11794.got.cif
#   From: 2010.05.17/outbox.cif.g08.bks.cpg/sg4_6_cif.got.tgz:11794.got - 2010.06.03 18:43:04.
