data_PCOD9118251
_publ_section_title
;
Structure prediction by ZEFSAII (Michael W. Deem and Ramdas Pophale) SiO2 
 PCOD9118251
Probable space group: P 21
;
_chemical_formula_sum "Si O2"
_cell_formula_units_Z 14
_cell_length_a 4.809354
_cell_length_b 9.313687
_cell_length_c 12.796113
_cell_angle_alpha 90.000000
_cell_angle_beta 57.710978
_cell_angle_gamma 90.000000
_cell_volume 484.540745
_symmetry_space_group_name_H-M "P 21"
_symmetry_group_IT_number 4
_symmetry_cell_setting 'monoclinic'
loop_
_space_group_symop_operation_xyz
x,y,z
-x,1/2+y,-z
loop_
_atom_site_type_symbol
_atom_site_label
_atom_site_fract_x
_atom_site_fract_y
_atom_site_fract_z
Si Si1 0.076796 0.514940 0.385206
Si Si2 0.419718 0.759786 0.722721
Si Si3 0.288365 0.350953 0.059564
Si Si4 0.403211 0.095013 0.880772
Si Si5 0.197013 0.301839 0.748051
Si Si6 0.439185 0.631566 0.495693
Si Si7 0.427304 0.990452 0.180213
O O1 0.288073 0.372056 0.350567
O O2 0.257524 0.600897 0.255087
O O3 0.135432 0.598006 0.482122
O O4 0.693705 0.497727 0.444322
O O5 0.359375 0.674107 0.627965
O O6 0.540096 0.652626 0.790015
O O7 0.070027 0.833631 0.818780
O O8 0.377815 0.199624 0.986197
O O9 0.547475 0.433639 0.082638
O O10 0.896955 0.414561 0.800817
O O11 0.167757 0.170838 0.839870
O O12 0.716743 0.956852 0.039727
O O13 0.329867 0.244413 0.611629
O O14 0.492218 0.396195 0.735377
#
# Coordination Sequence:
#
# PCOD9118251 Si02
#       7
#     2   2   2   2   2   2   2
#     4  11  27  52  78 121 168 223 293 367 441 524
#     4  12  31  48  89 128 173 235 300 366 455 539
#     4  11  27  53  85 128 174 234 301 372 449 538
#     4  10  25  50  88 121 179 231 301 369 455 531
#     4  10  24  54  83 121 166 234 285 368 444 535
#     4  11  26  50  82 117 164 220 288 365 441 525
#     4  11  28  51  85 122 176 225 302 359 451 526
#
# _framework density 28.893339000000001
#
# number of rings (size 3 to 8) (size 9 to 14) (size 15 to 20)
#    0.000    1.143    0.000    3.429   10.000    6.857 
#    5.143    0.000    0.000    0.000    0.000    0.000 
#    0.000    0.000    0.000    0.000    0.000    0.000 
#
# Total GULP energy -78519.179158 kJ/mol
# GULP energy per Si atom -5608.512797 kJ/mol
# Density = 2.882758 g / cm^3
# Si number density = 28.893339 Si / 1000 Ang^3
#
#
#
# Elastic Constant Matrix: (Units=GPa)
#
#
# Indices 1 2 3 4 5 6 
#
# 1 175.6616 56.8711 51.7168 0.0000 9.0663 0.0000
# 2 56.8711 183.4247 72.9880 0.0000 -0.4767 0.0000
# 3 51.7168 72.9880 144.9890 0.0000 26.2514 0.0000
# 4 0.0000 0.0000 0.0000 64.6239 0.0000 7.0168
# 5 9.0663 -0.4767 26.2514 0.0000 39.5745 0.0000
# 6 0.0000 0.0000 0.0000 7.0168 0.0000 54.9430
#
#
#
# Elastic Compliance Matrix: (Units=1/GPa)
#
#
# Indices 1 2 3 4 5 6 
#
# 1 0.006643 -0.001444 -0.001550 0.000000 -0.000511 0.000000
# 2 -0.001444 0.007391 -0.003730 0.000000 0.002894 0.000000
# 3 -0.001550 -0.003730 0.010537 0.000000 -0.006679 0.000000
# 4 0.000000 0.000000 0.000000 0.015692 0.000000 -0.002004
# 5 -0.000511 0.002894 -0.006679 0.000000 0.029851 0.000000
# 6 0.000000 0.000000 0.000000 -0.002004 0.000000 0.018457
#
#
# Mechanical properties :
#
#
# Convention : Reuss Voigt Hill
#
# Bulk Modulus (GPa) = 89.90005 96.35859 93.12932
# Shear Modulus (GPa) = 47.29199 53.32825 50.31012
#
# Velocity S-wave (km/s) = 4.05010 4.30081 4.17734
# Velocity P-wave (km/s) = 7.28376 7.62134 7.45446
#
# Compressibility (1/GPa) = 0.01112346
#
# Stress axis : x y z
#
# Youngs Moduli (GPa) = 150.53321 135.29590 94.90587
#
# Poissons Ratio (x) = 0.19540 0.14710
# Poissons Ratio (y) = 0.21741 0.35396
# Poissons Ratio (z) = 0.23332 0.50459
#
# Static dielectric constant tensor:
#      x y z
#    x 2.199090 0.000000 0.031430 
#    y 0.000000 2.355450 0.000000 
#    z 0.031430 0.000000 2.198280 
# 
# From -- ./inp_files/10373.got.cif
#   From: 2010.05.17/outbox.cif.g08.bks.cpg/sg4_6_cif.got.tgz:10373.got - 2010.06.03 18:43:04.
