data_PCOD9118133
_publ_section_title
;
Structure prediction by ZEFSAII (Michael W. Deem and Ramdas Pophale) SiO2 
 PCOD9118133
Probable space group: P 21
;
_chemical_formula_sum "Si O2"
_cell_formula_units_Z 12
_cell_length_a 5.453730
_cell_length_b 9.569309
_cell_length_c 8.764924
_cell_angle_alpha 90.000000
_cell_angle_beta 88.972165
_cell_angle_gamma 90.000000
_cell_volume 457.354001
_symmetry_space_group_name_H-M "P 21"
_symmetry_group_IT_number 4
_symmetry_cell_setting 'monoclinic'
loop_
_space_group_symop_operation_xyz
x,y,z
-x,1/2+y,-z
loop_
_atom_site_type_symbol
_atom_site_label
_atom_site_fract_x
_atom_site_fract_y
_atom_site_fract_z
Si Si1 0.829697 0.379800 0.251313
Si Si2 0.439450 0.639823 0.556551
Si Si3 0.868216 0.134874 0.720972
Si Si4 0.810347 0.654911 0.799332
Si Si5 0.188057 0.408417 0.749657
Si Si6 0.446227 0.510857 0.019757
O O1 0.715099 0.264627 0.363471
O O2 0.628674 0.442754 0.140372
O O3 0.964645 0.505433 0.335857
O O4 0.041631 0.293394 0.163222
O O5 0.372792 0.650270 0.381011
O O6 0.703965 0.663012 0.628201
O O7 0.343855 0.488003 0.616736
O O8 0.771428 0.088806 0.887938
O O9 0.039903 0.269601 0.715528
O O10 0.987490 0.523148 0.800956
O O11 0.588889 0.623589 0.914805
O O12 0.363012 0.398682 0.894200
#
# Coordination Sequence:
#
# PCOD9118133 Si02
#       6
#     2   2   2   2   2   2
#     4  11  25  44  70 100 138 181 228 283 341 405
#     4  10  24  47  71  99 139 185 228 278 340 408
#     4  12  26  43  72 106 138 179 230 282 342 408
#     4  10  24  46  69  96 138 182 226 283 342 403
#     4  10  25  46  70 102 140 179 228 283 339 407
#     4  11  26  44  72 105 137 180 230 285 344 405
#
# _framework density 26.237879
#
# number of rings (size 3 to 8) (size 9 to 14) (size 15 to 20)
#    0.000    1.333    0.000    3.000    0.000   25.333 
#    0.000    0.000    0.000    4.000    0.000    0.000 
#    0.000    0.000    0.000    0.000    0.000    0.000 
#
# Total GULP energy -67340.960379 kJ/mol
# GULP energy per Si atom -5611.746698 kJ/mol
# Density = 2.617816 g / cm^3
# Si number density = 26.237879 Si / 1000 Ang^3
#
#
#
# Elastic Constant Matrix: (Units=GPa)
#
#
# Indices 1 2 3 4 5 6 
#
# 1 64.4869 28.7107 18.9205 0.0000 18.8487 0.0000
# 2 28.7107 158.8200 27.0375 0.0000 8.2465 0.0000
# 3 18.9205 27.0375 113.1135 0.0000 21.3387 0.0000
# 4 0.0000 0.0000 0.0000 27.7979 0.0000 7.5442
# 5 18.8487 8.2465 21.3387 0.0000 46.9071 0.0000
# 6 0.0000 0.0000 0.0000 7.5442 0.0000 41.6604
#
#
#
# Elastic Compliance Matrix: (Units=1/GPa)
#
#
# Indices 1 2 3 4 5 6 
#
# 1 0.019091 -0.002895 -0.001258 0.000000 -0.006590 0.000000
# 2 -0.002895 0.007012 -0.001289 0.000000 0.000517 0.000000
# 3 -0.001258 -0.001289 0.010087 0.000000 -0.003856 0.000000
# 4 0.000000 0.000000 0.000000 0.037833 0.000000 -0.006851
# 5 -0.006590 0.000517 -0.003856 0.000000 0.025630 0.000000
# 6 0.000000 0.000000 0.000000 -0.006851 0.000000 0.025244
#
#
# Mechanical properties :
#
#
# Convention : Reuss Voigt Hill
#
# Bulk Modulus (GPa) = 39.51725 53.97311 46.74518
# Shear Modulus (GPa) = 34.66960 40.72321 37.69640
#
# Velocity S-wave (km/s) = 3.63899 3.94391 3.79452
# Velocity P-wave (km/s) = 5.72278 6.43076 6.08707
#
# Compressibility (1/GPa) = 0.02530541
#
# Stress axis : x y z
#
# Youngs Moduli (GPa) = 52.38006 142.60398 99.13886
#
# Poissons Ratio (x) = 0.41282 0.12474
# Poissons Ratio (y) = 0.15163 0.12784
# Poissons Ratio (z) = 0.06591 0.18389
#
# Static dielectric constant tensor:
#      x y z
#    x 2.071450 0.000000 -0.021590 
#    y 0.000000 1.995130 0.000000 
#    z -0.021590 0.000000 2.033810 
# 
# From -- ./inp_files/4506.got.cif
#   From: 2010.05.17/outbox.cif.g08.bks.cpg/sg4_3_cif.got.tgz:4506.got - 2010.06.03 18:43:04.
