data_PCOD9118522
_publ_section_title
;
Structure prediction by ZEFSAII (Michael W. Deem and Ramdas Pophale) SiO2 
 PCOD9118522
Probable space group: P 21
;
_chemical_formula_sum "Si O2"
_cell_formula_units_Z 14
_cell_length_a 8.745822
_cell_length_b 12.533197
_cell_length_c 8.866279
_cell_angle_alpha 90.000000
_cell_angle_beta 136.227313
_cell_angle_gamma 90.000000
_cell_volume 672.332094
_symmetry_space_group_name_H-M "P 21"
_symmetry_group_IT_number 4
_symmetry_cell_setting 'monoclinic'
loop_
_space_group_symop_operation_xyz
x,y,z
-x,1/2+y,-z
loop_
_atom_site_type_symbol
_atom_site_label
_atom_site_fract_x
_atom_site_fract_y
_atom_site_fract_z
Si Si1 0.136417 0.449980 0.203626
Si Si2 0.038331 0.085233 0.183226
Si Si3 0.466109 0.818049 0.550178
Si Si4 0.364011 0.732391 0.150761
Si Si5 0.518264 0.090687 0.361087
Si Si6 0.659850 0.441276 0.018445
Si Si7 0.682670 0.525896 0.372020
O O1 0.275974 0.342214 0.293758
O O2 0.294975 0.534162 0.403991
O O3 0.907990 0.440889 0.128566
O O4 0.081908 0.492323 0.997628
O O5 0.281262 0.094608 0.279634
O O6 0.083001 0.060183 0.389793
O O7 0.877582 0.184975 0.050672
O O8 0.368000 0.792365 0.315407
O O9 0.422672 0.714118 0.619031
O O10 0.383915 0.925585 0.569989
O O11 0.528151 0.631058 0.271591
O O12 0.426968 0.821435 0.072350
O O13 0.480493 0.022313 0.184759
O O14 0.671524 0.482233 0.195878
#
# Coordination Sequence:
#
# PCOD9118522 Si02
#       7
#     2   2   2   2   2   2   2
#     4  11  21  45  67 102 138 181 233 287 336 411
#     4  11  20  44  69 101 133 180 238 280 338 410
#     4  12  20  45  73  99 136 178 240 288 326 409
#     4  12  24  46  74  99 143 186 235 291 339 413
#     4  11  22  41  72 102 135 181 233 282 343 407
#     4  11  28  43  68 103 146 188 220 285 370 406
#     4  12  27  46  65 112 141 178 237 285 350 422
#
# _framework density 20.823042999999998
#
# number of rings (size 3 to 8) (size 9 to 14) (size 15 to 20)
#    0.000    0.571    7.143    1.714    2.000    1.143 
#    0.000    0.000    0.000    0.000    0.000    0.000 
#    0.000    0.000    0.000    0.000    0.000    0.000 
#
# Total GULP energy -78218.399494 kJ/mol
# GULP energy per Si atom -5587.028535 kJ/mol
# Density = 2.077565 g / cm^3
# Si number density = 20.823043 Si / 1000 Ang^3
#
#
#
# Elastic Constant Matrix: (Units=GPa)
#
#
# Indices 1 2 3 4 5 6 
#
# 1 33.3687 37.3803 38.7220 0.0000 -23.1402 0.0000
# 2 37.3803 161.0250 81.2199 0.0000 -16.1246 0.0000
# 3 38.7220 81.2199 163.7929 0.0000 -20.1534 0.0000
# 4 0.0000 0.0000 0.0000 52.4597 0.0000 0.7876
# 5 -23.1402 -16.1246 -20.1534 0.0000 37.4889 0.0000
# 6 0.0000 0.0000 0.0000 0.7876 0.0000 20.9731
#
#
#
# Elastic Compliance Matrix: (Units=1/GPa)
#
#
# Indices 1 2 3 4 5 6 
#
# 1 0.078746 -0.009844 -0.008861 0.000000 0.039609 0.000000
# 2 -0.009844 0.009587 -0.002856 0.000000 -0.003488 0.000000
# 3 -0.008861 -0.002856 0.009415 0.000000 -0.001637 0.000000
# 4 0.000000 0.000000 0.000000 0.019073 0.000000 -0.000716
# 5 0.039609 -0.003488 -0.001637 0.000000 0.048743 0.000000
# 6 0.000000 0.000000 0.000000 -0.000716 0.000000 0.047707
#
#
# Mechanical properties :
#
#
# Convention : Reuss Voigt Hill
#
# Bulk Modulus (GPa) = 18.30655 74.75900 46.53278
# Shear Modulus (GPa) = 18.20823 35.57530 26.89176
#
# Velocity S-wave (km/s) = 2.96028 4.13783 3.59756
# Velocity P-wave (km/s) = 4.52713 7.66870 6.29698
#
# Compressibility (1/GPa) = 0.05462525
#
# Stress axis : x y z
#
# Youngs Moduli (GPa) = 12.69903 104.31331 106.21628
#
# Poissons Ratio (x) = 1.02689 0.94121
# Poissons Ratio (y) = 0.12501 0.30331
# Poissons Ratio (z) = 0.11253 0.29788
#
# Static dielectric constant tensor:
#      x y z
#    x 1.754680 0.000000 0.006400 
#    y 0.000000 1.785780 0.000000 
#    z 0.006400 0.000000 1.758180 
# 
# From -- ./inp_files/1131.got.cif
#   From: 2010.05.17/outbox.cif.g08.bks.cpg/sg4_1_cif.got.tgz:1131.got - 2010.06.03 18:43:04.
