data_PCOD9118273
_publ_section_title
;
Structure prediction by ZEFSAII (Michael W. Deem and Ramdas Pophale) SiO2 
 PCOD9118273
Probable space group: P 21
;
_chemical_formula_sum "Si O2"
_cell_formula_units_Z 12
_cell_length_a 9.276762
_cell_length_b 8.001864
_cell_length_c 7.260933
_cell_angle_alpha 90.000000
_cell_angle_beta 64.390545
_cell_angle_gamma 90.000000
_cell_volume 486.039494
_symmetry_space_group_name_H-M "P 21"
_symmetry_group_IT_number 4
_symmetry_cell_setting 'monoclinic'
loop_
_space_group_symop_operation_xyz
x,y,z
-x,1/2+y,-z
loop_
_atom_site_type_symbol
_atom_site_label
_atom_site_fract_x
_atom_site_fract_y
_atom_site_fract_z
Si Si1 0.648948 0.729050 0.537844
Si Si2 0.894919 0.370123 0.944433
Si Si3 0.874282 0.032892 0.436120
Si Si4 0.524375 0.399360 0.055010
Si Si5 0.587711 0.226898 0.670530
Si Si6 0.044870 0.024961 0.710913
O O1 0.745770 0.898780 0.434639
O O2 0.580251 0.761164 0.778484
O O3 0.510499 0.713096 0.463081
O O4 0.777838 0.582514 0.448198
O O5 0.959708 0.194910 0.832091
O O6 0.977896 0.519327 0.782532
O O7 0.944375 0.399288 0.126603
O O8 0.705889 0.380457 0.023696
O O9 0.775461 0.202517 0.523337
O O10 0.941102 0.969788 0.594630
O O11 0.453948 0.570470 0.173445
O O12 0.530630 0.377810 0.831722
#
# Coordination Sequence:
#
# PCOD9118273 Si02
#       6
#     2   2   2   2   2   2
#     4  10  25  43  68 103 141 180 228 284 341 408
#     4  11  25  45  73 103 136 184 231 285 346 414
#     4  10  25  43  68 103 141 180 228 284 341 408
#     4  11  25  45  73 103 136 184 231 285 346 414
#     4  11  24  46  71 105 139 181 233 285 347 409
#     4  11  24  46  71 105 139 181 233 285 347 409
#
# _framework density 24.689354000000002
#
# number of rings (size 3 to 8) (size 9 to 14) (size 15 to 20)
#    0.000    1.333    3.333    0.000    4.667   12.000 
#    0.000    0.000    0.000    0.000    0.000    0.000 
#    0.000    0.000    0.000    0.000    0.000    0.000 
#
# Total GULP energy -67229.857598 kJ/mol
# GULP energy per Si atom -5602.488133 kJ/mol
# Density = 2.463316 g / cm^3
# Si number density = 24.689354 Si / 1000 Ang^3
#
#
#
# Elastic Constant Matrix: (Units=GPa)
#
#
# Indices 1 2 3 4 5 6 
#
# 1 109.0180 -5.1286 22.2464 0.0000 1.6190 0.0000
# 2 -5.1286 67.0276 11.4841 0.0000 -12.4323 0.0000
# 3 22.2464 11.4841 104.0730 0.0000 -7.3379 0.0000
# 4 0.0000 0.0000 0.0000 44.9058 0.0000 0.6331
# 5 1.6190 -12.4323 -7.3379 0.0000 49.9005 0.0000
# 6 0.0000 0.0000 0.0000 0.6331 0.0000 26.8575
#
#
#
# Elastic Compliance Matrix: (Units=1/GPa)
#
#
# Indices 1 2 3 4 5 6 
#
# 1 0.009679 0.001049 -0.002211 0.000000 -0.000378 0.000000
# 2 0.001049 0.015981 -0.001727 0.000000 0.003693 0.000000
# 3 -0.002211 -0.001727 0.010354 0.000000 0.001164 0.000000
# 4 0.000000 0.000000 0.000000 0.022276 0.000000 -0.000525
# 5 -0.000378 0.003693 0.001164 0.000000 0.021143 0.000000
# 6 0.000000 0.000000 0.000000 -0.000525 0.000000 0.037246
#
#
# Mechanical properties :
#
#
# Convention : Reuss Voigt Hill
#
# Bulk Modulus (GPa) = 33.07429 37.48027 35.27728
# Shear Modulus (GPa) = 37.72553 41.10051 39.41302
#
# Velocity S-wave (km/s) = 3.91322 4.08451 3.99978
# Velocity P-wave (km/s) = 5.81747 6.12029 5.97080
#
# Compressibility (1/GPa) = 0.03023497
#
# Stress axis : x y z
#
# Youngs Moduli (GPa) = 103.31604 62.57620 96.58086
#
# Poissons Ratio (x) = -0.06567 0.21358
# Poissons Ratio (y) = -0.10842 0.16682
# Poissons Ratio (z) = 0.22847 0.10809
#
# Static dielectric constant tensor:
#      x y z
#    x 1.869070 0.000000 -0.046580 
#    y 0.000000 2.068070 0.000000 
#    z -0.046580 0.000000 1.913580 
# 
# From -- ./inp_files/1170.got.cif
#   From: 2010.05.17/outbox.cif.g08.bks.cpg/sg4_1_cif.got.tgz:1170.got - 2010.06.03 18:43:04.
