data_PCOD9118027
_publ_section_title
;
Structure prediction by ZEFSAII (Michael W. Deem and Ramdas Pophale) SiO2 
 PCOD9118027
Probable space group: P 21
;
_chemical_formula_sum "Si O2"
_cell_formula_units_Z 12
_cell_length_a 6.831133
_cell_length_b 9.363128
_cell_length_c 7.366170
_cell_angle_alpha 90.000000
_cell_angle_beta 97.872878
_cell_angle_gamma 90.000000
_cell_volume 466.705098
_symmetry_space_group_name_H-M "P 21"
_symmetry_group_IT_number 4
_symmetry_cell_setting 'monoclinic'
loop_
_space_group_symop_operation_xyz
x,y,z
-x,1/2+y,-z
loop_
_atom_site_type_symbol
_atom_site_label
_atom_site_fract_x
_atom_site_fract_y
_atom_site_fract_z
Si Si1 0.730683 0.226520 0.396120
Si Si2 0.502603 0.479976 0.537247
Si Si3 0.864019 0.045173 0.113671
Si Si4 0.098527 0.090270 0.472974
Si Si5 0.220809 0.060040 0.897396
Si Si6 0.463165 0.344915 0.925697
O O1 0.591195 0.359836 0.415581
O O2 0.018876 0.493681 0.689803
O O3 0.671271 0.092593 0.520414
O O4 0.723530 0.163119 0.191852
O O5 0.684395 0.590952 0.585404
O O6 0.458789 0.393564 0.713803
O O7 0.032587 0.734283 0.547550
O O8 0.721477 0.929953 0.007182
O O9 0.035075 0.096260 0.002377
O O10 0.131866 0.047279 0.684307
O O11 0.387291 0.183046 0.917158
O O12 0.334460 0.918722 0.980592
#
# Coordination Sequence:
#
# PCOD9118027 Si02
#       6
#     2   2   2   2   2   2
#     4   9  23  41  72 101 137 187 228 294 355 408
#     4  11  21  45  71 102 144 178 238 292 348 427
#     4   9  24  48  66 108 140 183 239 301 343 433
#     4  10  24  43  74 103 135 195 234 288 362 414
#     4  12  26  48  74 108 144 193 238 298 362 430
#     4  11  26  47  73 104 152 184 241 303 356 424
#
# _framework density 25.712167999999998
#
# number of rings (size 3 to 8) (size 9 to 14) (size 15 to 20)
#    1.000    0.667    1.667    1.000    2.333    9.333 
#    3.000    0.000    0.000    0.000    0.000    0.000 
#    0.000    0.000    0.000    0.000    0.000    0.000 
#
# Total GULP energy -66847.346160 kJ/mol
# GULP energy per Si atom -5570.612180 kJ/mol
# Density = 2.565365 g / cm^3
# Si number density = 25.712168 Si / 1000 Ang^3
#
#
#
# Elastic Constant Matrix: (Units=GPa)
#
#
# Indices 1 2 3 4 5 6 
#
# 1 88.7619 15.0418 16.0680 0.0000 -16.3005 0.0000
# 2 15.0418 128.8101 13.8500 0.0000 -20.3449 0.0000
# 3 16.0680 13.8500 76.3003 0.0000 -14.9907 0.0000
# 4 0.0000 0.0000 0.0000 25.5209 0.0000 -6.2569
# 5 -16.3005 -20.3449 -14.9907 0.0000 47.4599 0.0000
# 6 0.0000 0.0000 0.0000 -6.2569 0.0000 23.2627
#
#
#
# Elastic Compliance Matrix: (Units=1/GPa)
#
#
# Indices 1 2 3 4 5 6 
#
# 1 0.012331 -0.000715 -0.001807 0.000000 0.003358 0.000000
# 2 -0.000715 0.008422 -0.000765 0.000000 0.003123 0.000000
# 3 -0.001807 -0.000765 0.014328 0.000000 0.003577 0.000000
# 4 0.000000 0.000000 0.000000 0.041950 0.000000 0.011283
# 5 0.003358 0.003123 0.003577 0.000000 0.024692 0.000000
# 6 0.000000 0.000000 0.000000 0.011283 0.000000 0.046022
#
#
# Mechanical properties :
#
#
# Convention : Reuss Voigt Hill
#
# Bulk Modulus (GPa) = 35.07842 42.64354 38.86098
# Shear Modulus (GPa) = 30.52074 35.84286 33.18180
#
# Velocity S-wave (km/s) = 3.44905 3.73769 3.59626
# Velocity P-wave (km/s) = 5.43448 5.93701 5.69129
#
# Compressibility (1/GPa) = 0.02850755
#
# Stress axis : x y z
#
# Youngs Moduli (GPa) = 81.09583 118.73080 69.79194
#
# Poissons Ratio (x) = 0.08493 0.12613
# Poissons Ratio (y) = 0.05801 0.05336
# Poissons Ratio (z) = 0.14656 0.09078
#
# Static dielectric constant tensor:
#      x y z
#    x 2.052930 0.000000 0.016690 
#    y 0.000000 2.132960 0.000000 
#    z 0.016690 0.000000 2.064660 
# 
# From -- ./inp_files/5539.got.cif
#   From: 2010.05.17/outbox.cif.g08.bks.cpg/sg4_3_cif.got.tgz:5539.got - 2010.06.03 18:43:04.
