data_PCOD9118325
_publ_section_title
;
Structure prediction by ZEFSAII (Michael W. Deem and Ramdas Pophale) SiO2 
 PCOD9118325
Probable space group: P 21
;
_chemical_formula_sum "Si O2"
_cell_formula_units_Z 12
_cell_length_a 9.387199
_cell_length_b 5.550796
_cell_length_c 14.809555
_cell_angle_alpha 90.000000
_cell_angle_beta 36.226537
_cell_angle_gamma 90.000000
_cell_volume 456.042806
_symmetry_space_group_name_H-M "P 21"
_symmetry_group_IT_number 4
_symmetry_cell_setting 'monoclinic'
loop_
_space_group_symop_operation_xyz
x,y,z
-x,1/2+y,-z
loop_
_atom_site_type_symbol
_atom_site_label
_atom_site_fract_x
_atom_site_fract_y
_atom_site_fract_z
Si Si1 0.240729 0.790780 0.077433
Si Si2 0.698411 0.036563 0.467444
Si Si3 0.052782 0.796009 0.420515
Si Si4 0.593620 0.965778 0.138067
Si Si5 0.297463 0.338504 0.723549
Si Si6 0.858491 0.797554 0.834459
O O1 0.230223 0.559565 0.148673
O O2 0.978510 0.798772 0.162892
O O3 0.271367 0.041571 0.111768
O O4 0.420958 0.723850 0.904660
O O5 0.471688 0.109125 0.643864
O O6 0.866707 0.845275 0.433200
O O7 0.886726 0.247547 0.342090
O O8 0.602718 0.955888 0.419034
O O9 0.993096 0.031837 0.514480
O O10 0.339124 0.833667 0.261358
O O11 0.675264 0.984497 0.199044
O O12 0.802224 0.832060 0.971402
#
# Coordination Sequence:
#
# PCOD9118325 Si02
#       6
#     2   2   2   2   2   2
#     4   9  22  40  70 106 141 182 234 292 363 431
#     4  11  25  46  76 114 148 191 254 308 369 439
#     4  12  29  52  75 107 148 204 250 300 375 448
#     4  10  25  46  75 102 149 194 242 299 372 442
#     4  11  23  44  75 111 145 193 240 316 362 438
#     4   9  22  44  69 106 141 188 232 301 359 430
#
# _framework density 26.313319
#
# number of rings (size 3 to 8) (size 9 to 14) (size 15 to 20)
#    1.000    0.667    1.667    1.000    9.333    2.667 
#    6.000    0.000    0.000    0.000    0.000    0.000 
#    0.000    0.000    0.000    0.000    0.000    0.000 
#
# Total GULP energy -66959.764646 kJ/mol
# GULP energy per Si atom -5579.980387 kJ/mol
# Density = 2.625343 g / cm^3
# Si number density = 26.313319 Si / 1000 Ang^3
#
#
#
# Elastic Constant Matrix: (Units=GPa)
#
#
# Indices 1 2 3 4 5 6 
#
# 1 151.6538 32.9801 48.3681 0.0000 0.3471 0.0000
# 2 32.9801 140.2649 15.9493 0.0000 9.2270 0.0000
# 3 48.3681 15.9493 78.4712 0.0000 -11.7639 0.0000
# 4 0.0000 0.0000 0.0000 42.3946 0.0000 21.3667
# 5 0.3471 9.2270 -11.7639 0.0000 47.1223 0.0000
# 6 0.0000 0.0000 0.0000 21.3667 0.0000 20.2628
#
#
#
# Elastic Compliance Matrix: (Units=1/GPa)
#
#
# Indices 1 2 3 4 5 6 
#
# 1 0.008531 -0.001349 -0.005147 0.000000 -0.001083 0.000000
# 2 -0.001349 0.007674 -0.000989 0.000000 -0.001739 0.000000
# 3 -0.005147 -0.000989 0.016780 0.000000 0.004420 0.000000
# 4 0.000000 0.000000 0.000000 0.050343 0.000000 -0.053085
# 5 -0.001083 -0.001739 0.004420 0.000000 0.022674 0.000000
# 6 0.000000 0.000000 0.000000 -0.053085 0.000000 0.105329
#
#
# Mechanical properties :
#
#
# Convention : Reuss Voigt Hill
#
# Bulk Modulus (GPa) = 55.51002 62.77609 59.14305
# Shear Modulus (GPa) = 21.52348 40.16208 30.84278
#
# Velocity S-wave (km/s) = 2.86312 3.91103 3.42736
# Velocity P-wave (km/s) = 5.66317 6.65611 6.17962
#
# Compressibility (1/GPa) = 0.01801476
#
# Stress axis : x y z
#
# Youngs Moduli (GPa) = 117.21404 130.31861 59.59653
#
# Poissons Ratio (x) = 0.17586 0.30673
# Poissons Ratio (y) = 0.15818 0.05892
# Poissons Ratio (z) = 0.60327 0.12884
#
# Static dielectric constant tensor:
#      x y z
#    x 2.029470 0.000000 0.001690 
#    y 0.000000 2.217650 0.000000 
#    z 0.001690 0.000000 2.136720 
# 
# From -- ./inp_files/11533.got.cif
#   From: 2010.05.17/outbox.cif.g08.bks.cpg/sg4_6_cif.got.tgz:11533.got - 2010.06.03 18:43:04.
