data_PCOD9118564
_publ_section_title
;
Structure prediction by ZEFSAII (Michael W. Deem and Ramdas Pophale) SiO2 
 PCOD9118564
Probable space group: P 21
;
_chemical_formula_sum "Si O2"
_cell_formula_units_Z 14
_cell_length_a 17.599212
_cell_length_b 5.525256
_cell_length_c 12.468943
_cell_angle_alpha 90.000000
_cell_angle_beta 153.552970
_cell_angle_gamma 90.000000
_cell_volume 540.003377
_symmetry_space_group_name_H-M "P 21"
_symmetry_group_IT_number 4
_symmetry_cell_setting 'monoclinic'
loop_
_space_group_symop_operation_xyz
x,y,z
-x,1/2+y,-z
loop_
_atom_site_type_symbol
_atom_site_label
_atom_site_fract_x
_atom_site_fract_y
_atom_site_fract_z
Si Si1 0.821321 0.551340 0.396741
Si Si2 0.180151 0.558719 0.658790
Si Si3 0.034865 0.198689 0.209278
Si Si4 0.347521 0.245199 0.466314
Si Si5 0.459403 0.546366 0.821739
Si Si6 0.181509 0.206850 0.037089
Si Si7 0.375377 0.417326 0.098473
O O1 0.913198 0.294735 0.502577
O O2 0.823854 0.633248 0.521981
O O3 0.901849 0.792015 0.447590
O O4 0.643634 0.496660 0.110618
O O5 0.327152 0.531460 0.751850
O O6 0.250939 0.577731 0.868738
O O7 0.148702 0.195832 0.246600
O O8 0.931455 0.455624 0.093146
O O9 0.919270 0.961201 0.075822
O O10 0.402005 0.425077 0.635347
O O11 0.323945 0.251497 0.308578
O O12 0.503023 0.060982 0.670792
O O13 0.493944 0.815803 0.824928
O O14 0.275197 0.216391 0.039853
#
# Coordination Sequence:
#
# PCOD9118564 Si02
#       7
#     2   2   2   2   2   2   2
#     4  11  21  41  73 108 146 187 257 321 387 449
#     4  11  21  41  71 116 142 184 258 335 383 458
#     4  12  27  53  76 115 159 221 262 324 399 506
#     4  12  26  48  84 110 156 216 278 332 383 489
#     4  11  23  41  77 117 143 196 272 337 381 456
#     4  12  32  50  75 115 173 209 265 320 424 475
#     4  11  28  46  80 117 161 199 270 345 403 461
#
# _framework density 25.925765999999999
#
# number of rings (size 3 to 8) (size 9 to 14) (size 15 to 20)
#    0.000    0.571    2.857    5.143    8.000    0.000 
#    0.000    8.571    0.000    0.000    0.000    0.000 
#    0.000    0.000    0.000    0.000    0.000    0.000 
#
# Total GULP energy -77949.250776 kJ/mol
# GULP energy per Si atom -5567.803627 kJ/mol
# Density = 2.586676 g / cm^3
# Si number density = 25.925766 Si / 1000 Ang^3
#
#
#
# Elastic Constant Matrix: (Units=GPa)
#
#
# Indices 1 2 3 4 5 6 
#
# 1 105.5022 27.1012 46.4530 0.0000 -14.6727 0.0000
# 2 27.1012 181.8738 54.0374 0.0000 1.5519 0.0000
# 3 46.4530 54.0374 129.7485 0.0000 -23.2722 0.0000
# 4 0.0000 0.0000 0.0000 19.8169 0.0000 -13.2588
# 5 -14.6727 1.5519 -23.2722 0.0000 45.0036 0.0000
# 6 0.0000 0.0000 0.0000 -13.2588 0.0000 -28.4412
#
#
#
# Elastic Compliance Matrix: (Units=1/GPa)
#
#
# Indices 1 2 3 4 5 6 
#
# 1 0.011454 -0.000696 -0.003457 0.000000 0.001970 0.000000
# 2 -0.000696 0.006441 -0.002771 0.000000 -0.001882 0.000000
# 3 -0.003457 -0.002771 0.010928 0.000000 0.004619 0.000000
# 4 0.000000 0.000000 0.000000 0.038465 0.000000 -0.017931
# 5 0.001970 -0.001882 0.004619 0.000000 0.025316 0.000000
# 6 0.000000 0.000000 0.000000 -0.017931 0.000000 -0.026801
#
#
# Mechanical properties :
#
#
# Convention : Reuss Voigt Hill
#
# Bulk Modulus (GPa) = 66.78454 74.70086 70.74270
# Shear Modulus (GPa) = 59.07151 26.57805 42.82478
#
# Velocity S-wave (km/s) = 4.77853 3.20528 4.06867
# Velocity P-wave (km/s) = 7.50077 6.52490 7.02979
#
# Compressibility (1/GPa) = 0.01497352
#
# Stress axis : x y z
#
# Youngs Moduli (GPa) = 87.30868 155.24464 91.51166
#
# Poissons Ratio (x) = 0.10810 0.31638
# Poissons Ratio (y) = 0.06080 0.25358
# Poissons Ratio (z) = 0.30184 0.43018
#
# Static dielectric constant tensor:
#      x y z
#    x 2.056210 0.000000 0.023330 
#    y 0.000000 2.200370 0.000000 
#    z 0.023330 0.000000 2.258720 
# 
# From -- ./inp_files/12834.got.cif
#   From: 2010.05.17/outbox.cif.g08.bks.cpg/sg4_7_cif.got.tgz:12834.got - 2010.06.03 18:43:04.
