data_PCOD9118223
_publ_section_title
;
Structure prediction by ZEFSAII (Michael W. Deem and Ramdas Pophale) SiO2 
 PCOD9118223
Probable space group: P 21
;
_chemical_formula_sum "Si O2"
_cell_formula_units_Z 16
_cell_length_a 6.625505
_cell_length_b 14.307562
_cell_length_c 8.142419
_cell_angle_alpha 90.000000
_cell_angle_beta 121.196615
_cell_angle_gamma 90.000000
_cell_volume 660.244371
_symmetry_space_group_name_H-M "P 21"
_symmetry_group_IT_number 4
_symmetry_cell_setting 'monoclinic'
loop_
_space_group_symop_operation_xyz
x,y,z
-x,1/2+y,-z
loop_
_atom_site_type_symbol
_atom_site_label
_atom_site_fract_x
_atom_site_fract_y
_atom_site_fract_z
Si Si1 0.620295 0.720860 0.446973
Si Si2 0.118251 0.986033 0.945862
Si Si3 0.835053 0.147120 0.891286
Si Si4 0.136828 0.664050 0.719302
Si Si5 0.958570 0.839636 0.157726
Si Si6 0.507013 0.580173 0.671817
Si Si7 0.418382 0.898421 0.501205
Si Si8 0.437831 0.852402 0.873810
O O1 0.439275 0.673354 0.244891
O O2 0.553632 0.676601 0.596678
O O3 0.559244 0.829347 0.438854
O O4 0.892011 0.698082 0.539171
O O5 0.907056 0.056585 0.816651
O O6 0.249932 0.925597 0.865598
O O7 0.312221 0.054948 0.107469
O O8 0.029844 0.912387 0.044434
O O9 0.976570 0.236939 0.883365
O O10 0.894157 0.128677 0.106983
O O11 0.255396 0.587913 0.652673
O O12 0.312441 0.752093 0.811722
O O13 0.144954 0.865030 0.378285
O O14 0.681929 0.847365 0.078043
O O15 0.553250 0.500980 0.557050
O O16 0.507023 0.885233 0.721463
#
# Coordination Sequence:
#
# PCOD9118223 Si02
#       8
#     2   2   2   2   2   2   2   2
#     4  11  25  49  72 105 148 190 236 299 361 428
#     4  11  25  46  73 109 142 189 242 298 357 431
#     4  11  24  48  73 103 150 187 240 302 358 434
#     4  12  25  48  74 105 144 195 241 297 365 427
#     4  10  24  49  68 105 147 182 238 304 358 422
#     4  11  25  48  71 107 149 186 239 306 355 424
#     4  10  25  49  71 105 150 184 241 305 354 432
#     4  12  25  45  78 105 138 199 241 293 372 428
#
# _framework density 24.233453000000001
#
# number of rings (size 3 to 8) (size 9 to 14) (size 15 to 20)
#    0.000    1.000    3.750    1.500    3.500    1.000 
#    9.000    0.000    0.000    0.000    0.000    0.000 
#    0.000    0.000    0.000    0.000    0.000    0.000 
#
# Total GULP energy -89652.597608 kJ/mol
# GULP energy per Si atom -5603.287350 kJ/mol
# Density = 2.417830 g / cm^3
# Si number density = 24.233453 Si / 1000 Ang^3
#
#
#
# Elastic Constant Matrix: (Units=GPa)
#
#
# Indices 1 2 3 4 5 6 
#
# 1 74.6900 25.7394 16.9194 0.0000 22.9340 0.0000
# 2 25.7394 86.7007 3.2506 0.0000 4.0325 0.0000
# 3 16.9194 3.2506 79.7481 0.0000 24.0778 0.0000
# 4 0.0000 0.0000 0.0000 23.3220 0.0000 -2.1032
# 5 22.9340 4.0325 24.0778 0.0000 42.2926 0.0000
# 6 0.0000 0.0000 0.0000 -2.1032 0.0000 32.3477
#
#
#
# Elastic Compliance Matrix: (Units=1/GPa)
#
#
# Indices 1 2 3 4 5 6 
#
# 1 0.017976 -0.004894 -0.000981 0.000000 -0.008723 0.000000
# 2 -0.004894 0.012920 0.000099 0.000000 0.001365 0.000000
# 3 -0.000981 0.000099 0.015198 0.000000 -0.008130 0.000000
# 4 0.000000 0.000000 0.000000 0.043131 0.000000 0.002804
# 5 -0.008723 0.001365 -0.008130 0.000000 0.032873 0.000000
# 6 0.000000 0.000000 0.000000 0.002804 0.000000 0.031096
#
#
# Mechanical properties :
#
#
# Convention : Reuss Voigt Hill
#
# Bulk Modulus (GPa) = 28.94942 36.99529 32.97236
# Shear Modulus (GPa) = 28.36729 32.60776 30.48752
#
# Velocity S-wave (km/s) = 3.42509 3.67218 3.55078
# Velocity P-wave (km/s) = 5.25487 5.76881 5.51783
#
# Compressibility (1/GPa) = 0.03454301
#
# Stress axis : x y z
#
# Youngs Moduli (GPa) = 55.63036 77.40146 65.79725
#
# Poissons Ratio (x) = 0.37881 0.06452
# Poissons Ratio (y) = 0.27226 -0.00654
# Poissons Ratio (z) = 0.05455 -0.00770
#
# Static dielectric constant tensor:
#      x y z
#    x 1.899910 0.000000 0.030780 
#    y 0.000000 1.873470 0.000000 
#    z 0.030780 0.000000 1.938120 
# 
# From -- ./inp_files/1876.got.cif
#   From: 2010.05.17/outbox.cif.g08.bks.cpg/sg4_1_cif.got.tgz:1876.got - 2010.06.03 18:43:04.
