data_PCOD9118091
_publ_section_title
;
Structure prediction by ZEFSAII (Michael W. Deem and Ramdas Pophale) SiO2 
 PCOD9118091
Probable space group: P 21
;
_chemical_formula_sum "Si O2"
_cell_formula_units_Z 16
_cell_length_a 9.890773
_cell_length_b 14.734582
_cell_length_c 5.194892
_cell_angle_alpha 90.000000
_cell_angle_beta 50.803927
_cell_angle_gamma 90.000000
_cell_volume 586.731557
_symmetry_space_group_name_H-M "P 21"
_symmetry_group_IT_number 4
_symmetry_cell_setting 'monoclinic'
loop_
_space_group_symop_operation_xyz
x,y,z
-x,1/2+y,-z
loop_
_atom_site_type_symbol
_atom_site_label
_atom_site_fract_x
_atom_site_fract_y
_atom_site_fract_z
Si Si1 0.975547 0.014870 0.119861
Si Si2 0.504243 0.472100 0.902448
Si Si3 0.596255 0.078016 0.496624
Si Si4 0.832471 0.408971 0.723673
Si Si5 0.322849 0.733168 0.952192
Si Si6 0.631586 0.779410 0.931832
Si Si7 0.098929 0.323378 0.036636
Si Si8 0.045195 0.174169 0.707445
O O1 0.072804 0.074829 0.789774
O O2 0.921980 0.914191 0.099610
O O3 0.791966 0.064702 0.365087
O O4 0.094856 0.997092 0.221540
O O5 0.513389 0.542355 0.129890
O O6 0.383479 0.386389 0.129829
O O7 0.441131 0.515776 0.712081
O O8 0.697107 0.430054 0.659914
O O9 0.585964 0.178094 0.387290
O O10 0.729667 0.338119 0.031602
O O11 0.993501 0.352014 0.417925
O O12 0.139712 0.680042 0.217815
O O13 0.453204 0.737386 0.037438
O O14 0.703700 0.795515 0.134046
O O15 0.786267 0.716654 0.631118
O O16 0.016317 0.239662 0.988544
#
# Coordination Sequence:
#
# PCOD9118091 Si02
#       8
#     2   2   2   2   2   2   2   2
#     4  11  25  44  71 103 145 196 246 306 375 443
#     4  11  26  44  74 105 146 195 246 305 373 443
#     4  11  25  47  69 107 146 191 247 310 368 444
#     4  11  25  45  69 106 142 196 246 305 370 448
#     4  10  24  45  68 103 141 186 244 302 373 437
#     4  11  24  46  69 102 142 192 242 305 370 445
#     4  12  22  44  74  97 145 190 247 307 373 444
#     4  11  25  45  70 103 143 190 244 308 370 442
#
# _framework density 27.269711999999998
#
# number of rings (size 3 to 8) (size 9 to 14) (size 15 to 20)
#    0.000    1.000    3.750    1.500    3.500    4.000 
#    2.250    0.000    0.000    0.000    0.000    0.000 
#    0.000    0.000    0.000    0.000    0.000    0.000 
#
# Total GULP energy -89570.717423 kJ/mol
# GULP energy per Si atom -5598.169839 kJ/mol
# Density = 2.720765 g / cm^3
# Si number density = 27.269712 Si / 1000 Ang^3
#
#
#
# Elastic Constant Matrix: (Units=GPa)
#
#
# Indices 1 2 3 4 5 6 
#
# 1 192.9194 70.4598 40.7626 0.0000 0.5279 0.0000
# 2 70.4598 117.2269 58.9858 0.0000 -5.5421 0.0000
# 3 40.7626 58.9858 52.3565 0.0000 8.2143 0.0000
# 4 0.0000 0.0000 0.0000 42.1599 0.0000 5.6934
# 5 0.5279 -5.5421 8.2143 0.0000 44.1670 0.0000
# 6 0.0000 0.0000 0.0000 5.6934 0.0000 46.3457
#
#
#
# Elastic Compliance Matrix: (Units=1/GPa)
#
#
# Indices 1 2 3 4 5 6 
#
# 1 0.006699 -0.003302 -0.001460 0.000000 -0.000223 0.000000
# 2 -0.003302 0.023526 -0.025137 0.000000 0.007666 0.000000
# 3 -0.001460 -0.025137 0.050522 0.000000 -0.012533 0.000000
# 4 0.000000 0.000000 0.000000 0.024119 0.000000 -0.002963
# 5 -0.000223 0.007666 -0.012533 0.000000 0.025937 0.000000
# 6 0.000000 0.000000 0.000000 -0.002963 0.000000 0.021941
#
#
# Mechanical properties :
#
#
# Convention : Reuss Voigt Hill
#
# Bulk Modulus (GPa) = 47.73455 78.10213 62.91834
# Shear Modulus (GPa) = 22.77650 39.35416 31.06533
#
# Velocity S-wave (km/s) = 2.89317 3.80300 3.37885
# Velocity P-wave (km/s) = 5.35754 6.92723 6.19232
#
# Compressibility (1/GPa) = 0.02094919
#
# Stress axis : x y z
#
# Youngs Moduli (GPa) = 149.28362 42.50658 19.79325
#
# Poissons Ratio (x) = 0.14036 0.02890
# Poissons Ratio (y) = 0.49295 0.49753
# Poissons Ratio (z) = 0.21797 1.06847
#
# Static dielectric constant tensor:
#      x y z
#    x 2.060600 0.000000 -0.000360 
#    y 0.000000 2.127030 0.000000 
#    z -0.000360 0.000000 2.205870 
# 
# From -- ./inp_files/1846.got.cif
#   From: 2010.05.17/outbox.cif.g08.bks.cpg/sg4_1_cif.got.tgz:1846.got - 2010.06.03 18:43:04.
