data_PCOD9118246
_publ_section_title
;
Structure prediction by ZEFSAII (Michael W. Deem and Ramdas Pophale) SiO2 
 PCOD9118246
Probable space group: P 21
;
_chemical_formula_sum "Si O2"
_cell_formula_units_Z 12
_cell_length_a 4.992467
_cell_length_b 8.898873
_cell_length_c 10.283629
_cell_angle_alpha 90.000000
_cell_angle_beta 83.482095
_cell_angle_gamma 90.000000
_cell_volume 453.921139
_symmetry_space_group_name_H-M "P 21"
_symmetry_group_IT_number 4
_symmetry_cell_setting 'monoclinic'
loop_
_space_group_symop_operation_xyz
x,y,z
-x,1/2+y,-z
loop_
_atom_site_type_symbol
_atom_site_label
_atom_site_fract_x
_atom_site_fract_y
_atom_site_fract_z
Si Si1 0.774810 0.970100 0.677380
Si Si2 0.998891 0.517375 0.682750
Si Si3 0.940101 0.258672 0.515288
Si Si4 0.184531 0.380578 0.920897
Si Si5 0.755455 0.402945 0.150595
Si Si6 0.406713 0.129306 0.079964
O O1 0.479240 0.987441 0.754577
O O2 0.792320 0.842080 0.561679
O O3 0.982243 0.911298 0.773412
O O4 0.901405 0.129886 0.626177
O O5 0.835151 0.411372 0.589634
O O6 0.793647 0.590867 0.793530
O O7 0.152394 0.651318 0.599279
O O8 0.172770 0.408435 0.767268
O O9 0.403564 0.491976 0.969303
O O10 0.270270 0.217744 0.967288
O O11 0.902105 0.426058 0.002046
O O12 0.620676 0.242421 0.134443
#
# Coordination Sequence:
#
# PCOD9118246 Si02
#       6
#     2   2   2   2   2   2
#     4  11  25  48  82 114 164 218 276 341 414 486
#     4  11  25  52  80 122 163 219 276 340 417 489
#     4  10  24  52  77 119 159 221 280 340 396 504
#     4  12  27  49  84 116 171 213 276 348 427 495
#     4  12  25  51  79 115 165 209 269 345 415 494
#     4  12  26  50  78 122 164 216 271 342 423 500
#
# _framework density 26.436311
#
# number of rings (size 3 to 8) (size 9 to 14) (size 15 to 20)
#    0.000    0.667    3.333    3.000    0.000    6.667 
#   18.000    0.000    0.000    0.000    0.000    0.000 
#    0.000    0.000    0.000    0.000    0.000    0.000 
#
# Total GULP energy -66942.582493 kJ/mol
# GULP energy per Si atom -5578.548541 kJ/mol
# Density = 2.637614 g / cm^3
# Si number density = 26.436311 Si / 1000 Ang^3
#
#
#
# Elastic Constant Matrix: (Units=GPa)
#
#
# Indices 1 2 3 4 5 6 
#
# 1 124.2493 20.0375 44.3251 0.0000 -14.1105 0.0000
# 2 20.0375 127.3378 45.0589 0.0000 -7.8051 0.0000
# 3 44.3251 45.0589 130.7893 0.0000 -16.6374 0.0000
# 4 0.0000 0.0000 0.0000 68.1352 0.0000 2.9052
# 5 -14.1105 -7.8051 -16.6374 0.0000 21.0536 0.0000
# 6 0.0000 0.0000 0.0000 2.9052 0.0000 35.7508
#
#
#
# Elastic Compliance Matrix: (Units=1/GPa)
#
#
# Indices 1 2 3 4 5 6 
#
# 1 0.009496 -0.000327 -0.002570 0.000000 0.004213 0.000000
# 2 -0.000327 0.008973 -0.002874 0.000000 0.000836 0.000000
# 3 -0.002570 -0.002874 0.010175 0.000000 0.005253 0.000000
# 4 0.000000 0.000000 0.000000 0.014728 0.000000 -0.001197
# 5 0.004213 0.000836 0.005253 0.000000 0.054782 0.000000
# 6 0.000000 0.000000 0.000000 -0.001197 0.000000 0.028069
#
#
# Mechanical properties :
#
#
# Convention : Reuss Voigt Hill
#
# Bulk Modulus (GPa) = 58.47021 66.80217 62.63619
# Shear Modulus (GPa) = 34.85163 43.18492 39.01827
#
# Velocity S-wave (km/s) = 3.63481 4.04610 3.84596
# Velocity P-wave (km/s) = 6.30724 6.86672 6.59292
#
# Compressibility (1/GPa) = 0.01710273
#
# Stress axis : x y z
#
# Youngs Moduli (GPa) = 105.30502 111.44753 98.27774
#
# Poissons Ratio (x) = 0.03641 0.25256
# Poissons Ratio (y) = 0.03441 0.28247
# Poissons Ratio (z) = 0.27062 0.32032
#
# Static dielectric constant tensor:
#      x y z
#    x 2.071970 0.000000 0.121410 
#    y 0.000000 2.197250 0.000000 
#    z 0.121410 0.000000 2.215340 
# 
# From -- ./inp_files/10269.got.cif
#   From: 2010.05.17/outbox.cif.g08.bks.cpg/sg4_6_cif.got.tgz:10269.got - 2010.06.03 18:43:04.
