data_PCOD9118563
_publ_section_title
;
Structure prediction by ZEFSAII (Michael W. Deem and Ramdas Pophale) SiO2 
 PCOD9118563
Probable space group: P 21
;
_chemical_formula_sum "Si O2"
_cell_formula_units_Z 16
_cell_length_a 12.477553
_cell_length_b 5.669638
_cell_length_c 17.757891
_cell_angle_alpha 90.000000
_cell_angle_beta 148.903855
_cell_angle_gamma 90.000000
_cell_volume 648.822715
_symmetry_space_group_name_H-M "P 21"
_symmetry_group_IT_number 4
_symmetry_cell_setting 'monoclinic'
loop_
_space_group_symop_operation_xyz
x,y,z
-x,1/2+y,-z
loop_
_atom_site_type_symbol
_atom_site_label
_atom_site_fract_x
_atom_site_fract_y
_atom_site_fract_z
Si Si1 0.721836 0.827440 0.763999
Si Si2 0.587918 0.705924 0.394841
Si Si3 0.473892 0.469023 0.801406
Si Si4 0.898265 0.229812 0.463005
Si Si5 0.244860 0.915487 0.301035
Si Si6 0.895856 0.668472 0.023805
Si Si7 0.916093 0.387520 0.637980
Si Si8 0.394806 0.323874 0.914170
O O1 0.698802 0.689391 0.672648
O O2 0.806371 0.683687 0.886121
O O3 0.516119 0.947152 0.671229
O O4 0.901561 0.010792 0.856417
O O5 0.557227 0.834250 0.296832
O O6 0.434310 0.815846 0.364924
O O7 0.823064 0.646648 0.559753
O O8 0.709055 0.550996 0.955939
O O9 0.396418 0.314534 0.824145
O O10 0.328675 0.698592 0.709309
O O11 0.887153 0.228932 0.546740
O O12 0.989354 0.485894 0.495171
O O13 0.211478 0.819056 0.364136
O O14 0.009071 0.900953 0.123504
O O15 0.160688 0.375744 0.800945
O O16 0.520803 0.567771 0.008537
#
# Coordination Sequence:
#
# PCOD9118563 Si02
#       8
#     2   2   2   2   2   2   2   2
#     4  11  21  43  70 110 159 198 272 315 406 480
#     4  11  27  47  76 120 148 218 261 338 400 497
#     4  12  26  49  84 110 163 208 279 333 406 488
#     4  12  28  55  82 118 155 214 277 343 399 482
#     4  11  26  47  71 115 161 206 260 332 414 487
#     4  11  21  41  71 105 150 206 254 326 387 487
#     4  12  29  51  82 112 165 209 268 342 413 482
#     4  12  32  55  80 122 163 215 273 337 411 483
#
# _framework density 24.660052
#
# number of rings (size 3 to 8) (size 9 to 14) (size 15 to 20)
#    0.000    0.500    3.750    3.000    5.250    1.000 
#    6.750    0.000    0.000    0.000    0.000    0.000 
#    0.000    0.000    0.000    0.000    0.000    0.000 
#
# Total GULP energy -89361.315542 kJ/mol
# GULP energy per Si atom -5585.082221 kJ/mol
# Density = 2.460392 g / cm^3
# Si number density = 24.660052 Si / 1000 Ang^3
#
#
#
# Elastic Constant Matrix: (Units=GPa)
#
#
# Indices 1 2 3 4 5 6 
#
# 1 154.4075 33.8654 17.5702 0.0000 -14.3939 0.0000
# 2 33.8654 85.9555 24.9435 0.0000 4.7601 0.0000
# 3 17.5702 24.9435 85.5596 0.0000 13.1470 0.0000
# 4 0.0000 0.0000 0.0000 47.5321 0.0000 0.8949
# 5 -14.3939 4.7601 13.1470 0.0000 46.4806 0.0000
# 6 0.0000 0.0000 0.0000 0.8949 0.0000 18.1049
#
#
#
# Elastic Compliance Matrix: (Units=1/GPa)
#
#
# Indices 1 2 3 4 5 6 
#
# 1 0.007493 -0.002772 -0.001182 0.000000 0.002939 0.000000
# 2 -0.002772 0.013738 -0.003228 0.000000 -0.001352 0.000000
# 3 -0.001182 -0.003228 0.013462 0.000000 -0.003843 0.000000
# 4 0.000000 0.000000 0.000000 0.021058 0.000000 -0.001041
# 5 0.002939 -0.001352 -0.003843 0.000000 0.023650 0.000000
# 6 0.000000 0.000000 0.000000 -0.001041 0.000000 0.055285
#
#
# Mechanical properties :
#
#
# Convention : Reuss Voigt Hill
#
# Bulk Modulus (GPa) = 49.19161 53.18677 51.18919
# Shear Modulus (GPa) = 32.08721 39.05977 35.57349
#
# Velocity S-wave (km/s) = 3.61110 3.98418 3.80222
# Velocity P-wave (km/s) = 6.11375 6.54062 6.33078
#
# Compressibility (1/GPa) = 0.02032867
#
# Stress axis : x y z
#
# Youngs Moduli (GPa) = 133.46266 72.79310 74.28243
#
# Poissons Ratio (x) = 0.20176 0.08781
# Poissons Ratio (y) = 0.36992 0.23978
# Poissons Ratio (z) = 0.15777 0.23498
#
# Static dielectric constant tensor:
#      x y z
#    x 2.013350 0.000000 -0.069990 
#    y 0.000000 2.170290 0.000000 
#    z -0.069990 0.000000 2.023050 
# 
# From -- ./inp_files/15093.got.cif
#   From: 2010.05.17/outbox.cif.g08.bks.cpg/sg4_8_cif.got.tgz:15093.got - 2010.06.03 18:43:04.
