data_PCOD9118926
_publ_section_title
;
Structure prediction by ZEFSAII (Michael W. Deem and Ramdas Pophale) SiO2 
 PCOD9118926
Probable space group: P 21
;
_chemical_formula_sum "Si O2"
_cell_formula_units_Z 16
_cell_length_a 6.669831
_cell_length_b 12.155648
_cell_length_c 11.347744
_cell_angle_alpha 90.000000
_cell_angle_beta 125.860756
_cell_angle_gamma 90.000000
_cell_volume 745.632780
_symmetry_space_group_name_H-M "P 21"
_symmetry_group_IT_number 4
_symmetry_cell_setting 'monoclinic'
loop_
_space_group_symop_operation_xyz
x,y,z
-x,1/2+y,-z
loop_
_atom_site_type_symbol
_atom_site_label
_atom_site_fract_x
_atom_site_fract_y
_atom_site_fract_z
Si Si1 0.007055 0.334860 0.918377
Si Si2 0.067958 0.255972 0.668824
Si Si3 0.732006 0.559647 0.769700
Si Si4 0.700078 0.056241 0.564757
Si Si5 0.474710 0.086401 0.738695
Si Si6 0.488986 0.745590 0.843328
Si Si7 0.921442 0.395690 0.406147
Si Si8 0.777345 0.168769 0.025030
O O1 0.048234 0.293836 0.797807
O O2 0.846821 0.446348 0.858390
O O3 0.856158 0.248405 0.946012
O O4 0.277530 0.328085 0.072896
O O5 0.321736 0.197453 0.715406
O O6 0.859150 0.161714 0.577537
O O7 0.025321 0.357905 0.567293
O O8 0.548309 0.543612 0.597342
O O9 0.582722 0.633634 0.813201
O O10 0.976451 0.630103 0.823380
O O11 0.636956 0.082688 0.677597
O O12 0.862600 0.945750 0.601818
O O13 0.641227 0.069534 0.911522
O O14 0.271122 0.994158 0.649197
O O15 0.244995 0.796709 0.700763
O O16 0.409546 0.721041 0.948492
#
# Coordination Sequence:
#
# PCOD9118926 Si02
#       8
#     2   2   2   2   2   2   2   2
#     4  11  24  45  71 103 137 187 235 284 353 412
#     4  11  23  45  69 101 140 180 233 285 352 410
#     4  11  26  43  71 106 137 182 239 287 348 423
#     4  11  25  44  70 102 140 180 232 287 347 419
#     4  11  24  44  70  99 137 186 231 284 350 420
#     4  11  25  47  68 103 147 182 234 290 344 422
#     4  11  26  42  71 102 136 185 229 288 353 410
#     4  11  25  44  70  98 144 186 227 295 339 420
#
# _framework density 21.458283999999999
#
# number of rings (size 3 to 8) (size 9 to 14) (size 15 to 20)
#    0.000    1.000    3.750    1.500    3.500    7.000 
#    0.000    0.000    0.000    0.000    0.000    0.000 
#    0.000    0.000    0.000    0.000    0.000    0.000 
#
# Total GULP energy -89356.639421 kJ/mol
# GULP energy per Si atom -5584.789964 kJ/mol
# Density = 2.140944 g / cm^3
# Si number density = 21.458284 Si / 1000 Ang^3
#
#
#
# Elastic Constant Matrix: (Units=GPa)
#
#
# Indices 1 2 3 4 5 6 
#
# 1 102.8888 28.7597 25.2436 0.0000 5.7739 0.0000
# 2 28.7597 81.5988 8.9271 0.0000 4.7108 0.0000
# 3 25.2436 8.9271 77.1538 0.0000 15.3711 0.0000
# 4 0.0000 0.0000 0.0000 24.8698 0.0000 15.5745
# 5 5.7739 4.7108 15.3711 0.0000 37.1062 0.0000
# 6 0.0000 0.0000 0.0000 15.5745 0.0000 31.8379
#
#
#
# Elastic Compliance Matrix: (Units=1/GPa)
#
#
# Indices 1 2 3 4 5 6 
#
# 1 0.011582 -0.003717 -0.003373 0.000000 0.000067 0.000000
# 2 -0.003717 0.013644 -0.000145 0.000000 -0.001094 0.000000
# 3 -0.003373 -0.000145 0.015230 0.000000 -0.005766 0.000000
# 4 0.000000 0.000000 0.000000 0.057967 0.000000 -0.028357
# 5 0.000067 -0.001094 -0.005766 0.000000 0.029467 0.000000
# 6 0.000000 0.000000 0.000000 -0.028357 0.000000 0.045281
#
#
# Mechanical properties :
#
#
# Convention : Reuss Voigt Hill
#
# Bulk Modulus (GPa) = 38.47991 43.05579 40.76785
# Shear Modulus (GPa) = 25.47098 32.01020 28.74059
#
# Velocity S-wave (km/s) = 3.44902 3.86650 3.66371
# Velocity P-wave (km/s) = 5.81656 6.32784 6.07758
#
# Compressibility (1/GPa) = 0.02598759
#
# Stress axis : x y z
#
# Youngs Moduli (GPa) = 86.34135 73.29169 65.65960
#
# Poissons Ratio (x) = 0.27242 0.22145
# Poissons Ratio (y) = 0.32093 0.00950
# Poissons Ratio (z) = 0.29120 0.01060
#
# Static dielectric constant tensor:
#      x y z
#    x 1.757040 0.000000 0.034570 
#    y 0.000000 1.796860 0.000000 
#    z 0.034570 0.000000 1.786930 
# 
# From -- ./inp_files/1341.got.cif
#   From: 2010.05.17/outbox.cif.g08.bks.cpg/sg4_1_cif.got.tgz:1341.got - 2010.06.03 18:43:04.
