data_PCOD9118319
_publ_section_title
;
Structure prediction by ZEFSAII (Michael W. Deem and Ramdas Pophale) SiO2 
 PCOD9118319
Probable space group: P 21
;
_chemical_formula_sum "Si O2"
_cell_formula_units_Z 16
_cell_length_a 12.813465
_cell_length_b 9.304000
_cell_length_c 5.386518
_cell_angle_alpha 90.000000
_cell_angle_beta 109.322731
_cell_angle_gamma 90.000000
_cell_volume 605.988578
_symmetry_space_group_name_H-M "P 21"
_symmetry_group_IT_number 4
_symmetry_cell_setting 'monoclinic'
loop_
_space_group_symop_operation_xyz
x,y,z
-x,1/2+y,-z
loop_
_atom_site_type_symbol
_atom_site_label
_atom_site_fract_x
_atom_site_fract_y
_atom_site_fract_z
Si Si1 0.552949 0.662460 0.275776
Si Si2 0.133488 0.212171 0.216408
Si Si3 0.683351 0.190272 0.139414
Si Si4 0.356475 0.575711 0.374493
Si Si5 0.063658 0.759437 0.295572
Si Si6 0.892111 0.956659 0.443512
Si Si7 0.242081 0.963030 0.536644
Si Si8 0.697035 0.820710 0.989569
O O1 0.473548 0.662262 0.456976
O O2 0.636075 0.531812 0.399858
O O3 0.628068 0.773265 0.176880
O O4 0.448175 0.659132 0.006300
O O5 0.135460 0.373157 0.323664
O O6 0.163933 0.104611 0.464547
O O7 0.237148 0.195952 0.106762
O O8 0.017202 0.200158 0.983999
O O9 0.695854 0.098936 0.401264
O O10 0.728747 0.349384 0.223604
O O11 0.720816 0.146588 0.895446
O O12 0.368814 0.415070 0.269093
O O13 0.087038 0.622817 0.489129
O O14 0.169897 0.856145 0.304892
O O15 0.996947 0.873308 0.412462
O O16 0.797655 0.913170 0.176304
#
# Coordination Sequence:
#
# PCOD9118319 Si02
#       8
#     2   2   2   2   2   2   2   2
#     4  10  25  46  70 108 149 204 254 319 374 471
#     4  11  26  44  74 109 149 195 261 318 399 473
#     4  10  26  47  73 116 151 203 263 319 384 470
#     4  10  25  48  73 111 157 197 265 324 383 469
#     4  11  26  46  75 109 146 198 260 324 398 476
#     4  11  24  48  71 102 150 189 256 327 385 480
#     4  12  24  49  77 112 152 209 256 330 397 467
#     4  11  24  44  73 103 148 207 243 325 396 458
#
# _framework density 26.403138999999999
#
# number of rings (size 3 to 8) (size 9 to 14) (size 15 to 20)
#    0.750    0.500    1.250    3.000    7.000    2.000 
#    9.000    0.000    0.000    0.000    0.000    0.000 
#    0.000    0.000    0.000    0.000    0.000    0.000 
#
# Total GULP energy -89074.414249 kJ/mol
# GULP energy per Si atom -5567.150891 kJ/mol
# Density = 2.634304 g / cm^3
# Si number density = 26.403139 Si / 1000 Ang^3
#
#
#
# Elastic Constant Matrix: (Units=GPa)
#
#
# Indices 1 2 3 4 5 6 
#
# 1 102.6883 52.7638 46.7022 0.0000 7.4416 0.0000
# 2 52.7638 120.4140 45.1099 0.0000 4.9516 0.0000
# 3 46.7022 45.1099 84.8071 0.0000 20.2160 0.0000
# 4 0.0000 0.0000 0.0000 43.4977 0.0000 10.7719
# 5 7.4416 4.9516 20.2160 0.0000 41.1353 0.0000
# 6 0.0000 0.0000 0.0000 10.7719 0.0000 37.8151
#
#
#
# Elastic Compliance Matrix: (Units=1/GPa)
#
#
# Indices 1 2 3 4 5 6 
#
# 1 0.014541 -0.004162 -0.005987 0.000000 0.000813 0.000000
# 2 -0.004162 0.011663 -0.004255 0.000000 0.001440 0.000000
# 3 -0.005987 -0.004255 0.019224 0.000000 -0.007852 0.000000
# 4 0.000000 0.000000 0.000000 0.024735 0.000000 -0.007046
# 5 0.000813 0.001440 -0.007852 0.000000 0.027849 0.000000
# 6 0.000000 0.000000 0.000000 -0.007046 0.000000 0.028452
#
#
# Mechanical properties :
#
#
# Convention : Reuss Voigt Hill
#
# Bulk Modulus (GPa) = 60.17313 66.34012 63.25663
# Shear Modulus (GPa) = 31.09227 35.37851 33.23539
#
# Velocity S-wave (km/s) = 3.43534 3.66448 3.55176
# Velocity P-wave (km/s) = 6.21088 6.56392 6.38984
#
# Compressibility (1/GPa) = 0.01661871
#
# Stress axis : x y z
#
# Youngs Moduli (GPa) = 68.77147 85.73903 52.01870
#
# Poissons Ratio (x) = 0.35685 0.31146
# Poissons Ratio (y) = 0.28623 0.22135
# Poissons Ratio (z) = 0.41177 0.36484
#
# Static dielectric constant tensor:
#      x y z
#    x 2.144140 0.000000 0.023990 
#    y 0.000000 2.189040 0.000000 
#    z 0.023990 0.000000 2.086410 
# 
# From -- ./inp_files/3717.got.cif
#   From: 2010.05.17/outbox.cif.g08.bks.cpg/sg4_2_cif.got.tgz:3717.got - 2010.06.03 18:43:04.
