data_PCOD9118510
_publ_section_title
;
Structure prediction by ZEFSAII (Michael W. Deem and Ramdas Pophale) SiO2 
 PCOD9118510
Probable space group: P 21
;
_chemical_formula_sum "Si O2"
_cell_formula_units_Z 14
_cell_length_a 9.010722
_cell_length_b 5.331479
_cell_length_c 15.311474
_cell_angle_alpha 90.000000
_cell_angle_beta 125.959623
_cell_angle_gamma 90.000000
_cell_volume 595.393563
_symmetry_space_group_name_H-M "P 21"
_symmetry_group_IT_number 4
_symmetry_cell_setting 'monoclinic'
loop_
_space_group_symop_operation_xyz
x,y,z
-x,1/2+y,-z
loop_
_atom_site_type_symbol
_atom_site_label
_atom_site_fract_x
_atom_site_fract_y
_atom_site_fract_z
Si Si1 0.878081 0.168440 0.958312
Si Si2 0.722947 0.464891 0.750157
Si Si3 0.911311 0.580749 0.507794
Si Si4 0.378573 0.678810 0.961263
Si Si5 0.436220 0.797253 0.611237
Si Si6 0.728804 0.092083 0.606693
Si Si7 0.985778 0.228075 0.261275
O O1 0.767499 0.247947 0.833421
O O2 0.738521 0.160000 0.990249
O O3 0.018481 0.403950 0.017106
O O4 0.555353 0.642284 0.721642
O O5 0.906558 0.611686 0.784850
O O6 0.671466 0.333549 0.641489
O O7 0.698226 0.522849 0.410882
O O8 0.980999 0.838014 0.490208
O O9 0.948873 0.602477 0.625116
O O10 0.227622 0.708000 0.832075
O O11 0.496378 0.426608 0.991931
O O12 0.595403 0.883445 0.600008
O O13 0.304918 0.625690 0.506432
O O14 0.935056 0.009840 0.700945
#
# Coordination Sequence:
#
# PCOD9118510 Si02
#       7
#     2   2   2   2   2   2   2
#     4  12  26  51  80 112 146 194 269 317 368 446
#     4  11  24  41  80 107 141 191 247 322 367 436
#     4  12  28  46  70 102 154 204 242 292 363 472
#     4  12  29  52  79 111 154 199 252 320 389 456
#     4  11  22  40  66 110 144 186 241 296 363 436
#     4  11  20  40  74 104 144 184 239 307 365 441
#     4  11  25  48  73 104 143 204 244 302 391 437
#
# _framework density 23.513857999999999
#
# number of rings (size 3 to 8) (size 9 to 14) (size 15 to 20)
#    0.000    0.571    4.286    3.429    6.000    1.143 
#    2.571    0.000    0.000    0.000    0.000    0.000 
#    0.000    0.000    0.000    0.000    0.000    0.000 
#
# Total GULP energy -78300.446049 kJ/mol
# GULP energy per Si atom -5592.889004 kJ/mol
# Density = 2.346034 g / cm^3
# Si number density = 23.513858 Si / 1000 Ang^3
#
#
#
# Elastic Constant Matrix: (Units=GPa)
#
#
# Indices 1 2 3 4 5 6 
#
# 1 124.4600 56.8085 32.6229 0.0000 7.1426 0.0000
# 2 56.8085 128.7443 20.5416 0.0000 10.1335 0.0000
# 3 32.6229 20.5416 78.2320 0.0000 20.2262 0.0000
# 4 0.0000 0.0000 0.0000 45.1740 0.0000 3.3213
# 5 7.1426 10.1335 20.2262 0.0000 38.9446 0.0000
# 6 0.0000 0.0000 0.0000 3.3213 0.0000 43.9757
#
#
#
# Elastic Compliance Matrix: (Units=1/GPa)
#
#
# Indices 1 2 3 4 5 6 
#
# 1 0.010907 -0.004306 -0.003685 0.000000 0.001034 0.000000
# 2 -0.004306 0.009853 -0.000384 0.000000 -0.001574 0.000000
# 3 -0.003685 -0.000384 0.016425 0.000000 -0.007755 0.000000
# 4 0.000000 0.000000 0.000000 0.022260 0.000000 -0.001681
# 5 0.001034 -0.001574 -0.007755 0.000000 0.029925 0.000000
# 6 0.000000 0.000000 0.000000 -0.001681 0.000000 0.022867
#
#
# Mechanical properties :
#
#
# Convention : Reuss Voigt Hill
#
# Bulk Modulus (GPa) = 48.93847 61.26470 55.10159
# Shear Modulus (GPa) = 36.81948 40.38307 38.60127
#
# Velocity S-wave (km/s) = 3.96139 4.14867 4.05611
# Velocity P-wave (km/s) = 6.46384 7.00428 6.73948
#
# Compressibility (1/GPa) = 0.02043382
#
# Stress axis : x y z
#
# Youngs Moduli (GPa) = 91.68712 101.49588 60.88342
#
# Poissons Ratio (x) = 0.43704 0.22434
# Poissons Ratio (y) = 0.39481 0.02340
# Poissons Ratio (z) = 0.33784 0.03901
#
# Static dielectric constant tensor:
#      x y z
#    x 1.876640 0.000000 0.016240 
#    y 0.000000 1.930920 0.000000 
#    z 0.016240 0.000000 1.945960 
# 
# From -- ./inp_files/9344.got.cif
#   From: 2010.05.17/outbox.cif.g08.bks.cpg/sg4_5_cif.got.tgz:9344.got - 2010.06.03 18:43:04.
