data_PCOD9118417
_publ_section_title
;
Structure prediction by ZEFSAII (Michael W. Deem and Ramdas Pophale) SiO2 
 PCOD9118417
Probable space group: P 21
;
_chemical_formula_sum "Si O2"
_cell_formula_units_Z 12
_cell_length_a 5.079543
_cell_length_b 8.162293
_cell_length_c 10.965393
_cell_angle_alpha 90.000000
_cell_angle_beta 85.464737
_cell_angle_gamma 90.000000
_cell_volume 453.209549
_symmetry_space_group_name_H-M "P 21"
_symmetry_group_IT_number 4
_symmetry_cell_setting 'monoclinic'
loop_
_space_group_symop_operation_xyz
x,y,z
-x,1/2+y,-z
loop_
_atom_site_type_symbol
_atom_site_label
_atom_site_fract_x
_atom_site_fract_y
_atom_site_fract_z
Si Si1 0.921888 0.474750 0.597076
Si Si2 0.149909 0.752154 0.732650
Si Si3 0.448376 0.426677 0.429375
Si Si4 0.956701 0.929366 0.143280
Si Si5 0.542872 0.293918 0.976047
Si Si6 0.286024 0.488643 0.183846
O O1 0.960507 0.659692 0.642797
O O2 0.175127 0.424537 0.509634
O O3 0.945742 0.377258 0.724473
O O4 0.666869 0.463885 0.523322
O O5 0.414457 0.776579 0.646824
O O6 0.150263 0.614066 0.836206
O O7 0.007207 0.918563 0.779870
O O8 0.401363 0.540391 0.311276
O O9 0.716841 0.826567 0.097333
O O10 0.219890 0.923585 0.053877
O O11 0.674062 0.129370 0.917124
O O12 0.436967 0.333261 0.115505
#
# Coordination Sequence:
#
# PCOD9118417 Si02
#       6
#     2   2   2   2   2   2
#     4  10  26  46  79 108 161 195 256 323 400 469
#     4  10  27  50  79 113 159 205 267 322 400 469
#     4  12  25  47  74 119 150 204 253 323 394 476
#     4  10  27  51  77 114 155 211 261 324 406 458
#     4  12  29  50  82 112 162 207 269 336 387 483
#     4  12  30  50  83 116 161 210 274 322 407 463
#
# _framework density 26.477820999999999
#
# number of rings (size 3 to 8) (size 9 to 14) (size 15 to 20)
#    1.000    0.000    1.667    2.000   11.667    4.000 
#    0.000    0.000    0.000    0.000    0.000    0.000 
#    0.000    0.000    0.000    0.000    0.000    0.000 
#
# Total GULP energy -67091.644138 kJ/mol
# GULP energy per Si atom -5590.970345 kJ/mol
# Density = 2.641756 g / cm^3
# Si number density = 26.477821 Si / 1000 Ang^3
#
#
#
# Elastic Constant Matrix: (Units=GPa)
#
#
# Indices 1 2 3 4 5 6 
#
# 1 145.3937 18.9563 49.7545 0.0000 -10.4208 0.0000
# 2 18.9563 41.0767 10.5407 0.0000 3.9149 0.0000
# 3 49.7545 10.5407 176.4794 0.0000 28.8744 0.0000
# 4 0.0000 0.0000 0.0000 23.5684 0.0000 -20.8218
# 5 -10.4208 3.9149 28.8744 0.0000 54.2002 0.0000
# 6 0.0000 0.0000 0.0000 -20.8218 0.0000 38.2880
#
#
#
# Elastic Compliance Matrix: (Units=1/GPa)
#
#
# Indices 1 2 3 4 5 6 
#
# 1 0.008518 -0.003548 -0.002738 0.000000 0.003353 0.000000
# 2 -0.003548 0.026261 -0.000160 0.000000 -0.002494 0.000000
# 3 -0.002738 -0.000160 0.007156 0.000000 -0.004327 0.000000
# 4 0.000000 0.000000 0.000000 0.081665 0.000000 0.044411
# 5 0.003353 -0.002494 -0.004327 0.000000 0.021580 0.000000
# 6 0.000000 0.000000 0.000000 0.044411 0.000000 0.050270
#
#
# Mechanical properties :
#
#
# Convention : Reuss Voigt Hill
#
# Bulk Modulus (GPa) = 34.43270 57.93920 46.18595
# Shear Modulus (GPa) = 22.93347 42.12454 32.52901
#
# Velocity S-wave (km/s) = 2.94622 3.99298 3.50885
# Velocity P-wave (km/s) = 4.96046 6.57177 5.82213
#
# Compressibility (1/GPa) = 0.02904216
#
# Stress axis : x y z
#
# Youngs Moduli (GPa) = 117.40306 38.07977 139.74602
#
# Poissons Ratio (x) = 0.13510 0.38262
# Poissons Ratio (y) = 0.41651 0.02240
# Poissons Ratio (z) = 0.32145 0.00610
#
# Static dielectric constant tensor:
#      x y z
#    x 2.094030 0.000000 0.120610 
#    y 0.000000 2.200280 0.000000 
#    z 0.120610 0.000000 2.112850 
# 
# From -- ./inp_files/4581.got.cif
#   From: 2010.05.17/outbox.cif.g08.bks.cpg/sg4_3_cif.got.tgz:4581.got - 2010.06.03 18:43:04.
