data_PCOD9118541
_publ_section_title
;
Structure prediction by ZEFSAII (Michael W. Deem and Ramdas Pophale) SiO2 
 PCOD9118541
Probable space group: P 21
;
_chemical_formula_sum "Si O2"
_cell_formula_units_Z 10
_cell_length_a 7.718236
_cell_length_b 5.370153
_cell_length_c 14.859679
_cell_angle_alpha 90.000000
_cell_angle_beta 33.062844
_cell_angle_gamma 90.000000
_cell_volume 336.012582
_symmetry_space_group_name_H-M "P 21"
_symmetry_group_IT_number 4
_symmetry_cell_setting 'monoclinic'
loop_
_space_group_symop_operation_xyz
x,y,z
-x,1/2+y,-z
loop_
_atom_site_type_symbol
_atom_site_label
_atom_site_fract_x
_atom_site_fract_y
_atom_site_fract_z
Si Si1 0.692554 0.010660 0.409362
Si Si2 0.969951 0.761743 0.599268
Si Si3 0.300968 0.732273 0.784882
Si Si4 0.606474 0.730881 0.203308
Si Si5 0.423123 0.543733 0.090591
O O1 0.458162 0.240959 0.535762
O O2 0.955978 0.018162 0.372742
O O3 0.786735 0.109861 0.271497
O O4 0.270688 0.787838 0.401487
O O5 0.662357 0.771346 0.669522
O O6 0.896323 0.952132 0.714879
O O7 0.229837 0.022129 0.806701
O O8 0.220328 0.493935 0.879779
O O9 0.602399 0.635323 0.102691
O O10 0.444048 0.787085 0.015045
#
# Coordination Sequence:
#
# PCOD9118541 Si02
#       5
#     2   2   2   2   2
#     4  12  24  36  61 105 141 166 222 294 349 388
#     4  11  24  42  72  99 136 180 229 285 338 400
#     4  11  21  38  60 100 137 168 217 283 344 390
#     4  11  22  39  69  95 133 177 229 281 335 393
#     4  11  25  43  66 105 143 183 229 279 348 421
#
# _framework density 29.760791999999999
#
# number of rings (size 3 to 8) (size 9 to 14) (size 15 to 20)
#    0.000    0.800    4.000    4.800    0.000    3.200 
#    0.000    0.000    0.000   14.400    0.000    0.000 
#    0.000    0.000    0.000    0.000    0.000    0.000 
#
# Total GULP energy -55738.593934 kJ/mol
# GULP energy per Si atom -5573.859393 kJ/mol
# Density = 2.969306 g / cm^3
# Si number density = 29.760792 Si / 1000 Ang^3
#
#
#
# Elastic Constant Matrix: (Units=GPa)
#
#
# Indices 1 2 3 4 5 6 
#
# 1 112.9833 7.0870 55.1791 0.0000 18.0895 0.0000
# 2 7.0870 259.5315 76.4889 0.0000 18.8453 0.0000
# 3 55.1791 76.4889 217.9460 0.0000 38.4171 0.0000
# 4 0.0000 0.0000 0.0000 -48.8728 0.0000 53.0639
# 5 18.0895 18.8453 38.4171 0.0000 33.7738 0.0000
# 6 0.0000 0.0000 0.0000 53.0639 0.0000 53.8265
#
#
#
# Elastic Compliance Matrix: (Units=1/GPa)
#
#
# Indices 1 2 3 4 5 6 
#
# 1 0.010462 0.000630 -0.002277 0.000000 -0.003365 0.000000
# 2 0.000630 0.004355 -0.001501 0.000000 -0.001060 0.000000
# 3 -0.002277 -0.001501 0.006665 0.000000 -0.005525 0.000000
# 4 0.000000 0.000000 0.000000 -0.009883 0.000000 0.009743
# 5 -0.003365 -0.001060 -0.005525 0.000000 0.038287 0.000000
# 6 0.000000 0.000000 0.000000 0.009743 0.000000 0.008973
#
#
# Mechanical properties :
#
#
# Convention : Reuss Voigt Hill
#
# Bulk Modulus (GPa) = 65.84721 96.44119 81.14420
# Shear Modulus (GPa) = 71.20654 37.85921 54.53287
#
# Velocity S-wave (km/s) = 4.89676 3.57054 4.28527
# Velocity P-wave (km/s) = 7.35829 7.03379 7.19787
#
# Compressibility (1/GPa) = 0.01518667
#
# Stress axis : x y z
#
# Youngs Moduli (GPa) = 95.58400 229.60731 150.03068
#
# Poissons Ratio (x) = -0.14456 0.34155
# Poissons Ratio (y) = -0.06018 0.22520
# Poissons Ratio (z) = 0.21760 0.34465
#
# Static dielectric constant tensor:
#      x y z
#    x 2.377710 0.000000 -0.244720 
#    y 0.000000 2.492660 0.000000 
#    z -0.244720 0.000000 2.608940 
# 
# From -- ./inp_files/9987.got.cif
#   From: 2010.05.17/outbox.cif.g08.bks.cpg/sg4_5_cif.got.tgz:9987.got - 2010.06.03 18:43:04.
