data_PCOD9118213
_publ_section_title
;
Structure prediction by ZEFSAII (Michael W. Deem and Ramdas Pophale) SiO2 
 PCOD9118213
Probable space group: P 21
;
_chemical_formula_sum "Si O2"
_cell_formula_units_Z 16
_cell_length_a 5.281970
_cell_length_b 12.389376
_cell_length_c 9.295599
_cell_angle_alpha 90.000000
_cell_angle_beta 81.891470
_cell_angle_gamma 90.000000
_cell_volume 602.225457
_symmetry_space_group_name_H-M "P 21"
_symmetry_group_IT_number 4
_symmetry_cell_setting 'monoclinic'
loop_
_space_group_symop_operation_xyz
x,y,z
-x,1/2+y,-z
loop_
_atom_site_type_symbol
_atom_site_label
_atom_site_fract_x
_atom_site_fract_y
_atom_site_fract_z
Si Si1 0.097388 0.810970 0.528469
Si Si2 0.416827 0.420698 0.391111
Si Si3 0.507083 0.194963 0.003479
Si Si4 0.828734 0.553970 0.265752
Si Si5 0.885034 0.865176 0.919872
Si Si6 0.947518 0.060819 0.438156
Si Si7 0.949105 0.287743 0.786719
Si Si8 0.023831 0.633139 0.872586
O O1 0.359299 0.844049 0.579277
O O2 0.111170 0.683742 0.520116
O O3 0.081231 0.847494 0.362065
O O4 0.050855 0.763428 0.848162
O O5 0.170580 0.347360 0.378350
O O6 0.312948 0.494166 0.529252
O O7 0.543182 0.505985 0.270438
O O8 0.398250 0.311079 0.073607
O O9 0.699694 0.117762 0.078106
O O10 0.238454 0.130235 0.013418
O O11 0.680680 0.234286 0.857552
O O12 0.019075 0.476723 0.157334
O O13 0.889809 0.529095 0.432326
O O14 0.870501 0.682071 0.249740
O O15 0.036537 0.071176 0.267708
O O16 0.053126 0.358703 0.912401
#
# Coordination Sequence:
#
# PCOD9118213 Si02
#       8
#     2   2   2   2   2   2   2   2
#     4  11  28  45  75 106 157 196 249 322 385 448
#     4  12  27  48  72 115 146 204 251 317 384 462
#     4   9  21  43  71  97 134 193 237 294 375 428
#     4  11  25  47  72 110 148 198 261 311 380 476
#     4   9  22  45  74 102 144 198 249 301 380 445
#     4  11  26  45  75 109 153 194 258 309 389 456
#     4  10  24  48  71 109 148 204 245 319 378 444
#     4   9  21  39  70  98 140 181 238 301 367 433
#
# _framework density 26.568121000000001
#
# number of rings (size 3 to 8) (size 9 to 14) (size 15 to 20)
#    0.750    1.000    1.250    0.750    7.000    6.000 
#    4.500    1.250    0.000    0.000    0.000    0.000 
#    0.000    0.000    0.000    0.000    0.000    0.000 
#
# Total GULP energy -89249.680510 kJ/mol
# GULP energy per Si atom -5578.105032 kJ/mol
# Density = 2.650765 g / cm^3
# Si number density = 26.568121 Si / 1000 Ang^3
#
#
#
# Elastic Constant Matrix: (Units=GPa)
#
#
# Indices 1 2 3 4 5 6 
#
# 1 157.9807 7.4635 29.6990 0.0000 4.0094 0.0000
# 2 7.4635 35.5121 -12.4131 0.0000 8.4538 0.0000
# 3 29.6990 -12.4131 118.6486 0.0000 -2.1842 0.0000
# 4 0.0000 0.0000 0.0000 57.6225 0.0000 2.0928
# 5 4.0094 8.4538 -2.1842 0.0000 34.5745 0.0000
# 6 0.0000 0.0000 0.0000 2.0928 0.0000 33.0966
#
#
#
# Elastic Compliance Matrix: (Units=1/GPa)
#
#
# Indices 1 2 3 4 5 6 
#
# 1 0.006796 -0.001998 -0.001918 0.000000 -0.000421 0.000000
# 2 -0.001998 0.031591 0.003672 0.000000 -0.007261 0.000000
# 3 -0.001918 0.003672 0.009291 0.000000 -0.000088 0.000000
# 4 0.000000 0.000000 0.000000 0.017394 0.000000 -0.001100
# 5 -0.000421 -0.007261 -0.000088 0.000000 0.030742 0.000000
# 6 0.000000 0.000000 0.000000 -0.001100 0.000000 0.030284
#
#
# Mechanical properties :
#
#
# Convention : Reuss Voigt Hill
#
# Bulk Modulus (GPa) = 21.19162 40.18223 30.68693
# Shear Modulus (GPa) = 35.13304 44.21817 39.67560
#
# Velocity S-wave (km/s) = 3.64039 4.08405 3.86859
# Velocity P-wave (km/s) = 5.06593 6.11525 5.61515
#
# Compressibility (1/GPa) = 0.04718845
#
# Stress axis : x y z
#
# Youngs Moduli (GPa) = 147.15614 31.65431 107.63325
#
# Poissons Ratio (x) = 0.06326 0.20642
# Poissons Ratio (y) = 0.29408 -0.39520
# Poissons Ratio (z) = 0.28222 -0.11622
#
# Static dielectric constant tensor:
#      x y z
#    x 2.064870 0.000000 0.092240 
#    y 0.000000 2.121840 0.000000 
#    z 0.092240 0.000000 2.241380 
# 
# From -- ./inp_files/4732.got.cif
#   From: 2010.05.17/outbox.cif.g08.bks.cpg/sg4_3_cif.got.tgz:4732.got - 2010.06.03 18:43:04.
