data_PCOD9118708
_publ_section_title
;
Structure prediction by ZEFSAII (Michael W. Deem and Ramdas Pophale) SiO2 
 PCOD9118708
Probable space group: P 21
;
_chemical_formula_sum "Si O2"
_cell_formula_units_Z 16
_cell_length_a 15.939470
_cell_length_b 5.765435
_cell_length_c 12.015024
_cell_angle_alpha 90.000000
_cell_angle_beta 36.451019
_cell_angle_gamma 90.000000
_cell_volume 656.018378
_symmetry_space_group_name_H-M "P 21"
_symmetry_group_IT_number 4
_symmetry_cell_setting 'monoclinic'
loop_
_space_group_symop_operation_xyz
x,y,z
-x,1/2+y,-z
loop_
_atom_site_type_symbol
_atom_site_label
_atom_site_fract_x
_atom_site_fract_y
_atom_site_fract_z
Si Si1 0.978537 0.369130 0.280199
Si Si2 0.449208 0.976811 0.226509
Si Si3 0.807177 0.453255 0.135454
Si Si4 0.073692 0.612257 0.449914
Si Si5 0.116312 0.269842 0.735666
Si Si6 0.648578 0.318873 0.914910
Si Si7 0.749745 0.217205 0.393173
Si Si8 0.718931 0.695894 0.012088
O O1 0.917230 0.182693 0.430857
O O2 0.916342 0.626097 0.343665
O O3 0.917016 0.285060 0.228431
O O4 0.143838 0.356225 0.118052
O O5 0.402872 0.891341 0.152913
O O6 0.330338 0.895745 0.441188
O O7 0.580907 0.840537 0.137430
O O8 0.515398 0.229521 0.129218
O O9 0.832450 0.646781 0.204091
O O10 0.720624 0.256781 0.295385
O O11 0.721620 0.545846 0.121555
O O12 0.957248 0.356425 0.932981
O O13 0.230835 0.624466 0.231730
O O14 0.007274 0.355601 0.502676
O O15 0.242138 0.452526 0.580748
O O16 0.725804 0.524746 0.898910
#
# Coordination Sequence:
#
# PCOD9118708 Si02
#       8
#     2   2   2   2   2   2   2   2
#     4  11  24  41  75 114 147 198 260 327 396 471
#     4  12  28  50  73 104 152 209 264 318 398 486
#     4  11  23  43  73 111 146 197 250 320 398 469
#     4  12  27  45  76 118 157 203 276 344 403 477
#     4  11  22  43  78 110 159 190 250 329 406 474
#     4  12  27  50  77 104 156 213 263 332 408 473
#     4  11  25  47  72 112 149 201 256 320 398 483
#     4  12  26  47  72 111 150 203 261 322 391 477
#
# _framework density 24.389562000000002
#
# number of rings (size 3 to 8) (size 9 to 14) (size 15 to 20)
#    0.000    0.500    6.250    1.500    5.250    2.000 
#    4.500    0.000    0.000    0.000    0.000    0.000 
#    0.000    0.000    0.000    0.000    0.000    0.000 
#
# Total GULP energy -89200.819792 kJ/mol
# GULP energy per Si atom -5575.051237 kJ/mol
# Density = 2.433405 g / cm^3
# Si number density = 24.389562 Si / 1000 Ang^3
#
#
#
# Elastic Constant Matrix: (Units=GPa)
#
#
# Indices 1 2 3 4 5 6 
#
# 1 122.4275 21.0565 29.7412 0.0000 -7.2624 0.0000
# 2 21.0565 55.3393 19.8120 0.0000 0.0956 0.0000
# 3 29.7412 19.8120 98.2135 0.0000 -0.9577 0.0000
# 4 0.0000 0.0000 0.0000 34.2122 0.0000 5.0239
# 5 -7.2624 0.0956 -0.9577 0.0000 29.4719 0.0000
# 6 0.0000 0.0000 0.0000 5.0239 0.0000 56.3913
#
#
#
# Elastic Compliance Matrix: (Units=1/GPa)
#
#
# Indices 1 2 3 4 5 6 
#
# 1 0.009318 -0.002745 -0.002246 0.000000 0.002232 0.000000
# 2 -0.002745 0.020287 -0.003269 0.000000 -0.000849 0.000000
# 3 -0.002246 -0.003269 0.011520 0.000000 -0.000169 0.000000
# 4 0.000000 0.000000 0.000000 0.029617 0.000000 -0.002639
# 5 0.002232 -0.000849 -0.000169 0.000000 0.034478 0.000000
# 6 0.000000 0.000000 0.000000 -0.002639 0.000000 0.017968
#
#
# Mechanical properties :
#
#
# Convention : Reuss Voigt Hill
#
# Bulk Modulus (GPa) = 40.64459 46.35551 43.50005
# Shear Modulus (GPa) = 33.80413 37.70645 35.75529
#
# Velocity S-wave (km/s) = 3.72695 3.93620 3.83300
# Velocity P-wave (km/s) = 5.93474 6.30125 6.12074
#
# Compressibility (1/GPa) = 0.02460352
#
# Stress axis : x y z
#
# Youngs Moduli (GPa) = 107.31514 49.29307 86.80586
#
# Poissons Ratio (x) = 0.13532 0.19499
# Poissons Ratio (y) = 0.29461 0.28379
# Poissons Ratio (z) = 0.24106 0.16115
#
# Static dielectric constant tensor:
#      x y z
#    x 1.936760 0.000000 0.033400 
#    y 0.000000 2.237600 0.000000 
#    z 0.033400 0.000000 1.999380 
# 
# From -- ./inp_files/12477.got.cif
#   From: 2010.05.17/outbox.cif.g08.bks.cpg/sg4_7_cif.got.tgz:12477.got - 2010.06.03 18:43:04.
