data_PCOD9118358
_publ_section_title
;
Structure prediction by ZEFSAII (Michael W. Deem and Ramdas Pophale) SiO2 
 PCOD9118358
Probable space group: P 21
;
_chemical_formula_sum "Si O2"
_cell_formula_units_Z 8
_cell_length_a 5.504413
_cell_length_b 4.893903
_cell_length_c 12.831201
_cell_angle_alpha 90.000000
_cell_angle_beta 60.799754
_cell_angle_gamma 90.000000
_cell_volume 301.722788
_symmetry_space_group_name_H-M "P 21"
_symmetry_group_IT_number 4
_symmetry_cell_setting 'monoclinic'
loop_
_space_group_symop_operation_xyz
x,y,z
-x,1/2+y,-z
loop_
_atom_site_type_symbol
_atom_site_label
_atom_site_fract_x
_atom_site_fract_y
_atom_site_fract_z
Si Si1 0.271333 0.010950 0.851102
Si Si2 0.895372 0.510967 0.888114
Si Si3 0.776965 0.369680 0.692498
Si Si4 0.329215 0.091092 0.507483
O O1 0.014692 0.206541 0.873454
O O2 0.540160 0.137714 0.741317
O O3 0.160200 0.712267 0.845581
O O4 0.298374 0.049809 0.970624
O O5 0.760456 0.537417 0.803435
O O6 0.748108 0.553837 0.596577
O O7 0.073572 0.221714 0.622210
O O8 0.585899 0.296699 0.467039
#
# Coordination Sequence:
#
# PCOD9118358 Si02
#       4
#     2   2   2   2
#     4  10  25  48  75 112 151 188 241 305 366 439
#     4  10  25  48  75 112 151 188 241 305 366 439
#     4  12  28  50  80 106 148 202 246 298 374 440
#     4  12  30  52  74 110 150 194 254 310 360 430
#
# _framework density 26.514406999999999
#
# number of rings (size 3 to 8) (size 9 to 14) (size 15 to 20)
#    0.000    1.000    0.000    3.000    0.000   28.000 
#    0.000    5.000    0.000    0.000    0.000    0.000 
#    0.000    0.000    0.000    0.000    0.000    0.000 
#
# Total GULP energy -44971.380661 kJ/mol
# GULP energy per Si atom -5621.422583 kJ/mol
# Density = 2.645406 g / cm^3
# Si number density = 26.514407 Si / 1000 Ang^3
#
#
#
# Elastic Constant Matrix: (Units=GPa)
#
#
# Indices 1 2 3 4 5 6 
#
# 1 66.5820 9.6132 22.6288 0.0000 4.3701 0.0000
# 2 9.6132 79.2913 20.6684 0.0000 10.5311 0.0000
# 3 22.6288 20.6684 127.1507 0.0000 27.5672 0.0000
# 4 0.0000 0.0000 0.0000 40.2408 0.0000 9.3262
# 5 4.3701 10.5311 27.5672 0.0000 59.2357 0.0000
# 6 0.0000 0.0000 0.0000 9.3262 0.0000 33.5615
#
#
#
# Elastic Compliance Matrix: (Units=1/GPa)
#
#
# Indices 1 2 3 4 5 6 
#
# 1 0.016110 -0.001284 -0.002725 0.000000 0.000308 0.000000
# 2 -0.001284 0.013392 -0.001616 0.000000 -0.001534 0.000000
# 3 -0.002725 -0.001616 0.009461 0.000000 -0.003915 0.000000
# 4 0.000000 0.000000 0.000000 0.026561 0.000000 -0.007381
# 5 0.000308 -0.001534 -0.003915 0.000000 0.018954 0.000000
# 6 0.000000 0.000000 0.000000 -0.007381 0.000000 0.031847
#
#
# Mechanical properties :
#
#
# Convention : Reuss Voigt Hill
#
# Bulk Modulus (GPa) = 36.08258 42.09386 39.08822
# Shear Modulus (GPa) = 36.54618 41.28184 38.91401
#
# Velocity S-wave (km/s) = 3.71664 3.95011 3.83516
# Velocity P-wave (km/s) = 5.66181 6.05928 5.86391
#
# Compressibility (1/GPa) = 0.02771420
#
# Stress axis : x y z
#
# Youngs Moduli (GPa) = 62.07164 74.66967 105.69623
#
# Poissons Ratio (x) = 0.09586 0.28805
# Poissons Ratio (y) = 0.07968 0.17079
# Poissons Ratio (z) = 0.16916 0.12065
#
# Static dielectric constant tensor:
#      x y z
#    x 2.038780 0.000000 0.023570 
#    y 0.000000 1.979170 0.000000 
#    z 0.023570 0.000000 2.024710 
# 
# From -- ./inp_files/2321.got.cif
#   From: 2010.05.17/outbox.cif.g08.bks.cpg/sg4_2_cif.got.tgz:2321.got - 2010.06.03 18:43:04.
