data_PCOD9118742
_publ_section_title
;
Structure prediction by ZEFSAII (Michael W. Deem and Ramdas Pophale) SiO2 
 PCOD9118742
Probable space group: P 21
;
_chemical_formula_sum "Si O2"
_cell_formula_units_Z 16
_cell_length_a 15.339634
_cell_length_b 6.821380
_cell_length_c 15.965127
_cell_angle_alpha 90.000000
_cell_angle_beta 26.330400
_cell_angle_gamma 90.000000
_cell_volume 740.967323
_symmetry_space_group_name_H-M "P 21"
_symmetry_group_IT_number 4
_symmetry_cell_setting 'monoclinic'
loop_
_space_group_symop_operation_xyz
x,y,z
-x,1/2+y,-z
loop_
_atom_site_type_symbol
_atom_site_label
_atom_site_fract_x
_atom_site_fract_y
_atom_site_fract_z
Si Si1 0.974576 0.505170 0.426862
Si Si2 0.328260 0.351858 0.871534
Si Si3 0.330918 0.079216 0.721016
Si Si4 0.747889 0.921041 0.333215
Si Si5 0.720876 0.349262 0.797301
Si Si6 0.295146 0.083709 0.499911
Si Si7 0.302389 0.219274 0.085426
Si Si8 0.098678 0.829410 0.810810
O O1 0.136658 0.666910 0.309903
O O2 0.104799 0.315116 0.292743
O O3 0.822415 0.465817 0.632961
O O4 0.851005 0.567426 0.452163
O O5 0.369880 0.157373 0.780077
O O6 0.488818 0.518566 0.715624
O O7 0.321853 0.290043 0.973501
O O8 0.113718 0.417518 0.025700
O O9 0.540966 0.032112 0.499262
O O10 0.233516 0.261306 0.755578
O O11 0.193970 0.895383 0.816455
O O12 0.904773 0.095133 0.196837
O O13 0.726563 0.793341 0.436072
O O14 0.712782 0.488088 0.885319
O O15 0.500470 0.287621 0.962428
O O16 0.235267 0.922474 0.621125
#
# Coordination Sequence:
#
# PCOD9118742 Si02
#       8
#     2   2   2   2   2   2   2   2
#     4  12  25  47  73 104 142 188 235 292 366 433
#     4  12  26  45  69 103 146 185 233 303 351 418
#     4  11  23  43  68  97 136 188 232 292 352 417
#     4  11  22  45  71  95 138 191 240 283 354 420
#     4  12  26  47  77 104 142 193 231 292 366 436
#     4  11  25  45  69 100 140 187 233 295 353 420
#     4  12  26  48  72 108 147 177 244 299 356 433
#     4  11  25  44  67 101 143 181 240 294 346 419
#
# _framework density 21.593392000000001
#
# number of rings (size 3 to 8) (size 9 to 14) (size 15 to 20)
#    0.000    0.500    7.500    0.750    3.500    0.000 
#    9.000    0.000    0.000    0.000    0.000    0.000 
#    0.000    0.000    0.000    0.000    0.000    0.000 
#
# Total GULP energy -89479.914996 kJ/mol
# GULP energy per Si atom -5592.494687 kJ/mol
# Density = 2.154424 g / cm^3
# Si number density = 21.593392 Si / 1000 Ang^3
#
#
#
# Elastic Constant Matrix: (Units=GPa)
#
#
# Indices 1 2 3 4 5 6 
#
# 1 73.8699 2.5109 -0.7741 0.0000 -11.8869 0.0000
# 2 2.5109 62.4940 -7.4756 0.0000 2.2074 0.0000
# 3 -0.7741 -7.4756 68.2283 0.0000 -13.9244 0.0000
# 4 0.0000 0.0000 0.0000 21.7866 0.0000 1.3877
# 5 -11.8869 2.2074 -13.9244 0.0000 40.1788 0.0000
# 6 0.0000 0.0000 0.0000 1.3877 0.0000 28.3726
#
#
#
# Elastic Compliance Matrix: (Units=1/GPa)
#
#
# Indices 1 2 3 4 5 6 
#
# 1 0.014314 -0.000614 0.001040 0.000000 0.004629 0.000000
# 2 -0.000614 0.016244 0.001672 0.000000 -0.000495 0.000000
# 3 0.001040 0.001672 0.016029 0.000000 0.005771 0.000000
# 4 0.000000 0.000000 0.000000 0.046043 0.000000 -0.002252
# 5 0.004629 -0.000495 0.005771 0.000000 0.028285 0.000000
# 6 0.000000 0.000000 0.000000 -0.002252 0.000000 0.035355
#
#
# Mechanical properties :
#
#
# Convention : Reuss Voigt Hill
#
# Bulk Modulus (GPa) = 19.69206 21.45715 20.57461
# Shear Modulus (GPa) = 29.58521 32.08969 30.83745
#
# Velocity S-wave (km/s) = 3.70551 3.85916 3.78312
# Velocity P-wave (km/s) = 5.23899 5.46040 5.35084
#
# Compressibility (1/GPa) = 0.05078189
#
# Stress axis : x y z
#
# Youngs Moduli (GPa) = 69.86190 61.56241 62.38535
#
# Poissons Ratio (x) = 0.03781 -0.06487
# Poissons Ratio (y) = 0.04291 -0.10430
# Poissons Ratio (z) = -0.07264 -0.10292
#
# Static dielectric constant tensor:
#      x y z
#    x 1.751390 0.000000 0.021540 
#    y 0.000000 1.790500 0.000000 
#    z 0.021540 0.000000 1.811750 
# 
# From -- ./inp_files/14077.got.cif
#   From: 2010.05.17/outbox.cif.g08.bks.cpg/sg4_8_cif.got.tgz:14077.got - 2010.06.03 18:43:04.
