data_PCOD9118057
_publ_section_title
;
Structure prediction by ZEFSAII (Michael W. Deem and Ramdas Pophale) SiO2 
 PCOD9118057
Probable space group: P 21
;
_chemical_formula_sum "Si O2"
_cell_formula_units_Z 16
_cell_length_a 13.873523
_cell_length_b 9.430866
_cell_length_c 4.921673
_cell_angle_alpha 90.000000
_cell_angle_beta 89.950002
_cell_angle_gamma 90.000000
_cell_volume 643.948184
_symmetry_space_group_name_H-M "P 21"
_symmetry_group_IT_number 4
_symmetry_cell_setting 'monoclinic'
loop_
_space_group_symop_operation_xyz
x,y,z
-x,1/2+y,-z
loop_
_atom_site_type_symbol
_atom_site_label
_atom_site_fract_x
_atom_site_fract_y
_atom_site_fract_z
Si Si1 0.899264 0.391350 0.082444
Si Si2 0.231130 0.216682 0.369575
Si Si3 0.718997 0.551867 0.173174
Si Si4 0.239344 0.667663 0.972790
Si Si5 0.174901 0.524392 0.446873
Si Si6 0.448301 0.681298 0.239380
Si Si7 0.983534 0.625082 0.697476
Si Si8 0.535127 0.372991 0.224522
O O1 0.816518 0.467681 0.256095
O O2 0.965954 0.270465 0.206577
O O3 0.823461 0.298276 0.906102
O O4 0.957079 0.511117 0.927781
O O5 0.307520 0.136495 0.557754
O O6 0.228715 0.376170 0.478594
O O7 0.118957 0.174077 0.415256
O O8 0.255083 0.161294 0.066920
O O9 0.636170 0.439381 0.113775
O O10 0.185018 0.540744 0.123656
O O11 0.345154 0.668026 0.090649
O O12 0.226966 0.636709 0.652693
O O13 0.062231 0.544869 0.513942
O O14 0.478448 0.518298 0.287785
O O15 0.448064 0.775433 0.511605
O O16 0.507914 0.771991 0.012167
#
# Coordination Sequence:
#
# PCOD9118057 Si02
#       8
#     2   2   2   2   2   2   2   2
#     4  10  24  44  70 100 140 192 242 294 354 428
#     4  11  26  42  68 102 146 188 246 300 361 421
#     4  11  25  46  72 102 141 197 236 295 369 440
#     4  11  25  46  72 102 141 197 236 295 369 440
#     4  11  26  42  68 102 146 188 246 300 361 421
#     4  12  27  50  81 114 151 191 247 305 378 451
#     4  10  26  38  70  98 144 188 252 300 356 420
#     4  12  27  50  81 114 151 191 247 305 378 451
#
# _framework density 24.846720000000001
#
# number of rings (size 3 to 8) (size 9 to 14) (size 15 to 20)
#    0.000    1.000    1.250    3.000   14.000    4.000 
#    0.000    0.000    0.000    0.000    0.000    0.000 
#    0.000    0.000    0.000    0.000    0.000    0.000 
#
# Total GULP energy -89298.774399 kJ/mol
# GULP energy per Si atom -5581.173400 kJ/mol
# Density = 2.479017 g / cm^3
# Si number density = 24.846720 Si / 1000 Ang^3
#
#
#
# Elastic Constant Matrix: (Units=GPa)
#
#
# Indices 1 2 3 4 5 6 
#
# 1 70.2871 -24.1581 6.9776 0.0000 9.5745 0.0000
# 2 -24.1581 -106.4225 68.4375 0.0000 50.7100 0.0000
# 3 6.9776 68.4375 76.3075 0.0000 3.9865 0.0000
# 4 0.0000 0.0000 0.0000 38.6787 0.0000 4.6326
# 5 9.5745 50.7100 3.9865 0.0000 6.8558 0.0000
# 6 0.0000 0.0000 0.0000 4.6326 0.0000 28.7356
#
#
#
# Elastic Compliance Matrix: (Units=1/GPa)
#
#
# Indices 1 2 3 4 5 6 
#
# 1 0.013308 -0.002538 0.001082 0.000000 -0.000446 0.000000
# 2 -0.002538 -0.001508 0.000842 0.000000 0.014209 0.000000
# 3 0.001082 0.000842 0.013051 0.000000 -0.015331 0.000000
# 4 0.000000 0.000000 0.000000 0.026363 0.000000 -0.004250
# 5 -0.000446 0.014209 -0.015331 0.000000 0.050298 0.000000
# 6 0.000000 0.000000 0.000000 -0.004250 0.000000 0.035485
#
#
# Mechanical properties :
#
#
# Convention : Reuss Voigt Hill
#
# Bulk Modulus (GPa) = 42.32687 15.85400 29.09044
# Shear Modulus (GPa) = 34.22330 14.11502 24.16916
#
# Velocity S-wave (km/s) = 3.71533 2.38604 3.12225
# Velocity P-wave (km/s) = 5.95626 3.73972 4.97305
#
# Compressibility (1/GPa) = 0.02362565
#
# Stress axis : x y z
#
# Youngs Moduli (GPa) = 75.14003 -663.06788 76.62020
#
# Poissons Ratio (x) = -1.68257 -0.08292
# Poissons Ratio (y) = 0.19067 -0.06454
# Poissons Ratio (z) = -0.08132 0.55851
#
# Static dielectric constant tensor:
#      x y z
#    x 2.190420 0.000000 -0.043720 
#    y 0.000000 2.279400 0.000000 
#    z -0.043720 0.000000 1.941750 
# 
# From -- ./inp_files/3537.got.cif
#   From: 2010.05.17/outbox.cif.g08.bks.cpg/sg4_2_cif.got.tgz:3537.got - 2010.06.03 18:43:04.
