data_PCOD9118307
_publ_section_title
;
Structure prediction by ZEFSAII (Michael W. Deem and Ramdas Pophale) SiO2 
 PCOD9118307
Probable space group: P 21
;
_chemical_formula_sum "Si O2"
_cell_formula_units_Z 16
_cell_length_a 17.524962
_cell_length_b 5.810241
_cell_length_c 8.277972
_cell_angle_alpha 90.000000
_cell_angle_beta 43.959288
_cell_angle_gamma 90.000000
_cell_volume 585.095388
_symmetry_space_group_name_H-M "P 21"
_symmetry_group_IT_number 4
_symmetry_cell_setting 'monoclinic'
loop_
_space_group_symop_operation_xyz
x,y,z
-x,1/2+y,-z
loop_
_atom_site_type_symbol
_atom_site_label
_atom_site_fract_x
_atom_site_fract_y
_atom_site_fract_z
Si Si1 0.540105 0.306630 0.185381
Si Si2 0.185730 0.256259 0.246203
Si Si3 0.648642 0.568825 0.421597
Si Si4 0.024436 0.647472 0.886581
Si Si5 0.255681 0.650779 0.944045
Si Si6 0.057917 0.912963 0.287554
Si Si7 0.748345 0.906981 0.506244
Si Si8 0.534524 0.219154 0.816939
O O1 0.447363 0.261046 0.466982
O O2 0.655826 0.193013 0.047452
O O3 0.555392 0.584253 0.150698
O O4 0.513611 0.271399 0.034473
O O5 0.152219 0.993228 0.268003
O O6 0.243696 0.297916 0.328433
O O7 0.061482 0.358574 0.462932
O O8 0.242552 0.374079 0.003903
O O9 0.693769 0.353101 0.250975
O O10 0.741476 0.708374 0.380137
O O11 0.568589 0.445509 0.672893
O O12 0.150806 0.579516 0.667743
O O13 0.961659 0.609620 0.813570
O O14 0.985983 0.412631 0.041961
O O15 0.125300 0.701429 0.111753
O O16 0.642107 0.060555 0.645695
#
# Coordination Sequence:
#
# PCOD9118307 Si02
#       8
#     2   2   2   2   2   2   2   2
#     4  11  25  45  72 106 144 200 250 311 396 476
#     4  11  24  46  75 108 148 197 261 311 396 475
#     4  11  27  46  73 110 150 191 263 321 397 466
#     4  11  27  47  75 110 158 206 258 323 398 472
#     4  12  27  45  73 111 152 196 243 336 394 458
#     4  11  26  45  75 108 150 200 256 317 387 485
#     4  10  25  45  74 108 144 208 254 321 389 487
#     4  11  23  45  75 101 146 194 263 314 381 489
#
# _framework density 27.345963999999999
#
# number of rings (size 3 to 8) (size 9 to 14) (size 15 to 20)
#    0.000    1.000    3.750    0.750    8.750    3.000 
#    0.000    0.000    0.000    0.000    0.000    0.000 
#    0.000    0.000    0.000    0.000    0.000    0.000 
#
# Total GULP energy -89149.201776 kJ/mol
# GULP energy per Si atom -5571.825111 kJ/mol
# Density = 2.728372 g / cm^3
# Si number density = 27.345964 Si / 1000 Ang^3
#
#
#
# Elastic Constant Matrix: (Units=GPa)
#
#
# Indices 1 2 3 4 5 6 
#
# 1 -182.9185 -111.9021 -152.2863 0.0000 -27.3012 0.0000
# 2 -111.9021 -40.5780 -65.1279 0.0000 -9.3826 0.0000
# 3 -152.2863 -65.1279 -4.7531 0.0000 -15.4107 0.0000
# 4 0.0000 0.0000 0.0000 36.8710 0.0000 -21.6996
# 5 -27.3012 -9.3826 -15.4107 0.0000 39.2593 0.0000
# 6 0.0000 0.0000 0.0000 -21.6996 0.0000 38.9726
#
#
#
# Elastic Compliance Matrix: (Units=1/GPa)
#
#
# Indices 1 2 3 4 5 6 
#
# 1 0.008464 -0.019685 -0.002316 0.000000 0.000272 0.000000
# 2 -0.019685 0.048315 -0.010719 0.000000 -0.006350 0.000000
# 3 -0.002316 -0.010719 0.010656 0.000000 0.000011 0.000000
# 4 0.000000 0.000000 0.000000 0.040341 0.000000 0.022462
# 5 0.000272 -0.006350 0.000011 0.000000 0.024147 0.000000
# 6 0.000000 0.000000 0.000000 0.022462 0.000000 0.038165
#
#
# Mechanical properties :
#
#
# Convention : Reuss Voigt Hill
#
# Bulk Modulus (GPa) = 501.50507 -98.54247 201.48130
# Shear Modulus (GPa) = 21.16904 29.75835 25.46369
#
# Velocity S-wave (km/s) = 2.78532 3.30239 3.05482
# Velocity P-wave (km/s) = 13.93323 4.64464 9.28876
#
# Compressibility (1/GPa) = 0.00199400
#
# Stress axis : x y z
#
# Youngs Moduli (GPa) = 118.15263 20.69760 93.83969
#
# Poissons Ratio (x) = 0.40744 0.21735
# Poissons Ratio (y) = 2.32589 1.00584
# Poissons Ratio (z) = 0.27367 0.22185
#
# Static dielectric constant tensor:
#      x y z
#    x 2.210700 0.000000 0.277440 
#    y 0.000000 4.088880 0.000000 
#    z 0.277440 0.000000 2.643930 
# 
# From -- ./inp_files/9848.got.cif
#   From: 2010.05.17/outbox.cif.g08.bks.cpg/sg4_5_cif.got.tgz:9848.got - 2010.06.03 18:43:04.
