data_PCOD9118914
_publ_section_title
;
Structure prediction by ZEFSAII (Michael W. Deem and Ramdas Pophale) SiO2 
 PCOD9118914
Probable space group: P 21
;
_chemical_formula_sum "Si O2"
_cell_formula_units_Z 12
_cell_length_a 10.409295
_cell_length_b 10.992898
_cell_length_c 4.902941
_cell_angle_alpha 90.000000
_cell_angle_beta 110.478804
_cell_angle_gamma 90.000000
_cell_volume 525.578805
_symmetry_space_group_name_H-M "P 21"
_symmetry_group_IT_number 4
_symmetry_cell_setting 'monoclinic'
loop_
_space_group_symop_operation_xyz
x,y,z
-x,1/2+y,-z
loop_
_atom_site_type_symbol
_atom_site_label
_atom_site_fract_x
_atom_site_fract_y
_atom_site_fract_z
Si Si1 0.650271 0.900740 0.572574
Si Si2 0.803137 0.408931 0.405420
Si Si3 0.705802 0.751657 0.130280
Si Si4 0.990292 0.243716 0.817950
Si Si5 0.640011 0.498255 0.800698
Si Si6 0.952141 0.978224 0.767934
O O1 0.661874 0.860595 0.894728
O O2 0.514110 0.973040 0.403634
O O3 0.790931 0.967131 0.591813
O O4 0.649448 0.779121 0.386231
O O5 0.856134 0.278092 0.545256
O O6 0.734309 0.479372 0.605115
O O7 0.942338 0.474523 0.405615
O O8 0.698435 0.406496 0.075465
O O9 0.656535 0.627716 0.957411
O O10 0.870794 0.747208 0.255683
O O11 0.977427 0.108663 0.927701
O O12 0.008910 0.356067 0.038497
#
# Coordination Sequence:
#
# PCOD9118914 Si02
#       6
#     2   2   2   2   2   2
#     4  11  26  45  67 106 137 187 237 294 356 424
#     4  12  23  45  71 107 137 188 239 290 351 433
#     4  11  23  44  73  94 146 184 234 297 363 418
#     4  11  23  45  76 111 138 190 244 303 350 421
#     4  12  26  45  71 103 145 189 235 293 370 426
#     4  11  25  46  76 107 145 188 247 297 354 428
#
# _framework density 22.831973999999999
#
# number of rings (size 3 to 8) (size 9 to 14) (size 15 to 20)
#    0.000    0.667    5.000    2.000    0.000    5.333 
#    0.000    1.667    0.000    0.000    0.000    0.000 
#    0.000    0.000    0.000    0.000    0.000    0.000 
#
# Total GULP energy -67125.133109 kJ/mol
# GULP energy per Si atom -5593.761092 kJ/mol
# Density = 2.278001 g / cm^3
# Si number density = 22.831974 Si / 1000 Ang^3
#
#
#
# Elastic Constant Matrix: (Units=GPa)
#
#
# Indices 1 2 3 4 5 6 
#
# 1 102.5485 33.9819 28.1738 0.0000 21.2621 0.0000
# 2 33.9819 119.8379 23.7922 0.0000 1.2467 0.0000
# 3 28.1738 23.7922 93.6980 0.0000 7.3089 0.0000
# 4 0.0000 0.0000 0.0000 35.3164 0.0000 9.8703
# 5 21.2621 1.2467 7.3089 0.0000 43.6591 0.0000
# 6 0.0000 0.0000 0.0000 9.8703 0.0000 17.1573
#
#
#
# Elastic Compliance Matrix: (Units=1/GPa)
#
#
# Indices 1 2 3 4 5 6 
#
# 1 0.012628 -0.003007 -0.002594 0.000000 -0.005630 0.000000
# 2 -0.003007 0.009504 -0.001623 0.000000 0.001465 0.000000
# 3 -0.002594 -0.001623 0.011918 0.000000 -0.000685 0.000000
# 4 0.000000 0.000000 0.000000 0.033740 0.000000 -0.019410
# 5 -0.005630 0.001465 -0.000685 0.000000 0.025719 0.000000
# 6 0.000000 0.000000 0.000000 -0.019410 0.000000 0.069450
#
#
# Mechanical properties :
#
#
# Convention : Reuss Voigt Hill
#
# Bulk Modulus (GPa) = 51.01833 54.22001 52.61917
# Shear Modulus (GPa) = 27.18217 34.56902 30.87559
#
# Velocity S-wave (km/s) = 3.45415 3.89532 3.68135
# Velocity P-wave (km/s) = 6.18885 6.63553 6.41608
#
# Compressibility (1/GPa) = 0.01960080
#
# Stress axis : x y z
#
# Youngs Moduli (GPa) = 79.18918 105.21417 83.90417
#
# Poissons Ratio (x) = 0.31640 0.21767
# Poissons Ratio (y) = 0.23814 0.13621
# Poissons Ratio (z) = 0.20544 0.17081
#
# Static dielectric constant tensor:
#      x y z
#    x 1.819960 0.000000 -0.000420 
#    y 0.000000 1.876890 0.000000 
#    z -0.000420 0.000000 1.900390 
# 
# From -- ./inp_files/1250.got.cif
#   From: 2010.05.17/outbox.cif.g08.bks.cpg/sg4_1_cif.got.tgz:1250.got - 2010.06.03 18:43:04.
