data_PCOD9118394
_publ_section_title
;
Structure prediction by ZEFSAII (Michael W. Deem and Ramdas Pophale) SiO2 
 PCOD9118394
Probable space group: P 21
;
_chemical_formula_sum "Si O2"
_cell_formula_units_Z 14
_cell_length_a 5.803495
_cell_length_b 7.627158
_cell_length_c 12.228471
_cell_angle_alpha 90.000000
_cell_angle_beta 87.926276
_cell_angle_gamma 90.000000
_cell_volume 540.928670
_symmetry_space_group_name_H-M "P 21"
_symmetry_group_IT_number 4
_symmetry_cell_setting 'monoclinic'
loop_
_space_group_symop_operation_xyz
x,y,z
-x,1/2+y,-z
loop_
_atom_site_type_symbol
_atom_site_label
_atom_site_fract_x
_atom_site_fract_y
_atom_site_fract_z
Si Si1 0.183309 0.564770 0.794473
Si Si2 0.213112 0.333460 0.416431
Si Si3 0.482342 0.779718 0.109637
Si Si4 0.884375 0.437912 0.238995
Si Si5 0.845685 0.544688 0.996127
Si Si6 0.509229 0.130305 0.669875
Si Si7 0.843270 0.443205 0.604551
O O1 0.381041 0.428319 0.823324
O O2 0.270112 0.758976 0.759416
O O3 0.039002 0.595934 0.907467
O O4 0.007833 0.483021 0.707556
O O5 0.414289 0.473653 0.410541
O O6 0.102383 0.370968 0.300147
O O7 0.018777 0.379796 0.508269
O O8 0.267423 0.130363 0.422973
O O9 0.274863 0.874671 0.053968
O O10 0.418932 0.635104 0.201766
O O11 0.652902 0.693437 0.018740
O O12 0.762724 0.594883 0.308148
O O13 0.928893 0.502282 0.116457
O O14 0.643020 0.300800 0.624999
#
# Coordination Sequence:
#
# PCOD9118394 Si02
#       7
#     2   2   2   2   2   2   2
#     4  11  24  44  69 103 142 188 230 291 351 427
#     4  11  25  48  71 104 139 187 232 297 350 425
#     4  11  25  40  69 102 142 181 237 282 358 417
#     4  10  26  43  68 106 137 184 239 280 361 418
#     4  11  23  41  67 103 140 189 225 297 343 428
#     4  11  25  45  69 102 139 181 232 295 343 416
#     4  11  24  47  75 100 143 182 237 290 358 411
#
# _framework density 25.881419999999999
#
# number of rings (size 3 to 8) (size 9 to 14) (size 15 to 20)
#    0.000    1.143    2.857    1.714    6.000    8.000 
#    5.143    0.000    0.000    0.000    0.000    0.000 
#    0.000    0.000    0.000    0.000    0.000    0.000 
#
# Total GULP energy -78421.942929 kJ/mol
# GULP energy per Si atom -5601.567352 kJ/mol
# Density = 2.582251 g / cm^3
# Si number density = 25.881420 Si / 1000 Ang^3
#
#
#
# Elastic Constant Matrix: (Units=GPa)
#
#
# Indices 1 2 3 4 5 6 
#
# 1 46.2972 53.6925 36.0358 0.0000 3.6853 0.0000
# 2 53.6925 119.5628 53.4085 0.0000 -14.6488 0.0000
# 3 36.0358 53.4085 99.5527 0.0000 -14.4509 0.0000
# 4 0.0000 0.0000 0.0000 46.2102 0.0000 -7.8688
# 5 3.6853 -14.6488 -14.4509 0.0000 51.3010 0.0000
# 6 0.0000 0.0000 0.0000 -7.8688 0.0000 53.9088
#
#
#
# Elastic Compliance Matrix: (Units=1/GPa)
#
#
# Indices 1 2 3 4 5 6 
#
# 1 0.057015 -0.022573 -0.010487 0.000000 -0.013496 0.000000
# 2 -0.022573 0.020055 -0.001587 0.000000 0.006901 0.000000
# 3 -0.010487 -0.001587 0.015364 0.000000 0.004628 0.000000
# 4 0.000000 0.000000 0.000000 0.022192 0.000000 0.003239
# 5 -0.013496 0.006901 0.004628 0.000000 0.023737 0.000000
# 6 0.000000 0.000000 0.000000 0.003239 0.000000 0.019023
#
#
# Mechanical properties :
#
#
# Convention : Reuss Voigt Hill
#
# Bulk Modulus (GPa) = 43.21339 61.29849 52.25594
# Shear Modulus (GPa) = 21.33175 38.43573 29.88374
#
# Velocity S-wave (km/s) = 2.87402 3.85784 3.40169
# Velocity P-wave (km/s) = 5.26747 6.60149 5.97185
#
# Compressibility (1/GPa) = 0.02314097
#
# Stress axis : x y z
#
# Youngs Moduli (GPa) = 17.53916 49.86297 65.08708
#
# Poissons Ratio (x) = 1.12555 0.68258
# Poissons Ratio (y) = 0.39591 0.10326
# Poissons Ratio (z) = 0.18394 0.07911
#
# Static dielectric constant tensor:
#      x y z
#    x 2.034290 0.000000 0.034270 
#    y 0.000000 2.133170 0.000000 
#    z 0.034270 0.000000 1.985870 
# 
# From -- ./inp_files/2418.got.cif
#   From: 2010.05.17/outbox.cif.g08.bks.cpg/sg4_2_cif.got.tgz:2418.got - 2010.06.03 18:43:04.
