data_PCOD9118535
_publ_section_title
;
Structure prediction by ZEFSAII (Michael W. Deem and Ramdas Pophale) SiO2 
 PCOD9118535
Probable space group: P 21
;
_chemical_formula_sum "Si O2"
_cell_formula_units_Z 16
_cell_length_a 7.727052
_cell_length_b 11.595523
_cell_length_c 10.595708
_cell_angle_alpha 90.000000
_cell_angle_beta 51.418896
_cell_angle_gamma 90.000000
_cell_volume 742.145087
_symmetry_space_group_name_H-M "P 21"
_symmetry_group_IT_number 4
_symmetry_cell_setting 'monoclinic'
loop_
_space_group_symop_operation_xyz
x,y,z
-x,1/2+y,-z
loop_
_atom_site_type_symbol
_atom_site_label
_atom_site_fract_x
_atom_site_fract_y
_atom_site_fract_z
Si Si1 0.153305 0.508740 0.781238
Si Si2 0.653308 0.189675 0.781237
Si Si3 0.453958 0.186942 0.386471
Si Si4 0.046044 0.011472 0.613529
Si Si5 0.640607 0.770087 0.309481
Si Si6 0.140609 0.928328 0.309481
Si Si7 0.990874 0.568520 0.106502
Si Si8 0.509123 0.629893 0.893498
O O1 0.318301 0.616554 0.697913
O O2 0.293141 0.397651 0.761344
O O3 0.047870 0.478433 0.695212
O O4 0.968184 0.526778 0.973511
O O5 0.547873 0.219984 0.695212
O O6 0.793146 0.300764 0.761343
O O7 0.818303 0.081861 0.697912
O O8 0.468187 0.171637 0.973510
O O9 0.250001 0.099207 0.500000
O O10 0.429932 0.275435 0.511690
O O11 0.442459 0.218510 0.243444
O O12 0.057542 0.979903 0.756556
O O13 0.070071 0.922979 0.488309
O O14 0.844077 0.681395 0.199146
O O15 0.344081 0.017017 0.199144
O O16 0.249998 0.599208 0.000000
#
# Coordination Sequence:
#
# PCOD9118535 Si02
#       8
#     2   2   2   2   2   2   2   2
#     4  11  21  37  58  83 112 147 183 225 274 326
#     4  11  21  37  58  83 112 147 183 225 274 326
#     4   9  19  37  57  81 111 143 182 229 273 324
#     4   9  19  37  57  81 111 143 182 229 273 324
#     4  11  21  37  58  83 112 147 183 225 274 326
#     4  11  21  37  58  83 112 147 183 225 274 326
#     4   9  19  37  57  81 111 143 182 229 273 324
#     4   9  19  37  57  81 111 143 182 229 273 324
#
# _framework density 21.559125000000002
#
# number of rings (size 3 to 8) (size 9 to 14) (size 15 to 20)
#    0.000    2.000    0.000    6.000    0.000    0.000 
#    0.000   25.000    0.000    0.000    0.000    0.000 
#    0.000    0.000    0.000    0.000    0.000    0.000 
#
# Total GULP energy -89265.584606 kJ/mol
# GULP energy per Si atom -5579.099038 kJ/mol
# Density = 2.151006 g / cm^3
# Si number density = 21.559125 Si / 1000 Ang^3
#
#
#
# Elastic Constant Matrix: (Units=GPa)
#
#
# Indices 1 2 3 4 5 6 
#
# 1 66.7657 -9.2246 6.4186 0.0000 -3.1916 0.0000
# 2 -9.2246 47.8780 18.5302 0.0000 0.3153 0.0000
# 3 6.4186 18.5302 133.5041 0.0000 23.2689 0.0000
# 4 0.0000 0.0000 0.0000 25.8579 0.0000 -0.7615
# 5 -3.1916 0.3153 23.2689 0.0000 30.0418 0.0000
# 6 0.0000 0.0000 0.0000 -0.7615 0.0000 19.7740
#
#
#
# Elastic Compliance Matrix: (Units=1/GPa)
#
#
# Indices 1 2 3 4 5 6 
#
# 1 0.015812 0.003726 -0.001807 0.000000 0.003041 0.000000
# 2 0.003726 0.023110 -0.003946 0.000000 0.003210 0.000000
# 3 -0.001807 -0.003946 0.009423 0.000000 -0.007450 0.000000
# 4 0.000000 0.000000 0.000000 0.038717 0.000000 0.001491
# 5 0.003041 0.003210 -0.007450 0.000000 0.039346 0.000000
# 6 0.000000 0.000000 0.000000 0.001491 0.000000 0.050629
#
#
# Mechanical properties :
#
#
# Convention : Reuss Voigt Hill
#
# Bulk Modulus (GPa) = 22.57842 31.06624 26.82233
# Shear Modulus (GPa) = 25.52891 30.62964 28.07928
#
# Velocity S-wave (km/s) = 3.44486 3.77334 3.61284
# Velocity P-wave (km/s) = 5.13013 5.78146 5.46551
#
# Compressibility (1/GPa) = 0.04429008
#
# Stress axis : x y z
#
# Youngs Moduli (GPa) = 63.24463 43.27047 106.11833
#
# Poissons Ratio (x) = -0.16122 0.19179
# Poissons Ratio (y) = -0.23564 0.41877
# Poissons Ratio (z) = 0.11430 0.17076
#
# Static dielectric constant tensor:
#      x y z
#    x 1.822030 0.000000 0.050480 
#    y 0.000000 1.779390 0.000000 
#    z 0.050480 0.000000 1.851790 
# 
# From -- ./inp_files/5926.got.cif
#   From: 2010.05.17/outbox.cif.g08.bks.cpg/sg4_3_cif.got.tgz:5926.got - 2010.06.03 18:43:04.
