data_PCOD9118949
_publ_section_title
;
Structure prediction by ZEFSAII (Michael W. Deem and Ramdas Pophale) SiO2 
 PCOD9118949
Probable space group: P 21
;
_chemical_formula_sum "Si O2"
_cell_formula_units_Z 14
_cell_length_a 8.277106
_cell_length_b 10.078874
_cell_length_c 9.021691
_cell_angle_alpha 90.000000
_cell_angle_beta 128.093772
_cell_angle_gamma 90.000000
_cell_volume 592.317230
_symmetry_space_group_name_H-M "P 21"
_symmetry_group_IT_number 4
_symmetry_cell_setting 'monoclinic'
loop_
_space_group_symop_operation_xyz
x,y,z
-x,1/2+y,-z
loop_
_atom_site_type_symbol
_atom_site_label
_atom_site_fract_x
_atom_site_fract_y
_atom_site_fract_z
Si Si1 0.796963 0.409870 0.820514
Si Si2 0.897506 0.719881 0.563090
Si Si3 0.554778 0.145445 0.729705
Si Si4 0.203335 0.414947 0.255171
Si Si5 0.635587 0.680675 0.840818
Si Si6 0.702661 0.075381 0.135118
Si Si7 0.087343 0.302462 0.752339
O O1 0.697509 0.552784 0.781433
O O2 0.639782 0.294984 0.777310
O O3 0.889994 0.369092 0.715394
O O4 0.995515 0.412065 0.040962
O O5 0.683005 0.643507 0.442527
O O6 0.852268 0.860685 0.615280
O O7 0.960698 0.733352 0.428465
O O8 0.079085 0.649021 0.753846
O O9 0.691183 0.056818 0.696862
O O10 0.590009 0.088439 0.914243
O O11 0.354400 0.308532 0.259876
O O12 0.429919 0.645767 0.813080
O O13 0.806429 0.708124 0.065645
O O14 0.750662 0.921009 0.189076
#
# Coordination Sequence:
#
# PCOD9118949 Si02
#       7
#     2   2   2   2   2   2   2
#     4  11  23  45  77 102 143 193 243 297 369 439
#     4  12  28  45  72 117 145 192 247 308 358 437
#     4  12  25  49  76 105 150 194 242 301 368 435
#     4  11  24  47  75 110 145 194 246 296 369 437
#     4  11  24  44  78 103 143 200 240 297 373 434
#     4  12  25  47  73 106 149 194 243 304 363 434
#     4  11  25  45  73 111 145 189 251 301 366 432
#
# _framework density 23.635984000000001
#
# number of rings (size 3 to 8) (size 9 to 14) (size 15 to 20)
#    0.000    0.571    5.714    3.429    0.000    8.000 
#    0.000    0.000    0.000    0.000    0.000    0.000 
#    0.000    0.000    0.000    0.000    0.000    0.000 
#
# Total GULP energy -78482.663954 kJ/mol
# GULP energy per Si atom -5605.904568 kJ/mol
# Density = 2.358219 g / cm^3
# Si number density = 23.635984 Si / 1000 Ang^3
#
#
#
# Elastic Constant Matrix: (Units=GPa)
#
#
# Indices 1 2 3 4 5 6 
#
# 1 92.0148 11.0015 24.6097 0.0000 15.5441 0.0000
# 2 11.0015 99.9353 5.5647 0.0000 10.5007 0.0000
# 3 24.6097 5.5647 80.0116 0.0000 3.9737 0.0000
# 4 0.0000 0.0000 0.0000 13.8164 0.0000 -3.7340
# 5 15.5441 10.5007 3.9737 0.0000 40.8523 0.0000
# 6 0.0000 0.0000 0.0000 -3.7340 0.0000 27.2614
#
#
#
# Elastic Compliance Matrix: (Units=1/GPa)
#
#
# Indices 1 2 3 4 5 6 
#
# 1 0.012648 -0.000742 -0.003627 0.000000 -0.004269 0.000000
# 2 -0.000742 0.010355 -0.000376 0.000000 -0.002343 0.000000
# 3 -0.003627 -0.000376 0.013632 0.000000 0.000150 0.000000
# 4 0.000000 0.000000 0.000000 0.075160 0.000000 0.010295
# 5 -0.004269 -0.002343 0.000150 0.000000 0.026690 0.000000
# 6 0.000000 0.000000 0.000000 0.010295 0.000000 0.038092
#
#
# Mechanical properties :
#
#
# Convention : Reuss Voigt Hill
#
# Bulk Modulus (GPa) = 36.83635 39.36816 38.10226
# Shear Modulus (GPa) = 25.62595 31.77174 28.69885
#
# Velocity S-wave (km/s) = 3.29628 3.67033 3.48832
# Velocity P-wave (km/s) = 5.48689 5.88676 5.69034
#
# Compressibility (1/GPa) = 0.02714710
#
# Stress axis : x y z
#
# Youngs Moduli (GPa) = 79.06650 96.56950 73.35531
#
# Poissons Ratio (x) = 0.07164 0.26602
# Poissons Ratio (y) = 0.05865 0.02756
# Poissons Ratio (z) = 0.28674 0.03628
#
# Static dielectric constant tensor:
#      x y z
#    x 1.878090 0.000000 -0.004230 
#    y 0.000000 1.875440 0.000000 
#    z -0.004230 0.000000 1.860350 
# 
# From -- ./inp_files/6444.got.cif
#   From: 2010.05.17/outbox.cif.g08.bks.cpg/sg4_4_cif.got.tgz:6444.got - 2010.06.03 18:43:04.
