data_PCOD9118359
_publ_section_title
;
Structure prediction by ZEFSAII (Michael W. Deem and Ramdas Pophale) SiO2 
 PCOD9118359
Probable space group: P 21
;
_chemical_formula_sum "Si O2"
_cell_formula_units_Z 10
_cell_length_a 5.033007
_cell_length_b 5.045776
_cell_length_c 14.169495
_cell_angle_alpha 90.000000
_cell_angle_beta 100.904671
_cell_angle_gamma 90.000000
_cell_volume 353.342829
_symmetry_space_group_name_H-M "P 21"
_symmetry_group_IT_number 4
_symmetry_cell_setting 'monoclinic'
loop_
_space_group_symop_operation_xyz
x,y,z
-x,1/2+y,-z
loop_
_atom_site_type_symbol
_atom_site_label
_atom_site_fract_x
_atom_site_fract_y
_atom_site_fract_z
Si Si1 0.706389 0.586600 0.402740
Si Si2 0.921981 0.581310 0.616703
Si Si3 0.701293 0.377423 0.898087
Si Si4 0.777582 0.233391 0.115771
Si Si5 0.771772 0.949531 0.754942
O O1 0.709519 0.597070 0.516527
O O2 0.411886 0.594389 0.336135
O O3 0.863151 0.316420 0.388671
O O4 0.900621 0.818256 0.377290
O O5 0.779649 0.658378 0.705019
O O6 0.458846 0.569602 0.852220
O O7 0.982090 0.527595 0.895810
O O8 0.675279 0.096127 0.844542
O O9 0.685870 0.350167 0.009889
O O10 0.909943 0.448648 0.194031
#
# Coordination Sequence:
#
# PCOD9118359 Si02
#       5
#     2   2   2   2   2
#     4  10  25  48  75 114 164 219 282 347 419 500
#     4  10  25  48  75 114 164 219 282 347 419 500
#     4  12  28  50  79 118 167 215 280 348 426 507
#     4  12  28  50  79 118 167 215 280 348 426 507
#     4  12  28  44  82 112 160 218 282 350 414 506
#
# _framework density 28.301124999999999
#
# number of rings (size 3 to 8) (size 9 to 14) (size 15 to 20)
#    0.000    0.800    2.000    2.400   11.200    4.800 
#    0.000    0.000    0.000    0.000    0.000    0.000 
#    0.000    0.000    0.000    0.000    0.000    0.000 
#
# Total GULP energy -56008.789284 kJ/mol
# GULP energy per Si atom -5600.878928 kJ/mol
# Density = 2.823671 g / cm^3
# Si number density = 28.301125 Si / 1000 Ang^3
#
#
#
# Elastic Constant Matrix: (Units=GPa)
#
#
# Indices 1 2 3 4 5 6 
#
# 1 149.8017 62.7224 48.1865 0.0000 23.5260 0.0000
# 2 62.7224 145.6869 19.6410 0.0000 23.7446 0.0000
# 3 48.1865 19.6410 229.0831 0.0000 21.3074 0.0000
# 4 0.0000 0.0000 0.0000 39.0437 0.0000 -5.8578
# 5 23.5260 23.7446 21.3074 0.0000 48.6983 0.0000
# 6 0.0000 0.0000 0.0000 -5.8578 0.0000 62.7543
#
#
#
# Elastic Compliance Matrix: (Units=1/GPa)
#
#
# Indices 1 2 3 4 5 6 
#
# 1 0.008813 -0.003273 -0.001382 0.000000 -0.002057 0.000000
# 2 -0.003273 0.008694 0.000198 0.000000 -0.002745 0.000000
# 3 -0.001382 0.000198 0.004780 0.000000 -0.001521 0.000000
# 4 0.000000 0.000000 0.000000 0.025976 0.000000 0.002425
# 5 -0.002057 -0.002745 -0.001521 0.000000 0.023532 0.000000
# 6 0.000000 0.000000 0.000000 0.002425 0.000000 0.016161
#
#
# Mechanical properties :
#
#
# Convention : Reuss Voigt Hill
#
# Bulk Modulus (GPa) = 74.76831 87.29683 81.03257
# Shear Modulus (GPa) = 49.34463 56.36740 52.85601
#
# Velocity S-wave (km/s) = 4.18012 4.46769 4.32630
# Velocity P-wave (km/s) = 7.05508 7.58461 7.32463
#
# Compressibility (1/GPa) = 0.01337465
#
# Stress axis : x y z
#
# Youngs Moduli (GPa) = 113.46293 115.02626 209.18999
#
# Poissons Ratio (x) = 0.37646 0.28908
# Poissons Ratio (y) = 0.37134 -0.04149
# Poissons Ratio (z) = 0.15680 -0.02281
#
# Static dielectric constant tensor:
#      x y z
#    x 2.192830 0.000000 -0.060780 
#    y 0.000000 2.277510 0.000000 
#    z -0.060780 0.000000 2.193070 
# 
# From -- ./inp_files/13176.got.cif
#   From: 2010.05.17/outbox.cif.g08.bks.cpg/sg4_7_cif.got.tgz:13176.got - 2010.06.03 18:43:04.
