data_PCOD9118260
_publ_section_title
;
Structure prediction by ZEFSAII (Michael W. Deem and Ramdas Pophale) SiO2 
 PCOD9118260
Probable space group: P 21
;
_chemical_formula_sum "Si O2"
_cell_formula_units_Z 14
_cell_length_a 27.379603
_cell_length_b 5.106444
_cell_length_c 4.989592
_cell_angle_alpha 90.000000
_cell_angle_beta 125.991322
_cell_angle_gamma 90.000000
_cell_volume 564.437920
_symmetry_space_group_name_H-M "P 21"
_symmetry_group_IT_number 4
_symmetry_cell_setting 'monoclinic'
loop_
_space_group_symop_operation_xyz
x,y,z
-x,1/2+y,-z
loop_
_atom_site_type_symbol
_atom_site_label
_atom_site_fract_x
_atom_site_fract_y
_atom_site_fract_z
Si Si1 0.826731 0.123600 0.219437
Si Si2 0.796472 0.412072 0.621692
Si Si3 0.540363 0.629401 0.656349
Si Si4 0.300545 0.637928 0.411618
Si Si5 0.622646 0.630418 0.421896
Si Si6 0.962169 0.547072 0.395501
Si Si7 0.111724 0.181241 0.368312
O O1 0.830813 0.218850 0.534999
O O2 0.878378 0.912305 0.381868
O O3 0.823294 0.369408 0.002385
O O4 0.758843 0.026209 0.930547
O O5 0.728925 0.300458 0.432484
O O6 0.818746 0.665693 0.536548
O O7 0.502520 0.378521 0.437458
O O8 0.588252 0.704475 0.581786
O O9 0.574709 0.554911 0.039039
O O10 0.341794 0.384100 0.577685
O O11 0.335996 0.876246 0.386592
O O12 0.927130 0.493361 0.562008
O O13 0.987811 0.267851 0.383762
O O14 0.925241 0.670160 0.025610
#
# Coordination Sequence:
#
# PCOD9118260 Si02
#       7
#     2   2   2   2   2   2   2
#     4  10  25  41  71 104 148 186 241 285 356 468
#     4  10  25  41  71 104 148 186 241 285 356 468
#     4  12  26  47  72 100 136 189 258 294 352 420
#     4  10  28  42  70 110 152 178 240 280 382 428
#     4  12  26  44  74 100 148 190 226 312 360 416
#     4  12  30  50  74 108 142 188 252 320 368 434
#     4  12  26  47  78 100 148 195 246 294 388 430
#
# _framework density 24.803436000000001
#
# number of rings (size 3 to 8) (size 9 to 14) (size 15 to 20)
#    0.857    0.000    0.000    5.143   14.000    0.000 
#    0.000    0.000    0.000    0.000    0.000    0.000 
#    0.000    0.000    0.000    0.000    0.000    0.000 
#
# Total GULP energy -77965.520375 kJ/mol
# GULP energy per Si atom -5568.965741 kJ/mol
# Density = 2.474698 g / cm^3
# Si number density = 24.803436 Si / 1000 Ang^3
#
#
#
# Elastic Constant Matrix: (Units=GPa)
#
#
# Indices 1 2 3 4 5 6 
#
# 1 89.2191 18.7022 24.0813 0.0000 -9.5448 0.0000
# 2 18.7022 98.3801 14.1334 0.0000 5.6321 0.0000
# 3 24.0813 14.1334 79.8462 0.0000 -5.9665 0.0000
# 4 0.0000 0.0000 0.0000 25.3488 0.0000 9.9729
# 5 -9.5448 5.6321 -5.9665 0.0000 14.5924 0.0000
# 6 0.0000 0.0000 0.0000 9.9729 0.0000 38.4950
#
#
#
# Elastic Compliance Matrix: (Units=1/GPa)
#
#
# Indices 1 2 3 4 5 6 
#
# 1 0.013480 -0.002632 -0.002955 0.000000 0.008625 0.000000
# 2 -0.002632 0.011299 -0.001713 0.000000 -0.006783 0.000000
# 3 -0.002955 -0.001713 0.014053 0.000000 0.004474 0.000000
# 4 0.000000 0.000000 0.000000 0.043927 0.000000 -0.011380
# 5 0.008625 -0.006783 0.004474 0.000000 0.078617 0.000000
# 6 0.000000 0.000000 0.000000 -0.011380 0.000000 0.028926
#
#
# Mechanical properties :
#
#
# Convention : Reuss Voigt Hill
#
# Bulk Modulus (GPa) = 41.26755 42.36438 41.81596
# Shear Modulus (GPa) = 23.47628 29.72247 26.59937
#
# Velocity S-wave (km/s) = 3.07985 3.46543 3.27832
# Velocity P-wave (km/s) = 5.41491 5.75582 5.58796
#
# Compressibility (1/GPa) = 0.02423212
#
# Stress axis : x y z
#
# Youngs Moduli (GPa) = 74.18159 88.50014 71.15938
#
# Poissons Ratio (x) = 0.23292 0.21030
# Poissons Ratio (y) = 0.19523 0.12191
# Poissons Ratio (z) = 0.21923 0.15162
#
# Static dielectric constant tensor:
#      x y z
#    x 2.040850 0.000000 0.084790 
#    y 0.000000 2.770300 0.000000 
#    z 0.084790 0.000000 1.941660 
# 
# From -- ./inp_files/4457.got.cif
#   From: 2010.05.17/outbox.cif.g08.bks.cpg/sg4_3_cif.got.tgz:4457.got - 2010.06.03 18:43:04.
