data_PCOD9118897
_publ_section_title
;
Structure prediction by ZEFSAII (Michael W. Deem and Ramdas Pophale) SiO2 
 PCOD9118897
Probable space group: P 21
;
_chemical_formula_sum "Si O2"
_cell_formula_units_Z 16
_cell_length_a 19.601775
_cell_length_b 5.467385
_cell_length_c 8.592341
_cell_angle_alpha 90.000000
_cell_angle_beta 42.635619
_cell_angle_gamma 90.000000
_cell_volume 623.719157
_symmetry_space_group_name_H-M "P 21"
_symmetry_group_IT_number 4
_symmetry_cell_setting 'monoclinic'
loop_
_space_group_symop_operation_xyz
x,y,z
-x,1/2+y,-z
loop_
_atom_site_type_symbol
_atom_site_label
_atom_site_fract_x
_atom_site_fract_y
_atom_site_fract_z
Si Si1 0.355738 0.955700 0.046057
Si Si2 0.376514 0.344921 0.772773
Si Si3 0.469450 0.196033 0.306837
Si Si4 0.864684 0.129824 0.265411
Si Si5 0.852454 0.285840 0.634033
Si Si6 0.725938 0.727641 0.534194
Si Si7 0.084631 0.042855 0.978333
Si Si8 0.139041 0.302261 0.200646
O O1 0.268907 0.760910 0.160831
O O2 0.301195 0.156918 0.244891
O O3 0.461030 0.849927 0.928910
O O4 0.383162 0.075075 0.835911
O O5 0.422225 0.353862 0.525377
O O6 0.450668 0.507827 0.754559
O O7 0.255556 0.366360 0.967011
O O8 0.367482 0.108726 0.397850
O O9 0.875735 0.273152 0.412155
O O10 0.871783 0.266188 0.087159
O O11 0.753728 0.011931 0.469110
O O12 0.973620 0.995879 0.095674
O O13 0.871044 0.554670 0.676527
O O14 0.897591 0.048996 0.648766
O O15 0.830964 0.639396 0.283847
O O16 0.090316 0.209809 0.120679
#
# Coordination Sequence:
#
# PCOD9118897 Si02
#       8
#     2   2   2   2   2   2   2   2
#     4  11  25  44  72 109 155 211 257 327 408 485
#     4  11  23  44  68 104 148 202 257 319 397 480
#     4  12  25  43  73 107 155 201 263 331 400 491
#     4  12  27  51  78 111 159 209 273 345 417 480
#     4  11  25  48  79 110 164 200 266 331 408 477
#     4  12  28  47  72 116 154 210 272 330 407 494
#     4  12  27  48  82 113 157 210 269 341 412 481
#     4  11  26  47  78 118 152 209 263 332 403 494
#
# _framework density 25.652573
#
# number of rings (size 3 to 8) (size 9 to 14) (size 15 to 20)
#    0.000    0.500    6.250    1.500    3.500    2.000 
#    0.000    0.000    0.000    0.000    0.000    0.000 
#    0.000    0.000    0.000    0.000    0.000    0.000 
#
# Total GULP energy -89137.266329 kJ/mol
# GULP energy per Si atom -5571.079146 kJ/mol
# Density = 2.559419 g / cm^3
# Si number density = 25.652573 Si / 1000 Ang^3
#
#
#
# Elastic Constant Matrix: (Units=GPa)
#
#
# Indices 1 2 3 4 5 6 
#
# 1 95.5453 31.8002 34.4261 0.0000 -25.6270 0.0000
# 2 31.8002 85.2394 26.5368 0.0000 3.9098 0.0000
# 3 34.4261 26.5368 96.1388 0.0000 -17.9279 0.0000
# 4 0.0000 0.0000 0.0000 36.6364 0.0000 8.2614
# 5 -25.6270 3.9098 -17.9279 0.0000 51.1561 0.0000
# 6 0.0000 0.0000 0.0000 8.2614 0.0000 27.8605
#
#
#
# Elastic Compliance Matrix: (Units=1/GPa)
#
#
# Indices 1 2 3 4 5 6 
#
# 1 0.014984 -0.005080 -0.002666 0.000000 0.006961 0.000000
# 2 -0.005080 0.014833 -0.003168 0.000000 -0.004789 0.000000
# 3 -0.002666 -0.003168 0.012868 0.000000 0.003416 0.000000
# 4 0.000000 0.000000 0.000000 0.029251 0.000000 -0.008674
# 5 0.006961 -0.004789 0.003416 0.000000 0.024598 0.000000
# 6 0.000000 0.000000 0.000000 -0.008674 0.000000 0.038465
#
#
# Mechanical properties :
#
#
# Convention : Reuss Voigt Hill
#
# Bulk Modulus (GPa) = 47.94360 51.38331 49.66345
# Shear Modulus (GPa) = 30.52902 35.40796 32.96849
#
# Velocity S-wave (km/s) = 3.45352 3.71925 3.58885
# Velocity P-wave (km/s) = 5.88494 6.20627 6.04774
#
# Compressibility (1/GPa) = 0.02085784
#
# Stress axis : x y z
#
# Youngs Moduli (GPa) = 66.73678 67.41859 77.71375
#
# Poissons Ratio (x) = 0.34246 0.20715
# Poissons Ratio (y) = 0.33900 0.24622
# Poissons Ratio (z) = 0.17789 0.21360
#
# Static dielectric constant tensor:
#      x y z
#    x 2.034010 0.000000 -0.013510 
#    y 0.000000 2.774510 0.000000 
#    z -0.013510 0.000000 1.983090 
# 
# From -- ./inp_files/9845.got.cif
#   From: 2010.05.17/outbox.cif.g08.bks.cpg/sg4_5_cif.got.tgz:9845.got - 2010.06.03 18:43:04.
