data_PCOD9118982
_publ_section_title
;
Structure prediction by ZEFSAII (Michael W. Deem and Ramdas Pophale) SiO2 
 PCOD9118982
Probable space group: P 21
;
_chemical_formula_sum "Si O2"
_cell_formula_units_Z 14
_cell_length_a 8.957060
_cell_length_b 9.317210
_cell_length_c 13.137669
_cell_angle_alpha 90.000000
_cell_angle_beta 32.327202
_cell_angle_gamma 90.000000
_cell_volume 586.304722
_symmetry_space_group_name_H-M "P 21"
_symmetry_group_IT_number 4
_symmetry_cell_setting 'monoclinic'
loop_
_space_group_symop_operation_xyz
x,y,z
-x,1/2+y,-z
loop_
_atom_site_type_symbol
_atom_site_label
_atom_site_fract_x
_atom_site_fract_y
_atom_site_fract_z
Si Si1 0.544144 0.968830 0.663056
Si Si2 0.833305 0.172753 0.969953
Si Si3 0.752702 0.923133 0.335839
Si Si4 0.132663 0.715251 0.828166
Si Si5 0.654420 0.300124 0.591218
Si Si6 0.644096 0.888039 0.031962
Si Si7 0.317866 0.329499 0.211999
O O1 0.762922 0.916406 0.451617
O O2 0.294856 0.859052 0.773071
O O3 0.634207 0.944970 0.727126
O O4 0.528827 0.139439 0.662138
O O5 0.005454 0.314888 0.842189
O O6 0.908989 0.134746 0.041253
O O7 0.501601 0.199834 0.150284
O O8 0.852472 0.025068 0.899079
O O9 0.478163 0.869798 0.433590
O O10 0.745523 0.091599 0.312697
O O11 0.848683 0.757925 0.939261
O O12 0.555573 0.381750 0.752857
O O13 0.989934 0.298794 0.391812
O O14 0.537283 0.865970 0.979324
#
# Coordination Sequence:
#
# PCOD9118982 Si02
#       7
#     2   2   2   2   2   2   2
#     4  11  27  45  75 106 153 191 248 302 375 439
#     4  11  25  47  72 107 142 196 243 302 366 441
#     4  12  24  46  80 107 144 194 248 307 369 437
#     4  11  23  47  71 110 139 185 253 304 360 437
#     4  12  27  48  74 108 145 196 245 306 366 439
#     4  12  26  47  76 101 151 192 243 304 373 430
#     4  11  30  44  70 109 150 186 246 297 371 443
#
# _framework density 23.878368999999999
#
# number of rings (size 3 to 8) (size 9 to 14) (size 15 to 20)
#    0.000    0.571    2.857    3.429   10.000    1.143 
#    0.000    0.000    0.000    0.000    0.000    0.000 
#    0.000    0.000    0.000    0.000    0.000    0.000 
#
# Total GULP energy -78072.041639 kJ/mol
# GULP energy per Si atom -5576.574403 kJ/mol
# Density = 2.382402 g / cm^3
# Si number density = 23.878369 Si / 1000 Ang^3
#
#
#
# Elastic Constant Matrix: (Units=GPa)
#
#
# Indices 1 2 3 4 5 6 
#
# 1 105.6749 1.6567 37.9782 0.0000 9.2514 0.0000
# 2 1.6567 77.7686 15.7506 0.0000 -5.0566 0.0000
# 3 37.9782 15.7506 90.9937 0.0000 10.9360 0.0000
# 4 0.0000 0.0000 0.0000 28.5129 0.0000 2.3559
# 5 9.2514 -5.0566 10.9360 0.0000 52.6786 0.0000
# 6 0.0000 0.0000 0.0000 2.3559 0.0000 3.3378
#
#
#
# Elastic Compliance Matrix: (Units=1/GPa)
#
#
# Indices 1 2 3 4 5 6 
#
# 1 0.011217 0.000648 -0.004681 0.000000 -0.000936 0.000000
# 2 0.000648 0.013532 -0.002826 0.000000 0.001772 0.000000
# 3 -0.004681 -0.002826 0.013709 0.000000 -0.002295 0.000000
# 4 0.000000 0.000000 0.000000 0.037244 0.000000 -0.026288
# 5 -0.000936 0.001772 -0.002295 0.000000 0.019794 0.000000
# 6 0.000000 0.000000 0.000000 -0.026288 0.000000 0.318157
#
#
# Mechanical properties :
#
#
# Convention : Reuss Voigt Hill
#
# Bulk Modulus (GPa) = 40.42020 42.80091 41.61055
# Shear Modulus (GPa) = 11.47794 31.50929 21.49361
#
# Velocity S-wave (km/s) = 2.19483 3.63654 3.00347
# Velocity P-wave (km/s) = 4.83604 5.96624 5.43062
#
# Compressibility (1/GPa) = 0.02474011
#
# Stress axis : x y z
#
# Youngs Moduli (GPa) = 89.14866 73.89675 72.94648
#
# Poissons Ratio (x) = -0.04791 0.34150
# Poissons Ratio (y) = -0.05780 0.20614
# Poissons Ratio (z) = 0.41735 0.20883
#
# Static dielectric constant tensor:
#      x y z
#    x 1.866860 0.000000 0.006040 
#    y 0.000000 1.925670 0.000000 
#    z 0.006040 0.000000 2.000650 
# 
# From -- ./inp_files/10990.got.cif
#   From: 2010.05.17/outbox.cif.g08.bks.cpg/sg4_6_cif.got.tgz:10990.got - 2010.06.03 18:43:04.
