data_PCOD9118741
_publ_section_title
;
Structure prediction by ZEFSAII (Michael W. Deem and Ramdas Pophale) SiO2 
 PCOD9118741
Probable space group: P 21
;
_chemical_formula_sum "Si O2"
_cell_formula_units_Z 16
_cell_length_a 10.701840
_cell_length_b 10.794018
_cell_length_c 9.879816
_cell_angle_alpha 90.000000
_cell_angle_beta 142.041543
_cell_angle_gamma 90.000000
_cell_volume 701.987023
_symmetry_space_group_name_H-M "P 21"
_symmetry_group_IT_number 4
_symmetry_cell_setting 'monoclinic'
loop_
_space_group_symop_operation_xyz
x,y,z
-x,1/2+y,-z
loop_
_atom_site_type_symbol
_atom_site_label
_atom_site_fract_x
_atom_site_fract_y
_atom_site_fract_z
Si Si1 0.346219 0.224800 0.976011
Si Si2 0.243434 0.962991 0.431945
Si Si3 0.047128 0.000312 0.713390
Si Si4 0.922237 0.014932 0.921667
Si Si5 0.607109 0.791908 0.688749
Si Si6 0.868869 0.978136 0.288859
Si Si7 0.549047 0.169473 0.698334
Si Si8 0.283750 0.744174 0.899528
O O1 0.268005 0.362700 0.871784
O O2 0.199743 0.113028 0.804696
O O3 0.356172 0.213796 0.146032
O O4 0.565591 0.222606 0.095831
O O5 0.381438 0.848561 0.506712
O O6 0.088727 0.938631 0.420474
O O7 0.416981 0.054341 0.637171
O O8 0.109840 0.006057 0.187369
O O9 0.145261 0.864631 0.775261
O O10 0.983999 0.016215 0.816400
O O11 0.869427 0.001449 0.449774
O O12 0.782153 0.894439 0.828773
O O13 0.765706 0.126218 0.822770
O O14 0.596590 0.720022 0.541214
O O15 0.825447 0.110442 0.181087
O O16 0.586245 0.261082 0.852715
#
# Coordination Sequence:
#
# PCOD9118741 Si02
#       8
#     2   2   2   2   2   2   2   2
#     4  12  26  48  71 106 146 187 243 298 358 424
#     4  11  22  45  70  98 135 192 234 278 365 425
#     4  12  28  42  74 106 142 189 239 305 351 424
#     4  11  25  46  67 108 148 181 245 292 361 433
#     4  11  25  42  72 102 143 188 232 299 357 424
#     4  12  25  47  73 100 143 194 240 291 361 430
#     4  11  25  42  72 102 143 188 232 299 357 424
#     4  12  26  48  71 106 146 187 243 298 358 424
#
# _framework density 22.792442999999999
#
# number of rings (size 3 to 8) (size 9 to 14) (size 15 to 20)
#    0.000    0.500    2.500    5.250    7.000    3.000 
#    0.000    0.000    0.000    0.000    0.000    0.000 
#    0.000    0.000    0.000    0.000    0.000    0.000 
#
# Total GULP energy -89451.496896 kJ/mol
# GULP energy per Si atom -5590.718556 kJ/mol
# Density = 2.274057 g / cm^3
# Si number density = 22.792443 Si / 1000 Ang^3
#
#
#
# Elastic Constant Matrix: (Units=GPa)
#
#
# Indices 1 2 3 4 5 6 
#
# 1 87.1688 -2.1828 6.8879 0.0000 -6.7006 0.0000
# 2 -2.1828 86.5053 22.7134 0.0000 7.1058 0.0000
# 3 6.8879 22.7134 100.5670 0.0000 -19.5778 0.0000
# 4 0.0000 0.0000 0.0000 33.6979 0.0000 -4.3966
# 5 -6.7006 7.1058 -19.5778 0.0000 49.2279 0.0000
# 6 0.0000 0.0000 0.0000 -4.3966 0.0000 18.6071
#
#
#
# Elastic Compliance Matrix: (Units=1/GPa)
#
#
# Indices 1 2 3 4 5 6 
#
# 1 0.011629 0.000353 -0.000626 0.000000 0.001283 0.000000
# 2 0.000353 0.012758 -0.003528 0.000000 -0.003197 0.000000
# 3 -0.000626 -0.003528 0.011778 0.000000 0.005108 0.000000
# 4 0.000000 0.000000 0.000000 0.030619 0.000000 0.007235
# 5 0.001283 -0.003197 0.005108 0.000000 0.022981 0.000000
# 6 0.000000 0.000000 0.000000 0.007235 0.000000 0.055452
#
#
# Mechanical properties :
#
#
# Convention : Reuss Voigt Hill
#
# Bulk Modulus (GPa) = 35.01269 36.56421 35.78845
# Shear Modulus (GPa) = 30.79940 36.76143 33.78042
#
# Velocity S-wave (km/s) = 3.67999 4.02042 3.85397
# Velocity P-wave (km/s) = 5.78371 6.13423 5.96155
#
# Compressibility (1/GPa) = 0.02856107
#
# Stress axis : x y z
#
# Youngs Moduli (GPa) = 85.99241 78.38385 84.90645
#
# Poissons Ratio (x) = -0.02763 0.05318
# Poissons Ratio (y) = -0.03031 0.29953
# Poissons Ratio (z) = 0.05386 0.27652
#
# Static dielectric constant tensor:
#      x y z
#    x 1.831090 0.000000 -0.030950 
#    y 0.000000 1.904660 0.000000 
#    z -0.030950 0.000000 1.881200 
# 
# From -- ./inp_files/2919.got.cif
#   From: 2010.05.17/outbox.cif.g08.bks.cpg/sg4_2_cif.got.tgz:2919.got - 2010.06.03 18:43:04.
