data_PCOD9118369
_publ_section_title
;
Structure prediction by ZEFSAII (Michael W. Deem and Ramdas Pophale) SiO2 
 PCOD9118369
Probable space group: P 21
;
_chemical_formula_sum "Si O2"
_cell_formula_units_Z 16
_cell_length_a 9.140171
_cell_length_b 5.194841
_cell_length_c 20.883746
_cell_angle_alpha 90.000000
_cell_angle_beta 39.826795
_cell_angle_gamma 90.000000
_cell_volume 635.086742
_symmetry_space_group_name_H-M "P 21"
_symmetry_group_IT_number 4
_symmetry_cell_setting 'monoclinic'
loop_
_space_group_symop_operation_xyz
x,y,z
-x,1/2+y,-z
loop_
_atom_site_type_symbol
_atom_site_label
_atom_site_fract_x
_atom_site_fract_y
_atom_site_fract_z
Si Si1 0.415771 0.745100 0.670301
Si Si2 0.164812 0.004943 0.516690
Si Si3 0.068974 0.368102 0.810930
Si Si4 0.429353 0.651637 0.171296
Si Si5 0.343422 0.653106 0.343049
Si Si6 0.934959 0.464425 0.302995
Si Si7 0.598603 0.538089 0.935027
Si Si8 0.899888 0.333589 0.004155
O O1 0.667497 0.742070 0.554930
O O2 0.307823 0.505732 0.744103
O O3 0.233431 0.762787 0.674531
O O4 0.444597 0.969871 0.711688
O O5 0.282354 0.810395 0.427543
O O6 0.170008 0.977465 0.590826
O O7 0.900539 0.011564 0.587096
O O8 0.865710 0.566873 0.861005
O O9 0.089967 0.190761 0.741396
O O10 0.970972 0.244698 0.908602
O O11 0.386397 0.760689 0.257196
O O12 0.441447 0.895289 0.119036
O O13 0.653714 0.472956 0.093216
O O14 0.207813 0.477744 0.225206
O O15 0.490456 0.811713 0.987525
O O16 0.066175 0.574736 0.966161
#
# Coordination Sequence:
#
# PCOD9118369 Si02
#       8
#     2   2   2   2   2   2   2   2
#     4  12  26  44  78 104 152 194 256 325 391 467
#     4  11  25  48  73 110 145 204 251 329 388 476
#     4  11  27  46  72 112 151 202 257 319 393 464
#     4  10  25  50  75 109 154 204 261 321 394 473
#     4  11  24  50  73 109 152 198 263 313 400 471
#     4  10  27  48  75 108 149 197 262 319 398 465
#     4  11  25  48  79 110 156 207 258 322 388 464
#     4  12  29  48  77 114 161 208 264 322 390 468
#
# _framework density 25.193408999999999
#
# number of rings (size 3 to 8) (size 9 to 14) (size 15 to 20)
#    0.000    1.000    2.500    1.500   14.000    0.000 
#    6.750    0.000    0.000    0.000    0.000    0.000 
#    0.000    0.000    0.000    0.000    0.000    0.000 
#
# Total GULP energy -89304.503724 kJ/mol
# GULP energy per Si atom -5581.531483 kJ/mol
# Density = 2.513607 g / cm^3
# Si number density = 25.193409 Si / 1000 Ang^3
#
#
#
# Elastic Constant Matrix: (Units=GPa)
#
#
# Indices 1 2 3 4 5 6 
#
# 1 113.6204 15.9093 59.7929 0.0000 13.2953 0.0000
# 2 15.9093 37.0972 23.0126 0.0000 11.0757 0.0000
# 3 59.7929 23.0126 139.7436 0.0000 27.7229 0.0000
# 4 0.0000 0.0000 0.0000 31.8493 0.0000 -6.0217
# 5 13.2953 11.0757 27.7229 0.0000 50.6488 0.0000
# 6 0.0000 0.0000 0.0000 -6.0217 0.0000 37.1873
#
#
#
# Elastic Compliance Matrix: (Units=1/GPa)
#
#
# Indices 1 2 3 4 5 6 
#
# 1 0.011503 -0.002081 -0.004566 0.000000 -0.000065 0.000000
# 2 -0.002081 0.031270 -0.003378 0.000000 -0.004443 0.000000
# 3 -0.004566 -0.003378 0.010412 0.000000 -0.003762 0.000000
# 4 0.000000 0.000000 0.000000 0.032389 0.000000 0.005245
# 5 -0.000065 -0.004443 -0.003762 0.000000 0.022792 0.000000
# 6 0.000000 0.000000 0.000000 0.005245 0.000000 0.027740
#
#
# Mechanical properties :
#
#
# Convention : Reuss Voigt Hill
#
# Bulk Modulus (GPa) = 30.17883 54.21008 42.19445
# Shear Modulus (GPa) = 29.90379 36.72018 33.31199
#
# Velocity S-wave (km/s) = 3.44898 3.82190 3.64022
# Velocity P-wave (km/s) = 5.27878 6.40626 5.86965
#
# Compressibility (1/GPa) = 0.03313581
#
# Stress axis : x y z
#
# Youngs Moduli (GPa) = 86.93143 31.97908 96.03994
#
# Poissons Ratio (x) = 0.06655 0.43855
# Poissons Ratio (y) = 0.18092 0.32439
# Poissons Ratio (z) = 0.39696 0.10801
#
# Static dielectric constant tensor:
#      x y z
#    x 2.078270 0.000000 -0.046000 
#    y 0.000000 2.151330 0.000000 
#    z -0.046000 0.000000 2.050410 
# 
# From -- ./inp_files/15585.got.cif
#   From: 2010.05.17/outbox.cif.g08.bks.cpg/sg4_8_cif.got.tgz:15585.got - 2010.06.03 18:43:04.
