data_PCOD9118138
_publ_section_title
;
Structure prediction by ZEFSAII (Michael W. Deem and Ramdas Pophale) SiO2 
 PCOD9118138
Probable space group: P 21
;
_chemical_formula_sum "Si O2"
_cell_formula_units_Z 16
_cell_length_a 12.875053
_cell_length_b 5.136685
_cell_length_c 22.207541
_cell_angle_alpha 90.000000
_cell_angle_beta 156.048425
_cell_angle_gamma 90.000000
_cell_volume 596.238992
_symmetry_space_group_name_H-M "P 21"
_symmetry_group_IT_number 4
_symmetry_cell_setting 'monoclinic'
loop_
_space_group_symop_operation_xyz
x,y,z
-x,1/2+y,-z
loop_
_atom_site_type_symbol
_atom_site_label
_atom_site_fract_x
_atom_site_fract_y
_atom_site_fract_z
Si Si1 0.264054 0.967760 0.820307
Si Si2 0.710897 0.344815 0.926171
Si Si3 0.478704 0.781843 0.586828
Si Si4 0.178537 0.467479 0.851899
Si Si5 0.149961 0.998287 0.133059
Si Si6 0.175640 0.374027 0.592859
Si Si7 0.103506 0.619589 0.212986
Si Si8 0.214915 0.290711 0.482140
O O1 0.177056 0.758034 0.825527
O O2 0.219252 0.258726 0.819933
O O3 0.565361 0.941101 0.972036
O O4 0.081644 0.875321 0.670692
O O5 0.807886 0.480732 0.915437
O O6 0.404253 0.350204 0.762596
O O7 0.844776 0.474158 0.055021
O O8 0.856067 0.070337 0.994104
O O9 0.268782 0.001498 0.488950
O O10 0.683117 0.917098 0.651346
O O11 0.665051 0.721452 0.742471
O O12 0.338497 0.508283 0.504215
O O13 0.947897 0.352253 0.768129
O O14 0.206192 0.754697 0.206271
O O15 0.312511 0.318274 0.601690
O O16 0.957299 0.154745 0.482325
#
# Coordination Sequence:
#
# PCOD9118138 Si02
#       8
#     2   2   2   2   2   2   2   2
#     4  10  24  47  72  97 130 185 224 288 346 407
#     4  11  24  39  67 100 139 180 228 265 343 402
#     4  11  23  42  68 100 133 183 216 273 342 407
#     4  10  24  46  71 101 132 166 241 292 340 394
#     4  11  22  40  68 101 133 184 222 277 335 404
#     4  12  29  44  63 102 147 181 226 280 330 414
#     4  11  24  41  72 101 139 172 232 289 337 394
#     4  12  24  45  73  92 141 185 227 266 355 418
#
# _framework density 26.834875
#
# number of rings (size 3 to 8) (size 9 to 14) (size 15 to 20)
#    0.000    1.000    3.750    1.500    8.750    0.000 
#    2.250    2.500    0.000    0.000    0.000    0.000 
#    0.000    0.000    0.000    0.000    0.000    0.000 
#
# Total GULP energy -89580.447826 kJ/mol
# GULP energy per Si atom -5598.777989 kJ/mol
# Density = 2.677380 g / cm^3
# Si number density = 26.834875 Si / 1000 Ang^3
#
#
#
# Elastic Constant Matrix: (Units=GPa)
#
#
# Indices 1 2 3 4 5 6 
#
# 1 75.8516 12.0957 -17.2370 0.0000 4.3590 0.0000
# 2 12.0957 129.0152 13.9688 0.0000 2.3974 0.0000
# 3 -17.2370 13.9688 102.8322 0.0000 4.8775 0.0000
# 4 0.0000 0.0000 0.0000 48.3365 0.0000 6.3093
# 5 4.3590 2.3974 4.8775 0.0000 27.8454 0.0000
# 6 0.0000 0.0000 0.0000 6.3093 0.0000 37.9510
#
#
#
# Elastic Compliance Matrix: (Units=1/GPa)
#
#
# Indices 1 2 3 4 5 6 
#
# 1 0.014200 -0.001578 0.002716 0.000000 -0.002563 0.000000
# 2 -0.001578 0.008049 -0.001348 0.000000 -0.000210 0.000000
# 3 0.002716 -0.001348 0.010465 0.000000 -0.002142 0.000000
# 4 0.000000 0.000000 0.000000 0.021147 0.000000 -0.003516
# 5 -0.002563 -0.000210 -0.002142 0.000000 0.036707 0.000000
# 6 0.000000 0.000000 0.000000 -0.003516 0.000000 0.026934
#
#
# Mechanical properties :
#
#
# Convention : Reuss Voigt Hill
#
# Bulk Modulus (GPa) = 30.96551 36.15047 33.55799
# Shear Modulus (GPa) = 38.85447 42.75134 40.80291
#
# Velocity S-wave (km/s) = 3.80927 3.99573 3.90361
# Velocity P-wave (km/s) = 5.55983 5.89818 5.73150
#
# Compressibility (1/GPa) = 0.03229399
#
# Stress axis : x y z
#
# Youngs Moduli (GPa) = 70.42391 124.24238 95.56065
#
# Poissons Ratio (x) = 0.19602 -0.25955
# Poissons Ratio (y) = 0.11111 0.12880
# Poissons Ratio (z) = -0.19128 0.16746
#
# Static dielectric constant tensor:
#      x y z
#    x 2.090450 0.000000 0.029450 
#    y 0.000000 2.110630 0.000000 
#    z 0.029450 0.000000 2.192220 
# 
# From -- ./inp_files/16420.got.cif
#   From: 2010.05.17/outbox.cif.g08.bks.cpg/sg4_9_cif.got.tgz:16420.got - 2010.06.03 18:43:04.
