data_PCOD9118219
_publ_section_title
;
Structure prediction by ZEFSAII (Michael W. Deem and Ramdas Pophale) SiO2 
 PCOD9118219
Probable space group: P 21
;
_chemical_formula_sum "Si O2"
_cell_formula_units_Z 14
_cell_length_a 12.599659
_cell_length_b 8.521184
_cell_length_c 4.944639
_cell_angle_alpha 90.000000
_cell_angle_beta 117.624056
_cell_angle_gamma 90.000000
_cell_volume 470.361157
_symmetry_space_group_name_H-M "P 21"
_symmetry_group_IT_number 4
_symmetry_cell_setting 'monoclinic'
loop_
_space_group_symop_operation_xyz
x,y,z
-x,1/2+y,-z
loop_
_atom_site_type_symbol
_atom_site_label
_atom_site_fract_x
_atom_site_fract_y
_atom_site_fract_z
Si Si1 0.605065 0.064440 0.030852
Si Si2 0.722126 0.281154 0.822602
Si Si3 0.018076 0.336769 0.682804
Si Si4 0.144631 0.076728 0.199471
Si Si5 0.846191 0.060099 0.546180
Si Si6 0.638071 0.648169 0.160099
Si Si7 0.546504 0.826872 0.567413
O O1 0.673335 0.228349 0.055844
O O2 0.478199 0.035254 0.020728
O O3 0.583249 0.999831 0.702094
O O4 0.718203 0.987569 0.309017
O O5 0.790015 0.445506 0.906244
O O6 0.804994 0.147408 0.779942
O O7 0.593842 0.310163 0.522724
O O8 0.071413 0.416971 0.475865
O O9 0.966549 0.480988 0.800911
O O10 0.913956 0.211168 0.493809
O O11 0.103205 0.227886 0.976942
O O12 0.237741 0.105177 0.555565
O O13 0.572302 0.752322 0.311744
O O14 0.635489 0.731520 0.871156
#
# Coordination Sequence:
#
# PCOD9118219 Si02
#       7
#     2   2   2   2   2   2   2
#     4  11  24  44  77 114 154 206 260 336 417 488
#     4  10  24  48  79 114 167 204 266 343 416 496
#     4  11  29  47  84 110 163 220 284 338 413 499
#     4  11  26  54  77 117 161 219 275 347 414 498
#     4  11  26  50  75 117 153 214 275 341 408 491
#     4  11  25  46  78 115 160 202 268 330 419 483
#     4  11  24  45  76 123 156 211 252 337 419 509
#
# _framework density 29.764361000000001
#
# number of rings (size 3 to 8) (size 9 to 14) (size 15 to 20)
#    0.000    1.143    2.857    0.857    8.000    3.429 
#    2.571    0.000    0.000    0.000    0.000    0.000 
#    0.000    0.000    0.000    0.000    0.000    0.000 
#
# Total GULP energy -78236.964443 kJ/mol
# GULP energy per Si atom -5588.354603 kJ/mol
# Density = 2.969662 g / cm^3
# Si number density = 29.764361 Si / 1000 Ang^3
#
#
#
# Elastic Constant Matrix: (Units=GPa)
#
#
# Indices 1 2 3 4 5 6 
#
# 1 174.2339 93.0145 47.8320 0.0000 32.9347 0.0000
# 2 93.0145 136.2824 38.5534 0.0000 6.5500 0.0000
# 3 47.8320 38.5534 105.5261 0.0000 27.7700 0.0000
# 4 0.0000 0.0000 0.0000 56.7883 0.0000 8.8702
# 5 32.9347 6.5500 27.7700 0.0000 62.4113 0.0000
# 6 0.0000 0.0000 0.0000 8.8702 0.0000 78.6249
#
#
#
# Elastic Compliance Matrix: (Units=1/GPa)
#
#
# Indices 1 2 3 4 5 6 
#
# 1 0.010353 -0.006525 -0.001191 0.000000 -0.004249 0.000000
# 2 -0.006525 0.012311 -0.002386 0.000000 0.003213 0.000000
# 3 -0.001191 -0.002386 0.012070 0.000000 -0.004492 0.000000
# 4 0.000000 0.000000 0.000000 0.017925 0.000000 -0.002022
# 5 -0.004249 0.003213 -0.004492 0.000000 0.019926 0.000000
# 6 0.000000 0.000000 0.000000 -0.002022 0.000000 0.012947
#
#
# Mechanical properties :
#
#
# Convention : Reuss Voigt Hill
#
# Bulk Modulus (GPa) = 68.81789 86.09358 77.45574
# Shear Modulus (GPa) = 45.21681 55.34105 50.27893
#
# Velocity S-wave (km/s) = 3.90187 4.31664 4.11449
# Velocity P-wave (km/s) = 6.59322 7.33706 6.97506
#
# Compressibility (1/GPa) = 0.01453111
#
# Stress axis : x y z
#
# Youngs Moduli (GPa) = 96.59393 81.22497 82.85173
#
# Poissons Ratio (x) = 0.52997 0.09865
# Poissons Ratio (y) = 0.63025 0.19768
# Poissons Ratio (z) = 0.11502 0.19379
#
# Static dielectric constant tensor:
#      x y z
#    x 2.358600 0.000000 0.031180 
#    y 0.000000 2.832410 0.000000 
#    z 0.031180 0.000000 2.386040 
# 
# From -- ./inp_files/3651.got.cif
#   From: 2010.05.17/outbox.cif.g08.bks.cpg/sg4_2_cif.got.tgz:3651.got - 2010.06.03 18:43:04.
