data_PCOD9118296
_publ_section_title
;
Structure prediction by ZEFSAII (Michael W. Deem and Ramdas Pophale) SiO2 
 PCOD9118296
Probable space group: P 21
;
_chemical_formula_sum "Si O2"
_cell_formula_units_Z 16
_cell_length_a 9.629680
_cell_length_b 7.021833
_cell_length_c 10.315900
_cell_angle_alpha 90.000000
_cell_angle_beta 109.841233
_cell_angle_gamma 90.000000
_cell_volume 656.132302
_symmetry_space_group_name_H-M "P 21"
_symmetry_group_IT_number 4
_symmetry_cell_setting 'monoclinic'
loop_
_space_group_symop_operation_xyz
x,y,z
-x,1/2+y,-z
loop_
_atom_site_type_symbol
_atom_site_label
_atom_site_fract_x
_atom_site_fract_y
_atom_site_fract_z
Si Si1 0.477092 0.105620 0.603157
Si Si2 0.740757 0.808940 0.152785
Si Si3 0.103831 0.627831 0.625375
Si Si4 0.093039 0.273995 0.203568
Si Si5 0.575704 0.691187 0.695413
Si Si6 0.578964 0.354287 0.857447
Si Si7 0.848813 0.082983 0.965072
Si Si8 0.823438 0.523283 0.374109
O O1 0.504174 0.112855 0.459124
O O2 0.558545 0.271065 0.705920
O O3 0.304243 0.125716 0.583014
O O4 0.532424 0.911484 0.686319
O O5 0.806741 0.955826 0.282267
O O6 0.563924 0.796396 0.105631
O O7 0.802328 0.606036 0.222267
O O8 0.793591 0.906780 0.037326
O O9 0.007834 0.735157 0.704876
O O10 0.986215 0.563418 0.481138
O O11 0.207844 0.799521 0.615154
O O12 0.250026 0.179230 0.276532
O O13 0.125886 0.489391 0.167597
O O14 0.003148 0.164504 0.063384
O O15 0.562054 0.578046 0.825288
O O16 0.729899 0.252836 0.946685
#
# Coordination Sequence:
#
# PCOD9118296 Si02
#       8
#     2   2   2   2   2   2   2   2
#     4  11  23  40  65 102 135 173 223 273 340 405
#     4  10  25  45  67  98 131 176 230 275 331 399
#     4  11  22  42  66 101 133 171 219 271 344 397
#     4  11  25  43  68  99 135 177 224 273 331 406
#     4  12  22  42  69  99 139 175 217 278 342 398
#     4  11  24  45  68  96 134 179 227 278 334 397
#     4  11  25  48  66 100 137 180 233 274 333 401
#     4  11  22  41  67  97 134 173 215 278 337 399
#
# _framework density 24.385324000000001
#
# number of rings (size 3 to 8) (size 9 to 14) (size 15 to 20)
#    0.000    1.000    5.000    1.500    1.750    1.000 
#   13.500    0.000    0.000    0.000    0.000    0.000 
#    0.000    0.000    0.000    0.000    0.000    0.000 
#
# Total GULP energy -89452.308077 kJ/mol
# GULP energy per Si atom -5590.769255 kJ/mol
# Density = 2.432982 g / cm^3
# Si number density = 24.385324 Si / 1000 Ang^3
#
#
#
# Elastic Constant Matrix: (Units=GPa)
#
#
# Indices 1 2 3 4 5 6 
#
# 1 71.6260 7.7639 22.4722 0.0000 7.9703 0.0000
# 2 7.7639 87.8603 18.1267 0.0000 0.1586 0.0000
# 3 22.4722 18.1267 56.7126 0.0000 4.3652 0.0000
# 4 0.0000 0.0000 0.0000 40.7390 0.0000 6.9841
# 5 7.9703 0.1586 4.3652 0.0000 29.6120 0.0000
# 6 0.0000 0.0000 0.0000 6.9841 0.0000 35.6846
#
#
#
# Elastic Compliance Matrix: (Units=1/GPa)
#
#
# Indices 1 2 3 4 5 6 
#
# 1 0.016291 -0.000168 -0.006134 0.000000 -0.003480 0.000000
# 2 -0.000168 0.012195 -0.003874 0.000000 0.000551 0.000000
# 3 -0.006134 -0.003874 0.021416 0.000000 -0.001485 0.000000
# 4 0.000000 0.000000 0.000000 0.025399 0.000000 -0.004971
# 5 -0.003480 0.000551 -0.001485 0.000000 0.034923 0.000000
# 6 0.000000 0.000000 0.000000 -0.004971 0.000000 0.028996
#
#
# Mechanical properties :
#
#
# Convention : Reuss Voigt Hill
#
# Bulk Modulus (GPa) = 33.83974 34.76938 34.30456
# Shear Modulus (GPa) = 29.51239 32.39621 30.95430
#
# Velocity S-wave (km/s) = 3.48264 3.64883 3.56670
# Velocity P-wave (km/s) = 5.48443 5.66050 5.57316
#
# Compressibility (1/GPa) = 0.02955106
#
# Stress axis : x y z
#
# Youngs Moduli (GPa) = 61.38244 82.00273 46.69462
#
# Poissons Ratio (x) = 0.01376 0.28642
# Poissons Ratio (y) = 0.01030 0.18088
# Poissons Ratio (z) = 0.37651 0.31765
#
# Static dielectric constant tensor:
#      x y z
#    x 1.905460 0.000000 -0.011630 
#    y 0.000000 2.039250 0.000000 
#    z -0.011630 0.000000 1.926490 
# 
# From -- ./inp_files/11591.got.cif
#   From: 2010.05.17/outbox.cif.g08.bks.cpg/sg4_6_cif.got.tgz:11591.got - 2010.06.03 18:43:04.
