data_PCOD9118165
_publ_section_title
;
Structure prediction by ZEFSAII (Michael W. Deem and Ramdas Pophale) SiO2 
 PCOD9118165
Probable space group: P 21
;
_chemical_formula_sum "Si O2"
_cell_formula_units_Z 10
_cell_length_a 9.237415
_cell_length_b 8.663256
_cell_length_c 8.624884
_cell_angle_alpha 90.000000
_cell_angle_beta 145.185371
_cell_angle_gamma 90.000000
_cell_volume 394.060191
_symmetry_space_group_name_H-M "P 21"
_symmetry_group_IT_number 4
_symmetry_cell_setting 'monoclinic'
loop_
_space_group_symop_operation_xyz
x,y,z
-x,1/2+y,-z
loop_
_atom_site_type_symbol
_atom_site_label
_atom_site_fract_x
_atom_site_fract_y
_atom_site_fract_z
Si Si1 0.634841 0.515900 0.432923
Si Si2 0.905867 0.005658 0.939033
Si Si3 0.651390 0.723974 0.849819
Si Si4 0.776823 0.021217 0.483699
Si Si5 0.851656 0.709469 0.366777
O O1 0.704084 0.572799 0.323772
O O2 0.592982 0.333180 0.400600
O O3 0.861240 0.552824 0.748867
O O4 0.148531 0.322490 0.077959
O O5 0.936450 0.035852 0.783698
O O6 0.639576 0.081703 0.759010
O O7 0.732854 0.754187 0.098059
O O8 0.876755 0.138421 0.439980
O O9 0.830576 0.853071 0.462673
O O10 0.485498 0.056839 0.272594
#
# Coordination Sequence:
#
# PCOD9118165 Si02
#       5
#     2   2   2   2   2
#     4  10  25  50  77 110 150 192 251 305 370 446
#     4  10  26  48  78 106 149 194 250 302 371 436
#     4  10  24  46  74 108 146 194 247 304 364 441
#     4  12  27  45  77 108 156 196 246 315 361 455
#     4  12  26  45  74 114 147 200 246 306 378 432
#
# _framework density 25.376833000000001
#
# number of rings (size 3 to 8) (size 9 to 14) (size 15 to 20)
#    1.200    0.000    0.000    4.800    8.400    1.600 
#    0.000    0.000    0.000    0.000    0.000    0.000 
#    0.000    0.000    0.000    0.000    0.000    0.000 
#
# Total GULP energy -55859.871521 kJ/mol
# GULP energy per Si atom -5585.987152 kJ/mol
# Density = 2.531907 g / cm^3
# Si number density = 25.376833 Si / 1000 Ang^3
#
#
#
# Elastic Constant Matrix: (Units=GPa)
#
#
# Indices 1 2 3 4 5 6 
#
# 1 112.1721 7.1683 15.0976 0.0000 12.8627 0.0000
# 2 7.1683 53.2899 -7.8853 0.0000 5.1471 0.0000
# 3 15.0976 -7.8853 97.6082 0.0000 22.2624 0.0000
# 4 0.0000 0.0000 0.0000 19.9782 0.0000 -8.6570
# 5 12.8627 5.1471 22.2624 0.0000 45.5521 0.0000
# 6 0.0000 0.0000 0.0000 -8.6570 0.0000 61.8110
#
#
#
# Elastic Compliance Matrix: (Units=1/GPa)
#
#
# Indices 1 2 3 4 5 6 
#
# 1 0.009367 -0.001233 -0.001100 0.000000 -0.001968 0.000000
# 2 -0.001233 0.019594 0.002475 0.000000 -0.003076 0.000000
# 3 -0.001100 0.002475 0.011939 0.000000 -0.005804 0.000000
# 4 0.000000 0.000000 0.000000 0.053289 0.000000 0.007463
# 5 -0.001968 -0.003076 -0.005804 0.000000 0.025693 0.000000
# 6 0.000000 0.000000 0.000000 0.007463 0.000000 0.017224
#
#
# Mechanical properties :
#
#
# Convention : Reuss Voigt Hill
#
# Bulk Modulus (GPa) = 24.27985 32.42573 28.35279
# Shear Modulus (GPa) = 33.21186 42.04756 37.62971
#
# Velocity S-wave (km/s) = 3.62159 4.07495 3.85494
# Velocity P-wave (km/s) = 5.20349 5.91149 5.56876
#
# Compressibility (1/GPa) = 0.04118642
#
# Stress axis : x y z
#
# Youngs Moduli (GPa) = 106.75378 51.03499 83.76038
#
# Poissons Ratio (x) = 0.06291 0.09210
# Poissons Ratio (y) = 0.13159 -0.20731
# Poissons Ratio (z) = 0.11738 -0.12631
#
# Static dielectric constant tensor:
#      x y z
#    x 2.014180 0.000000 0.105600 
#    y 0.000000 2.098600 0.000000 
#    z 0.105600 0.000000 2.027280 
# 
# From -- ./inp_files/5999.got.cif
#   From: 2010.05.17/outbox.cif.g08.bks.cpg/sg4_3_cif.got.tgz:5999.got - 2010.06.03 18:43:04.
