data_PCOD9118609
_publ_section_title
;
Structure prediction by ZEFSAII (Michael W. Deem and Ramdas Pophale) SiO2 
 PCOD9118609
Probable space group: P 21
;
_chemical_formula_sum "Si O2"
_cell_formula_units_Z 16
_cell_length_a 8.975789
_cell_length_b 11.703126
_cell_length_c 12.005656
_cell_angle_alpha 90.000000
_cell_angle_beta 36.762777
_cell_angle_gamma 90.000000
_cell_volume 754.791387
_symmetry_space_group_name_H-M "P 21"
_symmetry_group_IT_number 4
_symmetry_cell_setting 'monoclinic'
loop_
_space_group_symop_operation_xyz
x,y,z
-x,1/2+y,-z
loop_
_atom_site_type_symbol
_atom_site_label
_atom_site_fract_x
_atom_site_fract_y
_atom_site_fract_z
Si Si1 0.026598 0.922560 0.313073
Si Si2 0.871297 0.298076 0.973620
Si Si3 0.398181 0.202150 0.749372
Si Si4 0.962267 0.392594 0.236096
Si Si5 0.739022 0.053206 0.118787
Si Si6 0.077051 0.129269 0.126049
Si Si7 0.451109 0.949275 0.664086
Si Si8 0.748917 0.409245 0.579171
O O1 0.105586 0.838256 0.166457
O O2 0.164817 0.906232 0.345720
O O3 0.732421 0.911692 0.509172
O O4 0.078313 0.047614 0.230378
O O5 0.149809 0.269421 0.855410
O O6 0.730150 0.178483 0.070706
O O7 0.722334 0.392267 0.135790
O O8 0.623830 0.287951 0.623860
O O9 0.442242 0.086597 0.655103
O O10 0.335997 0.146584 0.906625
O O11 0.015115 0.259246 0.192475
O O12 0.674857 0.404061 0.372173
O O13 0.970789 0.431356 0.358724
O O14 0.119467 0.469585 0.054569
O O15 0.890731 0.074140 0.143904
O O16 0.470025 0.001690 0.301497
#
# Coordination Sequence:
#
# PCOD9118609 Si02
#       8
#     2   2   2   2   2   2   2   2
#     4  12  28  44  62 101 146 185 224 273 348 426
#     4  11  23  45  74 100 128 177 236 292 341 398
#     4  11  21  45  76  99 127 177 235 296 343 390
#     4  12  22  44  74 100 133 172 234 293 347 395
#     4  11  23  45  74 100 128 177 236 292 341 398
#     4  11  21  45  76  99 127 177 235 296 343 390
#     4  12  22  44  74 100 133 172 234 293 347 395
#     4  12  28  44  62 101 146 185 224 273 348 426
#
# _framework density 21.19791
#
# number of rings (size 3 to 8) (size 9 to 14) (size 15 to 20)
#    0.000    0.500    7.500    3.000    0.000    3.000 
#    9.000    0.000    0.000    0.000    0.000    0.000 
#    0.000    0.000    0.000    0.000    0.000    0.000 
#
# Total GULP energy -89397.251297 kJ/mol
# GULP energy per Si atom -5587.328206 kJ/mol
# Density = 2.114966 g / cm^3
# Si number density = 21.197910 Si / 1000 Ang^3
#
#
#
# Elastic Constant Matrix: (Units=GPa)
#
#
# Indices 1 2 3 4 5 6 
#
# 1 43.9301 19.6031 23.8364 0.0000 36.5469 0.0000
# 2 19.6031 130.8034 20.7760 0.0000 16.4944 0.0000
# 3 23.8364 20.7760 72.9804 0.0000 29.1106 0.0000
# 4 0.0000 0.0000 0.0000 22.6432 0.0000 0.6762
# 5 36.5469 16.4944 29.1106 0.0000 30.0126 0.0000
# 6 0.0000 0.0000 0.0000 0.6762 0.0000 12.8625
#
#
#
# Elastic Compliance Matrix: (Units=1/GPa)
#
#
# Indices 1 2 3 4 5 6 
#
# 1 -0.278376 0.001739 -0.072431 0.000000 0.408282 0.000000
# 2 0.001739 0.008238 -0.000428 0.000000 -0.006230 0.000000
# 3 -0.072431 -0.000428 0.003597 0.000000 0.084947 0.000000
# 4 0.000000 0.000000 0.000000 0.044233 0.000000 -0.002326
# 5 0.408282 -0.006230 0.084947 0.000000 -0.542825 0.000000
# 6 0.000000 0.000000 0.000000 -0.002326 0.000000 0.077868
#
#
# Mechanical properties :
#
#
# Convention : Reuss Voigt Hill
#
# Bulk Modulus (GPa) = -2.44630 41.79387 19.67378
# Shear Modulus (GPa) = -7.33908 25.33687 8.99890
#
# Velocity S-wave (km/s) = -1.86271 3.46099 2.06262
# Velocity P-wave (km/s) = 2.40474 5.97747 3.86958
#
# Compressibility (1/GPa) = -0.40877979
#
# Stress axis : x y z
#
# Youngs Moduli (GPa) = -3.59227 121.38818 277.98408
#
# Poissons Ratio (x) = -0.21111 20.13458
# Poissons Ratio (y) = 0.00625 0.11904
# Poissons Ratio (z) = -0.26019 0.05198
#
# Static dielectric constant tensor:
#      x y z
#    x 1.755090 0.000000 0.027740 
#    y 0.000000 1.786910 0.000000 
#    z 0.027740 0.000000 1.827880 
# 
# From -- ./inp_files/8323.got.cif
#   From: 2010.05.17/outbox.cif.g08.bks.cpg/sg4_5_cif.got.tgz:8323.got - 2010.06.03 18:43:04.
