data_PCOD9118431
_publ_section_title
;
Structure prediction by ZEFSAII (Michael W. Deem and Ramdas Pophale) SiO2 
 PCOD9118431
Probable space group: P 21
;
_chemical_formula_sum "Si O2"
_cell_formula_units_Z 14
_cell_length_a 17.139732
_cell_length_b 6.135041
_cell_length_c 17.285735
_cell_angle_alpha 90.000000
_cell_angle_beta 162.025740
_cell_angle_gamma 90.000000
_cell_volume 560.906894
_symmetry_space_group_name_H-M "P 21"
_symmetry_group_IT_number 4
_symmetry_cell_setting 'monoclinic'
loop_
_space_group_symop_operation_xyz
x,y,z
-x,1/2+y,-z
loop_
_atom_site_type_symbol
_atom_site_label
_atom_site_fract_x
_atom_site_fract_y
_atom_site_fract_z
Si Si1 0.120746 0.662430 0.122636
Si Si2 0.065612 0.745321 0.683837
Si Si3 0.142003 0.542689 0.318641
Si Si4 0.295482 0.924901 0.569996
Si Si5 0.469169 0.474731 0.058357
Si Si6 0.635341 0.255338 0.807182
Si Si7 0.884650 0.643287 0.341371
O O1 0.194696 0.627753 0.281210
O O2 0.314452 0.691331 0.234838
O O3 0.002739 0.413528 0.994283
O O4 0.885640 0.618108 0.570922
O O5 0.026724 0.696477 0.554417
O O6 0.355066 0.702776 0.980657
O O7 0.998077 0.996469 0.614007
O O8 0.144875 0.756930 0.375165
O O9 0.390667 0.409982 0.578303
O O10 0.886719 0.389448 0.074019
O O11 0.539480 0.033758 0.758608
O O12 0.394070 0.841949 0.746531
O O13 0.217795 0.353436 0.797153
O O14 0.634399 0.527265 0.140181
#
# Coordination Sequence:
#
# PCOD9118431 Si02
#       7
#     2   2   2   2   2   2   2
#     4  10  26  50  90 124 164 222 284 344 408 494
#     4  11  24  43  71 105 140 198 250 334 396 487
#     4  11  29  51  82 120 166 219 273 338 415 499
#     4  11  30  48  74 110 166 202 270 332 420 496
#     4  11  24  43  71 105 140 198 250 334 396 487
#     4  11  29  51  82 120 166 219 273 338 415 499
#     4  11  22  44  70  98 138 184 260 312 402 474
#
# _framework density 24.959581
#
# number of rings (size 3 to 8) (size 9 to 14) (size 15 to 20)
#    0.000    1.143    2.857    0.000   14.000    3.429 
#    0.000    0.000    0.000    0.000    0.000    0.000 
#    0.000    0.000    0.000    0.000    0.000    0.000 
#
# Total GULP energy -78055.660848 kJ/mol
# GULP energy per Si atom -5575.404346 kJ/mol
# Density = 2.490277 g / cm^3
# Si number density = 24.959581 Si / 1000 Ang^3
#
#
#
# Elastic Constant Matrix: (Units=GPa)
#
#
# Indices 1 2 3 4 5 6 
#
# 1 117.7648 31.5704 20.9780 0.0000 6.7966 0.0000
# 2 31.5704 94.6379 42.4423 0.0000 6.4809 0.0000
# 3 20.9780 42.4423 107.6760 0.0000 1.5085 0.0000
# 4 0.0000 0.0000 0.0000 44.7260 0.0000 0.1854
# 5 6.7966 6.4809 1.5085 0.0000 47.1502 0.0000
# 6 0.0000 0.0000 0.0000 0.1854 0.0000 49.2971
#
#
#
# Elastic Compliance Matrix: (Units=1/GPa)
#
#
# Indices 1 2 3 4 5 6 
#
# 1 0.009414 -0.002743 -0.000739 0.000000 -0.000956 0.000000
# 2 -0.002743 0.013757 -0.004869 0.000000 -0.001340 0.000000
# 3 -0.000739 -0.004869 0.011345 0.000000 0.000413 0.000000
# 4 0.000000 0.000000 0.000000 0.022359 0.000000 -0.000084
# 5 -0.000956 -0.001340 0.000413 0.000000 0.021518 0.000000
# 6 0.000000 0.000000 0.000000 -0.000084 0.000000 0.020285
#
#
# Mechanical properties :
#
#
# Convention : Reuss Voigt Hill
#
# Bulk Modulus (GPa) = 56.14288 56.67334 56.40811
# Shear Modulus (GPa) = 41.21366 43.24052 42.22709
#
# Velocity S-wave (km/s) = 4.06792 4.16675 4.11763
# Velocity P-wave (km/s) = 6.67880 6.77528 6.72721
#
# Compressibility (1/GPa) = 0.01781170
#
# Stress axis : x y z
#
# Youngs Moduli (GPa) = 106.22678 72.68878 88.14658
#
# Poissons Ratio (x) = 0.19941 0.06517
# Poissons Ratio (y) = 0.29141 0.42922
# Poissons Ratio (z) = 0.07854 0.35395
#
# Static dielectric constant tensor:
#      x y z
#    x 1.923210 0.000000 0.000550 
#    y 0.000000 2.183520 0.000000 
#    z 0.000550 0.000000 1.985970 
# 
# From -- ./inp_files/3928.got.cif
#   From: 2010.05.17/outbox.cif.g08.bks.cpg/sg4_2_cif.got.tgz:3928.got - 2010.06.03 18:43:04.
