data_PCOD9118013
_publ_section_title
;
Structure prediction by ZEFSAII (Michael W. Deem and Ramdas Pophale) SiO2 
 PCOD9118013
Probable space group: P 21
;
_chemical_formula_sum "Si O2"
_cell_formula_units_Z 16
_cell_length_a 16.757260
_cell_length_b 7.790194
_cell_length_c 7.945117
_cell_angle_alpha 90.000000
_cell_angle_beta 138.078143
_cell_angle_gamma 90.000000
_cell_volume 692.952936
_symmetry_space_group_name_H-M "P 21"
_symmetry_group_IT_number 4
_symmetry_cell_setting 'monoclinic'
loop_
_space_group_symop_operation_xyz
x,y,z
-x,1/2+y,-z
loop_
_atom_site_type_symbol
_atom_site_label
_atom_site_fract_x
_atom_site_fract_y
_atom_site_fract_z
Si Si1 0.003681 0.210590 0.186282
Si Si2 0.352053 0.649478 0.273865
Si Si3 0.903009 0.565020 0.974048
Si Si4 0.292915 0.830634 0.502316
Si Si5 0.790512 0.329789 0.252407
Si Si6 0.936083 0.862877 0.264110
Si Si7 0.773186 0.730846 0.280102
Si Si8 0.544461 0.843689 0.765729
O O1 0.991884 0.143154 0.977771
O O2 0.147061 0.234149 0.428605
O O3 0.949371 0.394793 0.141041
O O4 0.957768 0.051243 0.223815
O O5 0.483785 0.715415 0.536107
O O6 0.379208 0.471071 0.228983
O O7 0.285384 0.677748 0.349230
O O8 0.281994 0.755785 0.019963
O O9 0.799394 0.474770 0.703412
O O10 0.784866 0.536517 0.231497
O O11 0.872944 0.726465 0.041177
O O12 0.267792 0.783312 0.656472
O O13 0.426225 0.905305 0.679918
O O14 0.931748 0.289069 0.487909
O O15 0.850193 0.860803 0.287598
O O16 0.635280 0.773112 0.047874
#
# Coordination Sequence:
#
# PCOD9118013 Si02
#       8
#     2   2   2   2   2   2   2   2
#     4  11  25  42  70 102 140 180 235 291 359 440
#     4  10  24  43  70  98 139 182 238 294 353 423
#     4  12  22  46  67  99 143 181 232 295 359 422
#     4  10  24  44  73  97 140 186 232 298 346 424
#     4  11  23  48  70 104 139 184 240 296 364 421
#     4  11  26  41  70 105 141 185 233 296 363 428
#     4  11  25  43  67 101 141 182 236 290 360 431
#     4  10  25  45  67 102 135 188 240 288 358 421
#
# _framework density 23.089590999999999
#
# number of rings (size 3 to 8) (size 9 to 14) (size 15 to 20)
#    0.750    0.500    3.750    1.500   10.500    1.000 
#    0.000    0.000    0.000    0.000    0.000    0.000 
#    0.000    0.000    0.000    0.000    0.000    0.000 
#
# Total GULP energy -89211.095348 kJ/mol
# GULP energy per Si atom -5575.693459 kJ/mol
# Density = 2.303704 g / cm^3
# Si number density = 23.089591 Si / 1000 Ang^3
#
#
#
# Elastic Constant Matrix: (Units=GPa)
#
#
# Indices 1 2 3 4 5 6 
#
# 1 92.8857 1.0376 27.2411 0.0000 -9.7712 0.0000
# 2 1.0376 54.7630 11.8826 0.0000 1.0070 0.0000
# 3 27.2411 11.8826 91.5251 0.0000 9.3153 0.0000
# 4 0.0000 0.0000 0.0000 20.2921 0.0000 4.5147
# 5 -9.7712 1.0070 9.3153 0.0000 35.6808 0.0000
# 6 0.0000 0.0000 0.0000 4.5147 0.0000 29.4673
#
#
#
# Elastic Compliance Matrix: (Units=1/GPa)
#
#
# Indices 1 2 3 4 5 6 
#
# 1 0.012481 0.000603 -0.004252 0.000000 0.004511 0.000000
# 2 0.000603 0.018819 -0.002656 0.000000 0.000328 0.000000
# 3 -0.004252 -0.002656 0.012993 0.000000 -0.004481 0.000000
# 4 0.000000 0.000000 0.000000 0.051019 0.000000 -0.007817
# 5 0.004511 0.000328 -0.004481 0.000000 0.030422 0.000000
# 6 0.000000 0.000000 0.000000 -0.007817 0.000000 0.035133
#
#
# Mechanical properties :
#
#
# Convention : Reuss Voigt Hill
#
# Bulk Modulus (GPa) = 31.56319 35.49959 33.53139
# Shear Modulus (GPa) = 27.16818 30.35555 28.76187
#
# Velocity S-wave (km/s) = 3.43394 3.62979 3.53323
# Velocity P-wave (km/s) = 5.42422 5.74241 5.58558
#
# Compressibility (1/GPa) = 0.03168247
#
# Stress axis : x y z
#
# Youngs Moduli (GPa) = 80.12331 53.13671 76.96737
#
# Poissons Ratio (x) = -0.03205 0.32728
# Poissons Ratio (y) = -0.04833 0.20444
# Poissons Ratio (z) = 0.34070 0.14114
#
# Static dielectric constant tensor:
#      x y z
#    x 1.881500 0.000000 -0.024130 
#    y 0.000000 1.866850 0.000000 
#    z -0.024130 0.000000 2.034910 
# 
# From -- ./inp_files/9611.got.cif
#   From: 2010.05.17/outbox.cif.g08.bks.cpg/sg4_5_cif.got.tgz:9611.got - 2010.06.03 18:43:04.
