data_PCOD9118702
_publ_section_title
;
Structure prediction by ZEFSAII (Michael W. Deem and Ramdas Pophale) SiO2 
 PCOD9118702
Probable space group: P 21
;
_chemical_formula_sum "Si O2"
_cell_formula_units_Z 14
_cell_length_a 9.013552
_cell_length_b 5.317854
_cell_length_c 11.902268
_cell_angle_alpha 90.000000
_cell_angle_beta 110.338030
_cell_angle_gamma 90.000000
_cell_volume 534.942096
_symmetry_space_group_name_H-M "P 21"
_symmetry_group_IT_number 4
_symmetry_cell_setting 'monoclinic'
loop_
_space_group_symop_operation_xyz
x,y,z
-x,1/2+y,-z
loop_
_atom_site_type_symbol
_atom_site_label
_atom_site_fract_x
_atom_site_fract_y
_atom_site_fract_z
Si Si1 0.824071 0.026950 0.730233
Si Si2 0.458545 0.189508 0.375007
Si Si3 0.786518 0.950474 0.960304
Si Si4 0.097396 0.887292 0.654921
Si Si5 0.765721 0.412836 0.538945
Si Si6 0.221105 0.396197 0.800639
Si Si7 0.584097 0.448675 0.868739
O O1 0.888562 0.976586 0.872547
O O2 0.830973 0.297715 0.671966
O O3 0.642784 0.931264 0.691676
O O4 0.924814 0.872127 0.665309
O O5 0.640912 0.217500 0.450923
O O6 0.439607 0.987786 0.271135
O O7 0.362531 0.119834 0.461341
O O8 0.681449 0.202445 0.925856
O O9 0.682158 0.696090 0.928705
O O10 0.865832 0.938753 0.102956
O O11 0.107536 0.949813 0.525420
O O12 0.177018 0.625341 0.708081
O O13 0.183249 0.123428 0.739011
O O14 0.408725 0.425088 0.871823
#
# Coordination Sequence:
#
# PCOD9118702 Si02
#       7
#     2   2   2   2   2   2   2
#     4  11  28  46  69 106 138 193 232 291 354 424
#     4  11  24  42  74 102 140 181 241 292 351 415
#     4  11  24  45  76 102 140 182 243 294 348 410
#     4  12  31  44  72 103 152 187 231 283 361 428
#     4  12  25  45  72 104 141 188 232 298 348 425
#     4  12  26  47  70 105 143 190 232 292 352 421
#     4  11  22  43  71 110 138 177 237 298 352 409
#
# _framework density 26.171061000000002
#
# number of rings (size 3 to 8) (size 9 to 14) (size 15 to 20)
#    0.000    0.571    4.286    2.571   10.000    1.143 
#    0.000    0.000    0.000    0.000    0.000    0.000 
#    0.000    0.000    0.000    0.000    0.000    0.000 
#
# Total GULP energy -78357.005698 kJ/mol
# GULP energy per Si atom -5596.928978 kJ/mol
# Density = 2.611149 g / cm^3
# Si number density = 26.171061 Si / 1000 Ang^3
#
#
#
# Elastic Constant Matrix: (Units=GPa)
#
#
# Indices 1 2 3 4 5 6 
#
# 1 98.9276 15.6366 34.0007 0.0000 -23.9918 0.0000
# 2 15.6366 134.4489 32.4942 0.0000 8.6399 0.0000
# 3 34.0007 32.4942 153.7963 0.0000 -42.3001 0.0000
# 4 0.0000 0.0000 0.0000 34.3310 0.0000 5.4825
# 5 -23.9918 8.6399 -42.3001 0.0000 46.2546 0.0000
# 6 0.0000 0.0000 0.0000 5.4825 0.0000 40.1271
#
#
#
# Elastic Compliance Matrix: (Units=1/GPa)
#
#
# Indices 1 2 3 4 5 6 
#
# 1 0.012035 -0.001611 -0.000695 0.000000 0.005907 0.000000
# 2 -0.001611 0.008643 -0.002864 0.000000 -0.005070 0.000000
# 3 -0.000695 -0.002864 0.009765 0.000000 0.009105 0.000000
# 4 0.000000 0.000000 0.000000 0.029778 0.000000 -0.004068
# 5 0.005907 -0.005070 0.009105 0.000000 0.033957 0.000000
# 6 0.000000 0.000000 0.000000 -0.004068 0.000000 0.025477
#
#
# Mechanical properties :
#
#
# Convention : Reuss Voigt Hill
#
# Bulk Modulus (GPa) = 49.74822 61.27064 55.50943
# Shear Modulus (GPa) = 36.57741 44.47863 40.52802
#
# Velocity S-wave (km/s) = 3.74254 4.12701 3.93947
# Velocity P-wave (km/s) = 6.14212 6.79500 6.47679
#
# Compressibility (1/GPa) = 0.02010122
#
# Stress axis : x y z
#
# Youngs Moduli (GPa) = 83.09296 115.69818 102.40509
#
# Poissons Ratio (x) = 0.18641 0.07122
# Poissons Ratio (y) = 0.13388 0.29332
# Poissons Ratio (z) = 0.05779 0.33139
#
# Static dielectric constant tensor:
#      x y z
#    x 2.082840 0.000000 0.003300 
#    y 0.000000 2.116190 0.000000 
#    z 0.003300 0.000000 2.082230 
# 
# From -- ./inp_files/7142.got.cif
#   From: 2010.05.17/outbox.cif.g08.bks.cpg/sg4_4_cif.got.tgz:7142.got - 2010.06.03 18:43:04.
