data_PCOD9118588
_publ_section_title
;
Structure prediction by ZEFSAII (Michael W. Deem and Ramdas Pophale) SiO2 
 PCOD9118588
Probable space group: P 21
;
_chemical_formula_sum "Si O2"
_cell_formula_units_Z 16
_cell_length_a 17.563402
_cell_length_b 7.151451
_cell_length_c 9.161635
_cell_angle_alpha 90.000000
_cell_angle_beta 38.065701
_cell_angle_gamma 90.000000
_cell_volume 709.503330
_symmetry_space_group_name_H-M "P 21"
_symmetry_group_IT_number 4
_symmetry_cell_setting 'monoclinic'
loop_
_space_group_symop_operation_xyz
x,y,z
-x,1/2+y,-z
loop_
_atom_site_type_symbol
_atom_site_label
_atom_site_fract_x
_atom_site_fract_y
_atom_site_fract_z
Si Si1 0.921406 0.926750 0.318936
Si Si2 0.916817 0.535346 0.181962
Si Si3 0.515204 0.067692 0.303721
Si Si4 0.092704 0.373224 0.163742
Si Si5 0.682541 0.284202 0.507274
Si Si6 0.719213 0.191351 0.770951
Si Si7 0.340348 0.413445 0.637711
Si Si8 0.920501 0.259948 0.663852
O O1 0.878105 0.736738 0.303390
O O2 0.024967 0.866413 0.280093
O O3 0.813703 0.036552 0.563487
O O4 0.987321 0.050460 0.095821
O O5 0.805340 0.406331 0.296727
O O6 0.988748 0.434174 0.205274
O O7 0.429042 0.250716 0.446346
O O8 0.588406 0.023469 0.341374
O O9 0.430131 0.890130 0.397463
O O10 0.613146 0.102883 0.028186
O O11 0.121746 0.561860 0.209427
O O12 0.031883 0.243605 0.378658
O O13 0.216754 0.320649 0.892476
O O14 0.665563 0.285720 0.707478
O O15 0.694261 0.073897 0.427310
O O16 0.802976 0.327276 0.747078
#
# Coordination Sequence:
#
# PCOD9118588 Si02
#       8
#     2   2   2   2   2   2   2   2
#     4  11  24  43  73 109 156 195 239 310 382 449
#     4  11  25  42  73 117 148 190 240 309 387 443
#     4  12  29  51  78 107 145 206 257 307 368 434
#     4  11  23  44  70 108 149 181 244 301 373 445
#     4  12  28  48  76 109 153 196 250 310 373 447
#     4  12  26  49  71 108 155 192 254 309 366 455
#     4  12  26  54  75 108 148 198 256 314 360 451
#     4  11  21  43  70 104 148 192 228 306 373 440
#
# _framework density 22.550986000000002
#
# number of rings (size 3 to 8) (size 9 to 14) (size 15 to 20)
#    0.000    0.500    5.000    3.000    5.250    0.000 
#    4.500    0.000    0.000    0.000    0.000    0.000 
#    0.000    0.000    0.000    0.000    0.000    0.000 
#
# Total GULP energy -89581.999224 kJ/mol
# GULP energy per Si atom -5598.874952 kJ/mol
# Density = 2.249966 g / cm^3
# Si number density = 22.550986 Si / 1000 Ang^3
#
#
#
# Elastic Constant Matrix: (Units=GPa)
#
#
# Indices 1 2 3 4 5 6 
#
# 1 106.5584 8.9662 23.1236 0.0000 4.3441 0.0000
# 2 8.9662 55.7466 -8.3543 0.0000 8.3707 0.0000
# 3 23.1236 -8.3543 92.0706 0.0000 15.8698 0.0000
# 4 0.0000 0.0000 0.0000 38.9789 0.0000 -1.7850
# 5 4.3441 8.3707 15.8698 0.0000 35.3190 0.0000
# 6 0.0000 0.0000 0.0000 -1.7850 0.0000 34.9521
#
#
#
# Elastic Compliance Matrix: (Units=1/GPa)
#
#
# Indices 1 2 3 4 5 6 
#
# 1 0.010158 -0.002139 -0.002837 0.000000 0.000532 0.000000
# 2 -0.002139 0.019668 0.003339 0.000000 -0.005898 0.000000
# 3 -0.002837 0.003339 0.012956 0.000000 -0.006264 0.000000
# 4 0.000000 0.000000 0.000000 0.025715 0.000000 0.001313
# 5 0.000532 -0.005898 -0.006264 0.000000 0.032460 0.000000
# 6 0.000000 0.000000 0.000000 0.001313 0.000000 0.028678
#
#
# Mechanical properties :
#
#
# Convention : Reuss Voigt Hill
#
# Bulk Modulus (GPa) = 25.31124 33.53850 29.42487
# Shear Modulus (GPa) = 34.22761 37.22601 35.72681
#
# Velocity S-wave (km/s) = 3.90011 4.06735 3.98460
# Velocity P-wave (km/s) = 5.61511 6.07967 5.85200
#
# Compressibility (1/GPa) = 0.03950814
#
# Stress axis : x y z
#
# Youngs Moduli (GPa) = 98.43992 50.84311 77.18188
#
# Poissons Ratio (x) = 0.10875 0.21898
# Poissons Ratio (y) = 0.21056 -0.25768
# Poissons Ratio (z) = 0.27929 -0.16974
#
# Static dielectric constant tensor:
#      x y z
#    x 1.860490 0.000000 0.003480 
#    y 0.000000 1.862490 0.000000 
#    z 0.003480 0.000000 1.795840 
# 
# From -- ./inp_files/9665.got.cif
#   From: 2010.05.17/outbox.cif.g08.bks.cpg/sg4_5_cif.got.tgz:9665.got - 2010.06.03 18:43:04.
