data_PCOD9118610
_publ_section_title
;
Structure prediction by ZEFSAII (Michael W. Deem and Ramdas Pophale) SiO2 
 PCOD9118610
Probable space group: P 21
;
_chemical_formula_sum "Si O2"
_cell_formula_units_Z 16
_cell_length_a 5.880191
_cell_length_b 8.635263
_cell_length_c 15.615367
_cell_angle_alpha 90.000000
_cell_angle_beta 56.006200
_cell_angle_gamma 90.000000
_cell_volume 657.393047
_symmetry_space_group_name_H-M "P 21"
_symmetry_group_IT_number 4
_symmetry_cell_setting 'monoclinic'
loop_
_space_group_symop_operation_xyz
x,y,z
-x,1/2+y,-z
loop_
_atom_site_type_symbol
_atom_site_label
_atom_site_fract_x
_atom_site_fract_y
_atom_site_fract_z
Si Si1 0.839074 0.675100 0.065845
Si Si2 0.254109 0.524330 0.224941
Si Si3 0.046212 0.375593 0.117257
Si Si4 0.019771 0.488450 0.638555
Si Si5 0.564771 0.904322 0.227893
Si Si6 0.686433 0.696721 0.351124
Si Si7 0.337627 0.705896 0.683533
Si Si8 0.254192 0.445496 0.425639
O O1 0.527411 0.617513 0.144655
O O2 0.818273 0.839517 0.119996
O O3 0.018050 0.537453 0.070491
O O4 0.904439 0.732178 0.956683
O O5 0.259141 0.390766 0.150983
O O6 0.221007 0.476955 0.331336
O O7 0.978907 0.622678 0.264939
O O8 0.774041 0.338528 0.229243
O O9 0.231249 0.348158 0.612841
O O10 0.137344 0.650354 0.649594
O O11 0.994626 0.478822 0.540756
O O12 0.734418 0.446405 0.745631
O O13 0.525734 0.768338 0.304791
O O14 0.645060 0.056344 0.261701
O O15 0.486720 0.557942 0.419582
O O16 0.625373 0.772774 0.592379
#
# Coordination Sequence:
#
# PCOD9118610 Si02
#       8
#     2   2   2   2   2   2   2   2
#     4  12  25  49  76 104 139 188 241 296 371 433
#     4  12  23  46  74 101 145 187 235 297 362 430
#     4  12  27  48  76 105 140 190 233 309 361 433
#     4  11  26  40  74 105 142 197 239 294 353 433
#     4  11  23  44  68 105 141 182 240 304 351 426
#     4  11  21  46  69  94 144 188 240 286 359 409
#     4  11  25  44  67 106 147 181 245 299 354 425
#     4  12  24  45  70 104 148 191 239 295 361 429
#
# _framework density 24.338560999999999
#
# number of rings (size 3 to 8) (size 9 to 14) (size 15 to 20)
#    0.000    0.500    6.250    1.500    1.750    6.000 
#    0.000    0.000    0.000    0.000    0.000    0.000 
#    0.000    0.000    0.000    0.000    0.000    0.000 
#
# Total GULP energy -89252.521955 kJ/mol
# GULP energy per Si atom -5578.282622 kJ/mol
# Density = 2.428317 g / cm^3
# Si number density = 24.338561 Si / 1000 Ang^3
#
#
#
# Elastic Constant Matrix: (Units=GPa)
#
#
# Indices 1 2 3 4 5 6 
#
# 1 56.6845 23.8763 16.0726 0.0000 13.8235 0.0000
# 2 23.8763 101.3783 35.2519 0.0000 20.3599 0.0000
# 3 16.0726 35.2519 104.9417 0.0000 27.0076 0.0000
# 4 0.0000 0.0000 0.0000 38.1683 0.0000 -1.0522
# 5 13.8235 20.3599 27.0076 0.0000 27.2117 0.0000
# 6 0.0000 0.0000 0.0000 -1.0522 0.0000 45.2418
#
#
#
# Elastic Compliance Matrix: (Units=1/GPa)
#
#
# Indices 1 2 3 4 5 6 
#
# 1 0.021037 -0.003305 0.000003 0.000000 -0.008216 0.000000
# 2 -0.003305 0.012532 -0.002313 0.000000 -0.005401 0.000000
# 3 0.000003 -0.002313 0.013243 0.000000 -0.011415 0.000000
# 4 0.000000 0.000000 0.000000 0.026217 0.000000 0.000610
# 5 -0.008216 -0.005401 -0.011415 0.000000 0.056293 0.000000
# 6 0.000000 0.000000 0.000000 0.000610 0.000000 0.022118
#
#
# Mechanical properties :
#
#
# Convention : Reuss Voigt Hill
#
# Bulk Modulus (GPa) = 28.10553 45.93400 37.01977
# Shear Modulus (GPa) = 28.64826 34.64460 31.64643
#
# Velocity S-wave (km/s) = 3.43457 3.77695 3.60982
# Velocity P-wave (km/s) = 5.22505 6.15909 5.71120
#
# Compressibility (1/GPa) = 0.03558018
#
# Stress axis : x y z
#
# Youngs Moduli (GPa) = 47.53604 79.79808 75.50922
#
# Poissons Ratio (x) = 0.26376 -0.00023
# Poissons Ratio (y) = 0.15713 0.17468
# Poissons Ratio (z) = -0.00014 0.18460
#
# Static dielectric constant tensor:
#      x y z
#    x 1.984970 0.000000 0.062100 
#    y 0.000000 2.009490 0.000000 
#    z 0.062100 0.000000 2.004050 
# 
# From -- ./inp_files/3411.got.cif
#   From: 2010.05.17/outbox.cif.g08.bks.cpg/sg4_2_cif.got.tgz:3411.got - 2010.06.03 18:43:04.
