data_PCOD9118623
_publ_section_title
;
Structure prediction by ZEFSAII (Michael W. Deem and Ramdas Pophale) SiO2 
 PCOD9118623
Probable space group: P 21
;
_chemical_formula_sum "Si O2"
_cell_formula_units_Z 14
_cell_length_a 8.775219
_cell_length_b 13.024893
_cell_length_c 8.794308
_cell_angle_alpha 90.000000
_cell_angle_beta 147.605704
_cell_angle_gamma 90.000000
_cell_volume 538.505436
_symmetry_space_group_name_H-M "P 21"
_symmetry_group_IT_number 4
_symmetry_cell_setting 'monoclinic'
loop_
_space_group_symop_operation_xyz
x,y,z
-x,1/2+y,-z
loop_
_atom_site_type_symbol
_atom_site_label
_atom_site_fract_x
_atom_site_fract_y
_atom_site_fract_z
Si Si1 0.037790 0.356900 0.664561
Si Si2 0.544954 0.280747 0.445046
Si Si3 0.480771 0.167469 0.695763
Si Si4 0.168652 0.448853 0.288749
Si Si5 0.633115 0.578482 0.862350
Si Si6 0.915168 0.261121 0.260867
Si Si7 0.567710 0.490136 0.143689
O O1 0.843122 0.327428 0.642441
O O2 0.972104 0.267851 0.487129
O O3 0.360822 0.392167 0.954468
O O4 0.878816 0.454585 0.455654
O O5 0.601389 0.213736 0.643879
O O6 0.332455 0.373841 0.309516
O O7 0.412650 0.198020 0.215991
O O8 0.142258 0.178030 0.393638
O O9 0.606675 0.237941 0.936510
O O10 0.552417 0.056251 0.817534
O O11 0.398306 0.511839 0.577382
O O12 0.011930 0.367527 0.267046
O O13 0.928121 0.532017 0.046092
O O14 0.594557 0.553194 0.009301
#
# Coordination Sequence:
#
# PCOD9118623 Si02
#       7
#     2   2   2   2   2   2   2
#     4  12  26  47  77 113 151 197 261 319 381 455
#     4  11  30  50  78 119 157 210 252 332 397 472
#     4  11  26  46  74 107 149 194 251 309 391 454
#     4  11  25  48  78 111 152 202 256 326 380 462
#     4  12  25  50  82 107 157 207 265 310 396 456
#     4  11  21  47  76 102 146 197 249 308 371 461
#     4  12  25  48  77 115 144 205 258 324 370 478
#
# _framework density 25.997879999999999
#
# number of rings (size 3 to 8) (size 9 to 14) (size 15 to 20)
#    0.000    0.571    2.857    4.286    2.000    9.143 
#    0.000    0.000    0.000    0.000    0.000    0.000 
#    0.000    0.000    0.000    0.000    0.000    0.000 
#
# Total GULP energy -78441.734688 kJ/mol
# GULP energy per Si atom -5602.981049 kJ/mol
# Density = 2.593871 g / cm^3
# Si number density = 25.997880 Si / 1000 Ang^3
#
#
#
# Elastic Constant Matrix: (Units=GPa)
#
#
# Indices 1 2 3 4 5 6 
#
# 1 92.2245 44.4440 -14.5904 0.0000 -13.3055 0.0000
# 2 44.4440 118.4200 24.0859 0.0000 -11.1841 0.0000
# 3 -14.5904 24.0859 85.5292 0.0000 5.1018 0.0000
# 4 0.0000 0.0000 0.0000 43.1876 0.0000 -5.9152
# 5 -13.3055 -11.1841 5.1018 0.0000 28.0095 0.0000
# 6 0.0000 0.0000 0.0000 -5.9152 0.0000 44.9786
#
#
#
# Elastic Compliance Matrix: (Units=1/GPa)
#
#
# Indices 1 2 3 4 5 6 
#
# 1 0.014974 -0.006065 0.004026 0.000000 0.003958 0.000000
# 2 -0.006065 0.011900 -0.004547 0.000000 0.002699 0.000000
# 3 0.004026 -0.004547 0.013803 0.000000 -0.002417 0.000000
# 4 0.000000 0.000000 0.000000 0.023580 0.000000 0.003101
# 5 0.003958 0.002699 -0.002417 0.000000 0.039100 0.000000
# 6 0.000000 0.000000 0.000000 0.003101 0.000000 0.022641
#
#
# Mechanical properties :
#
#
# Convention : Reuss Voigt Hill
#
# Bulk Modulus (GPa) = 36.35498 44.89473 40.62485
# Shear Modulus (GPa) = 33.70677 39.38410 36.54543
#
# Velocity S-wave (km/s) = 3.60463 3.89639 3.75335
# Velocity P-wave (km/s) = 5.59809 6.12769 5.86887
#
# Compressibility (1/GPa) = 0.02750655
#
# Stress axis : x y z
#
# Youngs Moduli (GPa) = 66.78305 84.03053 72.44605
#
# Poissons Ratio (x) = 0.50964 -0.29168
# Poissons Ratio (y) = 0.40503 0.32940
# Poissons Ratio (z) = -0.26888 0.38208
#
# Static dielectric constant tensor:
#      x y z
#    x 2.070620 0.000000 -0.039970 
#    y 0.000000 2.056130 0.000000 
#    z -0.039970 0.000000 1.974810 
# 
# From -- ./inp_files/6700.got.cif
#   From: 2010.05.17/outbox.cif.g08.bks.cpg/sg4_4_cif.got.tgz:6700.got - 2010.06.03 18:43:04.
