data_PCOD9118339
_publ_section_title
;
Structure prediction by ZEFSAII (Michael W. Deem and Ramdas Pophale) SiO2 
 PCOD9118339
Probable space group: P 21
;
_chemical_formula_sum "Si O2"
_cell_formula_units_Z 10
_cell_length_a 10.353830
_cell_length_b 5.134734
_cell_length_c 8.725309
_cell_angle_alpha 90.000000
_cell_angle_beta 89.999784
_cell_angle_gamma 90.000000
_cell_volume 463.873749
_symmetry_space_group_name_H-M "P 21"
_symmetry_group_IT_number 4
_symmetry_cell_setting 'monoclinic'
loop_
_space_group_symop_operation_xyz
x,y,z
-x,1/2+y,-z
loop_
_atom_site_type_symbol
_atom_site_label
_atom_site_fract_x
_atom_site_fract_y
_atom_site_fract_z
Si Si1 0.636305 0.957670 0.330050
Si Si2 0.363693 0.271758 0.330051
Si Si3 0.147920 0.112477 0.108667
Si Si4 0.852078 0.116941 0.108663
Si Si5 0.500001 0.114714 0.894101
O O1 0.668202 0.864717 0.500000
O O2 0.610790 0.710860 0.219874
O O3 0.499999 0.114714 0.335593
O O4 0.749501 0.112543 0.245758
O O5 0.389207 0.518564 0.219871
O O6 0.470769 0.864715 0.000001
O O7 0.164158 0.864706 0.000004
O O8 0.165278 0.364706 0.999999
O O9 0.250496 0.116882 0.245763
O O10 0.999999 0.114711 0.166139
#
# Coordination Sequence:
#
# PCOD9118339 Si02
#       5
#     2   2   2   2   2
#     4  12  27  44  69 108 148 181 230 292 358 417
#     4  12  27  44  69 108 148 181 230 292 358 417
#     4  10  25  47  73 102 136 186 243 288 339 417
#     4  10  25  47  73 102 136 186 243 288 339 417
#     4  12  26  42  68 104 138 186 232 284 346 410
#
# _framework density 21.557592
#
# number of rings (size 3 to 8) (size 9 to 14) (size 15 to 20)
#    0.000    0.800    4.000    1.200   11.200    0.000 
#    0.000    8.000    0.000    0.000    0.000    0.000 
#    0.000    0.000    0.000    0.000    0.000    0.000 
#
# Total GULP energy -55982.340078 kJ/mol
# GULP energy per Si atom -5598.234008 kJ/mol
# Density = 2.150853 g / cm^3
# Si number density = 21.557592 Si / 1000 Ang^3
#
#
#
# Elastic Constant Matrix: (Units=GPa)
#
#
# Indices 1 2 3 4 5 6 
#
# 1 183.8958 47.0737 103.4514 0.0000 -6.6587 0.0000
# 2 47.0737 158.5784 71.9022 0.0000 4.2313 0.0000
# 3 103.4514 71.9022 184.6093 0.0000 6.7829 0.0000
# 4 0.0000 0.0000 0.0000 28.5667 0.0000 0.5519
# 5 -6.6587 4.2313 6.7829 0.0000 22.9754 0.0000
# 6 0.0000 0.0000 0.0000 0.5519 0.0000 25.3448
#
#
#
# Elastic Compliance Matrix: (Units=1/GPa)
#
#
# Indices 1 2 3 4 5 6 
#
# 1 0.008287 -0.000477 -0.004599 0.000000 0.003847 0.000000
# 2 -0.000477 0.007693 -0.002701 0.000000 -0.000758 0.000000
# 3 -0.004599 -0.002701 0.009176 0.000000 -0.003545 0.000000
# 4 0.000000 0.000000 0.000000 0.035021 0.000000 -0.000763
# 5 0.003847 -0.000758 -0.003545 0.000000 0.045826 0.000000
# 6 0.000000 0.000000 0.000000 -0.000763 0.000000 0.039472
#
#
# Mechanical properties :
#
#
# Convention : Reuss Voigt Hill
#
# Bulk Modulus (GPa) = 104.15565 107.99311 106.07438
# Shear Modulus (GPa) = 30.44533 35.68780 33.06657
#
# Velocity S-wave (km/s) = 3.76211 4.07315 3.92072
# Velocity P-wave (km/s) = 8.20312 8.50439 8.35512
#
# Compressibility (1/GPa) = 0.00960102
#
# Stress axis : x y z
#
# Youngs Moduli (GPa) = 120.67707 129.99652 108.97656
#
# Poissons Ratio (x) = 0.06203 0.50120
# Poissons Ratio (y) = 0.05758 0.29433
# Poissons Ratio (z) = 0.55501 0.35110
#
# Static dielectric constant tensor:
#      x y z
#    x 1.827470 0.000000 -0.015060 
#    y 0.000000 1.858610 0.000000 
#    z -0.015060 0.000000 1.739100 
# 
# From -- ./inp_files/7027.got.cif
#   From: 2010.05.17/outbox.cif.g08.bks.cpg/sg4_4_cif.got.tgz:7027.got - 2010.06.03 18:43:04.
