data_PCOD9118986
_publ_section_title
;
Structure prediction by ZEFSAII (Michael W. Deem and Ramdas Pophale) SiO2 
 PCOD9118986
Probable space group: P 21
;
_chemical_formula_sum "Si O2"
_cell_formula_units_Z 16
_cell_length_a 15.007425
_cell_length_b 5.146398
_cell_length_c 11.724593
_cell_angle_alpha 90.000000
_cell_angle_beta 43.495623
_cell_angle_gamma 90.000000
_cell_volume 623.281974
_symmetry_space_group_name_H-M "P 21"
_symmetry_group_IT_number 4
_symmetry_cell_setting 'monoclinic'
loop_
_space_group_symop_operation_xyz
x,y,z
-x,1/2+y,-z
loop_
_atom_site_type_symbol
_atom_site_label
_atom_site_fract_x
_atom_site_fract_y
_atom_site_fract_z
Si Si1 0.919156 0.532080 0.174744
Si Si2 0.059562 0.536145 0.699153
Si Si3 0.241579 0.923802 0.057591
Si Si4 0.202793 0.663739 0.869291
Si Si5 0.656219 0.034510 0.871043
Si Si6 0.914379 0.834309 0.564614
Si Si7 0.438644 0.682039 0.507427
Si Si8 0.499709 0.234560 0.808591
O O1 0.899619 0.307646 0.286595
O O2 0.833923 0.449300 0.146661
O O3 0.906549 0.803640 0.247808
O O4 0.068180 0.513052 0.997301
O O5 0.121653 0.460249 0.522714
O O6 0.904294 0.530557 0.819266
O O7 0.360583 0.104708 0.914959
O O8 0.246942 0.693376 0.957569
O O9 0.273636 0.792433 0.148443
O O10 0.308931 0.564615 0.683948
O O11 0.777222 0.833557 0.757326
O O12 0.589678 0.067542 0.810282
O O13 0.543350 0.970354 0.067688
O O14 0.014458 0.056565 0.518987
O O15 0.535245 0.444043 0.444295
O O16 0.437725 0.760833 0.374866
#
# Coordination Sequence:
#
# PCOD9118986 Si02
#       8
#     2   2   2   2   2   2   2   2
#     4  11  26  45  74 112 150 196 243 318 379 457
#     4  11  25  45  74 111 151 194 251 308 388 446
#     4  11  23  47  72 103 145 203 248 306 370 459
#     4  11  25  49  76 110 153 196 255 308 390 453
#     4  12  27  48  76 110 149 205 256 322 378 451
#     4  12  26  48  75 113 149 195 257 311 386 454
#     4  12  29  51  78 113 151 203 258 314 382 456
#     4  12  27  49  75 110 152 204 262 317 379 450
#
# _framework density 25.670563000000001
#
# number of rings (size 3 to 8) (size 9 to 14) (size 15 to 20)
#    0.000    0.500    3.750    3.750    8.750    2.000 
#    2.250    0.000    0.000    0.000    0.000    0.000 
#    0.000    0.000    0.000    0.000    0.000    0.000 
#
# Total GULP energy -89562.056373 kJ/mol
# GULP energy per Si atom -5597.628523 kJ/mol
# Density = 2.561214 g / cm^3
# Si number density = 25.670563 Si / 1000 Ang^3
#
#
#
# Elastic Constant Matrix: (Units=GPa)
#
#
# Indices 1 2 3 4 5 6 
#
# 1 96.7916 36.5560 16.0326 0.0000 6.6778 0.0000
# 2 36.5560 87.6974 -8.8059 0.0000 5.9779 0.0000
# 3 16.0326 -8.8059 102.7217 0.0000 5.7672 0.0000
# 4 0.0000 0.0000 0.0000 30.6597 0.0000 2.1816
# 5 6.6778 5.9779 5.7672 0.0000 53.3105 0.0000
# 6 0.0000 0.0000 0.0000 2.1816 0.0000 43.4290
#
#
#
# Elastic Compliance Matrix: (Units=1/GPa)
#
#
# Indices 1 2 3 4 5 6 
#
# 1 0.012891 -0.005570 -0.002449 0.000000 -0.000725 0.000000
# 2 -0.005570 0.014014 0.002133 0.000000 -0.001104 0.000000
# 3 -0.002449 0.002133 0.010359 0.000000 -0.001053 0.000000
# 4 0.000000 0.000000 0.000000 0.032733 0.000000 -0.001644
# 5 -0.000725 -0.001104 -0.001053 0.000000 0.019087 0.000000
# 6 0.000000 0.000000 0.000000 -0.001644 0.000000 0.023109
#
#
# Mechanical properties :
#
#
# Convention : Reuss Voigt Hill
#
# Bulk Modulus (GPa) = 39.22765 41.64177 40.43471
# Shear Modulus (GPa) = 37.74682 41.70838 39.72760
#
# Velocity S-wave (km/s) = 3.83878 4.03520 3.93821
# Velocity P-wave (km/s) = 5.91292 6.16176 6.03862
#
# Compressibility (1/GPa) = 0.02549222
#
# Stress axis : x y z
#
# Youngs Moduli (GPa) = 77.57518 71.35707 96.53270
#
# Poissons Ratio (x) = 0.39745 0.23638
# Poissons Ratio (y) = 0.43208 -0.20588
# Poissons Ratio (z) = 0.18996 -0.15218
#
# Static dielectric constant tensor:
#      x y z
#    x 2.027650 0.000000 0.017020 
#    y 0.000000 2.048170 0.000000 
#    z 0.017020 0.000000 2.093440 
# 
# From -- ./inp_files/12484.got.cif
#   From: 2010.05.17/outbox.cif.g08.bks.cpg/sg4_7_cif.got.tgz:12484.got - 2010.06.03 18:43:04.
