data_PCOD9118183
_publ_section_title
;
Structure prediction by ZEFSAII (Michael W. Deem and Ramdas Pophale) SiO2 
 PCOD9118183
Probable space group: P 21
;
_chemical_formula_sum "Si O2"
_cell_formula_units_Z 14
_cell_length_a 9.712122
_cell_length_b 9.220308
_cell_length_c 15.364993
_cell_angle_alpha 90.000000
_cell_angle_beta 22.607993
_cell_angle_gamma 90.000000
_cell_volume 528.935289
_symmetry_space_group_name_H-M "P 21"
_symmetry_group_IT_number 4
_symmetry_cell_setting 'monoclinic'
loop_
_space_group_symop_operation_xyz
x,y,z
-x,1/2+y,-z
loop_
_atom_site_type_symbol
_atom_site_label
_atom_site_fract_x
_atom_site_fract_y
_atom_site_fract_z
Si Si1 0.451043 0.190140 0.411080
Si Si2 0.560360 0.621541 0.280520
Si Si3 0.857941 0.234954 0.619387
Si Si4 0.979592 0.374500 0.978273
Si Si5 0.496901 0.458753 0.487360
Si Si6 0.645778 0.961450 0.987038
Si Si7 0.536878 0.797635 0.870603
O O1 0.726827 0.281021 0.192354
O O2 0.365306 0.298460 0.541245
O O3 0.100972 0.172917 0.555841
O O4 0.602530 0.046216 0.367716
O O5 0.346950 0.611377 0.315321
O O6 0.924432 0.530750 0.053058
O O7 0.381645 0.554403 0.470143
O O8 0.649635 0.789583 0.238740
O O9 0.586417 0.355542 0.815061
O O10 0.123245 0.298721 0.391858
O O11 0.789750 0.353331 0.997112
O O12 0.930754 0.452859 0.239638
O O13 0.526544 0.128584 0.066526
O O14 0.585397 0.896412 0.926481
#
# Coordination Sequence:
#
# PCOD9118183 Si02
#       7
#     2   2   2   2   2   2   2
#     4  10  25  46  72 105 145 192 251 307 374 446
#     4  11  24  46  71 105 145 195 248 313 377 443
#     4  11  27  47  80 107 153 197 253 310 377 452
#     4  10  24  47  71 103 148 197 250 305 384 449
#     4  11  25  47  69 109 147 193 251 308 371 452
#     4  12  27  50  75 114 153 197 255 312 381 446
#     4  11  28  47  76 115 147 199 252 313 376 452
#
# _framework density 26.468264999999999
#
# number of rings (size 3 to 8) (size 9 to 14) (size 15 to 20)
#    0.000    1.143    1.429    2.571   12.000    2.286 
#    0.000    0.000    0.000    0.000    0.000    0.000 
#    0.000    0.000    0.000    0.000    0.000    0.000 
#
# Total GULP energy -78509.191515 kJ/mol
# GULP energy per Si atom -5607.799394 kJ/mol
# Density = 2.640802 g / cm^3
# Si number density = 26.468265 Si / 1000 Ang^3
#
#
#
# Elastic Constant Matrix: (Units=GPa)
#
#
# Indices 1 2 3 4 5 6 
#
# 1 174.7781 55.0731 13.5397 0.0000 11.4483 0.0000
# 2 55.0731 116.3699 -10.0130 0.0000 8.5184 0.0000
# 3 13.5397 -10.0130 68.8361 0.0000 18.1867 0.0000
# 4 0.0000 0.0000 0.0000 40.5278 0.0000 6.0747
# 5 11.4483 8.5184 18.1867 0.0000 36.7537 0.0000
# 6 0.0000 0.0000 0.0000 6.0747 0.0000 48.9816
#
#
#
# Elastic Compliance Matrix: (Units=1/GPa)
#
#
# Indices 1 2 3 4 5 6 
#
# 1 0.006963 -0.003405 -0.001726 0.000000 -0.000525 0.000000
# 2 -0.003405 0.010673 0.002986 0.000000 -0.002891 0.000000
# 3 -0.001726 0.002986 0.017649 0.000000 -0.008888 0.000000
# 4 0.000000 0.000000 0.000000 0.025142 0.000000 -0.003118
# 5 -0.000525 -0.002891 -0.008888 0.000000 0.032440 0.000000
# 6 0.000000 0.000000 0.000000 -0.003118 0.000000 0.020803
#
#
# Mechanical properties :
#
#
# Convention : Reuss Voigt Hill
#
# Bulk Modulus (GPa) = 32.26319 53.02039 42.64179
# Shear Modulus (GPa) = 38.97383 45.34492 42.15937
#
# Velocity S-wave (km/s) = 3.84145 4.14355 3.99535
# Velocity P-wave (km/s) = 5.64725 6.55493 6.11795
#
# Compressibility (1/GPa) = 0.03099507
#
# Stress axis : x y z
#
# Youngs Moduli (GPa) = 143.62342 93.69124 56.65950
#
# Poissons Ratio (x) = 0.31904 0.09779
# Poissons Ratio (y) = 0.48906 -0.16919
# Poissons Ratio (z) = 0.24789 -0.27977
#
# Static dielectric constant tensor:
#      x y z
#    x 2.057870 0.000000 0.020710 
#    y 0.000000 2.043910 0.000000 
#    z 0.020710 0.000000 2.164170 
# 
# From -- ./inp_files/5253.got.cif
#   From: 2010.05.17/outbox.cif.g08.bks.cpg/sg4_3_cif.got.tgz:5253.got - 2010.06.03 18:43:04.
