data_PCOD9118345
_publ_section_title
;
Structure prediction by ZEFSAII (Michael W. Deem and Ramdas Pophale) SiO2 
 PCOD9118345
Probable space group: P 21
;
_chemical_formula_sum "Si O2"
_cell_formula_units_Z 10
_cell_length_a 14.016106
_cell_length_b 4.889248
_cell_length_c 15.458760
_cell_angle_alpha 90.000000
_cell_angle_beta 20.206991
_cell_angle_gamma 90.000000
_cell_volume 365.916848
_symmetry_space_group_name_H-M "P 21"
_symmetry_group_IT_number 4
_symmetry_cell_setting 'monoclinic'
loop_
_space_group_symop_operation_xyz
x,y,z
-x,1/2+y,-z
loop_
_atom_site_type_symbol
_atom_site_label
_atom_site_fract_x
_atom_site_fract_y
_atom_site_fract_z
Si Si1 0.659126 0.562440 0.001340
Si Si2 0.657608 0.079572 0.328850
Si Si3 0.177104 0.279460 0.975450
Si Si4 0.010936 0.050449 0.698143
Si Si5 0.836806 0.700312 0.608966
O O1 0.425241 0.393139 0.153298
O O2 0.604175 0.625244 0.149709
O O3 0.917390 0.360099 0.788621
O O4 0.763705 0.848817 0.873954
O O5 0.508894 0.366211 0.470454
O O6 0.973871 0.093524 0.092365
O O7 0.671546 0.982630 0.218215
O O8 0.973434 0.428908 0.218621
O O9 0.209816 0.072299 0.447148
O O10 0.920257 0.432527 0.592898
#
# Coordination Sequence:
#
# PCOD9118345 Si02
#       5
#     2   2   2   2   2
#     4  10  25  47  75 104 152 200 246 311 375 448
#     4  12  28  46  78 114 156 200 254 314 362 450
#     4  10  28  52  74 114 156 202 256 298 384 448
#     4  10  25  47  75 104 152 200 246 311 375 448
#     4  12  26  48  78 114 146 196 262 308 382 454
#
# _framework density 27.328617000000001
#
# number of rings (size 3 to 8) (size 9 to 14) (size 15 to 20)
#    1.200    0.000    0.000    3.600    8.400    6.400 
#    0.000    0.000    0.000    0.000    0.000    0.000 
#    0.000    0.000    0.000    0.000    0.000    0.000 
#
# Total GULP energy -55917.499104 kJ/mol
# GULP energy per Si atom -5591.749910 kJ/mol
# Density = 2.726642 g / cm^3
# Si number density = 27.328617 Si / 1000 Ang^3
#
#
#
# Elastic Constant Matrix: (Units=GPa)
#
#
# Indices 1 2 3 4 5 6 
#
# 1 101.5336 28.5390 8.6375 0.0000 27.5848 0.0000
# 2 28.5390 118.5693 30.2867 0.0000 -1.6633 0.0000
# 3 8.6375 30.2867 61.3437 0.0000 2.9243 0.0000
# 4 0.0000 0.0000 0.0000 52.2329 0.0000 0.7570
# 5 27.5848 -1.6633 2.9243 0.0000 37.2991 0.0000
# 6 0.0000 0.0000 0.0000 0.7570 0.0000 53.3371
#
#
#
# Elastic Compliance Matrix: (Units=1/GPa)
#
#
# Indices 1 2 3 4 5 6 
#
# 1 0.013582 -0.003488 0.000297 0.000000 -0.010223 0.000000
# 2 -0.003488 0.010571 -0.004892 0.000000 0.003435 0.000000
# 3 0.000297 -0.004892 0.018766 0.000000 -0.001909 0.000000
# 4 0.000000 0.000000 0.000000 0.019149 0.000000 -0.000272
# 5 -0.010223 0.003435 -0.001909 0.000000 0.034674 0.000000
# 6 0.000000 0.000000 0.000000 -0.000272 0.000000 0.018753
#
#
# Mechanical properties :
#
#
# Convention : Reuss Voigt Hill
#
# Bulk Modulus (GPa) = 37.37897 46.26366 41.82131
# Shear Modulus (GPa) = 35.56752 42.83937 39.20344
#
# Velocity S-wave (km/s) = 3.61151 3.96354 3.79161
# Velocity P-wave (km/s) = 5.57655 6.15724 5.87408
#
# Compressibility (1/GPa) = 0.02675301
#
# Stress axis : x y z
#
# Youngs Moduli (GPa) = 73.62869 94.59631 53.28802
#
# Poissons Ratio (x) = 0.32999 -0.01584
# Poissons Ratio (y) = 0.25684 0.26067
# Poissons Ratio (z) = -0.02189 0.46275
#
# Static dielectric constant tensor:
#      x y z
#    x 2.169200 0.000000 -0.002410 
#    y 0.000000 2.032460 0.000000 
#    z -0.002410 0.000000 2.211780 
# 
# From -- ./inp_files/14120.got.cif
#   From: 2010.05.17/outbox.cif.g08.bks.cpg/sg4_8_cif.got.tgz:14120.got - 2010.06.03 18:43:04.
