data_PCOD9118072
_publ_section_title
;
Structure prediction by ZEFSAII (Michael W. Deem and Ramdas Pophale) SiO2 
 PCOD9118072
Probable space group: P 21
;
_chemical_formula_sum "Si O2"
_cell_formula_units_Z 10
_cell_length_a 10.625652
_cell_length_b 5.192425
_cell_length_c 6.579692
_cell_angle_alpha 90.000000
_cell_angle_beta 109.815241
_cell_angle_gamma 90.000000
_cell_volume 341.526469
_symmetry_space_group_name_H-M "P 21"
_symmetry_group_IT_number 4
_symmetry_cell_setting 'monoclinic'
loop_
_space_group_symop_operation_xyz
x,y,z
-x,1/2+y,-z
loop_
_atom_site_type_symbol
_atom_site_label
_atom_site_fract_x
_atom_site_fract_y
_atom_site_fract_z
Si Si1 0.964771 0.141560 0.246870
Si Si2 0.241582 0.669262 0.547644
Si Si3 0.192379 0.934538 0.145416
Si Si4 0.300030 0.342505 0.941932
Si Si5 0.483623 0.999774 0.635358
O O1 0.908368 0.195402 0.441273
O O2 0.920803 0.373248 0.079115
O O3 0.118104 0.095395 0.281878
O O4 0.856580 0.927050 0.115204
O O5 0.233982 0.684581 0.300798
O O6 0.340390 0.907711 0.646888
O O7 0.306365 0.434892 0.710243
O O8 0.302172 0.075883 0.069343
O O9 0.415566 0.503330 0.119185
O O10 0.516935 0.756367 0.502672
#
# Coordination Sequence:
#
# PCOD9118072 Si02
#       5
#     2   2   2   2   2
#     4  10  24  44  73 111 147 203 256 318 392 481
#     4  10  26  46  74 116 146 208 264 318 402 475
#     4  12  21  50  74 109 161 195 258 329 398 469
#     4  10  25  47  73 113 151 205 264 323 396 484
#     4  12  26  49  80 113 159 211 266 338 400 473
#
# _framework density 29.28031
#
# number of rings (size 3 to 8) (size 9 to 14) (size 15 to 20)
#    1.200    0.000    4.000    1.200    0.000    6.400 
#    7.200    0.000    0.000    0.000    0.000    0.000 
#    0.000    0.000    0.000    0.000    0.000    0.000 
#
# Total GULP energy -55798.336025 kJ/mol
# GULP energy per Si atom -5579.833603 kJ/mol
# Density = 2.921367 g / cm^3
# Si number density = 29.280310 Si / 1000 Ang^3
#
#
#
# Elastic Constant Matrix: (Units=GPa)
#
#
# Indices 1 2 3 4 5 6 
#
# 1 98.6040 23.2035 48.7688 0.0000 -13.0613 0.0000
# 2 23.2035 145.4932 65.5620 0.0000 -14.9365 0.0000
# 3 48.7688 65.5620 188.1584 0.0000 -5.0058 0.0000
# 4 0.0000 0.0000 0.0000 40.0713 0.0000 -3.7875
# 5 -13.0613 -14.9365 -5.0058 0.0000 56.6299 0.0000
# 6 0.0000 0.0000 0.0000 -3.7875 0.0000 39.9905
#
#
#
# Elastic Compliance Matrix: (Units=1/GPa)
#
#
# Indices 1 2 3 4 5 6 
#
# 1 0.011988 -0.000347 -0.002922 0.000000 0.002415 0.000000
# 2 -0.000347 0.008373 -0.002778 0.000000 0.001883 0.000000
# 3 -0.002922 -0.002778 0.007019 0.000000 -0.000786 0.000000
# 4 0.000000 0.000000 0.000000 0.025181 0.000000 0.002385
# 5 0.002415 0.001883 -0.000786 0.000000 0.018643 0.000000
# 6 0.000000 0.000000 0.000000 0.002385 0.000000 0.025232
#
#
# Mechanical properties :
#
#
# Convention : Reuss Voigt Hill
#
# Bulk Modulus (GPa) = 65.41450 78.59158 72.00304
# Shear Modulus (GPa) = 44.00413 46.98643 45.49528
#
# Velocity S-wave (km/s) = 3.88088 4.01023 3.94608
# Velocity P-wave (km/s) = 6.51697 6.95284 6.73843
#
# Compressibility (1/GPa) = 0.01528713
#
# Stress axis : x y z
#
# Youngs Moduli (GPa) = 83.41385 119.42461 142.47185
#
# Poissons Ratio (x) = 0.04147 0.41631
# Poissons Ratio (y) = 0.02897 0.39572
# Poissons Ratio (z) = 0.24374 0.33171
#
# Static dielectric constant tensor:
#      x y z
#    x 2.308720 0.000000 -0.003060 
#    y 0.000000 2.399620 0.000000 
#    z -0.003060 0.000000 2.186360 
# 
# From -- ./inp_files/2322.got.cif
#   From: 2010.05.17/outbox.cif.g08.bks.cpg/sg4_2_cif.got.tgz:2322.got - 2010.06.03 18:43:04.
