data_PCOD9118595
_publ_section_title
;
Structure prediction by ZEFSAII (Michael W. Deem and Ramdas Pophale) SiO2 
 PCOD9118595
Probable space group: P 21
;
_chemical_formula_sum "Si O2"
_cell_formula_units_Z 14
_cell_length_a 8.034894
_cell_length_b 14.368921
_cell_length_c 7.529457
_cell_angle_alpha 90.000000
_cell_angle_beta 36.829755
_cell_angle_gamma 90.000000
_cell_volume 521.090576
_symmetry_space_group_name_H-M "P 21"
_symmetry_group_IT_number 4
_symmetry_cell_setting 'monoclinic'
loop_
_space_group_symop_operation_xyz
x,y,z
-x,1/2+y,-z
loop_
_atom_site_type_symbol
_atom_site_label
_atom_site_fract_x
_atom_site_fract_y
_atom_site_fract_z
Si Si1 0.147304 0.808110 0.311340
Si Si2 0.289273 0.009648 0.294574
Si Si3 0.868003 0.015456 0.957745
Si Si4 0.333471 0.030389 0.838110
Si Si5 0.692237 0.196830 0.530982
Si Si6 0.565259 0.827990 0.659982
Si Si7 0.157570 0.295136 0.936931
O O1 0.298068 0.896552 0.273851
O O2 0.122492 0.718950 0.456612
O O3 0.840207 0.847754 0.540359
O O4 0.329194 0.783339 0.983808
O O5 0.024780 0.031964 0.638511
O O6 0.553548 0.044242 0.182706
O O7 0.279947 0.038534 0.095564
O O8 0.071618 0.054410 0.937818
O O9 0.858105 0.904497 0.010444
O O10 0.597224 0.094045 0.570644
O O11 0.425477 0.924826 0.720577
O O12 0.399363 0.243921 0.838300
O O13 0.861886 0.249949 0.233078
O O14 0.714534 0.778929 0.367632
#
# Coordination Sequence:
#
# PCOD9118595 Si02
#       7
#     2   2   2   2   2   2   2
#     4  11  21  44  72 103 137 188 246 297 356 441
#     4  11  23  43  76 101 134 196 244 289 348 456
#     4  12  23  45  75 101 137 194 249 284 352 454
#     4  11  28  48  73 112 152 187 247 314 372 420
#     4  12  26  45  71 107 154 178 234 322 378 402
#     4  11  24  44  75 100 137 195 251 287 353 460
#     4  12  23  45  74 104 141 194 247 297 361 445
#
# _framework density 26.866733
#
# number of rings (size 3 to 8) (size 9 to 14) (size 15 to 20)
#    0.000    0.571    2.857    6.857    0.000    6.857 
#    7.714    0.000    0.000    0.000    0.000    0.000 
#    0.000    0.000    0.000    0.000    0.000    0.000 
#
# Total GULP energy -78420.976860 kJ/mol
# GULP energy per Si atom -5601.498347 kJ/mol
# Density = 2.680558 g / cm^3
# Si number density = 26.866733 Si / 1000 Ang^3
#
#
#
# Elastic Constant Matrix: (Units=GPa)
#
#
# Indices 1 2 3 4 5 6 
#
# 1 89.5284 5.4550 26.8291 0.0000 8.0998 0.0000
# 2 5.4550 51.2174 6.2720 0.0000 11.3714 0.0000
# 3 26.8291 6.2720 187.8933 0.0000 5.6555 0.0000
# 4 0.0000 0.0000 0.0000 34.5141 0.0000 -5.0696
# 5 8.0998 11.3714 5.6555 0.0000 42.8090 0.0000
# 6 0.0000 0.0000 0.0000 -5.0696 0.0000 15.8926
#
#
#
# Elastic Compliance Matrix: (Units=1/GPa)
#
#
# Indices 1 2 3 4 5 6 
#
# 1 0.011862 -0.000653 -0.001616 0.000000 -0.001857 0.000000
# 2 -0.000653 0.020837 -0.000441 0.000000 -0.005353 0.000000
# 3 -0.001616 -0.000441 0.005577 0.000000 -0.000314 0.000000
# 4 0.000000 0.000000 0.000000 0.030398 0.000000 0.009697
# 5 -0.001857 -0.005353 -0.000314 0.000000 0.025174 0.000000
# 6 0.000000 0.000000 0.000000 0.009697 0.000000 0.066015
#
#
# Mechanical properties :
#
#
# Convention : Reuss Voigt Hill
#
# Bulk Modulus (GPa) = 30.43679 45.08347 37.76013
# Shear Modulus (GPa) = 28.37113 37.98201 33.17657
#
# Velocity S-wave (km/s) = 3.25313 3.76402 3.51787
# Velocity P-wave (km/s) = 5.04618 5.97556 5.53043
#
# Compressibility (1/GPa) = 0.03285498
#
# Stress axis : x y z
#
# Youngs Moduli (GPa) = 84.30465 47.99225 179.30495
#
# Poissons Ratio (x) = 0.03134 0.28976
# Poissons Ratio (y) = 0.05506 0.07910
# Poissons Ratio (z) = 0.13624 0.02117
#
# Static dielectric constant tensor:
#      x y z
#    x 2.323310 0.000000 0.011990 
#    y 0.000000 2.098950 0.000000 
#    z 0.011990 0.000000 2.016480 
# 
# From -- ./inp_files/6528.got.cif
#   From: 2010.05.17/outbox.cif.g08.bks.cpg/sg4_4_cif.got.tgz:6528.got - 2010.06.03 18:43:04.
