data_PCOD9118911
_publ_section_title
;
Structure prediction by ZEFSAII (Michael W. Deem and Ramdas Pophale) SiO2 
 PCOD9118911
Probable space group: P 21
;
_chemical_formula_sum "Si O2"
_cell_formula_units_Z 16
_cell_length_a 24.336307
_cell_length_b 5.907404
_cell_length_c 8.642494
_cell_angle_alpha 90.000000
_cell_angle_beta 145.307589
_cell_angle_gamma 90.000000
_cell_volume 707.184790
_symmetry_space_group_name_H-M "P 21"
_symmetry_group_IT_number 4
_symmetry_cell_setting 'monoclinic'
loop_
_space_group_symop_operation_xyz
x,y,z
-x,1/2+y,-z
loop_
_atom_site_type_symbol
_atom_site_label
_atom_site_fract_x
_atom_site_fract_y
_atom_site_fract_z
Si Si1 0.244996 0.275750 0.603275
Si Si2 0.851020 0.381067 0.228526
Si Si3 0.060405 0.559761 0.785006
Si Si4 0.288585 0.676605 0.873302
Si Si5 0.219258 0.199811 0.201878
Si Si6 0.575761 0.564002 0.800899
Si Si7 0.371853 0.394059 0.338246
Si Si8 0.021298 0.274228 0.126551
O O1 0.259564 0.548544 0.650717
O O2 0.240958 0.150731 0.429875
O O3 0.136788 0.258331 0.423795
O O4 0.344802 0.193370 0.912368
O O5 0.883834 0.141722 0.236362
O O6 0.790392 0.350091 0.243586
O O7 0.951435 0.502188 0.491948
O O8 0.794995 0.508736 0.961539
O O9 0.047393 0.756057 0.881894
O O10 0.121173 0.347707 0.985012
O O11 0.302534 0.505150 0.048694
O O12 0.388013 0.808574 0.095248
O O13 0.308727 0.343865 0.341620
O O14 0.462964 0.557824 0.579546
O O15 0.589876 0.668505 0.661981
O O16 0.002870 0.527174 0.011773
#
# Coordination Sequence:
#
# PCOD9118911 Si02
#       8
#     2   2   2   2   2   2   2   2
#     4  11  28  45  71 103 152 194 245 303 397 461
#     4  12  25  41  70 102 143 190 250 311 368 448
#     4  12  26  39  69 103 141 188 248 303 370 443
#     4  11  24  43  72 100 137 186 243 306 368 453
#     4  12  25  48  65 107 145 187 245 314 378 452
#     4  11  23  46  72 101 135 185 246 309 370 463
#     4  11  23  44  73 101 132 183 246 306 374 443
#     4  12  28  48  74 105 155 205 247 304 385 471
#
# _framework density 22.624921000000001
#
# number of rings (size 3 to 8) (size 9 to 14) (size 15 to 20)
#    0.000    0.500    6.250    1.500    7.000    1.000 
#    2.250    0.000    0.000    0.000    0.000    0.000 
#    0.000    0.000    0.000    0.000    0.000    0.000 
#
# Total GULP energy -89235.860610 kJ/mol
# GULP energy per Si atom -5577.241288 kJ/mol
# Density = 2.257343 g / cm^3
# Si number density = 22.624921 Si / 1000 Ang^3
#
#
#
# Elastic Constant Matrix: (Units=GPa)
#
#
# Indices 1 2 3 4 5 6 
#
# 1 53.4845 -2.8520 23.3160 0.0000 22.4393 0.0000
# 2 -2.8520 63.8365 26.2872 0.0000 5.1979 0.0000
# 3 23.3160 26.2872 105.9895 0.0000 19.3005 0.0000
# 4 0.0000 0.0000 0.0000 40.2898 0.0000 1.9321
# 5 22.4393 5.1979 19.3005 0.0000 26.1073 0.0000
# 6 0.0000 0.0000 0.0000 1.9321 0.0000 33.7060
#
#
#
# Elastic Compliance Matrix: (Units=1/GPa)
#
#
# Indices 1 2 3 4 5 6 
#
# 1 0.030958 0.004843 -0.003456 0.000000 -0.025018 0.000000
# 2 0.004843 0.018207 -0.004810 0.000000 -0.004231 0.000000
# 3 -0.003456 -0.004810 0.012333 0.000000 -0.005190 0.000000
# 4 0.000000 0.000000 0.000000 0.024889 0.000000 -0.001427
# 5 -0.025018 -0.004231 -0.005190 0.000000 0.064486 0.000000
# 6 0.000000 0.000000 0.000000 -0.001427 0.000000 0.029750
#
#
# Mechanical properties :
#
#
# Convention : Reuss Voigt Hill
#
# Bulk Modulus (GPa) = 18.29754 35.20142 26.74948
# Shear Modulus (GPa) = 24.30890 31.79124 28.05007
#
# Velocity S-wave (km/s) = 3.28141 3.75259 3.52488
# Velocity P-wave (km/s) = 4.73938 5.86246 5.33058
#
# Compressibility (1/GPa) = 0.05465216
#
# Stress axis : x y z
#
# Youngs Moduli (GPa) = 32.30173 54.92443 81.08183
#
# Poissons Ratio (x) = -0.26601 0.28020
# Poissons Ratio (y) = -0.15644 0.39004
# Poissons Ratio (z) = 0.11163 0.26421
#
# Static dielectric constant tensor:
#      x y z
#    x 1.810410 0.000000 -0.032180 
#    y 0.000000 1.979210 0.000000 
#    z -0.032180 0.000000 1.852870 
# 
# From -- ./inp_files/8610.got.cif
#   From: 2010.05.17/outbox.cif.g08.bks.cpg/sg4_5_cif.got.tgz:8610.got - 2010.06.03 18:43:04.
