data_PCOD9118355
_publ_section_title
;
Structure prediction by ZEFSAII (Michael W. Deem and Ramdas Pophale) SiO2 
 PCOD9118355
Probable space group: P 21
;
_chemical_formula_sum "Si O2"
_cell_formula_units_Z 14
_cell_length_a 11.089668
_cell_length_b 5.527972
_cell_length_c 11.665190
_cell_angle_alpha 90.000000
_cell_angle_beta 125.791567
_cell_angle_gamma 90.000000
_cell_volume 580.065877
_symmetry_space_group_name_H-M "P 21"
_symmetry_group_IT_number 4
_symmetry_cell_setting 'monoclinic'
loop_
_space_group_symop_operation_xyz
x,y,z
-x,1/2+y,-z
loop_
_atom_site_type_symbol
_atom_site_label
_atom_site_fract_x
_atom_site_fract_y
_atom_site_fract_z
Si Si1 0.979538 0.812810 0.059736
Si Si2 0.584442 0.204298 0.015340
Si Si3 0.168990 0.204957 0.490216
Si Si4 0.833545 0.069868 0.328192
Si Si5 0.225620 0.573327 0.329112
Si Si6 0.629183 0.305050 0.397185
Si Si7 0.665554 0.918897 0.858185
O O1 0.104027 0.774995 0.225763
O O2 0.997915 0.576326 0.986957
O O3 0.806928 0.805173 0.001060
O O4 0.737143 0.156979 0.168331
O O5 0.516492 0.467359 0.006173
O O6 0.619599 0.160068 0.900888
O O7 0.197231 0.308412 0.634101
O O8 0.147806 0.392177 0.373762
O O9 0.007862 0.084473 0.406492
O O10 0.324341 0.076117 0.547657
O O11 0.770568 0.231337 0.398144
O O12 0.363744 0.667980 0.479699
O O13 0.280971 0.463646 0.241332
O O14 0.484141 0.267543 0.241481
#
# Coordination Sequence:
#
# PCOD9118355 Si02
#       7
#     2   2   2   2   2   2   2
#     4  10  25  48  72 107 150 197 245 292 371 450
#     4  12  28  49  74 108 149 195 251 304 376 442
#     4  11  24  44  75 106 146 189 258 303 372 443
#     4  11  24  45  75 102 143 197 247 310 365 442
#     4  10  27  43  73 112 141 200 239 310 372 452
#     4  11  24  47  71 108 146 191 250 303 376 438
#     4  11  26  48  74 109 153 191 244 318 368 451
#
# _framework density 24.135193000000001
#
# number of rings (size 3 to 8) (size 9 to 14) (size 15 to 20)
#    0.000    1.143    2.857    0.857    8.000    5.714 
#    7.714    0.000    0.000    0.000    0.000    0.000 
#    0.000    0.000    0.000    0.000    0.000    0.000 
#
# Total GULP energy -78131.878875 kJ/mol
# GULP energy per Si atom -5580.848491 kJ/mol
# Density = 2.408026 g / cm^3
# Si number density = 24.135193 Si / 1000 Ang^3
#
#
#
# Elastic Constant Matrix: (Units=GPa)
#
#
# Indices 1 2 3 4 5 6 
#
# 1 79.7222 13.0465 15.7754 0.0000 10.8537 0.0000
# 2 13.0465 59.4608 -3.6175 0.0000 6.8401 0.0000
# 3 15.7754 -3.6175 72.9108 0.0000 4.2612 0.0000
# 4 0.0000 0.0000 0.0000 36.6283 0.0000 -4.9600
# 5 10.8537 6.8401 4.2612 0.0000 48.1098 0.0000
# 6 0.0000 0.0000 0.0000 -4.9600 0.0000 12.4333
#
#
#
# Elastic Compliance Matrix: (Units=1/GPa)
#
#
# Indices 1 2 3 4 5 6 
#
# 1 0.013962 -0.002964 -0.003024 0.000000 -0.002461 0.000000
# 2 -0.002964 0.017799 0.001642 0.000000 -0.002007 0.000000
# 3 -0.003024 0.001642 0.014500 0.000000 -0.000835 0.000000
# 4 0.000000 0.000000 0.000000 0.028860 0.000000 0.011513
# 5 -0.002461 -0.002007 -0.000835 0.000000 0.021700 0.000000
# 6 0.000000 0.000000 0.000000 0.011513 0.000000 0.085022
#
#
# Mechanical properties :
#
#
# Convention : Reuss Voigt Hill
#
# Bulk Modulus (GPa) = 26.61871 29.16695 27.89283
# Shear Modulus (GPa) = 24.62328 31.89358 28.25843
#
# Velocity S-wave (km/s) = 3.19756 3.63913 3.42547
# Velocity P-wave (km/s) = 4.96845 5.45607 5.21796
#
# Compressibility (1/GPa) = 0.03756756
#
# Stress axis : x y z
#
# Youngs Moduli (GPa) = 71.62252 56.18281 68.96549
#
# Poissons Ratio (x) = 0.16655 0.20856
# Poissons Ratio (y) = 0.21232 -0.11323
# Poissons Ratio (z) = 0.21660 -0.09224
#
# Static dielectric constant tensor:
#      x y z
#    x 1.929790 0.000000 0.014900 
#    y 0.000000 2.162960 0.000000 
#    z 0.014900 0.000000 1.898940 
# 
# From -- ./inp_files/11474.got.cif
#   From: 2010.05.17/outbox.cif.g08.bks.cpg/sg4_6_cif.got.tgz:11474.got - 2010.06.03 18:43:04.
