data_PCOD9118537
_publ_section_title
;
Structure prediction by ZEFSAII (Michael W. Deem and Ramdas Pophale) SiO2 
 PCOD9118537
Probable space group: P 21
;
_chemical_formula_sum "Si O2"
_cell_formula_units_Z 14
_cell_length_a 7.331629
_cell_length_b 10.413282
_cell_length_c 8.667514
_cell_angle_alpha 90.000000
_cell_angle_beta 60.135456
_cell_angle_gamma 90.000000
_cell_volume 573.858032
_symmetry_space_group_name_H-M "P 21"
_symmetry_group_IT_number 4
_symmetry_cell_setting 'monoclinic'
loop_
_space_group_symop_operation_xyz
x,y,z
-x,1/2+y,-z
loop_
_atom_site_type_symbol
_atom_site_label
_atom_site_fract_x
_atom_site_fract_y
_atom_site_fract_z
Si Si1 0.313550 0.758720 0.981340
Si Si2 0.341548 0.511610 0.779865
Si Si3 0.201944 0.106092 0.519917
Si Si4 0.831691 0.094606 0.466532
Si Si5 0.766605 0.488303 0.184755
Si Si6 0.644826 0.851714 0.622862
Si Si7 0.486202 0.235600 0.782566
O O1 0.266875 0.617814 0.934950
O O2 0.175634 0.874166 0.960836
O O3 0.548830 0.790362 0.816766
O O4 0.346616 0.754640 0.148419
O O5 0.585395 0.542368 0.634315
O O6 0.197444 0.544130 0.693157
O O7 0.352217 0.364897 0.826432
O O8 0.270936 0.250628 0.534178
O O9 0.052817 0.137861 0.437542
O O10 0.116557 0.038670 0.711002
O O11 0.646270 0.195443 0.577586
O O12 0.799100 0.967794 0.585856
O O13 0.564414 0.420607 0.350766
O O14 0.668904 0.611903 0.137370
#
# Coordination Sequence:
#
# PCOD9118537 Si02
#       7
#     2   2   2   2   2   2   2
#     4   9  20  38  64  84 117 163 195 236 305 353
#     4  11  22  38  63  89 119 153 203 246 291 358
#     4  11  21  37  62  89 123 151 198 253 297 346
#     4  11  24  35  65  91 119 154 203 248 303 343
#     4   9  19  35  62  83 119 152 193 245 291 349
#     4   8  19  37  56  87 120 148 202 236 295 344
#     4  11  21  38  64  85 119 161 196 240 302 357
#
# _framework density 24.396277999999999
#
# number of rings (size 3 to 8) (size 9 to 14) (size 15 to 20)
#    0.857    1.143    2.857    1.714    6.000    0.000 
#    0.000    0.000   12.571    0.000    0.000    0.000 
#    0.000    0.000    0.000    0.000    0.000    0.000 
#
# Total GULP energy -77961.378918 kJ/mol
# GULP energy per Si atom -5568.669923 kJ/mol
# Density = 2.434075 g / cm^3
# Si number density = 24.396278 Si / 1000 Ang^3
#
#
#
# Elastic Constant Matrix: (Units=GPa)
#
#
# Indices 1 2 3 4 5 6 
#
# 1 81.0090 25.8344 34.6857 0.0000 28.7071 0.0000
# 2 25.8344 169.7099 41.4554 0.0000 20.0047 0.0000
# 3 34.6857 41.4554 60.5239 0.0000 24.1785 0.0000
# 4 0.0000 0.0000 0.0000 18.4842 0.0000 8.9385
# 5 28.7071 20.0047 24.1785 0.0000 40.3785 0.0000
# 6 0.0000 0.0000 0.0000 8.9385 0.0000 4.4907
#
#
#
# Elastic Compliance Matrix: (Units=1/GPa)
#
#
# Indices 1 2 3 4 5 6 
#
# 1 0.018535 -0.000054 -0.007008 0.000000 -0.008955 0.000000
# 2 -0.000054 0.007096 -0.004522 0.000000 -0.000769 0.000000
# 3 -0.007008 -0.004522 0.027275 0.000000 -0.009109 0.000000
# 4 0.000000 0.000000 0.000000 1.443512 0.000000 -2.873212
# 5 -0.008955 -0.000769 -0.009109 0.000000 0.036968 0.000000
# 6 0.000000 0.000000 0.000000 -2.873212 0.000000 5.941615
#
#
# Mechanical properties :
#
#
# Convention : Reuss Voigt Hill
#
# Bulk Modulus (GPa) = 33.62713 57.24374 45.43543
# Shear Modulus (GPa) = 0.66595 26.62185 13.64390
#
# Velocity S-wave (km/s) = 0.52303 3.30695 2.36744
# Velocity P-wave (km/s) = 3.76542 6.17222 5.11247
#
# Compressibility (1/GPa) = 0.02973789
#
# Stress axis : x y z
#
# Youngs Moduli (GPa) = 53.95058 140.92613 36.66351
#
# Poissons Ratio (x) = 0.00763 0.25694
# Poissons Ratio (y) = 0.00292 0.16579
# Poissons Ratio (z) = 0.37810 0.63726
#
# Static dielectric constant tensor:
#      x y z
#    x 1.978510 0.000000 -0.012560 
#    y 0.000000 2.001850 0.000000 
#    z -0.012560 0.000000 1.979500 
# 
# From -- ./inp_files/5898.got.cif
#   From: 2010.05.17/outbox.cif.g08.bks.cpg/sg4_3_cif.got.tgz:5898.got - 2010.06.03 18:43:04.
