data_PCOD9118328
_publ_section_title
;
Structure prediction by ZEFSAII (Michael W. Deem and Ramdas Pophale) SiO2 
 PCOD9118328
Probable space group: P 21
;
_chemical_formula_sum "Si O2"
_cell_formula_units_Z 14
_cell_length_a 11.727061
_cell_length_b 5.444056
_cell_length_c 9.118721
_cell_angle_alpha 90.000000
_cell_angle_beta 68.710497
_cell_angle_gamma 90.000000
_cell_volume 542.436263
_symmetry_space_group_name_H-M "P 21"
_symmetry_group_IT_number 4
_symmetry_cell_setting 'monoclinic'
loop_
_space_group_symop_operation_xyz
x,y,z
-x,1/2+y,-z
loop_
_atom_site_type_symbol
_atom_site_label
_atom_site_fract_x
_atom_site_fract_y
_atom_site_fract_z
Si Si1 0.541175 0.846540 0.049612
Si Si2 0.300778 0.713961 0.673133
Si Si3 0.726215 0.731757 0.778101
Si Si4 0.182777 0.963429 0.997224
Si Si5 0.947493 0.661095 0.485732
Si Si6 0.096100 0.325830 0.803494
Si Si7 0.561215 0.506872 0.618780
O O1 0.492970 0.817263 0.235882
O O2 0.527212 0.578393 0.986933
O O3 0.677262 0.910865 0.927943
O O4 0.180983 0.547371 0.702121
O O5 0.434140 0.583960 0.603924
O O6 0.332221 0.921818 0.539498
O O7 0.273701 0.809316 0.850398
O O8 0.768196 0.504788 0.862553
O O9 0.845107 0.797604 0.632214
O O10 0.626467 0.704398 0.694291
O O11 0.041362 0.879966 0.077185
O O12 0.168762 0.209779 0.905036
O O13 0.919909 0.644991 0.326264
O O14 0.953924 0.382419 0.543059
#
# Coordination Sequence:
#
# PCOD9118328 Si02
#       7
#     2   2   2   2   2   2   2
#     4  10  25  46  75 110 155 204 260 322 395 473
#     4  12  30  51  79 116 167 214 274 334 427 488
#     4  11  27  48  82 114 160 210 275 336 403 496
#     4  12  27  52  82 116 159 221 274 343 411 480
#     4  12  30  50  81 123 161 216 273 340 411 478
#     4  12  28  50  82 115 164 214 278 343 405 494
#     4  11  29  49  79 120 160 219 262 346 406 505
#
# _framework density 25.809486
#
# number of rings (size 3 to 8) (size 9 to 14) (size 15 to 20)
#    0.000    0.571    2.857    1.714   22.000    2.286 
#    0.000    0.000    0.000    0.000    0.000    0.000 
#    0.000    0.000    0.000    0.000    0.000    0.000 
#
# Total GULP energy -78024.466430 kJ/mol
# GULP energy per Si atom -5573.176174 kJ/mol
# Density = 2.575074 g / cm^3
# Si number density = 25.809486 Si / 1000 Ang^3
#
#
#
# Elastic Constant Matrix: (Units=GPa)
#
#
# Indices 1 2 3 4 5 6 
#
# 1 1465.5436 -48.8091 436.1878 0.0000 -356.1800 0.0000
# 2 -48.8091 54.4793 -7.5709 0.0000 18.7833 0.0000
# 3 436.1878 -7.5709 280.8914 0.0000 -124.5654 0.0000
# 4 0.0000 0.0000 0.0000 47.4728 0.0000 -2.2299
# 5 -356.1800 18.7833 -124.5654 0.0000 135.1404 0.0000
# 6 0.0000 0.0000 0.0000 -2.2299 0.0000 23.4032
#
#
#
# Elastic Compliance Matrix: (Units=1/GPa)
#
#
# Indices 1 2 3 4 5 6 
#
# 1 0.002193 0.000241 -0.001438 0.000000 0.004419 0.000000
# 2 0.000241 0.019521 -0.001302 0.000000 -0.003278 0.000000
# 3 -0.001438 -0.001302 0.007032 0.000000 0.002872 0.000000
# 4 0.000000 0.000000 0.000000 0.021159 0.000000 0.002016
# 5 0.004419 -0.003278 0.002872 0.000000 0.022150 0.000000
# 6 0.000000 0.000000 0.000000 0.002016 0.000000 0.042921
#
#
# Mechanical properties :
#
#
# Convention : Reuss Voigt Hill
#
# Bulk Modulus (GPa) = 42.11053 284.50333 163.30693
# Shear Modulus (GPa) = 39.09588 135.94371 87.51979
#
# Velocity S-wave (km/s) = 3.89625 7.26542 5.82954
# Velocity P-wave (km/s) = 6.04916 13.44817 10.42702
#
# Compressibility (1/GPa) = 0.02374703
#
# Stress axis : x y z
#
# Youngs Moduli (GPa) = 456.08898 51.22764 142.20425
#
# Poissons Ratio (x) = -0.01233 0.20454
# Poissons Ratio (y) = -0.10979 0.18508
# Poissons Ratio (z) = 0.65603 0.06667
#
# Static dielectric constant tensor:
#      x y z
#    x 2.146220 0.000000 -0.060150 
#    y 0.000000 2.078910 0.000000 
#    z -0.060150 0.000000 2.077090 
# 
# From -- ./inp_files/7065.got.cif
#   From: 2010.05.17/outbox.cif.g08.bks.cpg/sg4_4_cif.got.tgz:7065.got - 2010.06.03 18:43:04.
