data_PCOD9118821
_publ_section_title
;
Structure prediction by ZEFSAII (Michael W. Deem and Ramdas Pophale) SiO2 
 PCOD9118821
Probable space group: P 21
;
_chemical_formula_sum "Si O2"
_cell_formula_units_Z 14
_cell_length_a 10.990694
_cell_length_b 5.312786
_cell_length_c 9.733466
_cell_angle_alpha 90.000000
_cell_angle_beta 87.488999
_cell_angle_gamma 90.000000
_cell_volume 567.803098
_symmetry_space_group_name_H-M "P 21"
_symmetry_group_IT_number 4
_symmetry_cell_setting 'monoclinic'
loop_
_space_group_symop_operation_xyz
x,y,z
-x,1/2+y,-z
loop_
_atom_site_type_symbol
_atom_site_label
_atom_site_fract_x
_atom_site_fract_y
_atom_site_fract_z
Si Si1 0.937659 0.597030 0.479742
Si Si2 0.819334 0.893970 0.138464
Si Si3 0.259556 0.890739 0.353622
Si Si4 0.554102 0.768724 0.659464
Si Si5 0.036745 0.900402 0.822923
Si Si6 0.677138 0.047241 0.407806
Si Si7 0.752606 0.001393 0.856702
O O1 0.820534 0.618103 0.582944
O O2 0.926617 0.456445 0.336016
O O3 0.013396 0.375635 0.553455
O O4 0.907695 0.135915 0.135545
O O5 0.750275 0.897734 0.288453
O O6 0.896448 0.639659 0.110435
O O7 0.727403 0.951521 0.017460
O O8 0.396275 0.984337 0.335119
O O9 0.246563 0.691692 0.477990
O O10 0.225725 0.778935 0.208723
O O11 0.408615 0.749938 0.667848
O O12 0.592268 0.877628 0.509631
O O13 0.638130 0.902964 0.771164
O O14 0.890467 0.895056 0.835481
#
# Coordination Sequence:
#
# PCOD9118821 Si02
#       7
#     2   2   2   2   2   2   2
#     4  12  23  39  67 107 137 175 231 292 354 415
#     4  12  28  47  73 108 146 196 238 296 362 441
#     4  11  23  41  70  97 138 174 241 289 354 419
#     4  11  24  46  71 102 139 188 242 303 359 422
#     4  12  25  46  73 103 152 190 240 291 364 440
#     4  11  24  46  72 104 136 186 245 297 360 426
#     4  11  27  45  70 105 144 195 235 296 367 435
#
# _framework density 24.656434000000001
#
# number of rings (size 3 to 8) (size 9 to 14) (size 15 to 20)
#    0.000    0.571    4.286    3.429    6.000    0.000 
#    2.571    0.000    0.000    0.000    0.000    0.000 
#    0.000    0.000    0.000    0.000    0.000    0.000 
#
# Total GULP energy -78183.531474 kJ/mol
# GULP energy per Si atom -5584.537962 kJ/mol
# Density = 2.460031 g / cm^3
# Si number density = 24.656434 Si / 1000 Ang^3
#
#
#
# Elastic Constant Matrix: (Units=GPa)
#
#
# Indices 1 2 3 4 5 6 
#
# 1 44.0102 11.3910 -4.6106 0.0000 12.1877 0.0000
# 2 11.3910 84.2319 0.3239 0.0000 11.0515 0.0000
# 3 -4.6106 0.3239 120.5640 0.0000 12.4167 0.0000
# 4 0.0000 0.0000 0.0000 26.6926 0.0000 11.5162
# 5 12.1877 11.0515 12.4167 0.0000 33.3719 0.0000
# 6 0.0000 0.0000 0.0000 11.5162 0.0000 39.6694
#
#
#
# Elastic Compliance Matrix: (Units=1/GPa)
#
#
# Indices 1 2 3 4 5 6 
#
# 1 0.026165 -0.002295 0.001989 0.000000 -0.009536 0.000000
# 2 -0.002295 0.012632 0.000232 0.000000 -0.003431 0.000000
# 3 0.001989 0.000232 0.008789 0.000000 -0.004073 0.000000
# 4 0.000000 0.000000 0.000000 0.042828 0.000000 -0.012433
# 5 -0.009536 -0.003431 -0.004073 0.000000 0.036100 0.000000
# 6 0.000000 0.000000 0.000000 -0.012433 0.000000 0.028818
#
#
# Mechanical properties :
#
#
# Convention : Reuss Voigt Hill
#
# Bulk Modulus (GPa) = 21.08056 29.22386 25.15221
# Shear Modulus (GPa) = 29.18989 36.06024 32.62506
#
# Velocity S-wave (km/s) = 3.44447 3.82842 3.64151
# Velocity P-wave (km/s) = 4.93836 5.60541 5.28242
#
# Compressibility (1/GPa) = 0.04743708
#
# Stress axis : x y z
#
# Youngs Moduli (GPa) = 38.21896 79.16636 113.77486
#
# Poissons Ratio (x) = 0.18168 -0.22628
# Poissons Ratio (y) = 0.08771 -0.02636
# Poissons Ratio (z) = -0.07601 -0.01834
#
# Static dielectric constant tensor:
#      x y z
#    x 1.995300 0.000000 0.057630 
#    y 0.000000 2.074210 0.000000 
#    z 0.057630 0.000000 2.006700 
# 
# From -- ./inp_files/7275.got.cif
#   From: 2010.05.17/outbox.cif.g08.bks.cpg/sg4_4_cif.got.tgz:7275.got - 2010.06.03 18:43:04.
