data_PCOD9118531
_publ_section_title
;
Structure prediction by ZEFSAII (Michael W. Deem and Ramdas Pophale) SiO2 
 PCOD9118531
Probable space group: P 21
;
_chemical_formula_sum "Si O2"
_cell_formula_units_Z 16
_cell_length_a 19.085295
_cell_length_b 4.771374
_cell_length_c 22.530787
_cell_angle_alpha 90.000000
_cell_angle_beta 159.804659
_cell_angle_gamma 90.000000
_cell_volume 708.299634
_symmetry_space_group_name_H-M "P 21"
_symmetry_group_IT_number 4
_symmetry_cell_setting 'monoclinic'
loop_
_space_group_symop_operation_xyz
x,y,z
-x,1/2+y,-z
loop_
_atom_site_type_symbol
_atom_site_label
_atom_site_fract_x
_atom_site_fract_y
_atom_site_fract_z
Si Si1 0.463806 0.356530 0.547977
Si Si2 0.071756 0.416411 0.844318
Si Si3 0.121137 0.923984 0.583615
Si Si4 0.318889 0.145813 0.623939
Si Si5 0.757204 0.350231 0.683222
Si Si6 0.522170 0.698692 0.057167
Si Si7 0.679347 0.414882 0.985912
Si Si8 0.283984 0.638987 0.516122
O O1 0.681291 0.402305 0.689620
O O2 0.307070 0.535304 0.383174
O O3 0.432317 0.476706 0.588330
O O4 0.384153 0.042949 0.472750
O O5 0.984611 0.394117 0.841626
O O6 0.899594 0.284128 0.665362
O O7 0.119741 0.736037 0.868500
O O8 0.271500 0.236153 0.988495
O O9 0.181289 0.006145 0.565111
O O10 0.294504 0.037981 0.764859
O O11 0.919715 0.096317 0.441589
O O12 0.506016 0.297741 0.804932
O O13 0.209691 0.394536 0.501183
O O14 0.382316 0.893984 0.630761
O O15 0.387995 0.847392 0.000955
O O16 0.410500 0.449478 0.932822
#
# Coordination Sequence:
#
# PCOD9118531 Si02
#       8
#     2   2   2   2   2   2   2   2
#     4   9  17  31  53  84 118 147 183 238 290 325
#     4  11  21  36  60  89 113 146 198 242 275 330
#     4  11  24  41  61  84 113 151 193 236 287 342
#     4  11  24  40  57  83 121 156 183 228 297 351
#     4   9  17  31  53  84 118 147 183 238 290 325
#     4  11  24  41  61  84 113 151 193 236 287 342
#     4  11  24  40  57  83 121 156 183 228 297 351
#     4  11  21  36  60  89 113 146 198 242 275 330
#
# _framework density 22.589307999999999
#
# number of rings (size 3 to 8) (size 9 to 14) (size 15 to 20)
#    0.000    1.500    0.000    6.750    0.000   10.000 
#    0.000    0.000    0.000    3.000    0.000    1.750 
#    0.000    0.000    0.000    0.000    0.000    0.000 
#
# Total GULP energy -89454.210640 kJ/mol
# GULP energy per Si atom -5590.888165 kJ/mol
# Density = 2.253789 g / cm^3
# Si number density = 22.589308 Si / 1000 Ang^3
#
#
#
# Elastic Constant Matrix: (Units=GPa)
#
#
# Indices 1 2 3 4 5 6 
#
# 1 73.3773 -2.1944 19.2734 0.0000 -2.2505 0.0000
# 2 -2.1944 74.5935 -4.7886 0.0000 -9.4188 0.0000
# 3 19.2734 -4.7886 22.2648 0.0000 2.4028 0.0000
# 4 0.0000 0.0000 0.0000 30.3568 0.0000 9.2237
# 5 -2.2505 -9.4188 2.4028 0.0000 18.1776 0.0000
# 6 0.0000 0.0000 0.0000 9.2237 0.0000 34.7207
#
#
#
# Elastic Compliance Matrix: (Units=1/GPa)
#
#
# Indices 1 2 3 4 5 6 
#
# 1 0.017971 0.000052 -0.016016 0.000000 0.004369 0.000000
# 2 0.000052 0.014463 0.002289 0.000000 0.007198 0.000000
# 3 -0.016016 0.002289 0.060216 0.000000 -0.008756 0.000000
# 4 0.000000 0.000000 0.000000 0.035834 0.000000 -0.009519
# 5 0.004369 0.007198 -0.008756 0.000000 0.060441 0.000000
# 6 0.000000 0.000000 0.000000 -0.009519 0.000000 0.031330
#
#
# Mechanical properties :
#
#
# Convention : Reuss Voigt Hill
#
# Bulk Modulus (GPa) = 15.31427 21.64627 18.48027
# Shear Modulus (GPa) = 18.56169 27.18070 22.87120
#
# Velocity S-wave (km/s) = 2.86965 3.47256 3.18540
# Velocity P-wave (km/s) = 4.21592 5.06770 4.66131
#
# Compressibility (1/GPa) = 0.06529855
#
# Stress axis : x y z
#
# Youngs Moduli (GPa) = 55.64628 69.14023 16.60697
#
# Poissons Ratio (x) = -0.00360 0.26599
# Poissons Ratio (y) = -0.00290 -0.03801
# Poissons Ratio (z) = 0.89126 -0.15825
#
# Static dielectric constant tensor:
#      x y z
#    x 1.875460 0.000000 0.009490 
#    y 0.000000 1.788000 0.000000 
#    z 0.009490 0.000000 1.854570 
# 
# From -- ./inp_files/15890.got.cif
#   From: 2010.05.17/outbox.cif.g08.bks.cpg/sg4_8_cif.got.tgz:15890.got - 2010.06.03 18:43:04.
