data_PCOD9118104
_publ_section_title
;
Structure prediction by ZEFSAII (Michael W. Deem and Ramdas Pophale) SiO2 
 PCOD9118104
Probable space group: P 21
;
_chemical_formula_sum "Si O2"
_cell_formula_units_Z 16
_cell_length_a 11.707716
_cell_length_b 12.209622
_cell_length_c 8.390575
_cell_angle_alpha 90.000000
_cell_angle_beta 37.230049
_cell_angle_gamma 90.000000
_cell_volume 725.660590
_symmetry_space_group_name_H-M "P 21"
_symmetry_group_IT_number 4
_symmetry_cell_setting 'monoclinic'
loop_
_space_group_symop_operation_xyz
x,y,z
-x,1/2+y,-z
loop_
_atom_site_type_symbol
_atom_site_label
_atom_site_fract_x
_atom_site_fract_y
_atom_site_fract_z
Si Si1 0.228437 0.551660 0.832405
Si Si2 0.897186 0.850606 0.508102
Si Si3 0.431671 0.234503 0.048318
Si Si4 0.589627 0.021447 0.717424
Si Si5 0.252294 0.922260 0.918511
Si Si6 0.477364 0.726692 0.702583
Si Si7 0.146053 0.145062 0.868373
Si Si8 0.817964 0.831950 0.926769
O O1 0.320041 0.544590 0.555643
O O2 0.368600 0.614558 0.793802
O O3 0.192279 0.430530 0.938112
O O4 0.042197 0.625046 0.021123
O O5 0.787538 0.733718 0.642937
O O6 0.954082 0.866980 0.629288
O O7 0.732730 0.938393 0.645516
O O8 0.063686 0.869710 0.200845
O O9 0.534772 0.261307 0.099656
O O10 0.380956 0.307512 0.947190
O O11 0.545359 0.130828 0.861477
O O12 0.381965 0.975408 0.911051
O O13 0.379710 0.823504 0.710175
O O14 0.207143 0.022672 0.852754
O O15 0.688625 0.706579 0.409217
O O16 0.118636 0.221092 0.055196
#
# Coordination Sequence:
#
# PCOD9118104 Si02
#       8
#     2   2   2   2   2   2   2   2
#     4  12  27  44  76 110 151 198 248 317 379 450
#     4  10  24  45  72 103 142 197 241 310 369 449
#     4  10  24  46  70 106 150 191 245 311 374 446
#     4  12  22  47  71 105 147 189 248 311 375 443
#     4  12  23  46  73 103 146 196 244 306 379 440
#     4  12  27  43  76 109 149 198 255 307 384 445
#     4  12  27  47  73 110 150 202 246 321 372 463
#     4  10  24  48  71 106 149 191 257 299 380 450
#
# _framework density 22.048874000000001
#
# number of rings (size 3 to 8) (size 9 to 14) (size 15 to 20)
#    0.750    0.000    5.000    1.500    3.500    2.000 
#    4.500    0.000    0.000    0.000    0.000    0.000 
#    0.000    0.000    0.000    0.000    0.000    0.000 
#
# Total GULP energy -89176.504174 kJ/mol
# GULP energy per Si atom -5573.531511 kJ/mol
# Density = 2.199869 g / cm^3
# Si number density = 22.048874 Si / 1000 Ang^3
#
#
#
# Elastic Constant Matrix: (Units=GPa)
#
#
# Indices 1 2 3 4 5 6 
#
# 1 71.8023 13.1359 27.4245 0.0000 -0.8464 0.0000
# 2 13.1359 70.5377 33.6697 0.0000 8.9224 0.0000
# 3 27.4245 33.6697 87.7151 0.0000 -1.0027 0.0000
# 4 0.0000 0.0000 0.0000 34.2776 0.0000 -1.5261
# 5 -0.8464 8.9224 -1.0027 0.0000 25.4250 0.0000
# 6 0.0000 0.0000 0.0000 -1.5261 0.0000 45.4032
#
#
#
# Elastic Compliance Matrix: (Units=1/GPa)
#
#
# Indices 1 2 3 4 5 6 
#
# 1 0.015855 -0.000820 -0.004635 0.000000 0.000633 0.000000
# 2 -0.000820 0.018491 -0.006919 0.000000 -0.006789 0.000000
# 3 -0.004635 -0.006919 0.015539 0.000000 0.002887 0.000000
# 4 0.000000 0.000000 0.000000 0.029217 0.000000 0.000982
# 5 0.000633 -0.006789 0.002887 0.000000 0.041849 0.000000
# 6 0.000000 0.000000 0.000000 0.000982 0.000000 0.022058
#
#
# Mechanical properties :
#
#
# Convention : Reuss Voigt Hill
#
# Bulk Modulus (GPa) = 39.78350 42.05725 40.92038
# Shear Modulus (GPa) = 28.38721 31.40950 29.89835
#
# Velocity S-wave (km/s) = 3.59202 3.77840 3.68639
# Velocity P-wave (km/s) = 5.94020 6.17665 6.05958
#
# Compressibility (1/GPa) = 0.02513605
#
# Stress axis : x y z
#
# Youngs Moduli (GPa) = 63.07174 54.08048 64.35591
#
# Poissons Ratio (x) = 0.04436 0.29829
# Poissons Ratio (y) = 0.05173 0.44528
# Poissons Ratio (z) = 0.29234 0.37418
#
# Static dielectric constant tensor:
#      x y z
#    x 1.853680 0.000000 0.017280 
#    y 0.000000 1.867680 0.000000 
#    z 0.017280 0.000000 1.830810 
# 
# From -- ./inp_files/8316.got.cif
#   From: 2010.05.17/outbox.cif.g08.bks.cpg/sg4_5_cif.got.tgz:8316.got - 2010.06.03 18:43:04.
