data_PCOD9118093
_publ_section_title
;
Structure prediction by ZEFSAII (Michael W. Deem and Ramdas Pophale) SiO2 
 PCOD9118093
Probable space group: P 21
;
_chemical_formula_sum "Si O2"
_cell_formula_units_Z 16
_cell_length_a 14.751685
_cell_length_b 5.088253
_cell_length_c 25.751284
_cell_angle_alpha 90.000000
_cell_angle_beta 17.652195
_cell_angle_gamma 90.000000
_cell_volume 586.128689
_symmetry_space_group_name_H-M "P 21"
_symmetry_group_IT_number 4
_symmetry_cell_setting 'monoclinic'
loop_
_space_group_symop_operation_xyz
x,y,z
-x,1/2+y,-z
loop_
_atom_site_type_symbol
_atom_site_label
_atom_site_fract_x
_atom_site_fract_y
_atom_site_fract_z
Si Si1 0.791219 0.980190 0.620532
Si Si2 0.695274 0.085587 0.383393
Si Si3 0.538127 0.679951 0.858402
Si Si4 0.695830 0.141869 0.905427
Si Si5 0.592227 0.238039 0.247140
Si Si6 0.656405 0.893076 0.294365
Si Si7 0.942377 0.219261 0.346296
Si Si8 0.850138 0.984010 0.009831
O O1 0.624235 0.887392 0.765003
O O2 0.023785 0.747558 0.478326
O O3 0.563652 0.981247 0.695403
O O4 0.557924 0.372779 0.465457
O O5 0.770828 0.045887 0.282354
O O6 0.948658 0.054770 0.288791
O O7 0.305242 0.727924 0.033077
O O8 0.846812 0.641889 0.721188
O O9 0.369015 0.450646 0.918837
O O10 0.961190 0.014367 0.725669
O O11 0.501703 0.367073 0.983659
O O12 0.446748 0.076223 0.372414
O O13 0.914143 0.275162 0.098593
O O14 0.643713 0.049664 0.170771
O O15 0.403573 0.687593 0.450068
O O16 0.931065 0.731529 0.120954
#
# Coordination Sequence:
#
# PCOD9118093 Si02
#       8
#     2   2   2   2   2   2   2   2
#     4  11  27  47  76 115 149 186 250 311 363 434
#     4  10  25  43  67 105 143 182 235 297 361 427
#     4  10  25  46  74 106 147 201 235 302 373 431
#     4  10  24  45  69 102 146 187 235 294 361 433
#     4  11  25  44  73 102 149 195 247 302 367 447
#     4  11  25  43  75 100 143 195 243 303 369 424
#     4  10  24  46  73 106 144 185 254 302 359 427
#     4  11  25  46  69 104 145 193 247 291 373 449
#
# _framework density 27.297758000000002
#
# number of rings (size 3 to 8) (size 9 to 14) (size 15 to 20)
#    0.000    1.500    1.250    0.750    8.750   13.000 
#    0.000    0.000    0.000    0.000    0.000    0.000 
#    0.000    0.000    0.000    0.000    0.000    0.000 
#
# Total GULP energy -89374.751740 kJ/mol
# GULP energy per Si atom -5585.921984 kJ/mol
# Density = 2.723563 g / cm^3
# Si number density = 27.297758 Si / 1000 Ang^3
#
#
#
# Elastic Constant Matrix: (Units=GPa)
#
#
# Indices 1 2 3 4 5 6 
#
# 1 219.9398 19.6517 37.7784 0.0000 -15.2839 0.0000
# 2 19.6517 70.3957 26.7104 0.0000 2.5943 0.0000
# 3 37.7784 26.7104 87.8474 0.0000 -11.7344 0.0000
# 4 0.0000 0.0000 0.0000 43.9546 0.0000 -6.1236
# 5 -15.2839 2.5943 -11.7344 0.0000 49.0682 0.0000
# 6 0.0000 0.0000 0.0000 -6.1236 0.0000 15.7731
#
#
#
# Elastic Compliance Matrix: (Units=1/GPa)
#
#
# Indices 1 2 3 4 5 6 
#
# 1 0.004999 -0.000772 -0.001758 0.000000 0.001178 0.000000
# 2 -0.000772 0.016386 -0.004956 0.000000 -0.002292 0.000000
# 3 -0.001758 -0.004956 0.014057 0.000000 0.003076 0.000000
# 4 0.000000 0.000000 0.000000 0.024052 0.000000 0.009338
# 5 0.001178 -0.002292 0.003076 0.000000 0.021603 0.000000
# 6 0.000000 0.000000 0.000000 0.009338 0.000000 0.067024
#
#
# Mechanical properties :
#
#
# Convention : Reuss Voigt Hill
#
# Bulk Modulus (GPa) = 48.85193 60.71822 54.78507
# Shear Modulus (GPa) = 29.42591 41.36199 35.39395
#
# Velocity S-wave (km/s) = 3.28679 3.89680 3.60472
# Velocity P-wave (km/s) = 5.68672 6.52211 6.11869
#
# Compressibility (1/GPa) = 0.02047002
#
# Stress axis : x y z
#
# Youngs Moduli (GPa) = 200.02092 61.02758 71.13744
#
# Poissons Ratio (x) = 0.04712 0.12506
# Poissons Ratio (y) = 0.15442 0.35259
# Poissons Ratio (z) = 0.35163 0.30248
#
# Static dielectric constant tensor:
#      x y z
#    x 2.144730 0.000000 0.031890 
#    y 0.000000 2.257960 0.000000 
#    z 0.031890 0.000000 2.283710 
# 
# From -- ./inp_files/16399.got.cif
#   From: 2010.05.17/outbox.cif.g08.bks.cpg/sg4_9_cif.got.tgz:16399.got - 2010.06.03 18:43:04.
