data_PCOD9118236
_publ_section_title
;
Structure prediction by ZEFSAII (Michael W. Deem and Ramdas Pophale) SiO2 
 PCOD9118236
Probable space group: P 21
;
_chemical_formula_sum "Si O2"
_cell_formula_units_Z 16
_cell_length_a 16.951147
_cell_length_b 6.097412
_cell_length_c 11.738204
_cell_angle_alpha 90.000000
_cell_angle_beta 147.946185
_cell_angle_gamma 90.000000
_cell_volume 643.884698
_symmetry_space_group_name_H-M "P 21"
_symmetry_group_IT_number 4
_symmetry_cell_setting 'monoclinic'
loop_
_space_group_symop_operation_xyz
x,y,z
-x,1/2+y,-z
loop_
_atom_site_type_symbol
_atom_site_label
_atom_site_fract_x
_atom_site_fract_y
_atom_site_fract_z
Si Si1 0.289803 0.615420 0.980869
Si Si2 0.383836 0.640257 0.735028
Si Si3 0.911278 0.435008 0.147897
Si Si4 0.936699 0.916387 0.894496
Si Si5 0.445951 0.839501 0.582489
Si Si6 0.847155 0.885950 0.392832
Si Si7 0.299922 0.192483 0.264169
Si Si8 0.692527 0.483124 0.192150
O O1 0.191915 0.722703 0.960178
O O2 0.196171 0.454296 0.786926
O O3 0.317192 0.810626 0.923140
O O4 0.437572 0.501387 0.209063
O O5 0.396808 0.660105 0.615545
O O6 0.280975 0.466491 0.674933
O O7 0.320612 0.868377 0.702941
O O8 0.547862 0.626809 0.989143
O O9 0.039176 0.403114 0.210897
O O10 0.999677 0.476601 0.371714
O O11 0.802990 0.622376 0.968316
O O12 0.779600 0.886119 0.765047
O O13 0.009740 0.671602 0.016852
O O14 0.316081 0.987245 0.370170
O O15 0.540082 0.742481 0.592912
O O16 0.839061 0.625720 0.380945
#
# Coordination Sequence:
#
# PCOD9118236 Si02
#       8
#     2   2   2   2   2   2   2   2
#     4  11  25  43  69 105 141 183 239 294 370 438
#     4  11  22  41  73  99 144 181 235 290 367 432
#     4  11  26  46  71 104 146 195 242 304 370 452
#     4  10  24  50  77 105 148 197 253 313 372 450
#     4  12  25  46  74 103 143 193 239 317 364 439
#     4  11  26  42  69 106 142 191 228 298 365 450
#     4  11  27  47  73 107 145 193 257 309 377 445
#     4  11  21  43  66 107 141 179 237 289 361 450
#
# _framework density 24.849171999999999
#
# number of rings (size 3 to 8) (size 9 to 14) (size 15 to 20)
#    0.000    1.000    2.500    3.000    3.500    6.000 
#    6.750    0.000    0.000    0.000    0.000    0.000 
#    0.000    0.000    0.000    0.000    0.000    0.000 
#
# Total GULP energy -89396.959793 kJ/mol
# GULP energy per Si atom -5587.309987 kJ/mol
# Density = 2.479261 g / cm^3
# Si number density = 24.849172 Si / 1000 Ang^3
#
#
#
# Elastic Constant Matrix: (Units=GPa)
#
#
# Indices 1 2 3 4 5 6 
#
# 1 119.7999 18.0574 -3.8402 0.0000 -5.7830 0.0000
# 2 18.0574 68.7138 20.9658 0.0000 -5.0751 0.0000
# 3 -3.8402 20.9658 97.3640 0.0000 -8.7229 0.0000
# 4 0.0000 0.0000 0.0000 31.4819 0.0000 3.8606
# 5 -5.7830 -5.0751 -8.7229 0.0000 16.8325 0.0000
# 6 0.0000 0.0000 0.0000 3.8606 0.0000 39.3247
#
#
#
# Elastic Compliance Matrix: (Units=1/GPa)
#
#
# Indices 1 2 3 4 5 6 
#
# 1 0.008897 -0.002472 0.001143 0.000000 0.002904 0.000000
# 2 -0.002472 0.016420 -0.003425 0.000000 0.002326 0.000000
# 3 0.001143 -0.003425 0.011531 0.000000 0.005336 0.000000
# 4 0.000000 0.000000 0.000000 0.032151 0.000000 -0.003156
# 5 0.002904 0.002326 0.005336 0.000000 0.063873 0.000000
# 6 0.000000 0.000000 0.000000 -0.003156 0.000000 0.025739
#
#
# Mechanical properties :
#
#
# Convention : Reuss Voigt Hill
#
# Bulk Modulus (GPa) = 36.57618 39.58262 38.07940
# Shear Modulus (GPa) = 28.21155 34.24080 31.22618
#
# Velocity S-wave (km/s) = 3.37309 3.71610 3.54874
# Velocity P-wave (km/s) = 5.47006 5.86312 5.67000
#
# Compressibility (1/GPa) = 0.02734020
#
# Stress axis : x y z
#
# Youngs Moduli (GPa) = 112.40077 60.90266 86.72000
#
# Poissons Ratio (x) = 0.15058 -0.09916
# Poissons Ratio (y) = 0.27790 0.29700
# Poissons Ratio (z) = -0.12852 0.20858
#
# Static dielectric constant tensor:
#      x y z
#    x 1.967140 0.000000 0.036910 
#    y 0.000000 2.032050 0.000000 
#    z 0.036910 0.000000 1.943410 
# 
# From -- ./inp_files/12841.got.cif
#   From: 2010.05.17/outbox.cif.g08.bks.cpg/sg4_7_cif.got.tgz:12841.got - 2010.06.03 18:43:04.
