data_PCOD9118882
_publ_section_title
;
Structure prediction by ZEFSAII (Michael W. Deem and Ramdas Pophale) SiO2 
 PCOD9118882
Probable space group: P 21
;
_chemical_formula_sum "Si O2"
_cell_formula_units_Z 16
_cell_length_a 8.846767
_cell_length_b 5.272696
_cell_length_c 19.729407
_cell_angle_alpha 90.000000
_cell_angle_beta 41.994483
_cell_angle_gamma 90.000000
_cell_volume 615.737779
_symmetry_space_group_name_H-M "P 21"
_symmetry_group_IT_number 4
_symmetry_cell_setting 'monoclinic'
loop_
_space_group_symop_operation_xyz
x,y,z
-x,1/2+y,-z
loop_
_atom_site_type_symbol
_atom_site_label
_atom_site_fract_x
_atom_site_fract_y
_atom_site_fract_z
Si Si1 0.894746 0.145280 0.001701
Si Si2 0.538734 0.498574 0.078600
Si Si3 0.981154 0.035549 0.597150
Si Si4 0.368548 0.220807 0.564621
Si Si5 0.337286 0.961967 0.711584
Si Si6 0.501113 0.268817 0.774944
Si Si7 0.287476 0.136214 0.371002
Si Si8 0.860945 0.817886 0.879582
O O1 0.646454 0.270503 0.085490
O O2 0.044303 0.397730 0.972041
O O3 0.890875 0.031317 0.927544
O O4 0.509548 0.722648 0.142446
O O5 0.305063 0.422552 0.122546
O O6 0.721382 0.589970 0.961600
O O7 0.141758 0.131654 0.602338
O O8 0.123723 0.012780 0.480662
O O9 0.858982 0.763586 0.640131
O O10 0.764303 0.218670 0.666482
O O11 0.549611 0.003585 0.480859
O O12 0.332117 0.181934 0.656857
O O13 0.585506 0.841400 0.622808
O O14 0.119872 0.784283 0.771006
O O15 0.346217 0.077835 0.784383
O O16 0.487050 0.528954 0.739985
#
# Coordination Sequence:
#
# PCOD9118882 Si02
#       8
#     2   2   2   2   2   2   2   2
#     4  12  26  48  83 117 155 213 268 334 405 481
#     4  12  27  52  80 116 160 215 270 340 415 481
#     4  11  23  43  74 107 154 198 251 321 389 468
#     4  12  27  47  75 111 156 203 254 320 395 469
#     4  11  27  48  72 117 155 204 266 327 396 482
#     4  11  26  46  76 113 150 205 270 318 400 480
#     4  11  23  46  77 109 153 204 262 322 395 476
#     4  12  27  52  79 114 165 208 275 340 411 483
#
# _framework density 25.985087
#
# number of rings (size 3 to 8) (size 9 to 14) (size 15 to 20)
#    0.000    0.500    5.000    2.250    3.500    5.000 
#    2.250    0.000    0.000    0.000    0.000    0.000 
#    0.000    0.000    0.000    0.000    0.000    0.000 
#
# Total GULP energy -89388.169210 kJ/mol
# GULP energy per Si atom -5586.760576 kJ/mol
# Density = 2.592594 g / cm^3
# Si number density = 25.985087 Si / 1000 Ang^3
#
#
#
# Elastic Constant Matrix: (Units=GPa)
#
#
# Indices 1 2 3 4 5 6 
#
# 1 158.8845 -1.9905 22.0405 0.0000 -23.2480 0.0000
# 2 -1.9905 69.4325 3.7299 0.0000 -7.2398 0.0000
# 3 22.0405 3.7299 64.9806 0.0000 -10.0581 0.0000
# 4 0.0000 0.0000 0.0000 32.6426 0.0000 -0.2511
# 5 -23.2480 -7.2398 -10.0581 0.0000 50.2673 0.0000
# 6 0.0000 0.0000 0.0000 -0.2511 0.0000 26.9534
#
#
#
# Elastic Compliance Matrix: (Units=1/GPa)
#
#
# Indices 1 2 3 4 5 6 
#
# 1 0.007002 0.000612 -0.001956 0.000000 0.002935 0.000000
# 2 0.000612 0.014693 -0.000701 0.000000 0.002259 0.000000
# 3 -0.001956 -0.000701 0.016447 0.000000 0.002285 0.000000
# 4 0.000000 0.000000 0.000000 0.030637 0.000000 0.000285
# 5 0.002935 0.002259 0.002285 0.000000 0.022034 0.000000
# 6 0.000000 0.000000 0.000000 0.000285 0.000000 0.037104
#
#
# Mechanical properties :
#
#
# Convention : Reuss Voigt Hill
#
# Bulk Modulus (GPa) = 29.36724 37.87307 33.62015
# Shear Modulus (GPa) = 34.87777 39.94051 37.40914
#
# Velocity S-wave (km/s) = 3.66761 3.92478 3.79837
# Velocity P-wave (km/s) = 5.40937 5.92833 5.67479
#
# Compressibility (1/GPa) = 0.03405155
#
# Stress axis : x y z
#
# Youngs Moduli (GPa) = 142.80908 68.05859 60.80289
#
# Poissons Ratio (x) = -0.04164 0.11892
# Poissons Ratio (y) = -0.08738 0.04264
# Poissons Ratio (z) = 0.27932 0.04773
#
# Static dielectric constant tensor:
#      x y z
#    x 1.955390 0.000000 0.007920 
#    y 0.000000 3.117170 0.000000 
#    z 0.007920 0.000000 2.187870 
# 
# From -- ./inp_files/15589.got.cif
#   From: 2010.05.17/outbox.cif.g08.bks.cpg/sg4_8_cif.got.tgz:15589.got - 2010.06.03 18:43:04.
