data_PCOD9118050
_publ_section_title
;
Structure prediction by ZEFSAII (Michael W. Deem and Ramdas Pophale) SiO2 
 PCOD9118050
Probable space group: P 21
;
_chemical_formula_sum "Si O2"
_cell_formula_units_Z 16
_cell_length_a 10.189079
_cell_length_b 8.202973
_cell_length_c 11.926184
_cell_angle_alpha 90.000000
_cell_angle_beta 47.260843
_cell_angle_gamma 90.000000
_cell_volume 732.100187
_symmetry_space_group_name_H-M "P 21"
_symmetry_group_IT_number 4
_symmetry_cell_setting 'monoclinic'
loop_
_space_group_symop_operation_xyz
x,y,z
-x,1/2+y,-z
loop_
_atom_site_type_symbol
_atom_site_label
_atom_site_fract_x
_atom_site_fract_y
_atom_site_fract_z
Si Si1 0.100888 0.884030 0.146374
Si Si2 0.225363 0.320099 0.287489
Si Si3 0.113061 0.941773 0.392391
Si Si4 0.432338 0.921216 0.365175
Si Si5 0.787865 0.762786 0.191117
Si Si6 0.882797 0.763213 0.885329
Si Si7 0.592627 0.250060 0.183682
Si Si8 0.753461 0.421493 0.301501
O O1 0.106208 0.854109 0.275934
O O2 0.901120 0.865090 0.214412
O O3 0.157289 0.071352 0.096297
O O4 0.235162 0.773831 0.995527
O O5 0.221803 0.347546 0.155797
O O6 0.422012 0.334333 0.224331
O O7 0.076172 0.426728 0.435902
O O8 0.161707 0.131994 0.344348
O O9 0.269939 0.869606 0.379294
O O10 0.575388 0.785314 0.316581
O O11 0.348877 0.984029 0.529739
O O12 0.538200 0.064677 0.240528
O O13 0.835294 0.576619 0.190469
O O14 0.843747 0.813937 0.034304
O O15 0.091129 0.801656 0.746371
O O16 0.634497 0.330690 0.279043
#
# Coordination Sequence:
#
# PCOD9118050 Si02
#       8
#     2   2   2   2   2   2   2   2
#     4  11  25  43  66  98 135 174 218 274 332 397
#     4  10  24  44  68  93 134 172 220 277 331 397
#     4  10  24  45  65  98 130 173 223 272 336 393
#     4  11  26  44  67  98 135 177 221 279 332 399
#     4  12  25  41  69 101 130 177 223 271 340 392
#     4  11  22  46  67  94 135 172 222 275 331 396
#     4  11  24  45  65  97 136 174 222 273 333 397
#     4  12  24  44  69  99 135 173 225 275 335 397
#
# _framework density 21.854932000000002
#
# number of rings (size 3 to 8) (size 9 to 14) (size 15 to 20)
#    0.000    1.000    3.750    1.500    8.750    1.000 
#    0.000    0.000    0.000    0.000    0.000    0.000 
#    0.000    0.000    0.000    0.000    0.000    0.000 
#
# Total GULP energy -89462.844774 kJ/mol
# GULP energy per Si atom -5591.427798 kJ/mol
# Density = 2.180519 g / cm^3
# Si number density = 21.854932 Si / 1000 Ang^3
#
#
#
# Elastic Constant Matrix: (Units=GPa)
#
#
# Indices 1 2 3 4 5 6 
#
# 1 151.8250 -2.3553 18.0915 0.0000 19.5570 0.0000
# 2 -2.3553 18.9322 10.2896 0.0000 0.4413 0.0000
# 3 18.0915 10.2896 58.9569 0.0000 16.8344 0.0000
# 4 0.0000 0.0000 0.0000 29.7518 0.0000 -8.4117
# 5 19.5570 0.4413 16.8344 0.0000 37.9270 0.0000
# 6 0.0000 0.0000 0.0000 -8.4117 0.0000 17.5404
#
#
#
# Elastic Compliance Matrix: (Units=1/GPa)
#
#
# Indices 1 2 3 4 5 6 
#
# 1 0.007201 0.001881 -0.001685 0.000000 -0.002987 0.000000
# 2 0.001881 0.059495 -0.012008 0.000000 0.003667 0.000000
# 3 -0.001685 -0.012008 0.022085 0.000000 -0.008794 0.000000
# 4 0.000000 0.000000 0.000000 0.038883 0.000000 0.018647
# 5 -0.002987 0.003667 -0.008794 0.000000 0.031768 0.000000
# 6 0.000000 0.000000 0.000000 0.018647 0.000000 0.065953
#
#
# Mechanical properties :
#
#
# Convention : Reuss Voigt Hill
#
# Bulk Modulus (GPa) = 15.34730 31.30732 23.32731
# Shear Modulus (GPa) = 18.46865 30.62307 24.54586
#
# Velocity S-wave (km/s) = 2.91014 3.74732 3.35494
# Velocity P-wave (km/s) = 4.28129 5.75146 5.06995
#
# Compressibility (1/GPa) = 0.06515805
#
# Stress axis : x y z
#
# Youngs Moduli (GPa) = 138.86349 16.80817 45.27861
#
# Poissons Ratio (x) = -0.03162 0.07630
# Poissons Ratio (y) = -0.26126 0.54371
# Poissons Ratio (z) = 0.23401 0.20183
#
# Static dielectric constant tensor:
#      x y z
#    x 1.787090 0.000000 -0.000070 
#    y 0.000000 1.806140 0.000000 
#    z -0.000070 0.000000 1.802160 
# 
# From -- ./inp_files/5576.got.cif
#   From: 2010.05.17/outbox.cif.g08.bks.cpg/sg4_3_cif.got.tgz:5576.got - 2010.06.03 18:43:04.
