data_PCOD9118973
_publ_section_title
;
Structure prediction by ZEFSAII (Michael W. Deem and Ramdas Pophale) SiO2 
 PCOD9118973
Probable space group: P 21
;
_chemical_formula_sum "Si O2"
_cell_formula_units_Z 14
_cell_length_a 7.717853
_cell_length_b 9.143255
_cell_length_c 9.691015
_cell_angle_alpha 90.000000
_cell_angle_beta 51.136752
_cell_angle_gamma 90.000000
_cell_volume 532.483973
_symmetry_space_group_name_H-M "P 21"
_symmetry_group_IT_number 4
_symmetry_cell_setting 'monoclinic'
loop_
_space_group_symop_operation_xyz
x,y,z
-x,1/2+y,-z
loop_
_atom_site_type_symbol
_atom_site_label
_atom_site_fract_x
_atom_site_fract_y
_atom_site_fract_z
Si Si1 0.363329 0.060500 0.870960
Si Si2 0.912043 0.031517 0.238518
Si Si3 0.480899 0.348449 0.688439
Si Si4 0.354022 0.514585 0.996739
Si Si5 0.900510 0.792641 0.465127
Si Si6 0.942088 0.462248 0.357660
Si Si7 0.617784 0.252610 0.257025
O O1 0.458200 0.175674 0.714355
O O2 0.537508 0.037580 0.908086
O O3 0.307076 0.911781 0.821580
O O4 0.130776 0.096981 0.059185
O O5 0.758571 0.912678 0.235217
O O6 0.975283 0.934752 0.339452
O O7 0.747629 0.169957 0.313200
O O8 0.677937 0.427348 0.505065
O O9 0.501527 0.398547 0.838163
O O10 0.101343 0.461198 0.144995
O O11 0.360687 0.655282 0.893147
O O12 0.984490 0.630697 0.386746
O O13 0.637650 0.774706 0.576892
O O14 0.955987 0.839363 0.592088
#
# Coordination Sequence:
#
# PCOD9118973 Si02
#       7
#     2   2   2   2   2   2   2
#     4  12  23  45  76 110 154 203 262 321 393 464
#     4  11  26  48  74 107 159 210 252 319 396 474
#     4  11  26  49  74 114 155 202 264 320 392 473
#     4  11  23  46  77 108 144 205 254 329 382 456
#     4  12  26  49  75 113 157 203 262 329 386 465
#     4  12  25  49  79 113 155 201 271 327 390 455
#     4  11  25  50  71 113 158 198 263 317 393 469
#
# _framework density 26.291872000000001
#
# number of rings (size 3 to 8) (size 9 to 14) (size 15 to 20)
#    0.000    0.571    4.286    4.286    0.000    2.286 
#    7.714    0.000    0.000    0.000    0.000    0.000 
#    0.000    0.000    0.000    0.000    0.000    0.000 
#
# Total GULP energy -78377.955336 kJ/mol
# GULP energy per Si atom -5598.425381 kJ/mol
# Density = 2.623203 g / cm^3
# Si number density = 26.291872 Si / 1000 Ang^3
#
#
#
# Elastic Constant Matrix: (Units=GPa)
#
#
# Indices 1 2 3 4 5 6 
#
# 1 91.3320 24.7505 40.4275 0.0000 -13.7766 0.0000
# 2 24.7505 142.1191 26.7550 0.0000 11.7225 0.0000
# 3 40.4275 26.7550 149.4612 0.0000 -9.1183 0.0000
# 4 0.0000 0.0000 0.0000 48.0908 0.0000 8.2860
# 5 -13.7766 11.7225 -9.1183 0.0000 43.6557 0.0000
# 6 0.0000 0.0000 0.0000 8.2860 0.0000 43.3736
#
#
#
# Elastic Compliance Matrix: (Units=1/GPa)
#
#
# Indices 1 2 3 4 5 6 
#
# 1 0.013493 -0.002129 -0.003012 0.000000 0.004201 0.000000
# 2 -0.002129 0.007844 -0.001011 0.000000 -0.002989 0.000000
# 3 -0.003012 -0.001011 0.007744 0.000000 0.000938 0.000000
# 4 0.000000 0.000000 0.000000 0.021502 0.000000 -0.004108
# 5 0.004201 -0.002989 0.000938 0.000000 0.025231 0.000000
# 6 0.000000 0.000000 0.000000 -0.004108 0.000000 0.023840
#
#
# Mechanical properties :
#
#
# Convention : Reuss Voigt Hill
#
# Bulk Modulus (GPa) = 59.60742 62.97537 61.29139
# Shear Modulus (GPa) = 42.53514 46.42263 44.47889
#
# Velocity S-wave (km/s) = 4.02656 4.20654 4.11753
# Velocity P-wave (km/s) = 6.65869 6.89911 6.77997
#
# Compressibility (1/GPa) = 0.01677644
#
# Stress axis : x y z
#
# Youngs Moduli (GPa) = 74.11198 127.48622 129.13840
#
# Poissons Ratio (x) = 0.27145 0.38900
# Poissons Ratio (y) = 0.15780 0.13050
# Poissons Ratio (z) = 0.22325 0.12883
#
# Static dielectric constant tensor:
#      x y z
#    x 2.113480 0.000000 0.030260 
#    y 0.000000 2.083620 0.000000 
#    z 0.030260 0.000000 2.082600 
# 
# From -- ./inp_files/10780.got.cif
#   From: 2010.05.17/outbox.cif.g08.bks.cpg/sg4_6_cif.got.tgz:10780.got - 2010.06.03 18:43:04.
