data_PCOD9118042
_publ_section_title
;
Structure prediction by ZEFSAII (Michael W. Deem and Ramdas Pophale) SiO2 
 PCOD9118042
Probable space group: P 21
;
_chemical_formula_sum "Si O2"
_cell_formula_units_Z 16
_cell_length_a 9.060080
_cell_length_b 13.808898
_cell_length_c 5.311597
_cell_angle_alpha 90.000000
_cell_angle_beta 67.041218
_cell_angle_gamma 90.000000
_cell_volume 611.891949
_symmetry_space_group_name_H-M "P 21"
_symmetry_group_IT_number 4
_symmetry_cell_setting 'monoclinic'
loop_
_space_group_symop_operation_xyz
x,y,z
-x,1/2+y,-z
loop_
_atom_site_type_symbol
_atom_site_label
_atom_site_fract_x
_atom_site_fract_y
_atom_site_fract_z
Si Si1 0.068985 0.244450 0.920549
Si Si2 0.621279 0.807037 0.569670
Si Si3 0.432440 0.635538 0.475232
Si Si4 0.781815 0.544753 0.168168
Si Si5 0.039173 0.434886 0.298975
Si Si6 0.496981 0.892744 0.165499
Si Si7 0.333926 0.570283 0.030154
Si Si8 0.823889 0.352098 0.830134
O O1 0.209343 0.260087 0.618311
O O2 0.124026 0.140960 0.003574
O O3 0.892039 0.254339 0.911465
O O4 0.062951 0.339184 0.107690
O O5 0.483791 0.731491 0.587502
O O6 0.591097 0.837058 0.876738
O O7 0.585580 0.885124 0.374590
O O8 0.602501 0.579231 0.345743
O O9 0.366567 0.642781 0.237075
O O10 0.306467 0.592847 0.756169
O O11 0.900318 0.510261 0.310760
O O12 0.766709 0.439821 0.044591
O O13 0.197089 0.497693 0.207761
O O14 0.983255 0.394989 0.600658
O O15 0.504055 0.005166 0.089171
O O16 0.318089 0.850240 0.278967
#
# Coordination Sequence:
#
# PCOD9118042 Si02
#       8
#     2   2   2   2   2   2   2   2
#     4  10  24  44  67  96 135 179 227 280 343 411
#     4  11  25  45  69 101 135 179 230 285 342 404
#     4  11  25  45  69 101 135 179 230 285 342 404
#     4  10  24  44  67  96 135 179 227 280 343 411
#     4  11  25  43  68  99 136 182 226 278 345 408
#     4  12  24  43  71  99 137 176 229 283 343 403
#     4  12  24  43  71  99 137 176 229 283 343 403
#     4  11  25  43  68  99 136 182 226 278 345 408
#
# _framework density 26.148406000000001
#
# number of rings (size 3 to 8) (size 9 to 14) (size 15 to 20)
#    0.000    1.000    2.500    3.000    7.000    3.000 
#    0.000    0.000    0.000    0.000    0.000    0.000 
#    0.000    0.000    0.000    0.000    0.000    0.000 
#
# Total GULP energy -89316.199701 kJ/mol
# GULP energy per Si atom -5582.262481 kJ/mol
# Density = 2.608889 g / cm^3
# Si number density = 26.148406 Si / 1000 Ang^3
#
#
#
# Elastic Constant Matrix: (Units=GPa)
#
#
# Indices 1 2 3 4 5 6 
#
# 1 94.6513 -9.5650 7.4766 0.0000 5.6935 0.0000
# 2 -9.5650 71.6880 15.0140 0.0000 -5.7035 0.0000
# 3 7.4766 15.0140 86.4078 0.0000 -7.7162 0.0000
# 4 0.0000 0.0000 0.0000 28.9922 0.0000 -7.5754
# 5 5.6935 -5.7035 -7.7162 0.0000 24.4786 0.0000
# 6 0.0000 0.0000 0.0000 -7.5754 0.0000 43.7527
#
#
#
# Elastic Compliance Matrix: (Units=1/GPa)
#
#
# Indices 1 2 3 4 5 6 
#
# 1 0.010998 0.001562 -0.001460 0.000000 -0.002654 0.000000
# 2 0.001562 0.014868 -0.002512 0.000000 0.002309 0.000000
# 3 -0.001460 -0.002512 0.012465 0.000000 0.003683 0.000000
# 4 0.000000 0.000000 0.000000 0.036126 0.000000 0.006255
# 5 -0.002654 0.002309 0.003683 0.000000 0.043168 0.000000
# 6 0.000000 0.000000 0.000000 0.006255 0.000000 0.023939
#
#
# Mechanical properties :
#
#
# Convention : Reuss Voigt Hill
#
# Bulk Modulus (GPa) = 29.84217 30.95538 30.39877
# Shear Modulus (GPa) = 31.73503 35.43280 33.58392
#
# Velocity S-wave (km/s) = 3.48753 3.68511 3.58768
# Velocity P-wave (km/s) = 5.25876 5.47456 5.36774
#
# Compressibility (1/GPa) = 0.03350963
#
# Stress axis : x y z
#
# Youngs Moduli (GPa) = 90.92612 67.26025 80.22569
#
# Poissons Ratio (x) = -0.10506 0.11713
# Poissons Ratio (y) = -0.14203 0.20155
# Poissons Ratio (z) = 0.13276 0.16898
#
# Static dielectric constant tensor:
#      x y z
#    x 2.131990 0.000000 0.020740 
#    y 0.000000 2.259320 0.000000 
#    z 0.020740 0.000000 2.066260 
# 
# From -- ./inp_files/1553.got.cif
#   From: 2010.05.17/outbox.cif.g08.bks.cpg/sg4_1_cif.got.tgz:1553.got - 2010.06.03 18:43:04.
