data_PCOD9118244
_publ_section_title
;
Structure prediction by ZEFSAII (Michael W. Deem and Ramdas Pophale) SiO2 
 PCOD9118244
Probable space group: P 21
;
_chemical_formula_sum "Si O2"
_cell_formula_units_Z 12
_cell_length_a 14.489866
_cell_length_b 5.412615
_cell_length_c 6.129706
_cell_angle_alpha 90.000000
_cell_angle_beta 75.294128
_cell_angle_gamma 90.000000
_cell_volume 464.992749
_symmetry_space_group_name_H-M "P 21"
_symmetry_group_IT_number 4
_symmetry_cell_setting 'monoclinic'
loop_
_space_group_symop_operation_xyz
x,y,z
-x,1/2+y,-z
loop_
_atom_site_type_symbol
_atom_site_label
_atom_site_fract_x
_atom_site_fract_y
_atom_site_fract_z
Si Si1 0.046424 0.739300 0.625750
Si Si2 0.862687 0.676714 0.438414
Si Si3 0.727641 0.983420 0.839777
Si Si4 0.387876 0.257801 0.712853
Si Si5 0.885653 0.905934 0.048634
Si Si6 0.383898 0.757022 0.441344
O O1 0.088997 0.501310 0.724393
O O2 0.972682 0.677164 0.480321
O O3 0.141119 0.881208 0.503422
O O4 0.979510 0.850304 0.857792
O O5 0.788434 0.819168 0.632873
O O6 0.843333 0.661805 0.185681
O O7 0.668350 0.194584 0.755107
O O8 0.660102 0.802508 0.022902
O O9 0.811249 0.061354 0.959596
O O10 0.362671 0.511059 0.597948
O O11 0.502362 0.256147 0.668780
O O12 0.363097 0.010621 0.587146
#
# Coordination Sequence:
#
# PCOD9118244 Si02
#       6
#     2   2   2   2   2   2
#     4  11  22  42  70  90 138 194 234 298 368 437
#     4  11  23  44  67 102 138 187 249 298 369 441
#     4  11  26  48  72 116 142 190 254 312 376 451
#     4  10  24  51  81 110 153 201 248 307 385 463
#     4  11  23  44  67 102 138 187 249 298 369 441
#     4  10  24  51  81 110 153 201 248 307 385 463
#
# _framework density 25.806854000000001
#
# number of rings (size 3 to 8) (size 9 to 14) (size 15 to 20)
#    0.000    1.333    3.333    1.000    0.000    5.333 
#   18.000    0.000    0.000    0.000    0.000    0.000 
#    0.000    0.000    0.000    0.000    0.000    0.000 
#
# Total GULP energy -66938.236366 kJ/mol
# GULP energy per Si atom -5578.186364 kJ/mol
# Density = 2.574812 g / cm^3
# Si number density = 25.806854 Si / 1000 Ang^3
#
#
#
# Elastic Constant Matrix: (Units=GPa)
#
#
# Indices 1 2 3 4 5 6 
#
# 1 105.3775 27.0442 59.9244 0.0000 0.8868 0.0000
# 2 27.0442 84.4165 46.9973 0.0000 -6.0226 0.0000
# 3 59.9244 46.9973 173.9886 0.0000 -20.7448 0.0000
# 4 0.0000 0.0000 0.0000 24.2103 0.0000 -7.3298
# 5 0.8868 -6.0226 -20.7448 0.0000 49.9364 0.0000
# 6 0.0000 0.0000 0.0000 -7.3298 0.0000 20.2784
#
#
#
# Elastic Compliance Matrix: (Units=1/GPa)
#
#
# Indices 1 2 3 4 5 6 
#
# 1 0.012238 -0.001865 -0.003960 0.000000 -0.002087 0.000000
# 2 -0.001865 0.014228 -0.003148 0.000000 0.000441 0.000000
# 3 -0.003960 -0.003148 0.008338 0.000000 0.003154 0.000000
# 4 0.000000 0.000000 0.000000 0.046380 0.000000 0.016764
# 5 -0.002087 0.000441 0.003154 0.000000 0.021426 0.000000
# 6 0.000000 0.000000 0.000000 0.016764 0.000000 0.055373
#
#
# Mechanical properties :
#
#
# Convention : Reuss Voigt Hill
#
# Bulk Modulus (GPa) = 59.32215 70.19051 64.75633
# Shear Modulus (GPa) = 27.54088 34.20613 30.87350
#
# Velocity S-wave (km/s) = 3.27034 3.64465 3.46255
# Velocity P-wave (km/s) = 6.10713 6.70587 6.41349
#
# Compressibility (1/GPa) = 0.01685711
#
# Stress axis : x y z
#
# Youngs Moduli (GPa) = 81.71424 70.28563 119.93424
#
# Poissons Ratio (x) = 0.13107 0.47494
# Poissons Ratio (y) = 0.15238 0.37758
# Poissons Ratio (z) = 0.32359 0.22128
#
# Static dielectric constant tensor:
#      x y z
#    x 2.165560 0.000000 0.115850 
#    y 0.000000 2.690300 0.000000 
#    z 0.115850 0.000000 2.033330 
# 
# From -- ./inp_files/3320.got.cif
#   From: 2010.05.17/outbox.cif.g08.bks.cpg/sg4_2_cif.got.tgz:3320.got - 2010.06.03 18:43:04.
