data_PCOD9118457
_publ_section_title
;
Structure prediction by ZEFSAII (Michael W. Deem and Ramdas Pophale) SiO2 
 PCOD9118457
Probable space group: P 21
;
_chemical_formula_sum "Si O2"
_cell_formula_units_Z 16
_cell_length_a 21.436069
_cell_length_b 5.295462
_cell_length_c 15.595503
_cell_angle_alpha 90.000000
_cell_angle_beta 157.915535
_cell_angle_gamma 90.000000
_cell_volume 665.587389
_symmetry_space_group_name_H-M "P 21"
_symmetry_group_IT_number 4
_symmetry_cell_setting 'monoclinic'
loop_
_space_group_symop_operation_xyz
x,y,z
-x,1/2+y,-z
loop_
_atom_site_type_symbol
_atom_site_label
_atom_site_fract_x
_atom_site_fract_y
_atom_site_fract_z
Si Si1 0.767831 0.806870 0.258813
Si Si2 0.529860 0.471431 0.220461
Si Si3 0.796035 0.806889 0.876895
Si Si4 0.828052 0.499378 0.488911
Si Si5 0.925756 0.615983 0.283294
Si Si6 0.605868 0.663967 0.791936
Si Si7 0.681442 0.810325 0.557175
Si Si8 0.996798 0.819336 0.848651
O O1 0.723326 0.600115 0.273860
O O2 0.847005 0.690454 0.274226
O O3 0.617094 0.985369 0.036499
O O4 0.919921 0.944175 0.497910
O O5 0.693485 0.365901 0.380472
O O6 0.452528 0.304245 0.197106
O O7 0.588642 0.705018 0.354304
O O8 0.665506 0.830051 0.788127
O O9 0.722281 0.669260 0.697803
O O10 0.925652 0.591476 0.069928
O O11 0.883324 0.080286 0.974526
O O12 0.986113 0.350382 0.652637
O O13 0.901522 0.717445 0.643378
O O14 0.769581 0.509619 0.030839
O O15 0.443104 0.512676 0.561898
O O16 0.862576 0.869783 0.751951
#
# Coordination Sequence:
#
# PCOD9118457 Si02
#       8
#     2   2   2   2   2   2   2   2
#     4  11  24  41  70  98 140 195 251 319 377 465
#     4  10  28  45  67 108 152 191 254 322 390 460
#     4  12  27  48  84 113 156 205 265 315 398 471
#     4  11  24  45  70 106 147 202 250 322 390 467
#     4  11  23  43  71 100 144 187 258 308 393 454
#     4  11  27  44  73 108 152 196 252 324 388 462
#     4  11  28  46  77 109 158 196 260 325 398 466
#     4  11  27  50  78 114 153 208 260 323 390 475
#
# _framework density 24.038917000000001
#
# number of rings (size 3 to 8) (size 9 to 14) (size 15 to 20)
#    0.000    1.000    2.500    1.500   12.250    1.000 
#    2.250    0.000    0.000    0.000    0.000    0.000 
#    0.000    0.000    0.000    0.000    0.000    0.000 
#
# Total GULP energy -89220.240730 kJ/mol
# GULP energy per Si atom -5576.265046 kJ/mol
# Density = 2.398420 g / cm^3
# Si number density = 24.038917 Si / 1000 Ang^3
#
#
#
# Elastic Constant Matrix: (Units=GPa)
#
#
# Indices 1 2 3 4 5 6 
#
# 1 167.2589 20.4303 32.4600 0.0000 15.4993 0.0000
# 2 20.4303 50.1760 -1.3294 0.0000 19.3304 0.0000
# 3 32.4600 -1.3294 102.0213 0.0000 -3.0622 0.0000
# 4 0.0000 0.0000 0.0000 29.1603 0.0000 -6.4192
# 5 15.4993 19.3304 -3.0622 0.0000 48.5246 0.0000
# 6 0.0000 0.0000 0.0000 -6.4192 0.0000 15.1930
#
#
#
# Elastic Compliance Matrix: (Units=1/GPa)
#
#
# Indices 1 2 3 4 5 6 
#
# 1 0.006825 -0.002296 -0.002244 0.000000 -0.001407 0.000000
# 2 -0.002296 0.024316 0.000780 0.000000 -0.008904 0.000000
# 3 -0.002244 0.000780 0.010558 0.000000 0.001072 0.000000
# 4 0.000000 0.000000 0.000000 0.037810 0.000000 0.015975
# 5 -0.001407 -0.008904 0.001072 0.000000 0.024672 0.000000
# 6 0.000000 0.000000 0.000000 0.015975 0.000000 0.072569
#
#
# Mechanical properties :
#
#
# Convention : Reuss Voigt Hill
#
# Bulk Modulus (GPa) = 29.25757 46.95312 38.10535
# Shear Modulus (GPa) = 25.55416 36.43528 30.99472
#
# Velocity S-wave (km/s) = 3.26396 3.89740 3.59466
# Velocity P-wave (km/s) = 5.13828 6.31090 5.75453
#
# Compressibility (1/GPa) = 0.03417919
#
# Stress axis : x y z
#
# Youngs Moduli (GPa) = 146.51908 41.12554 94.71415
#
# Poissons Ratio (x) = 0.09444 0.21251
# Poissons Ratio (y) = 0.33648 -0.07390
# Poissons Ratio (z) = 0.32874 -0.03209
#
# Static dielectric constant tensor:
#      x y z
#    x 1.971970 0.000000 -0.100750 
#    y 0.000000 1.986960 0.000000 
#    z -0.100750 0.000000 2.103420 
# 
# From -- ./inp_files/10183.got.cif
#   From: 2010.05.17/outbox.cif.g08.bks.cpg/sg4_6_cif.got.tgz:10183.got - 2010.06.03 18:43:04.
