data_PCOD9118712
_publ_section_title
;
Structure prediction by ZEFSAII (Michael W. Deem and Ramdas Pophale) SiO2 
 PCOD9118712
Probable space group: P 21
;
_chemical_formula_sum "Si O2"
_cell_formula_units_Z 16
_cell_length_a 17.671917
_cell_length_b 5.550831
_cell_length_c 19.902594
_cell_angle_alpha 90.000000
_cell_angle_beta 20.675734
_cell_angle_gamma 90.000000
_cell_volume 689.323027
_symmetry_space_group_name_H-M "P 21"
_symmetry_group_IT_number 4
_symmetry_cell_setting 'monoclinic'
loop_
_space_group_symop_operation_xyz
x,y,z
-x,1/2+y,-z
loop_
_atom_site_type_symbol
_atom_site_label
_atom_site_fract_x
_atom_site_fract_y
_atom_site_fract_z
Si Si1 0.922809 0.131790 0.506274
Si Si2 0.128379 0.926204 0.582433
Si Si3 0.650193 0.991546 0.985186
Si Si4 0.404793 0.531293 0.551658
Si Si5 0.518846 0.617182 0.311093
Si Si6 0.711372 0.311228 0.805435
Si Si7 0.020914 0.196642 0.023734
Si Si8 0.605115 0.789892 0.697687
O O1 0.873983 0.337523 0.492950
O O2 0.886100 0.174848 0.614814
O O3 0.744934 0.935959 0.634405
O O4 0.169174 0.065103 0.288989
O O5 0.315405 0.787154 0.465292
O O6 0.214782 0.195556 0.504104
O O7 0.886021 0.899395 0.808103
O O8 0.681052 0.201291 0.903385
O O9 0.530989 0.092530 0.149485
O O10 0.493151 0.817996 0.073375
O O11 0.460285 0.277050 0.542314
O O12 0.452323 0.480130 0.434249
O O13 0.165237 0.616159 0.769932
O O14 0.544611 0.454885 0.223543
O O15 0.746805 0.738840 0.136169
O O16 0.960690 0.452793 0.038296
#
# Coordination Sequence:
#
# PCOD9118712 Si02
#       8
#     2   2   2   2   2   2   2   2
#     4  11  22  44  66  96 135 186 230 314 365 438
#     4  11  25  47  66  99 149 183 240 294 369 444
#     4  12  24  42  69 102 135 186 248 306 357 442
#     4  12  25  49  80 117 154 190 247 303 360 440
#     4  11  28  46  77 102 150 200 230 290 378 428
#     4  12  22  40  72  98 132 182 250 302 380 412
#     4  12  25  49  80 117 154 190 247 303 360 440
#     4  11  25  47  66  99 149 183 240 294 369 444
#
# _framework density 23.211181
#
# number of rings (size 3 to 8) (size 9 to 14) (size 15 to 20)
#    0.000    0.500    5.000    3.000    3.500    2.000 
#    0.000    0.000    0.000    0.000    0.000    0.000 
#    0.000    0.000    0.000    0.000    0.000    0.000 
#
# Total GULP energy -89357.426667 kJ/mol
# GULP energy per Si atom -5584.839167 kJ/mol
# Density = 2.315835 g / cm^3
# Si number density = 23.211181 Si / 1000 Ang^3
#
#
#
# Elastic Constant Matrix: (Units=GPa)
#
#
# Indices 1 2 3 4 5 6 
#
# 1 92.0802 23.7797 39.7421 0.0000 -22.5849 0.0000
# 2 23.7797 65.4875 21.1896 0.0000 -16.1848 0.0000
# 3 39.7421 21.1896 144.9181 0.0000 -19.2221 0.0000
# 4 0.0000 0.0000 0.0000 48.4898 0.0000 3.9765
# 5 -22.5849 -16.1848 -19.2221 0.0000 43.8860 0.0000
# 6 0.0000 0.0000 0.0000 3.9765 0.0000 23.8434
#
#
#
# Elastic Compliance Matrix: (Units=1/GPa)
#
#
# Indices 1 2 3 4 5 6 
#
# 1 0.014026 -0.002988 -0.002759 0.000000 0.004908 0.000000
# 2 -0.002988 0.017859 -0.001192 0.000000 0.004527 0.000000
# 3 -0.002759 -0.001192 0.008052 0.000000 0.001668 0.000000
# 4 0.000000 0.000000 0.000000 0.020909 0.000000 -0.003487
# 5 0.004908 0.004527 0.001668 0.000000 0.027712 0.000000
# 6 0.000000 0.000000 0.000000 -0.003487 0.000000 0.042522
#
#
# Mechanical properties :
#
#
# Convention : Reuss Voigt Hill
#
# Bulk Modulus (GPa) = 38.36956 52.43429 45.40193
# Shear Modulus (GPa) = 32.54282 37.76212 35.15247
#
# Velocity S-wave (km/s) = 3.74843 4.03785 3.89583
# Velocity P-wave (km/s) = 5.94145 6.66169 6.31185
#
# Compressibility (1/GPa) = 0.02606232
#
# Stress axis : x y z
#
# Youngs Moduli (GPa) = 71.29564 55.99326 124.18607
#
# Poissons Ratio (x) = 0.16728 0.34259
# Poissons Ratio (y) = 0.21300 0.14798
# Poissons Ratio (z) = 0.19668 0.06672
#
# Static dielectric constant tensor:
#      x y z
#    x 1.930360 0.000000 -0.047940 
#    y 0.000000 2.016900 0.000000 
#    z -0.047940 0.000000 1.884890 
# 
# From -- ./inp_files/15361.got.cif
#   From: 2010.05.17/outbox.cif.g08.bks.cpg/sg4_8_cif.got.tgz:15361.got - 2010.06.03 18:43:04.
