data_PCOD9118675
_publ_section_title
;
Structure prediction by ZEFSAII (Michael W. Deem and Ramdas Pophale) SiO2 
 PCOD9118675
Probable space group: P 21
;
_chemical_formula_sum "Si O2"
_cell_formula_units_Z 14
_cell_length_a 15.346425
_cell_length_b 4.979503
_cell_length_c 9.966436
_cell_angle_alpha 90.000000
_cell_angle_beta 135.902161
_cell_angle_gamma 90.000000
_cell_volume 529.994083
_symmetry_space_group_name_H-M "P 21"
_symmetry_group_IT_number 4
_symmetry_cell_setting 'monoclinic'
loop_
_space_group_symop_operation_xyz
x,y,z
-x,1/2+y,-z
loop_
_atom_site_type_symbol
_atom_site_label
_atom_site_fract_x
_atom_site_fract_y
_atom_site_fract_z
Si Si1 0.087848 0.389790 0.624086
Si Si2 0.360878 0.499280 0.339402
Si Si3 0.692476 0.831669 0.346006
Si Si4 0.213866 0.132157 0.006410
Si Si5 0.763804 0.314848 0.583538
Si Si6 0.455806 0.805549 0.220215
Si Si7 0.007551 0.432057 0.095444
O O1 0.209980 0.335891 0.666863
O O2 0.022178 0.674605 0.527727
O O3 0.143013 0.338862 0.831795
O O4 0.255399 0.285014 0.187923
O O5 0.298454 0.757859 0.340117
O O6 0.462193 0.415757 0.561621
O O7 0.413644 0.535108 0.248036
O O8 0.752852 0.615120 0.517259
O O9 0.685589 0.137981 0.390177
O O10 0.544485 0.759281 0.191026
O O11 0.331614 0.982834 0.068159
O O12 0.106947 0.922093 0.928832
O O13 0.886657 0.123496 0.722738
O O14 0.030428 0.129235 0.071149
#
# Coordination Sequence:
#
# PCOD9118675 Si02
#       7
#     2   2   2   2   2   2   2
#     4  12  29  56  78 107 149 204 268 320 370 441
#     4  11  22  42  68 109 151 191 238 304 387 456
#     4  11  25  47  74 104 140 203 250 306 367 447
#     4  12  27  45  72 109 150 202 246 316 378 448
#     4  11  23  43  73 103 149 189 246 309 378 449
#     4  11  24  42  71 107 152 193 241 304 384 463
#     4  12  24  39  64 105 145 182 239 301 372 450
#
# _framework density 26.415391
#
# number of rings (size 3 to 8) (size 9 to 14) (size 15 to 20)
#    0.000    0.571    2.857    5.143    8.000    0.000 
#    2.571    0.000    0.000    0.000    0.000    0.000 
#    0.000    0.000    0.000    0.000    0.000    0.000 
#
# Total GULP energy -78234.538618 kJ/mol
# GULP energy per Si atom -5588.181330 kJ/mol
# Density = 2.635527 g / cm^3
# Si number density = 26.415391 Si / 1000 Ang^3
#
#
#
# Elastic Constant Matrix: (Units=GPa)
#
#
# Indices 1 2 3 4 5 6 
#
# 1 156.2873 10.4646 -5.2358 0.0000 -3.9269 0.0000
# 2 10.4646 122.7758 12.5378 0.0000 -9.0188 0.0000
# 3 -5.2358 12.5378 56.2806 0.0000 13.0376 0.0000
# 4 0.0000 0.0000 0.0000 25.8570 0.0000 3.4740
# 5 -3.9269 -9.0188 13.0376 0.0000 21.6052 0.0000
# 6 0.0000 0.0000 0.0000 3.4740 0.0000 30.1172
#
#
#
# Elastic Compliance Matrix: (Units=1/GPa)
#
#
# Indices 1 2 3 4 5 6 
#
# 1 0.006471 -0.000570 0.000595 0.000000 0.000579 0.000000
# 2 -0.000570 0.008952 -0.003359 0.000000 0.005660 0.000000
# 3 0.000595 -0.003359 0.021938 0.000000 -0.014532 0.000000
# 4 0.000000 0.000000 0.000000 0.039283 0.000000 -0.004531
# 5 0.000579 0.005660 -0.014532 0.000000 0.057523 0.000000
# 6 0.000000 0.000000 0.000000 -0.004531 0.000000 0.033726
#
#
# Mechanical properties :
#
#
# Convention : Reuss Voigt Hill
#
# Bulk Modulus (GPa) = 32.57926 41.20856 36.89391
# Shear Modulus (GPa) = 27.05743 36.68769 31.87256
#
# Velocity S-wave (km/s) = 3.20395 3.73081 3.47737
# Velocity P-wave (km/s) = 5.10365 5.84745 5.48816
#
# Compressibility (1/GPa) = 0.03069437
#
# Stress axis : x y z
#
# Youngs Moduli (GPa) = 154.53318 111.70388 45.58272
#
# Poissons Ratio (x) = 0.06364 -0.02711
# Poissons Ratio (y) = 0.08804 0.15309
# Poissons Ratio (z) = -0.09190 0.37516
#
# Static dielectric constant tensor:
#      x y z
#    x 2.213380 0.000000 0.062580 
#    y 0.000000 2.060950 0.000000 
#    z 0.062580 0.000000 2.186350 
# 
# From -- ./inp_files/9069.got.cif
#   From: 2010.05.17/outbox.cif.g08.bks.cpg/sg4_5_cif.got.tgz:9069.got - 2010.06.03 18:43:04.
