data_PCOD9118912
_publ_section_title
;
Structure prediction by ZEFSAII (Michael W. Deem and Ramdas Pophale) SiO2 
 PCOD9118912
Probable space group: P 21
;
_chemical_formula_sum "Si O2"
_cell_formula_units_Z 16
_cell_length_a 6.857456
_cell_length_b 13.771338
_cell_length_c 7.235492
_cell_angle_alpha 90.000000
_cell_angle_beta 58.613913
_cell_angle_gamma 90.000000
_cell_volume 583.312069
_symmetry_space_group_name_H-M "P 21"
_symmetry_group_IT_number 4
_symmetry_cell_setting 'monoclinic'
loop_
_space_group_symop_operation_xyz
x,y,z
-x,1/2+y,-z
loop_
_atom_site_type_symbol
_atom_site_label
_atom_site_fract_x
_atom_site_fract_y
_atom_site_fract_z
Si Si1 0.275314 0.678180 0.853546
Si Si2 0.510092 0.922466 0.447158
Si Si3 0.898983 0.003345 0.812736
Si Si4 0.802083 0.659483 0.492153
Si Si5 0.207104 0.736463 0.500806
Si Si6 0.412120 0.103116 0.768311
Si Si7 0.582702 0.477137 0.914979
Si Si8 0.977733 0.372131 0.900101
O O1 0.551319 0.681937 0.700725
O O2 0.203783 0.594378 0.025995
O O3 0.188899 0.664562 0.686126
O O4 0.136668 0.772421 0.982201
O O5 0.327639 0.833868 0.519656
O O6 0.472864 0.977864 0.272236
O O7 0.478930 0.004657 0.619847
O O8 0.664551 0.948765 0.871663
O O9 0.055614 0.054679 0.578651
O O10 0.014876 0.938861 0.916091
O O11 0.747252 0.658318 0.299188
O O12 0.766966 0.880112 0.308270
O O13 0.973707 0.735178 0.503174
O O14 0.391491 0.680411 0.286836
O O15 0.208371 0.906291 0.155882
O O16 0.331497 0.068756 0.007742
#
# Coordination Sequence:
#
# PCOD9118912 Si02
#       8
#     2   2   2   2   2   2   2   2
#     4  11  28  46  75 115 151 206 261 318 397 461
#     4  11  28  46  74 119 151 204 270 310 399 472
#     4  11  25  48  74 110 152 201 264 312 390 472
#     4  11  24  47  73 106 152 200 257 321 381 473
#     4  11  25  48  75 109 153 204 253 327 383 461
#     4  11  24  48  73 110 151 204 260 315 393 460
#     4  11  23  44  73 105 151 200 251 323 384 453
#     4  11  25  47  75 112 155 197 258 326 379 472
#
# _framework density 27.429573000000001
#
# number of rings (size 3 to 8) (size 9 to 14) (size 15 to 20)
#    0.000    1.000    2.500    3.750    5.250    6.000 
#    0.000    0.000    0.000    0.000    0.000    0.000 
#    0.000    0.000    0.000    0.000    0.000    0.000 
#
# Total GULP energy -89421.658067 kJ/mol
# GULP energy per Si atom -5588.853629 kJ/mol
# Density = 2.736714 g / cm^3
# Si number density = 27.429573 Si / 1000 Ang^3
#
#
#
# Elastic Constant Matrix: (Units=GPa)
#
#
# Indices 1 2 3 4 5 6 
#
# 1 234.2722 56.4860 57.4831 0.0000 -26.6617 0.0000
# 2 56.4860 96.8109 34.9343 0.0000 -5.3609 0.0000
# 3 57.4831 34.9343 94.5499 0.0000 -11.2380 0.0000
# 4 0.0000 0.0000 0.0000 35.6983 0.0000 -9.2708
# 5 -26.6617 -5.3609 -11.2380 0.0000 56.7774 0.0000
# 6 0.0000 0.0000 0.0000 -9.2708 0.0000 41.2724
#
#
#
# Elastic Compliance Matrix: (Units=1/GPa)
#
#
# Indices 1 2 3 4 5 6 
#
# 1 0.005625 -0.002335 -0.002324 0.000000 0.001961 0.000000
# 2 -0.002335 0.012891 -0.003409 0.000000 -0.000554 0.000000
# 3 -0.002324 -0.003409 0.013396 0.000000 0.001238 0.000000
# 4 0.000000 0.000000 0.000000 0.029748 0.000000 0.006682
# 5 0.001961 -0.000554 0.001238 0.000000 0.018726 0.000000
# 6 0.000000 0.000000 0.000000 0.006682 0.000000 0.025730
#
#
# Mechanical properties :
#
#
# Convention : Reuss Voigt Hill
#
# Bulk Modulus (GPa) = 63.38758 80.38218 71.88488
# Shear Modulus (GPa) = 39.21202 45.19826 42.20514
#
# Velocity S-wave (km/s) = 3.78504 4.06371 3.92685
# Velocity P-wave (km/s) = 6.50088 7.16846 6.84282
#
# Compressibility (1/GPa) = 0.01577596
#
# Stress axis : x y z
#
# Youngs Moduli (GPa) = 177.78167 77.57178 74.64764
#
# Poissons Ratio (x) = 0.18111 0.17348
# Poissons Ratio (y) = 0.41507 0.25451
# Poissons Ratio (z) = 0.41317 0.26448
#
# Static dielectric constant tensor:
#      x y z
#    x 2.221100 0.000000 -0.081480 
#    y 0.000000 2.346850 0.000000 
#    z -0.081480 0.000000 2.217510 
# 
# From -- ./inp_files/8347.got.cif
#   From: 2010.05.17/outbox.cif.g08.bks.cpg/sg4_5_cif.got.tgz:8347.got - 2010.06.03 18:43:04.
