data_PCOD9118087
_publ_section_title
;
Structure prediction by ZEFSAII (Michael W. Deem and Ramdas Pophale) SiO2 
 PCOD9118087
Probable space group: P 21
;
_chemical_formula_sum "Si O2"
_cell_formula_units_Z 16
_cell_length_a 9.577261
_cell_length_b 11.127646
_cell_length_c 5.973041
_cell_angle_alpha 90.000000
_cell_angle_beta 81.096607
_cell_angle_gamma 90.000000
_cell_volume 628.891021
_symmetry_space_group_name_H-M "P 21"
_symmetry_group_IT_number 4
_symmetry_cell_setting 'monoclinic'
loop_
_space_group_symop_operation_xyz
x,y,z
-x,1/2+y,-z
loop_
_atom_site_type_symbol
_atom_site_label
_atom_site_fract_x
_atom_site_fract_y
_atom_site_fract_z
Si Si1 0.553386 0.965920 0.558422
Si Si2 0.398381 0.819414 0.923403
Si Si3 0.725565 0.165561 0.677157
Si Si4 0.766961 0.782775 0.311124
Si Si5 0.613442 0.617418 0.671835
Si Si6 0.120736 0.460961 0.076387
Si Si7 0.163514 0.990099 0.103842
Si Si8 0.039535 0.823690 0.498077
O O1 0.490352 0.930389 0.812448
O O2 0.679536 0.876480 0.481621
O O3 0.620621 0.094749 0.551255
O O4 0.445551 0.985357 0.381584
O O5 0.491510 0.710584 0.785750
O O6 0.367150 0.762186 0.169528
O O7 0.243449 0.887160 0.934812
O O8 0.845291 0.222278 0.492327
O O9 0.792537 0.070823 0.836842
O O10 0.687519 0.662955 0.419319
O O11 0.926977 0.768404 0.352415
O O12 0.783708 0.863430 0.082416
O O13 0.729404 0.595870 0.842872
O O14 0.046527 0.380036 0.281791
O O15 0.988201 0.517193 0.970168
O O16 0.119494 0.928879 0.347998
#
# Coordination Sequence:
#
# PCOD9118087 Si02
#       8
#     2   2   2   2   2   2   2   2
#     4  11  24  43  71 100 146 183 229 299 345 423
#     4  10  24  45  67 104 135 188 235 279 354 426
#     4  11  24  45  73 105 139 189 235 291 364 411
#     4  10  24  47  68 110 134 187 239 287 355 420
#     4  11  25  45  69 103 144 182 237 290 354 418
#     4  11  24  48  76  98 147 185 232 302 350 420
#     4  10  25  46  69 105 139 181 239 292 351 418
#     4  10  24  45  69 107 142 175 242 300 341 424
#
# _framework density 25.441611999999999
#
# number of rings (size 3 to 8) (size 9 to 14) (size 15 to 20)
#    0.000    1.500    1.250    1.500    5.250    4.000 
#   11.250    0.000    0.000    0.000    0.000    0.000 
#    0.000    0.000    0.000    0.000    0.000    0.000 
#
# Total GULP energy -89177.402308 kJ/mol
# GULP energy per Si atom -5573.587644 kJ/mol
# Density = 2.538371 g / cm^3
# Si number density = 25.441612 Si / 1000 Ang^3
#
#
#
# Elastic Constant Matrix: (Units=GPa)
#
#
# Indices 1 2 3 4 5 6 
#
# 1 63.8982 39.9478 32.6670 0.0000 -9.6818 0.0000
# 2 39.9478 99.8171 35.8423 0.0000 -2.5337 0.0000
# 3 32.6670 35.8423 84.3119 0.0000 -28.6161 0.0000
# 4 0.0000 0.0000 0.0000 30.3918 0.0000 -2.1806
# 5 -9.6818 -2.5337 -28.6161 0.0000 49.2274 0.0000
# 6 0.0000 0.0000 0.0000 -2.1806 0.0000 32.5098
#
#
#
# Elastic Compliance Matrix: (Units=1/GPa)
#
#
# Indices 1 2 3 4 5 6 
#
# 1 0.023176 -0.007248 -0.005579 0.000000 0.000942 0.000000
# 2 -0.007248 0.014428 -0.004431 0.000000 -0.003259 0.000000
# 3 -0.005579 -0.004431 0.019255 0.000000 0.009868 0.000000
# 4 0.000000 0.000000 0.000000 0.033063 0.000000 0.002218
# 5 0.000942 -0.003259 0.009868 0.000000 0.026068 0.000000
# 6 0.000000 0.000000 0.000000 0.002218 0.000000 0.030909
#
#
# Mechanical properties :
#
#
# Convention : Reuss Voigt Hill
#
# Bulk Modulus (GPa) = 44.75668 51.66016 48.20842
# Shear Modulus (GPa) = 26.47450 31.73047 29.10249
#
# Velocity S-wave (km/s) = 3.22933 3.53539 3.38582
# Velocity P-wave (km/s) = 5.61559 6.08397 5.85447
#
# Compressibility (1/GPa) = 0.02234303
#
# Stress axis : x y z
#
# Youngs Moduli (GPa) = 43.14800 69.31196 51.93444
#
# Poissons Ratio (x) = 0.50239 0.28972
# Poissons Ratio (y) = 0.31275 0.23012
# Poissons Ratio (z) = 0.24070 0.30712
#
# Static dielectric constant tensor:
#      x y z
#    x 1.995830 0.000000 0.035560 
#    y 0.000000 2.073650 0.000000 
#    z 0.035560 0.000000 2.021070 
# 
# From -- ./inp_files/1409.got.cif
#   From: 2010.05.17/outbox.cif.g08.bks.cpg/sg4_1_cif.got.tgz:1409.got - 2010.06.03 18:43:04.
