data_PCOD9118099
_publ_section_title
;
Structure prediction by ZEFSAII (Michael W. Deem and Ramdas Pophale) SiO2 
 PCOD9118099
Probable space group: P 21
;
_chemical_formula_sum "Si O2"
_cell_formula_units_Z 14
_cell_length_a 13.684400
_cell_length_b 7.722146
_cell_length_c 4.791205
_cell_angle_alpha 90.000000
_cell_angle_beta 104.513827
_cell_angle_gamma 90.000000
_cell_volume 490.143215
_symmetry_space_group_name_H-M "P 21"
_symmetry_group_IT_number 4
_symmetry_cell_setting 'monoclinic'
loop_
_space_group_symop_operation_xyz
x,y,z
-x,1/2+y,-z
loop_
_atom_site_type_symbol
_atom_site_label
_atom_site_fract_x
_atom_site_fract_y
_atom_site_fract_z
Si Si1 0.701727 0.596820 0.216690
Si Si2 0.837987 0.295252 0.169556
Si Si3 0.539070 0.854629 0.000651
Si Si4 0.390988 0.881364 0.397553
Si Si5 0.153344 0.299757 0.065564
Si Si6 0.718683 0.046374 0.442907
Si Si7 0.942473 0.445681 0.757773
O O1 0.598913 0.673753 0.021031
O O2 0.677609 0.540697 0.519453
O O3 0.788128 0.727391 0.166335
O O4 0.740527 0.419917 0.105677
O O5 0.672151 0.209055 0.574280
O O6 0.882716 0.301843 0.896123
O O7 0.103664 0.131477 0.187367
O O8 0.918688 0.396322 0.422968
O O9 0.449038 0.842271 0.154303
O O10 0.625986 0.973338 0.195201
O O11 0.489165 0.898660 0.673215
O O12 0.197573 0.622738 0.707042
O O13 0.231816 0.406727 0.312866
O O14 0.941899 0.917593 0.084522
#
# Coordination Sequence:
#
# PCOD9118099 Si02
#       7
#     2   2   2   2   2   2   2
#     4  10  24  45  70 103 146 195 248 306 378 450
#     4  10  25  46  70 104 151 200 248 315 382 456
#     4  12  24  43  70 104 141 189 247 307 368 443
#     4  11  26  45  69 101 146 190 242 308 373 442
#     4  11  25  46  76 110 150 202 257 318 382 462
#     4  11  25  44  73 107 145 195 254 309 379 453
#     4  11  25  47  72 107 151 197 256 317 384 452
#
# _framework density 28.563081
#
# number of rings (size 3 to 8) (size 9 to 14) (size 15 to 20)
#    0.000    1.143    0.000    4.286    0.000   18.286 
#    0.000    0.000    0.000    0.000    0.000    0.000 
#    0.000    0.000    0.000    0.000    0.000    0.000 
#
# Total GULP energy -78609.030028 kJ/mol
# GULP energy per Si atom -5614.930716 kJ/mol
# Density = 2.849807 g / cm^3
# Si number density = 28.563081 Si / 1000 Ang^3
#
#
#
# Elastic Constant Matrix: (Units=GPa)
#
#
# Indices 1 2 3 4 5 6 
#
# 1 154.8537 63.5538 50.8169 0.0000 12.9405 0.0000
# 2 63.5538 154.7180 17.3027 0.0000 23.7302 0.0000
# 3 50.8169 17.3027 93.4322 0.0000 25.7022 0.0000
# 4 0.0000 0.0000 0.0000 52.6584 0.0000 9.8954
# 5 12.9405 23.7302 25.7022 0.0000 62.2160 0.0000
# 6 0.0000 0.0000 0.0000 9.8954 0.0000 65.0625
#
#
#
# Elastic Compliance Matrix: (Units=1/GPa)
#
#
# Indices 1 2 3 4 5 6 
#
# 1 0.009371 -0.003523 -0.004827 0.000000 0.001388 0.000000
# 2 -0.003523 0.008221 0.001190 0.000000 -0.002895 0.000000
# 3 -0.004827 0.001190 0.014618 0.000000 -0.005489 0.000000
# 4 0.000000 0.000000 0.000000 0.019549 0.000000 -0.002973
# 5 0.001388 -0.002895 -0.005489 0.000000 0.019156 0.000000
# 6 0.000000 0.000000 0.000000 -0.002973 0.000000 0.015822
#
#
# Mechanical properties :
#
#
# Convention : Reuss Voigt Hill
#
# Bulk Modulus (GPa) = 55.89334 74.03897 64.96615
# Shear Modulus (GPa) = 46.72039 54.07607 50.39823
#
# Velocity S-wave (km/s) = 4.04876 4.35583 4.20510
# Velocity P-wave (km/s) = 6.43952 7.16067 6.80965
#
# Compressibility (1/GPa) = 0.01789122
#
# Stress axis : x y z
#
# Youngs Moduli (GPa) = 106.70874 121.63557 68.41074
#
# Poissons Ratio (x) = 0.42848 0.33019
# Poissons Ratio (y) = 0.37590 -0.08139
# Poissons Ratio (z) = 0.51503 -0.14471
#
# Static dielectric constant tensor:
#      x y z
#    x 2.128620 0.000000 0.042830 
#    y 0.000000 2.355190 0.000000 
#    z 0.042830 0.000000 2.356560 
# 
# From -- ./inp_files/3112.got.cif
#   From: 2010.05.17/outbox.cif.g08.bks.cpg/sg4_2_cif.got.tgz:3112.got - 2010.06.03 18:43:04.
