data_PCOD9118513
_publ_section_title
;
Structure prediction by ZEFSAII (Michael W. Deem and Ramdas Pophale) SiO2 
 PCOD9118513
Probable space group: P 21
;
_chemical_formula_sum "Si O2"
_cell_formula_units_Z 14
_cell_length_a 9.486227
_cell_length_b 13.879862
_cell_length_c 5.633768
_cell_angle_alpha 90.000000
_cell_angle_beta 123.665986
_cell_angle_gamma 90.000000
_cell_volume 617.374707
_symmetry_space_group_name_H-M "P 21"
_symmetry_group_IT_number 4
_symmetry_cell_setting 'monoclinic'
loop_
_space_group_symop_operation_xyz
x,y,z
-x,1/2+y,-z
loop_
_atom_site_type_symbol
_atom_site_label
_atom_site_fract_x
_atom_site_fract_y
_atom_site_fract_z
Si Si1 0.780171 0.713830 0.875193
Si Si2 0.596157 0.744672 0.205052
Si Si3 0.233205 0.428852 0.673507
Si Si4 0.960009 0.055603 0.886053
Si Si5 0.746511 0.126292 0.069536
Si Si6 0.905778 0.361550 0.862713
Si Si7 0.892153 0.304861 0.368381
O O1 0.695607 0.706251 0.534393
O O2 0.661751 0.732286 0.993127
O O3 0.880555 0.617700 0.039170
O O4 0.923211 0.796459 0.972471
O O5 0.610246 0.860858 0.247540
O O6 0.420135 0.688576 0.053811
O O7 0.151150 0.495087 0.396931
O O8 0.278643 0.512972 0.901708
O O9 0.078579 0.352776 0.570041
O O10 0.829272 0.127046 0.889065
O O11 0.040808 0.972130 0.124850
O O12 0.885300 0.188895 0.346308
O O13 0.802277 0.332138 0.531588
O O14 0.829524 0.346150 0.055584
#
# Coordination Sequence:
#
# PCOD9118513 Si02
#       7
#     2   2   2   2   2   2   2
#     4  12  23  47  69 103 139 191 232 292 353 418
#     4  12  28  47  68 104 158 181 223 298 371 421
#     4  11  24  47  70 103 144 185 239 298 348 416
#     4  11  23  42  78  99 133 189 252 288 343 419
#     4  12  26  45  73 107 141 193 233 289 366 429
#     4  11  20  41  70 100 131 173 240 298 331 392
#     4  11  22  41  72 102 132 178 243 293 330 413
#
# _framework density 22.676669
#
# number of rings (size 3 to 8) (size 9 to 14) (size 15 to 20)
#    0.000    0.571    7.143    0.857    4.000    0.000 
#    7.714    0.000    0.000    0.000    0.000    0.000 
#    0.000    0.000    0.000    0.000    0.000    0.000 
#
# Total GULP energy -77962.619392 kJ/mol
# GULP energy per Si atom -5568.758528 kJ/mol
# Density = 2.262506 g / cm^3
# Si number density = 22.676669 Si / 1000 Ang^3
#
#
#
# Elastic Constant Matrix: (Units=GPa)
#
#
# Indices 1 2 3 4 5 6 
#
# 1 65.5419 36.5257 43.6912 0.0000 -5.3093 0.0000
# 2 36.5257 108.7316 15.1297 0.0000 24.1536 0.0000
# 3 43.6912 15.1297 94.5020 0.0000 -23.9108 0.0000
# 4 0.0000 0.0000 0.0000 42.3823 0.0000 1.6816
# 5 -5.3093 24.1536 -23.9108 0.0000 27.8850 0.0000
# 6 0.0000 0.0000 0.0000 1.6816 0.0000 34.6080
#
#
#
# Elastic Compliance Matrix: (Units=1/GPa)
#
#
# Indices 1 2 3 4 5 6 
#
# 1 0.027133 -0.008538 -0.010216 0.000000 0.003802 0.000000
# 2 -0.008538 0.016881 -0.003660 0.000000 -0.019386 0.000000
# 3 -0.010216 -0.003660 0.020690 0.000000 0.018967 0.000000
# 4 0.000000 0.000000 0.000000 0.023640 0.000000 -0.001149
# 5 0.003802 -0.019386 0.018967 0.000000 0.069641 0.000000
# 6 0.000000 0.000000 0.000000 -0.001149 0.000000 0.028951
#
#
# Mechanical properties :
#
#
# Convention : Reuss Voigt Hill
#
# Bulk Modulus (GPa) = 50.31199 51.05206 50.68203
# Shear Modulus (GPa) = 20.97403 32.53697 26.75550
#
# Velocity S-wave (km/s) = 3.04454 3.79201 3.43865
# Velocity P-wave (km/s) = 5.88165 6.46022 6.17771
#
# Compressibility (1/GPa) = 0.01987598
#
# Stress axis : x y z
#
# Youngs Moduli (GPa) = 36.85498 59.23871 48.33288
#
# Poissons Ratio (x) = 0.50577 0.49376
# Poissons Ratio (y) = 0.31466 0.17692
# Poissons Ratio (z) = 0.37650 0.21684
#
# Static dielectric constant tensor:
#      x y z
#    x 1.905380 0.000000 -0.045160 
#    y 0.000000 1.911980 0.000000 
#    z -0.045160 0.000000 1.964370 
# 
# From -- ./inp_files/1861.got.cif
#   From: 2010.05.17/outbox.cif.g08.bks.cpg/sg4_1_cif.got.tgz:1861.got - 2010.06.03 18:43:04.
