data_PCOD9118349
_publ_section_title
;
Structure prediction by ZEFSAII (Michael W. Deem and Ramdas Pophale) SiO2 
 PCOD9118349
Probable space group: P 21
;
_chemical_formula_sum "Si O2"
_cell_formula_units_Z 16
_cell_length_a 16.308843
_cell_length_b 5.509254
_cell_length_c 12.101789
_cell_angle_alpha 90.000000
_cell_angle_beta 141.099368
_cell_angle_gamma 90.000000
_cell_volume 682.818936
_symmetry_space_group_name_H-M "P 21"
_symmetry_group_IT_number 4
_symmetry_cell_setting 'monoclinic'
loop_
_space_group_symop_operation_xyz
x,y,z
-x,1/2+y,-z
loop_
_atom_site_type_symbol
_atom_site_label
_atom_site_fract_x
_atom_site_fract_y
_atom_site_fract_z
Si Si1 0.655704 0.824650 0.195820
Si Si2 0.845035 0.267147 0.905027
Si Si3 0.158307 0.270337 0.225938
Si Si4 0.265371 0.013772 0.532695
Si Si5 0.764822 0.503836 0.029604
Si Si6 0.003492 0.833371 0.321074
Si Si7 0.503973 0.184825 0.184369
Si Si8 0.866467 0.188681 0.317373
O O1 0.722776 0.598146 0.327455
O O2 0.584022 0.955009 0.223267
O O3 0.765295 0.988476 0.253642
O O4 0.550957 0.788596 0.989490
O O5 0.811956 0.519793 0.808280
O O6 0.810576 0.018850 0.805598
O O7 0.775966 0.294661 0.950557
O O8 0.002375 0.267429 0.083975
O O9 0.235961 0.235701 0.421039
O O10 0.134891 0.848385 0.388504
O O11 0.396549 0.864560 0.650979
O O12 0.784692 0.402236 0.174477
O O13 0.886206 0.688486 0.141539
O O14 0.623410 0.624151 0.878661
O O15 0.042148 0.727384 0.481352
O O16 0.953745 0.096781 0.306206
#
# Coordination Sequence:
#
# PCOD9118349 Si02
#       8
#     2   2   2   2   2   2   2   2
#     4  12  24  43  66 103 152 199 248 295 367 455
#     4  10  25  47  77 112 148 185 252 325 392 443
#     4  10  25  48  77 113 143 188 254 327 386 444
#     4  12  27  42  75 107 146 198 249 311 378 447
#     4  12  27  42  72 106 148 199 242 310 384 446
#     4  12  24  39  66 109 150 194 246 308 369 450
#     4  12  25  44  68 105 152 204 246 294 375 468
#     4  12  23  39  63 105 155 189 251 300 367 443
#
# _framework density 23.432274
#
# number of rings (size 3 to 8) (size 9 to 14) (size 15 to 20)
#    0.000    0.500    5.000    3.000   10.500    0.000 
#    0.000    0.000    2.750    0.000    0.000    0.000 
#    0.000    0.000    0.000    0.000    0.000    0.000 
#
# Total GULP energy -89545.111279 kJ/mol
# GULP energy per Si atom -5596.569455 kJ/mol
# Density = 2.337894 g / cm^3
# Si number density = 23.432274 Si / 1000 Ang^3
#
#
#
# Elastic Constant Matrix: (Units=GPa)
#
#
# Indices 1 2 3 4 5 6 
#
# 1 93.0607 51.2849 66.5957 0.0000 2.7955 0.0000
# 2 51.2849 95.0463 50.5766 0.0000 3.6147 0.0000
# 3 66.5957 50.5766 109.4316 0.0000 10.9041 0.0000
# 4 0.0000 0.0000 0.0000 46.1074 0.0000 -2.3501
# 5 2.7955 3.6147 10.9041 0.0000 40.2109 0.0000
# 6 0.0000 0.0000 0.0000 -2.3501 0.0000 40.3255
#
#
#
# Elastic Compliance Matrix: (Units=1/GPa)
#
#
# Indices 1 2 3 4 5 6 
#
# 1 0.021568 -0.006133 -0.010480 0.000000 0.001894 0.000000
# 2 -0.006133 0.015707 -0.003524 0.000000 -0.000030 0.000000
# 3 -0.010480 -0.003524 0.017513 0.000000 -0.003704 0.000000
# 4 0.000000 0.000000 0.000000 0.021753 0.000000 0.001268
# 5 0.001894 -0.000030 -0.003704 0.000000 0.025744 0.000000
# 6 0.000000 0.000000 0.000000 0.001268 0.000000 0.024872
#
#
# Mechanical properties :
#
#
# Convention : Reuss Voigt Hill
#
# Bulk Modulus (GPa) = 68.89485 70.49476 69.69481
# Shear Modulus (GPa) = 29.02434 33.93419 31.47926
#
# Velocity S-wave (km/s) = 3.52326 3.80963 3.66924
# Velocity P-wave (km/s) = 6.78356 7.03568 6.91077
#
# Compressibility (1/GPa) = 0.01451487
#
# Stress axis : x y z
#
# Youngs Moduli (GPa) = 46.36486 63.66659 57.09963
#
# Poissons Ratio (x) = 0.39048 0.59838
# Poissons Ratio (y) = 0.28437 0.20121
# Poissons Ratio (z) = 0.48588 0.22435
#
# Static dielectric constant tensor:
#      x y z
#    x 1.872120 0.000000 -0.011130 
#    y 0.000000 2.016330 0.000000 
#    z -0.011130 0.000000 1.911120 
# 
# From -- ./inp_files/12512.got.cif
#   From: 2010.05.17/outbox.cif.g08.bks.cpg/sg4_7_cif.got.tgz:12512.got - 2010.06.03 18:43:04.
