data_PCOD9118653
_publ_section_title
;
Structure prediction by ZEFSAII (Michael W. Deem and Ramdas Pophale) SiO2 
 PCOD9118653
Probable space group: P 21
;
_chemical_formula_sum "Si O2"
_cell_formula_units_Z 16
_cell_length_a 8.327523
_cell_length_b 8.668328
_cell_length_c 17.397439
_cell_angle_alpha 90.000000
_cell_angle_beta 144.277877
_cell_angle_gamma 90.000000
_cell_volume 733.231816
_symmetry_space_group_name_H-M "P 21"
_symmetry_group_IT_number 4
_symmetry_cell_setting 'monoclinic'
loop_
_space_group_symop_operation_xyz
x,y,z
-x,1/2+y,-z
loop_
_atom_site_type_symbol
_atom_site_label
_atom_site_fract_x
_atom_site_fract_y
_atom_site_fract_z
Si Si1 0.173263 0.980100 0.155902
Si Si2 0.173633 0.029224 0.443048
Si Si3 0.149396 0.191477 0.287210
Si Si4 0.240411 0.697938 0.484914
Si Si5 0.710549 0.154024 0.740905
Si Si6 0.097462 0.010305 0.769370
Si Si7 0.643173 0.161477 0.298015
Si Si8 0.397092 0.478235 0.143750
O O1 0.281136 0.837823 0.248127
O O2 0.114387 0.128098 0.187857
O O3 0.405110 0.038774 0.186579
O O4 0.891908 0.933471 0.006258
O O5 0.166594 0.042673 0.348628
O O6 0.451342 0.088082 0.591557
O O7 0.931215 0.144533 0.369728
O O8 0.080985 0.858444 0.431217
O O9 0.456259 0.257809 0.420176
O O10 0.945511 0.329059 0.229353
O O11 0.285816 0.627889 0.585684
O O12 0.108590 0.579533 0.375204
O O13 0.987365 0.094688 0.804519
O O14 0.668280 0.094869 0.811913
O O15 0.394231 0.032360 0.843304
O O16 0.531937 0.331085 0.238071
#
# Coordination Sequence:
#
# PCOD9118653 Si02
#       8
#     2   2   2   2   2   2   2   2
#     4  11  28  47  70  98 146 195 242 288 351 419
#     4  12  23  39  69 104 140 168 229 301 363 422
#     4  11  22  43  68 101 142 178 226 296 358 420
#     4  11  22  40  66 104 142 177 226 287 374 425
#     4  12  25  45  75 106 141 189 235 300 359 425
#     4  12  25  43  75 106 141 187 232 292 361 424
#     4  11  25  42  69 101 139 188 231 295 359 415
#     4  12  26  51  68 102 145 196 245 287 341 434
#
# _framework density 21.821203000000001
#
# number of rings (size 3 to 8) (size 9 to 14) (size 15 to 20)
#    0.000    0.500    5.000    3.000    7.000    1.000 
#    2.250    0.000    0.000    0.000    0.000    0.000 
#    0.000    0.000    0.000    0.000    0.000    0.000 
#
# Total GULP energy -89269.465635 kJ/mol
# GULP energy per Si atom -5579.341602 kJ/mol
# Density = 2.177154 g / cm^3
# Si number density = 21.821203 Si / 1000 Ang^3
#
#
#
# Elastic Constant Matrix: (Units=GPa)
#
#
# Indices 1 2 3 4 5 6 
#
# 1 84.0498 14.3524 2.2008 0.0000 10.8027 0.0000
# 2 14.3524 87.9191 5.7911 0.0000 -3.2844 0.0000
# 3 2.2008 5.7911 38.2219 0.0000 2.8167 0.0000
# 4 0.0000 0.0000 0.0000 16.0553 0.0000 -1.4725
# 5 10.8027 -3.2844 2.8167 0.0000 20.8345 0.0000
# 6 0.0000 0.0000 0.0000 -1.4725 0.0000 25.0490
#
#
#
# Elastic Compliance Matrix: (Units=1/GPa)
#
#
# Indices 1 2 3 4 5 6 
#
# 1 0.013246 -0.002443 0.000143 0.000000 -0.007273 0.000000
# 2 -0.002443 0.012028 -0.001934 0.000000 0.003425 0.000000
# 3 0.000143 -0.001934 0.026742 0.000000 -0.003995 0.000000
# 4 0.000000 0.000000 0.000000 0.062623 0.000000 0.003681
# 5 -0.007273 0.003425 -0.003995 0.000000 0.052848 0.000000
# 6 0.000000 0.000000 0.000000 0.003681 0.000000 0.040138
#
#
# Mechanical properties :
#
#
# Convention : Reuss Voigt Hill
#
# Bulk Modulus (GPa) = 22.96307 28.31993 25.64150
# Shear Modulus (GPa) = 21.68168 24.91085 23.29626
#
# Velocity S-wave (km/s) = 3.15557 3.38241 3.27096
# Velocity P-wave (km/s) = 4.88088 5.31607 5.10311
#
# Compressibility (1/GPa) = 0.04354818
#
# Stress axis : x y z
#
# Youngs Moduli (GPa) = 75.49496 83.13726 37.39406
#
# Poissons Ratio (x) = 0.20314 -0.00536
# Poissons Ratio (y) = 0.18447 0.07232
# Poissons Ratio (z) = -0.01083 0.16080
#
# Static dielectric constant tensor:
#      x y z
#    x 1.933920 0.000000 0.044270 
#    y 0.000000 1.839170 0.000000 
#    z 0.044270 0.000000 1.754820 
# 
# From -- ./inp_files/5424.got.cif
#   From: 2010.05.17/outbox.cif.g08.bks.cpg/sg4_3_cif.got.tgz:5424.got - 2010.06.03 18:43:04.
