data_PCOD9118665
_publ_section_title
;
Structure prediction by ZEFSAII (Michael W. Deem and Ramdas Pophale) SiO2 
 PCOD9118665
Probable space group: P 21
;
_chemical_formula_sum "Si O2"
_cell_formula_units_Z 16
_cell_length_a 11.052242
_cell_length_b 8.485671
_cell_length_c 13.801868
_cell_angle_alpha 90.000000
_cell_angle_beta 147.374502
_cell_angle_gamma 90.000000
_cell_volume 697.879667
_symmetry_space_group_name_H-M "P 21"
_symmetry_group_IT_number 4
_symmetry_cell_setting 'monoclinic'
loop_
_space_group_symop_operation_xyz
x,y,z
-x,1/2+y,-z
loop_
_atom_site_type_symbol
_atom_site_label
_atom_site_fract_x
_atom_site_fract_y
_atom_site_fract_z
Si Si1 0.484604 0.931680 0.257193
Si Si2 0.705402 0.742438 0.245658
Si Si3 0.504533 0.929882 0.940750
Si Si4 0.437797 0.703079 0.400659
Si Si5 0.227584 0.724552 0.619878
Si Si6 0.057950 0.136527 0.001923
Si Si7 0.305670 0.893479 0.478036
Si Si8 0.899167 0.952672 0.066220
O O1 0.542402 0.788240 0.224391
O O2 0.478777 0.856132 0.360432
O O3 0.671976 0.062522 0.356025
O O4 0.242907 0.017156 0.083803
O O5 0.654275 0.579877 0.155316
O O6 0.960670 0.727478 0.453759
O O7 0.649791 0.879422 0.130811
O O8 0.359646 0.782313 0.803816
O O9 0.673110 0.981786 0.969893
O O10 0.452931 0.762059 0.521109
O O11 0.599604 0.565359 0.477529
O O12 0.187817 0.635626 0.212480
O O13 0.276255 0.852969 0.569243
O O14 0.141165 0.313212 0.038396
O O15 0.009642 0.093359 0.080642
O O16 0.070594 0.889601 0.262498
#
# Coordination Sequence:
#
# PCOD9118665 Si02
#       8
#     2   2   2   2   2   2   2   2
#     4  12  24  45  72 101 140 185 238 293 356 421
#     4  12  28  48  70 105 138 190 248 289 353 421
#     4  12  26  48  74 100 146 187 239 298 352 416
#     4  11  25  42  67 106 141 181 230 289 356 435
#     4  12  25  47  75  98 141 187 238 304 347 419
#     4  11  22  41  70  99 137 179 227 279 361 417
#     4  11  23  42  67 103 143 178 231 283 357 426
#     4  11  23  43  69 102 142 181 229 287 354 427
#
# _framework density 22.926590000000001
#
# number of rings (size 3 to 8) (size 9 to 14) (size 15 to 20)
#    0.000    0.500    5.000    4.500    0.000    0.000 
#    4.500    0.000    0.000    0.000    0.000    0.000 
#    0.000    0.000    0.000    0.000    0.000    0.000 
#
# Total GULP energy -89496.131654 kJ/mol
# GULP energy per Si atom -5593.508228 kJ/mol
# Density = 2.287441 g / cm^3
# Si number density = 22.926590 Si / 1000 Ang^3
#
#
#
# Elastic Constant Matrix: (Units=GPa)
#
#
# Indices 1 2 3 4 5 6 
#
# 1 58.3837 -8.1192 16.0915 0.0000 9.0808 0.0000
# 2 -8.1192 55.9682 3.9334 0.0000 16.0353 0.0000
# 3 16.0915 3.9334 77.9719 0.0000 12.6897 0.0000
# 4 0.0000 0.0000 0.0000 35.2593 0.0000 -0.7883
# 5 9.0808 16.0353 12.6897 0.0000 31.6644 0.0000
# 6 0.0000 0.0000 0.0000 -0.7883 0.0000 31.7036
#
#
#
# Elastic Compliance Matrix: (Units=1/GPa)
#
#
# Indices 1 2 3 4 5 6 
#
# 1 0.019806 0.005097 -0.003210 0.000000 -0.006975 0.000000
# 2 0.005097 0.022249 -0.000110 0.000000 -0.012685 0.000000
# 3 -0.003210 -0.000110 0.014265 0.000000 -0.004741 0.000000
# 4 0.000000 0.000000 0.000000 0.028377 0.000000 0.000706
# 5 -0.006975 -0.012685 -0.004741 0.000000 0.041905 0.000000
# 6 0.000000 0.000000 0.000000 0.000706 0.000000 0.031560
#
#
# Mechanical properties :
#
#
# Convention : Reuss Voigt Hill
#
# Bulk Modulus (GPa) = 16.70133 24.01503 20.35818
# Shear Modulus (GPa) = 28.64273 31.75334 30.19804
#
# Velocity S-wave (km/s) = 3.53841 3.72560 3.63321
# Velocity P-wave (km/s) = 4.89840 5.38556 5.14775
#
# Compressibility (1/GPa) = 0.05987549
#
# Stress axis : x y z
#
# Youngs Moduli (GPa) = 50.48868 44.94629 70.10389
#
# Poissons Ratio (x) = -0.22910 0.22500
# Poissons Ratio (y) = -0.25735 0.00770
# Poissons Ratio (z) = 0.16204 0.00494
#
# Static dielectric constant tensor:
#      x y z
#    x 1.843230 0.000000 0.003870 
#    y 0.000000 1.873880 0.000000 
#    z 0.003870 0.000000 1.846960 
# 
# From -- ./inp_files/13978.got.cif
#   From: 2010.05.17/outbox.cif.g08.bks.cpg/sg4_7_cif.got.tgz:13978.got - 2010.06.03 18:43:04.
