data_PCOD9118479
_publ_section_title
;
Structure prediction by ZEFSAII (Michael W. Deem and Ramdas Pophale) SiO2 
 PCOD9118479
Probable space group: P 21
;
_chemical_formula_sum "Si O2"
_cell_formula_units_Z 16
_cell_length_a 6.282059
_cell_length_b 16.974976
_cell_length_c 8.199700
_cell_angle_alpha 90.000000
_cell_angle_beta 59.092589
_cell_angle_gamma 90.000000
_cell_volume 750.232128
_symmetry_space_group_name_H-M "P 21"
_symmetry_group_IT_number 4
_symmetry_cell_setting 'monoclinic'
loop_
_space_group_symop_operation_xyz
x,y,z
-x,1/2+y,-z
loop_
_atom_site_type_symbol
_atom_site_label
_atom_site_fract_x
_atom_site_fract_y
_atom_site_fract_z
Si Si1 0.165199 0.285950 0.613388
Si Si2 0.482209 0.669074 0.665017
Si Si3 0.062272 0.370132 0.299734
Si Si4 0.473556 0.910138 0.392111
Si Si5 0.553564 0.468338 0.139457
Si Si6 0.289375 0.026184 0.237633
Si Si7 0.266582 0.545715 0.530280
Si Si8 0.854454 0.306904 0.063135
O O1 0.268404 0.201719 0.517326
O O2 0.095327 0.328611 0.467244
O O3 0.401216 0.329350 0.605288
O O4 0.969047 0.288556 0.839029
O O5 0.551803 0.598023 0.757291
O O6 0.309097 0.629394 0.596554
O O7 0.343474 0.740183 0.809337
O O8 0.287761 0.430783 0.191435
O O9 0.793489 0.411421 0.416233
O O10 0.043068 0.315291 0.144710
O O11 0.401871 0.940855 0.242397
O O12 0.674969 0.974523 0.368191
O O13 0.472044 0.525729 0.316434
O O14 0.718929 0.391310 0.105951
O O15 0.703356 0.522907 0.957258
O O16 0.014021 0.035565 0.414124
#
# Coordination Sequence:
#
# PCOD9118479 Si02
#       8
#     2   2   2   2   2   2   2   2
#     4  12  25  46  72 102 140 185 230 292 351 407
#     4  11  27  47  61 104 147 181 235 282 349 430
#     4  12  21  43  77 100 138 173 232 296 339 404
#     4  11  19  44  68  98 131 175 226 284 337 404
#     4  12  23  44  71 107 132 179 239 286 347 411
#     4  11  26  42  71 102 140 185 229 286 353 419
#     4  11  23  43  66  95 143 180 219 287 346 410
#     4  12  26  45  74 104 135 182 242 287 340 419
#
# _framework density 21.326733999999998
#
# number of rings (size 3 to 8) (size 9 to 14) (size 15 to 20)
#    0.000    0.500    6.250    2.250    1.750    3.000 
#    0.000    0.000    0.000    0.000    0.000    0.000 
#    0.000    0.000    0.000    0.000    0.000    0.000 
#
# Total GULP energy -89189.087815 kJ/mol
# GULP energy per Si atom -5574.317988 kJ/mol
# Density = 2.127819 g / cm^3
# Si number density = 21.326734 Si / 1000 Ang^3
#
#
#
# Elastic Constant Matrix: (Units=GPa)
#
#
# Indices 1 2 3 4 5 6 
#
# 1 52.8116 16.2216 17.2966 0.0000 9.2110 0.0000
# 2 16.2216 76.9920 40.8955 0.0000 12.3771 0.0000
# 3 17.2966 40.8955 126.0135 0.0000 6.1484 0.0000
# 4 0.0000 0.0000 0.0000 30.8637 0.0000 2.9621
# 5 9.2110 12.3771 6.1484 0.0000 17.8657 0.0000
# 6 0.0000 0.0000 0.0000 2.9621 0.0000 24.9579
#
#
#
# Elastic Compliance Matrix: (Units=1/GPa)
#
#
# Indices 1 2 3 4 5 6 
#
# 1 0.021789 -0.002143 -0.001851 0.000000 -0.009112 0.000000
# 2 -0.002143 0.017577 -0.004953 0.000000 -0.009368 0.000000
# 3 -0.001851 -0.004953 0.009747 0.000000 0.001031 0.000000
# 4 0.000000 0.000000 0.000000 0.032774 0.000000 -0.003890
# 5 -0.009112 -0.009368 0.001031 0.000000 0.066806 0.000000
# 6 0.000000 0.000000 0.000000 -0.003890 0.000000 0.040529
#
#
# Mechanical properties :
#
#
# Convention : Reuss Voigt Hill
#
# Bulk Modulus (GPa) = 32.03162 44.96048 38.49605
# Shear Modulus (GPa) = 22.98632 26.83102 24.90867
#
# Velocity S-wave (km/s) = 3.28657 3.55081 3.42124
# Velocity P-wave (km/s) = 5.42717 6.15942 5.80485
#
# Compressibility (1/GPa) = 0.03121915
#
# Stress axis : x y z
#
# Youngs Moduli (GPa) = 45.89505 56.89377 102.59794
#
# Poissons Ratio (x) = 0.12191 0.18988
# Poissons Ratio (y) = 0.09835 0.50817
# Poissons Ratio (z) = 0.08494 0.28180
#
# Static dielectric constant tensor:
#      x y z
#    x 1.821640 0.000000 0.062640 
#    y 0.000000 1.763760 0.000000 
#    z 0.062640 0.000000 1.817380 
# 
# From -- ./inp_files/4889.got.cif
#   From: 2010.05.17/outbox.cif.g08.bks.cpg/sg4_3_cif.got.tgz:4889.got - 2010.06.03 18:43:04.
