data_PCOD9118083
_publ_section_title
;
Structure prediction by ZEFSAII (Michael W. Deem and Ramdas Pophale) SiO2 
 PCOD9118083
Probable space group: P 21
;
_chemical_formula_sum "Si O2"
_cell_formula_units_Z 16
_cell_length_a 22.831555
_cell_length_b 5.360908
_cell_length_c 10.145474
_cell_angle_alpha 90.000000
_cell_angle_beta 145.529114
_cell_angle_gamma 90.000000
_cell_volume 702.834300
_symmetry_space_group_name_H-M "P 21"
_symmetry_group_IT_number 4
_symmetry_cell_setting 'monoclinic'
loop_
_space_group_symop_operation_xyz
x,y,z
-x,1/2+y,-z
loop_
_atom_site_type_symbol
_atom_site_label
_atom_site_fract_x
_atom_site_fract_y
_atom_site_fract_z
Si Si1 0.146902 0.657730 0.664450
Si Si2 0.400050 0.258716 0.831779
Si Si3 0.266941 0.756609 0.624454
Si Si4 0.934607 0.455502 0.245730
Si Si5 0.761472 0.846235 0.940282
Si Si6 0.776688 0.217737 0.750141
Si Si7 0.556267 0.454003 0.313551
Si Si8 0.454918 0.250539 0.375483
O O1 0.202033 0.762587 0.638298
O O2 0.056175 0.473300 0.447272
O O3 0.085409 0.843186 0.646798
O O4 0.227424 0.539870 0.917825
O O5 0.335976 0.504988 0.749904
O O6 0.432368 0.216357 0.739726
O O7 0.331432 0.014216 0.736871
O O8 0.505652 0.275102 0.109475
O O9 0.203144 0.726435 0.368587
O O10 0.871080 0.711664 0.134268
O O11 0.872843 0.311382 0.016017
O O12 0.746927 0.963520 0.769386
O O13 0.662372 0.689479 0.801600
O O14 0.671327 0.376865 0.568801
O O15 0.477762 0.410223 0.286445
O O16 0.509201 0.979325 0.460855
#
# Coordination Sequence:
#
# PCOD9118083 Si02
#       8
#     2   2   2   2   2   2   2   2
#     4  11  25  47  75 104 137 186 247 296 373 430
#     4  11  26  44  72 104 149 196 239 287 359 424
#     4  11  27  47  73 109 146 190 241 306 350 438
#     4  11  24  47  73 103 137 190 236 307 367 433
#     4  11  24  44  71 100 143 185 235 298 357 431
#     4  10  24  45  66 101 141 182 235 293 361 417
#     4  11  23  45  67 102 144 191 238 284 351 426
#     4  12  27  41  67 105 141 186 233 289 346 427
#
# _framework density 22.764966000000001
#
# number of rings (size 3 to 8) (size 9 to 14) (size 15 to 20)
#    0.000    1.000    2.500    3.000   10.500    2.000 
#    2.250    0.000    0.000    0.000    0.000    0.000 
#    0.000    0.000    0.000    0.000    0.000    0.000 
#
# Total GULP energy -89274.546409 kJ/mol
# GULP energy per Si atom -5579.659151 kJ/mol
# Density = 2.271315 g / cm^3
# Si number density = 22.764966 Si / 1000 Ang^3
#
#
#
# Elastic Constant Matrix: (Units=GPa)
#
#
# Indices 1 2 3 4 5 6 
#
# 1 82.3309 7.2578 24.6410 0.0000 -24.4327 0.0000
# 2 7.2578 76.7886 33.4634 0.0000 -2.2743 0.0000
# 3 24.6410 33.4634 79.4178 0.0000 1.2595 0.0000
# 4 0.0000 0.0000 0.0000 39.7004 0.0000 -0.7452
# 5 -24.4327 -2.2743 1.2595 0.0000 19.8483 0.0000
# 6 0.0000 0.0000 0.0000 -0.7452 0.0000 24.5005
#
#
#
# Elastic Compliance Matrix: (Units=1/GPa)
#
#
# Indices 1 2 3 4 5 6 
#
# 1 0.023309 0.002483 -0.008747 0.000000 0.029533 0.000000
# 2 0.002483 0.016318 -0.007732 0.000000 0.005418 0.000000
# 3 -0.008747 -0.007732 0.018767 0.000000 -0.012844 0.000000
# 4 0.000000 0.000000 0.000000 0.025203 0.000000 0.000767
# 5 0.029533 0.005418 -0.012844 0.000000 0.088172 0.000000
# 6 0.000000 0.000000 0.000000 0.000767 0.000000 0.040839
#
#
# Mechanical properties :
#
#
# Convention : Reuss Voigt Hill
#
# Bulk Modulus (GPa) = 32.89135 41.02909 36.96022
# Shear Modulus (GPa) = 19.94140 28.35484 24.14812
#
# Velocity S-wave (km/s) = 2.96289 3.53306 3.26046
# Velocity P-wave (km/s) = 5.11708 5.89113 5.51770
#
# Compressibility (1/GPa) = 0.03040313
#
# Stress axis : x y z
#
# Youngs Moduli (GPa) = 42.90133 61.28167 53.28415
#
# Poissons Ratio (x) = -0.15219 0.46607
# Poissons Ratio (y) = -0.10654 0.41200
# Poissons Ratio (z) = 0.37526 0.47384
#
# Static dielectric constant tensor:
#      x y z
#    x 1.833710 0.000000 -0.037280 
#    y 0.000000 1.967780 0.000000 
#    z -0.037280 0.000000 1.922070 
# 
# From -- ./inp_files/9875.got.cif
#   From: 2010.05.17/outbox.cif.g08.bks.cpg/sg4_5_cif.got.tgz:9875.got - 2010.06.03 18:43:04.
