data_PCOD9118312
_publ_section_title
;
Structure prediction by ZEFSAII (Michael W. Deem and Ramdas Pophale) SiO2 
 PCOD9118312
Probable space group: P 21
;
_chemical_formula_sum "Si O2"
_cell_formula_units_Z 10
_cell_length_a 8.852710
_cell_length_b 7.489288
_cell_length_c 7.430766
_cell_angle_alpha 90.000000
_cell_angle_beta 54.457956
_cell_angle_gamma 90.000000
_cell_volume 400.874927
_symmetry_space_group_name_H-M "P 21"
_symmetry_group_IT_number 4
_symmetry_cell_setting 'monoclinic'
loop_
_space_group_symop_operation_xyz
x,y,z
-x,1/2+y,-z
loop_
_atom_site_type_symbol
_atom_site_label
_atom_site_fract_x
_atom_site_fract_y
_atom_site_fract_z
Si Si1 0.280557 0.382310 0.539008
Si Si2 0.113728 0.988135 0.132678
Si Si3 0.485422 0.846858 0.293650
Si Si4 0.811269 0.265402 0.268888
Si Si5 0.556213 0.659099 0.887634
O O1 0.372342 0.288761 0.648791
O O2 0.303889 0.589885 0.582417
O O3 0.377907 0.315524 0.291310
O O4 0.058481 0.370933 0.673639
O O5 0.265867 0.046435 0.169009
O O6 0.014881 0.175770 0.140692
O O7 0.196205 0.871886 0.912246
O O8 0.287271 0.897072 0.520670
O O9 0.567802 0.025847 0.143197
O O10 0.466410 0.720627 0.135026
#
# Coordination Sequence:
#
# PCOD9118312 Si02
#       5
#     2   2   2   2   2
#     4  10  26  50  70 106 150 188 241 310 362 439
#     4  10  26  46  75 106 148 193 249 300 364 439
#     4  12  27  45  78 105 151 194 247 305 366 435
#     4  10  25  45  78  99 152 194 240 303 369 424
#     4  12  28  46  75 112 145 193 257 296 365 443
#
# _framework density 24.945433999999999
#
# number of rings (size 3 to 8) (size 9 to 14) (size 15 to 20)
#    1.200    0.000    0.000    3.600   16.800    0.000 
#    3.600    0.000    0.000    0.000    0.000    0.000 
#    0.000    0.000    0.000    0.000    0.000    0.000 
#
# Total GULP energy -55744.650150 kJ/mol
# GULP energy per Si atom -5574.465015 kJ/mol
# Density = 2.488866 g / cm^3
# Si number density = 24.945434 Si / 1000 Ang^3
#
#
#
# Elastic Constant Matrix: (Units=GPa)
#
#
# Indices 1 2 3 4 5 6 
#
# 1 100.3565 32.9379 48.4464 0.0000 11.1101 0.0000
# 2 32.9379 68.9220 33.7382 0.0000 10.6217 0.0000
# 3 48.4464 33.7382 158.7741 0.0000 16.9424 0.0000
# 4 0.0000 0.0000 0.0000 56.0978 0.0000 -0.2414
# 5 11.1101 10.6217 16.9424 0.0000 40.0912 0.0000
# 6 0.0000 0.0000 0.0000 -0.2414 0.0000 40.2394
#
#
#
# Elastic Compliance Matrix: (Units=1/GPa)
#
#
# Indices 1 2 3 4 5 6 
#
# 1 0.012992 -0.004631 -0.002856 0.000000 -0.001167 0.000000
# 2 -0.004631 0.018189 -0.002173 0.000000 -0.002617 0.000000
# 3 -0.002856 -0.002173 0.007839 0.000000 -0.001946 0.000000
# 4 0.000000 0.000000 0.000000 0.017826 0.000000 0.000107
# 5 -0.001167 -0.002617 -0.001946 0.000000 0.026782 0.000000
# 6 0.000000 0.000000 0.000000 0.000107 0.000000 0.024852
#
#
# Mechanical properties :
#
#
# Convention : Reuss Voigt Hill
#
# Bulk Modulus (GPa) = 50.75833 62.03307 56.39570
# Shear Modulus (GPa) = 37.21140 41.48100 39.34620
#
# Velocity S-wave (km/s) = 3.86646 4.08225 3.97582
# Velocity P-wave (km/s) = 6.35016 6.86595 6.61309
#
# Compressibility (1/GPa) = 0.01970120
#
# Stress axis : x y z
#
# Youngs Moduli (GPa) = 76.96909 54.97713 127.56900
#
# Poissons Ratio (x) = 0.25462 0.36430
# Poissons Ratio (y) = 0.35647 0.27716
# Poissons Ratio (z) = 0.21980 0.11945
#
# Static dielectric constant tensor:
#      x y z
#    x 1.928410 0.000000 -0.034050 
#    y 0.000000 2.280310 0.000000 
#    z -0.034050 0.000000 1.956720 
# 
# From -- ./inp_files/924.got.cif
#   From: 2010.05.17/outbox.cif.g08.bks.cpg/sg4_1_cif.got.tgz:924.got - 2010.06.03 18:43:04.
