data_PCOD9118428
_publ_section_title
;
Structure prediction by ZEFSAII (Michael W. Deem and Ramdas Pophale) SiO2 
 PCOD9118428
Probable space group: P 21
;
_chemical_formula_sum "Si O2"
_cell_formula_units_Z 14
_cell_length_a 22.432000
_cell_length_b 6.289940
_cell_length_c 9.994311
_cell_angle_alpha 90.000000
_cell_angle_beta 153.073298
_cell_angle_gamma 90.000000
_cell_volume 638.589820
_symmetry_space_group_name_H-M "P 21"
_symmetry_group_IT_number 4
_symmetry_cell_setting 'monoclinic'
loop_
_space_group_symop_operation_xyz
x,y,z
-x,1/2+y,-z
loop_
_atom_site_type_symbol
_atom_site_label
_atom_site_fract_x
_atom_site_fract_y
_atom_site_fract_z
Si Si1 0.992195 0.032750 0.281311
Si Si2 0.360350 0.930920 0.321698
Si Si3 0.770278 0.248955 0.680645
Si Si4 0.507967 0.078347 0.077146
Si Si5 0.259746 0.902297 0.674976
Si Si6 0.156912 0.269556 0.816108
Si Si7 0.344984 0.580542 0.058861
O O1 0.033297 0.166947 0.493926
O O2 0.130544 0.960397 0.498562
O O3 0.896385 0.855553 0.150155
O O4 0.908625 0.157845 0.004964
O O5 0.512383 0.973131 0.657209
O O6 0.284603 0.889722 0.308133
O O7 0.351753 0.739890 0.199027
O O8 0.280659 0.118852 0.091871
O O9 0.653367 0.075620 0.430386
O O10 0.781459 0.362502 0.560438
O O11 0.502993 0.330482 0.009315
O O12 0.378800 0.071575 0.912249
O O13 0.320953 0.697664 0.870837
O O14 0.218703 0.440283 0.839483
#
# Coordination Sequence:
#
# PCOD9118428 Si02
#       7
#     2   2   2   2   2   2   2
#     4  12  26  46  74 106 156 202 250 310 394 470
#     4  12  26  48  77 115 146 200 265 325 385 462
#     4  11  28  47  74 115 152 202 253 320 395 464
#     4  10  26  50  76 112 158 206 258 324 394 462
#     4  11  28  47  74 115 152 202 253 320 395 464
#     4  12  26  48  74 108 156 196 258 322 382 464
#     4  12  26  48  77 115 146 200 265 325 385 462
#
# _framework density 21.923307999999999
#
# number of rings (size 3 to 8) (size 9 to 14) (size 15 to 20)
#    0.000    0.571    4.286    1.714   14.000    3.429 
#    0.000    0.000    0.000    0.000    0.000    0.000 
#    0.000    0.000    0.000    0.000    0.000    0.000 
#
# Total GULP energy -78117.815883 kJ/mol
# GULP energy per Si atom -5579.843992 kJ/mol
# Density = 2.187341 g / cm^3
# Si number density = 21.923308 Si / 1000 Ang^3
#
#
#
# Elastic Constant Matrix: (Units=GPa)
#
#
# Indices 1 2 3 4 5 6 
#
# 1 -193.0747 -5.4458 135.3190 0.0000 -87.6645 0.0000
# 2 -5.4458 50.1036 25.7559 0.0000 -6.3953 0.0000
# 3 135.3190 25.7559 -3.9808 0.0000 52.7154 0.0000
# 4 0.0000 0.0000 0.0000 245.6800 0.0000 292.6182
# 5 -87.6645 -6.3953 52.7154 0.0000 26.3482 0.0000
# 6 0.0000 0.0000 0.0000 292.6182 0.0000 415.5519
#
#
#
# Elastic Compliance Matrix: (Units=1/GPa)
#
#
# Indices 1 2 3 4 5 6 
#
# 1 0.003482 -0.004636 0.008252 0.000000 -0.006050 0.000000
# 2 -0.004636 0.022267 -0.005317 0.000000 0.000619 0.000000
# 3 0.008252 -0.005317 0.012417 0.000000 0.001322 0.000000
# 4 0.000000 0.000000 0.000000 0.025235 0.000000 -0.017770
# 5 -0.006050 0.000619 0.001322 0.000000 0.015328 0.000000
# 6 0.000000 0.000000 0.000000 -0.017770 0.000000 0.014919
#
#
# Mechanical properties :
#
#
# Convention : Reuss Voigt Hill
#
# Bulk Modulus (GPa) = 28.76521 18.25626 23.51073
# Shear Modulus (GPa) = 46.02439 117.34397 81.68418
#
# Velocity S-wave (km/s) = 4.58682 7.32400 6.11064
# Velocity P-wave (km/s) = 6.41882 8.93682 7.78036
#
# Compressibility (1/GPa) = 0.03476422
#
# Stress axis : x y z
#
# Youngs Moduli (GPa) = 287.18954 44.90922 80.53507
#
# Poissons Ratio (x) = 0.20819 -0.66458
# Poissons Ratio (y) = 1.33135 0.42822
# Poissons Ratio (z) = -2.36991 0.23879
#
# Static dielectric constant tensor:
#      x y z
#    x 1.634030 0.000000 -0.015710 
#    y 0.000000 1.879780 0.000000 
#    z -0.015710 0.000000 1.759220 
# 
# From -- ./inp_files/9822.got.cif
#   From: 2010.05.17/outbox.cif.g08.bks.cpg/sg4_5_cif.got.tgz:9822.got - 2010.06.03 18:43:04.
