data_PCOD9118314
_publ_section_title
;
Structure prediction by ZEFSAII (Michael W. Deem and Ramdas Pophale) SiO2 
 PCOD9118314
Probable space group: P 21
;
_chemical_formula_sum "Si O2"
_cell_formula_units_Z 14
_cell_length_a 11.249623
_cell_length_b 4.976015
_cell_length_c 11.375839
_cell_angle_alpha 90.000000
_cell_angle_beta 58.988064
_cell_angle_gamma 90.000000
_cell_volume 545.775840
_symmetry_space_group_name_H-M "P 21"
_symmetry_group_IT_number 4
_symmetry_cell_setting 'monoclinic'
loop_
_space_group_symop_operation_xyz
x,y,z
-x,1/2+y,-z
loop_
_atom_site_type_symbol
_atom_site_label
_atom_site_fract_x
_atom_site_fract_y
_atom_site_fract_z
Si Si1 0.803489 0.647830 0.868609
Si Si2 0.618721 0.774547 0.751988
Si Si3 0.680316 0.380491 0.163100
Si Si4 0.534977 0.613703 0.452490
Si Si5 0.010918 0.568473 0.576139
Si Si6 0.700055 0.280773 0.566232
Si Si7 0.028014 0.874912 0.914864
O O1 0.676689 0.759934 0.855285
O O2 0.901113 0.480272 0.730015
O O3 0.919742 0.848868 0.863648
O O4 0.740228 0.494524 0.011522
O O5 0.455711 0.712099 0.807419
O O6 0.706099 0.555915 0.635325
O O7 0.645613 0.072852 0.691262
O O8 0.621992 0.593443 0.287621
O O9 0.813140 0.265280 0.166496
O O10 0.414305 0.373810 0.497596
O O11 0.405350 0.859399 0.486695
O O12 0.155344 0.674573 0.554848
O O13 0.037330 0.330265 0.471719
O O14 0.964518 0.683272 0.049052
#
# Coordination Sequence:
#
# PCOD9118314 Si02
#       7
#     2   2   2   2   2   2   2
#     4  11  25  47  74 107 140 195 233 299 360 419
#     4  11  24  45  76 102 143 187 237 298 356 421
#     4  10  26  48  70 108 144 185 243 298 357 431
#     4  11  25  45  70 100 138 188 238 293 361 423
#     4  12  24  45  72 105 148 184 241 293 358 434
#     4  11  23  46  68 105 142 184 242 295 353 425
#     4  10  25  46  68  99 145 185 234 290 359 425
#
# _framework density 25.651557
#
# number of rings (size 3 to 8) (size 9 to 14) (size 15 to 20)
#    0.000    1.143    2.857    1.714    2.000   14.857 
#    5.143    0.000    0.000    0.000    0.000    0.000 
#    0.000    0.000    0.000    0.000    0.000    0.000 
#
# Total GULP energy -78125.021722 kJ/mol
# GULP energy per Si atom -5580.358694 kJ/mol
# Density = 2.559317 g / cm^3
# Si number density = 25.651557 Si / 1000 Ang^3
#
#
#
# Elastic Constant Matrix: (Units=GPa)
#
#
# Indices 1 2 3 4 5 6 
#
# 1 205.5592 23.3363 39.3554 0.0000 4.7365 0.0000
# 2 23.3363 121.1903 3.5504 0.0000 7.1966 0.0000
# 3 39.3554 3.5504 121.3453 0.0000 0.2983 0.0000
# 4 0.0000 0.0000 0.0000 25.7349 0.0000 0.3160
# 5 4.7365 7.1966 0.2983 0.0000 49.5813 0.0000
# 6 0.0000 0.0000 0.0000 0.3160 0.0000 29.7332
#
#
#
# Elastic Compliance Matrix: (Units=1/GPa)
#
#
# Indices 1 2 3 4 5 6 
#
# 1 0.005305 -0.000951 -0.001692 0.000000 -0.000359 0.000000
# 2 -0.000951 0.008501 0.000062 0.000000 -0.001143 0.000000
# 3 -0.001692 0.000062 0.008788 0.000000 0.000100 0.000000
# 4 0.000000 0.000000 0.000000 0.038863 0.000000 -0.000413
# 5 -0.000359 -0.001143 0.000100 0.000000 0.020369 0.000000
# 6 0.000000 0.000000 0.000000 -0.000413 0.000000 0.033637
#
#
# Mechanical properties :
#
#
# Convention : Reuss Voigt Hill
#
# Bulk Modulus (GPa) = 57.36257 64.50878 60.93567
# Shear Modulus (GPa) = 39.54683 46.46670 43.00677
#
# Velocity S-wave (km/s) = 3.93070 4.26074 4.09904
# Velocity P-wave (km/s) = 6.55830 7.02907 6.79776
#
# Compressibility (1/GPa) = 0.01743297
#
# Stress axis : x y z
#
# Youngs Moduli (GPa) = 188.50601 117.63861 113.79709
#
# Poissons Ratio (x) = 0.11183 0.19252
# Poissons Ratio (y) = 0.17920 -0.00710
# Poissons Ratio (z) = 0.31892 -0.00734
#
# Static dielectric constant tensor:
#      x y z
#    x 2.152100 0.000000 -0.021560 
#    y 0.000000 2.057710 0.000000 
#    z -0.021560 0.000000 2.021640 
# 
# From -- ./inp_files/11725.got.cif
#   From: 2010.05.17/outbox.cif.g08.bks.cpg/sg4_6_cif.got.tgz:11725.got - 2010.06.03 18:43:04.
