data_PCOD9118485
_publ_section_title
;
Structure prediction by ZEFSAII (Michael W. Deem and Ramdas Pophale) SiO2 
 PCOD9118485
Probable space group: P 21
;
_chemical_formula_sum "Si O2"
_cell_formula_units_Z 12
_cell_length_a 21.101135
_cell_length_b 5.049010
_cell_length_c 30.580776
_cell_angle_alpha 90.000000
_cell_angle_beta 10.523014
_cell_angle_gamma 90.000000
_cell_volume 595.022994
_symmetry_space_group_name_H-M "P 21"
_symmetry_group_IT_number 4
_symmetry_cell_setting 'monoclinic'
loop_
_space_group_symop_operation_xyz
x,y,z
-x,1/2+y,-z
loop_
_atom_site_type_symbol
_atom_site_label
_atom_site_fract_x
_atom_site_fract_y
_atom_site_fract_z
Si Si1 0.343730 0.035110 0.733926
Si Si2 0.635760 0.966658 0.631913
Si Si3 0.744771 0.378664 0.339778
Si Si4 0.237049 0.044694 0.576736
Si Si5 0.296941 0.471370 0.890118
Si Si6 0.722416 0.214028 0.850445
O O1 0.483029 0.327791 0.629236
O O2 0.423596 0.972637 0.730018
O O3 0.573967 0.827223 0.550152
O O4 0.956610 0.986633 0.980141
O O5 0.452382 0.762752 0.788919
O O6 0.007316 0.848549 0.366581
O O7 0.598190 0.260088 0.676210
O O8 0.455494 0.601046 0.525288
O O9 0.880356 0.449153 0.296177
O O10 0.052386 0.390793 0.096015
O O11 0.938088 0.082402 0.743801
O O12 0.496861 0.466762 0.019192
#
# Coordination Sequence:
#
# PCOD9118485 Si02
#       6
#     2   2   2   2   2   2
#     4  11  20  35  57  85 130 158 193 236 294 370
#     4  11  23  36  56  91 117 156 202 246 309 360
#     4  12  22  38  58  86 129 171 199 225 281 375
#     4  11  21  38  60  91 117 160 210 241 288 360
#     4  12  21  35  57  86 132 162 186 236 297 368
#     4  11  23  42  66  87 115 155 210 276 311 339
#
# _framework density 20.167289
#
# number of rings (size 3 to 8) (size 9 to 14) (size 15 to 20)
#    0.000    0.667    3.333    8.000    0.000    0.000 
#    0.000    0.000    0.000    4.000    0.000    2.333 
#    0.000    0.000    0.000    0.000    0.000    0.000 
#
# Total GULP energy -67081.771910 kJ/mol
# GULP energy per Si atom -5590.147659 kJ/mol
# Density = 2.012139 g / cm^3
# Si number density = 20.167289 Si / 1000 Ang^3
#
#
#
# Elastic Constant Matrix: (Units=GPa)
#
#
# Indices 1 2 3 4 5 6 
#
# 1 39.3698 11.7645 19.3236 0.0071 22.3365 0.0001
# 2 11.7645 97.2900 21.1978 0.0010 -1.0499 -0.0026
# 3 19.3236 21.1978 68.1531 0.0029 7.6516 -0.0015
# 4 0.0071 0.0010 0.0029 45.1094 -0.0056 4.5819
# 5 22.3365 -1.0499 7.6516 -0.0056 27.9648 -0.0009
# 6 0.0001 -0.0026 -0.0015 4.5819 -0.0009 23.8521
#
#
#
# Elastic Compliance Matrix: (Units=1/GPa)
#
#
# Indices 1 2 3 4 5 6 
#
# 1 0.055181 -0.005078 -0.009385 -0.000013 -0.041698 -0.000001
# 2 -0.005078 0.011546 -0.002740 0.000001 0.005239 0.000001
# 3 -0.009385 -0.002740 0.017906 0.000001 0.002494 0.000001
# 4 -0.000013 0.000001 0.000001 0.022609 0.000015 -0.004343
# 5 -0.041698 0.005239 0.002494 0.000015 0.068580 0.000001
# 6 -0.000001 0.000001 0.000001 -0.004343 0.000001 0.042759
#
#
# Mechanical properties :
#
#
# Convention : Reuss Voigt Hill
#
# Bulk Modulus (GPa) = 19.90895 34.37609 27.14252
# Shear Modulus (GPa) = 18.53709 29.55372 24.04541
#
# Velocity S-wave (km/s) = 3.03506 3.83224 3.45671
# Velocity P-wave (km/s) = 4.70909 6.05508 5.42399
#
# Compressibility (1/GPa) = 0.05022867
#
# Stress axis : x y z
#
# Youngs Moduli (GPa) = 18.12205 86.60979 55.84762
#
# Poissons Ratio (x) = 0.43979 0.52412
# Poissons Ratio (y) = 0.09202 0.15300
# Poissons Ratio (z) = 0.17007 0.23728
#
# Static dielectric constant tensor:
#      x y z
#    x 1.730170 0.000000 0.003070 
#    y 0.000000 1.711600 0.000010 
#    z 0.003070 0.000010 1.715910 
# 
# From -- ./inp_files/15041.got.cif
#   From: 2010.05.17/outbox.cif.g08.bks.cpg/sg4_8_cif.got.tgz:15041.got - 2010.06.03 18:43:04.
