data_PCOD9118853
_publ_section_title
;
Structure prediction by ZEFSAII (Michael W. Deem and Ramdas Pophale) SiO2 
 PCOD9118853
Probable space group: P 21
;
_chemical_formula_sum "Si O2"
_cell_formula_units_Z 16
_cell_length_a 8.933845
_cell_length_b 9.003067
_cell_length_c 11.784980
_cell_angle_alpha 90.000000
_cell_angle_beta 129.942614
_cell_angle_gamma 90.000000
_cell_volume 726.735426
_symmetry_space_group_name_H-M "P 21"
_symmetry_group_IT_number 4
_symmetry_cell_setting 'monoclinic'
loop_
_space_group_symop_operation_xyz
x,y,z
-x,1/2+y,-z
loop_
_atom_site_type_symbol
_atom_site_label
_atom_site_fract_x
_atom_site_fract_y
_atom_site_fract_z
Si Si1 0.939310 0.780560 0.937566
Si Si2 0.187810 0.977426 0.208396
Si Si3 0.968697 0.968634 0.726131
Si Si4 0.895100 0.251640 0.391371
Si Si5 0.296359 0.169783 0.969306
Si Si6 0.017561 0.961889 0.358585
Si Si7 0.414328 0.400689 0.858906
Si Si8 0.373046 0.524359 0.618420
O O1 0.953594 0.614110 0.895226
O O2 0.909543 0.887585 0.814600
O O3 0.769878 0.762764 0.951685
O O4 0.128178 0.845058 0.094856
O O5 0.405542 0.041074 0.310094
O O6 0.153780 0.930548 0.320111
O O7 0.780970 0.001874 0.556730
O O8 0.107223 0.861526 0.716897
O O9 0.093187 0.115532 0.814120
O O10 0.959012 0.344353 0.530994
O O11 0.045404 0.122701 0.428409
O O12 0.704731 0.160916 0.341559
O O13 0.430420 0.259162 0.946445
O O14 0.410211 0.017045 0.049530
O O15 0.796205 0.963826 0.203734
O O16 0.380095 0.383150 0.707506
#
# Coordination Sequence:
#
# PCOD9118853 Si02
#       8
#     2   2   2   2   2   2   2   2
#     4  12  25  47  72 106 149 201 235 303 368 439
#     4  12  26  48  75 103 151 191 244 298 372 441
#     4  12  25  45  78 107 151 196 241 304 379 431
#     4  11  23  42  76 102 145 183 244 303 369 426
#     4  12  27  47  76 111 151 197 249 305 371 446
#     4  11  24  44  73 101 144 192 231 308 362 433
#     4  11  24  45  75 107 145 191 246 306 364 440
#     4  11  26  46  73 111 144 187 250 309 357 448
#
# _framework density 22.016266000000002
#
# number of rings (size 3 to 8) (size 9 to 14) (size 15 to 20)
#    0.000    0.500    7.500    0.750    3.500    2.000 
#    0.000    0.000    2.750    0.000    0.000    0.000 
#    0.000    0.000    0.000    0.000    0.000    0.000 
#
# Total GULP energy -89313.221874 kJ/mol
# GULP energy per Si atom -5582.076367 kJ/mol
# Density = 2.196616 g / cm^3
# Si number density = 22.016266 Si / 1000 Ang^3
#
#
#
# Elastic Constant Matrix: (Units=GPa)
#
#
# Indices 1 2 3 4 5 6 
#
# 1 97.3985 27.4714 60.6007 0.0000 -7.1237 0.0000
# 2 27.4714 64.9795 36.8255 0.0000 -9.7031 0.0000
# 3 60.6007 36.8255 123.9607 0.0000 -14.9360 0.0000
# 4 0.0000 0.0000 0.0000 35.8321 0.0000 -3.6179
# 5 -7.1237 -9.7031 -14.9360 0.0000 38.9329 0.0000
# 6 0.0000 0.0000 0.0000 -3.6179 0.0000 39.9209
#
#
#
# Elastic Compliance Matrix: (Units=1/GPa)
#
#
# Indices 1 2 3 4 5 6 
#
# 1 0.015133 -0.002696 -0.006652 0.000000 -0.000455 0.000000
# 2 -0.002696 0.019244 -0.004069 0.000000 0.002742 0.000000
# 3 -0.006652 -0.004069 0.012853 0.000000 0.002700 0.000000
# 4 0.000000 0.000000 0.000000 0.028166 0.000000 0.002553
# 5 -0.000455 0.002742 0.002700 0.000000 0.027321 0.000000
# 6 0.000000 0.000000 0.000000 0.002553 0.000000 0.025281
#
#
# Mechanical properties :
#
#
# Convention : Reuss Voigt Hill
#
# Bulk Modulus (GPa) = 49.02593 59.57043 54.29818
# Shear Modulus (GPa) = 30.93475 33.69994 32.31734
#
# Velocity S-wave (km/s) = 3.75251 3.91664 3.83546
# Velocity P-wave (km/s) = 6.41027 6.89707 6.65812
#
# Compressibility (1/GPa) = 0.02039737
#
# Stress axis : x y z
#
# Youngs Moduli (GPa) = 66.08044 51.96292 77.80247
#
# Poissons Ratio (x) = 0.14008 0.51755
# Poissons Ratio (y) = 0.17814 0.31656
# Poissons Ratio (z) = 0.43957 0.21142
#
# Static dielectric constant tensor:
#      x y z
#    x 1.833200 0.000000 -0.007640 
#    y 0.000000 1.858930 0.000000 
#    z -0.007640 0.000000 1.856770 
# 
# From -- ./inp_files/11085.got.cif
#   From: 2010.05.17/outbox.cif.g08.bks.cpg/sg4_6_cif.got.tgz:11085.got - 2010.06.03 18:43:04.
