data_PCOD9118617
_publ_section_title
;
Structure prediction by ZEFSAII (Michael W. Deem and Ramdas Pophale) SiO2 
 PCOD9118617
Probable space group: P 21
;
_chemical_formula_sum "Si O2"
_cell_formula_units_Z 16
_cell_length_a 11.800896
_cell_length_b 9.220845
_cell_length_c 6.576035
_cell_angle_alpha 90.000000
_cell_angle_beta 98.577643
_cell_angle_gamma 90.000000
_cell_volume 707.562349
_symmetry_space_group_name_H-M "P 21"
_symmetry_group_IT_number 4
_symmetry_cell_setting 'monoclinic'
loop_
_space_group_symop_operation_xyz
x,y,z
-x,1/2+y,-z
loop_
_atom_site_type_symbol
_atom_site_label
_atom_site_fract_x
_atom_site_fract_y
_atom_site_fract_z
Si Si1 0.483872 0.689790 0.621270
Si Si2 0.345451 0.452237 0.437122
Si Si3 0.240831 0.316030 0.777578
Si Si4 0.887923 0.945695 0.883620
Si Si5 0.840619 0.573289 0.557555
Si Si6 0.044522 0.676099 0.827536
Si Si7 0.679624 0.575831 0.906147
Si Si8 0.263858 0.832640 0.757045
O O1 0.422061 0.596037 0.429639
O O2 0.577064 0.811374 0.588351
O O3 0.556045 0.573103 0.769806
O O4 0.382647 0.767895 0.713415
O O5 0.308842 0.432077 0.662164
O O6 0.227992 0.460281 0.278054
O O7 0.185048 0.206388 0.599980
O O8 0.151969 0.387753 0.906763
O O9 0.317586 0.213627 0.942568
O O10 0.974972 0.827421 0.818959
O O11 0.949984 0.096900 0.952143
O O12 0.772238 0.594230 0.750829
O O13 0.793002 0.431057 0.434879
O O14 0.973262 0.576601 0.652757
O O15 0.171733 0.712794 0.792840
O O16 0.712531 0.436826 0.045687
#
# Coordination Sequence:
#
# PCOD9118617 Si02
#       8
#     2   2   2   2   2   2   2   2
#     4  12  26  47  73 105 145 192 236 297 356 425
#     4  12  27  48  72 108 147 190 244 295 357 429
#     4  11  21  46  74 102 144 186 238 292 358 424
#     4  12  27  48  72 108 147 190 244 295 357 429
#     4  11  23  48  73 104 145 186 239 299 360 419
#     4  12  26  47  73 105 145 192 236 297 356 425
#     4  11  23  48  73 104 145 186 239 299 360 419
#     4  11  29  44  70 112 144 190 240 294 360 428
#
# _framework density 22.612848
#
# number of rings (size 3 to 8) (size 9 to 14) (size 15 to 20)
#    0.000    0.500    5.000    2.250    7.000    5.000 
#    0.000    0.000    0.000    0.000    0.000    0.000 
#    0.000    0.000    0.000    0.000    0.000    0.000 
#
# Total GULP energy -89551.622339 kJ/mol
# GULP energy per Si atom -5596.976396 kJ/mol
# Density = 2.256138 g / cm^3
# Si number density = 22.612848 Si / 1000 Ang^3
#
#
#
# Elastic Constant Matrix: (Units=GPa)
#
#
# Indices 1 2 3 4 5 6 
#
# 1 91.7042 14.0224 22.6540 0.0000 11.5901 0.0000
# 2 14.0224 53.9791 18.8835 0.0000 10.8759 0.0000
# 3 22.6540 18.8835 84.2116 0.0000 4.4020 0.0000
# 4 0.0000 0.0000 0.0000 16.9802 0.0000 -1.5702
# 5 11.5901 10.8759 4.4020 0.0000 32.0206 0.0000
# 6 0.0000 0.0000 0.0000 -1.5702 0.0000 32.9954
#
#
#
# Elastic Compliance Matrix: (Units=1/GPa)
#
#
# Indices 1 2 3 4 5 6 
#
# 1 0.012269 -0.001500 -0.002779 0.000000 -0.003549 0.000000
# 2 -0.001500 0.021611 -0.004117 0.000000 -0.006231 0.000000
# 3 -0.002779 -0.004117 0.013517 0.000000 0.000546 0.000000
# 4 0.000000 0.000000 0.000000 0.059152 0.000000 0.002815
# 5 -0.003549 -0.006231 0.000546 0.000000 0.034556 0.000000
# 6 0.000000 0.000000 0.000000 0.002815 0.000000 0.030441
#
#
# Mechanical properties :
#
#
# Convention : Reuss Voigt Hill
#
# Bulk Modulus (GPa) = 32.67311 37.89051 35.28181
# Shear Modulus (GPa) = 25.18390 28.02157 26.60274
#
# Velocity S-wave (km/s) = 3.34083 3.52403 3.43365
# Velocity P-wave (km/s) = 5.41866 5.77503 5.59968
#
# Compressibility (1/GPa) = 0.03060621
#
# Stress axis : x y z
#
# Youngs Moduli (GPa) = 81.50637 46.27264 73.98127
#
# Poissons Ratio (x) = 0.06941 0.20557
# Poissons Ratio (y) = 0.12226 0.30456
# Poissons Ratio (z) = 0.22647 0.19049
#
# Static dielectric constant tensor:
#      x y z
#    x 1.809430 0.000000 0.003130 
#    y 0.000000 1.894890 0.000000 
#    z 0.003130 0.000000 1.845040 
# 
# From -- ./inp_files/2669.got.cif
#   From: 2010.05.17/outbox.cif.g08.bks.cpg/sg4_2_cif.got.tgz:2669.got - 2010.06.03 18:43:04.
