data_PCOD9118782
_publ_section_title
;
Structure prediction by ZEFSAII (Michael W. Deem and Ramdas Pophale) SiO2 
 PCOD9118782
Probable space group: P 21
;
_chemical_formula_sum "Si O2"
_cell_formula_units_Z 16
_cell_length_a 8.664469
_cell_length_b 7.825005
_cell_length_c 11.390782
_cell_angle_alpha 90.000000
_cell_angle_beta 112.353997
_cell_angle_gamma 90.000000
_cell_volume 714.253233
_symmetry_space_group_name_H-M "P 21"
_symmetry_group_IT_number 4
_symmetry_cell_setting 'monoclinic'
loop_
_space_group_symop_operation_xyz
x,y,z
-x,1/2+y,-z
loop_
_atom_site_type_symbol
_atom_site_label
_atom_site_fract_x
_atom_site_fract_y
_atom_site_fract_z
Si Si1 0.683985 0.665920 0.856908
Si Si2 0.934417 0.186869 0.379798
Si Si3 0.445380 0.686869 0.379798
Si Si4 0.827078 0.665920 0.143092
Si Si5 0.002232 0.799893 0.856709
Si Si6 0.385823 0.553997 0.617730
Si Si7 0.768092 0.553997 0.382270
Si Si8 0.145523 0.799893 0.143291
O O1 0.504232 0.647564 0.747202
O O2 0.777257 0.486597 0.855003
O O3 0.806150 0.801493 0.830435
O O4 0.693489 0.691556 1.000000
O O5 0.965437 0.192605 0.250351
O O6 0.799205 0.049696 0.383832
O O7 0.850327 0.368612 0.388101
O O8 0.106918 0.154482 0.495976
O O9 0.389059 0.654482 0.495977
O O10 0.584626 0.549696 0.383831
O O11 0.284913 0.692606 0.250351
O O12 0.537774 0.868612 0.388101
O O13 0.922255 0.486597 0.144997
O O14 0.757030 0.647565 0.252798
O O15 0.975714 0.801494 0.169564
O O16 0.092426 0.730734 0.000000
#
# Coordination Sequence:
#
# PCOD9118782 Si02
#       8
#     2   2   2   2   2   2   2   2
#     4   9  19  36  57  81 109 142 180 222 269 321
#     4  11  23  38  57  81 111 145 183 227 274 325
#     4  11  23  38  57  81 111 145 183 227 274 325
#     4   9  19  36  57  81 109 142 180 222 269 321
#     4   9  19  36  57  81 109 142 180 222 269 321
#     4  11  23  38  57  81 111 145 183 227 274 325
#     4  11  23  38  57  81 111 145 183 227 274 325
#     4   9  19  36  57  81 109 142 180 222 269 321
#
# _framework density 22.401018000000001
#
# number of rings (size 3 to 8) (size 9 to 14) (size 15 to 20)
#    0.000    2.000    0.000    3.000    0.000    9.000 
#    0.000    0.000    0.000    0.000    0.000    0.000 
#    0.000    0.000    0.000    0.000    0.000    0.000 
#
# Total GULP energy -89501.999260 kJ/mol
# GULP energy per Si atom -5593.874954 kJ/mol
# Density = 2.235003 g / cm^3
# Si number density = 22.401018 Si / 1000 Ang^3
#
#
#
# Elastic Constant Matrix: (Units=GPa)
#
#
# Indices 1 2 3 4 5 6 
#
# 1 43.0090 -6.9991 32.3260 0.0000 -5.0617 0.0000
# 2 -6.9991 59.3023 27.1537 0.0000 -2.4131 0.0000
# 3 32.3260 27.1537 90.0757 0.0000 1.7363 0.0000
# 4 0.0000 0.0000 0.0000 24.0576 0.0000 0.5764
# 5 -5.0617 -2.4131 1.7363 0.0000 40.6799 0.0000
# 6 0.0000 0.0000 0.0000 0.5764 0.0000 32.2147
#
#
#
# Elastic Compliance Matrix: (Units=1/GPa)
#
#
# Indices 1 2 3 4 5 6 
#
# 1 0.040271 0.013571 -0.018671 0.000000 0.006613 0.000000
# 2 0.013571 0.024218 -0.012241 0.000000 0.003648 0.000000
# 3 -0.018671 -0.012241 0.021569 0.000000 -0.003970 0.000000
# 4 0.000000 0.000000 0.000000 0.041585 0.000000 -0.000744
# 5 0.006613 0.003648 -0.003970 0.000000 0.025791 0.000000
# 6 0.000000 0.000000 0.000000 -0.000744 0.000000 0.031055
#
#
# Mechanical properties :
#
#
# Convention : Reuss Voigt Hill
#
# Bulk Modulus (GPa) = 19.46440 33.03871 26.25156
# Shear Modulus (GPa) = 21.15996 28.71754 24.93875
#
# Velocity S-wave (km/s) = 3.07677 3.58435 3.34021
# Velocity P-wave (km/s) = 4.61843 5.64897 5.15950
#
# Compressibility (1/GPa) = 0.05137584
#
# Stress axis : x y z
#
# Youngs Moduli (GPa) = 24.83192 41.29157 46.36292
#
# Poissons Ratio (x) = -0.56037 0.86563
# Poissons Ratio (y) = -0.33700 0.56754
# Poissons Ratio (z) = 0.46363 0.50546
#
# Static dielectric constant tensor:
#      x y z
#    x 1.768160 0.000000 -0.001220 
#    y 0.000000 1.897920 0.000000 
#    z -0.001220 0.000000 1.785410 
# 
# From -- ./inp_files/7816.got.cif
#   From: 2010.05.17/outbox.cif.g08.bks.cpg/sg4_4_cif.got.tgz:7816.got - 2010.06.03 18:43:04.
