data_PCOD9118471
_publ_section_title
;
Structure prediction by ZEFSAII (Michael W. Deem and Ramdas Pophale) SiO2 
 PCOD9118471
Probable space group: P 21
;
_chemical_formula_sum "Si O2"
_cell_formula_units_Z 14
_cell_length_a 8.680827
_cell_length_b 7.929068
_cell_length_c 8.086417
_cell_angle_alpha 90.000000
_cell_angle_beta 68.260285
_cell_angle_gamma 90.000000
_cell_volume 517.007859
_symmetry_space_group_name_H-M "P 21"
_symmetry_group_IT_number 4
_symmetry_cell_setting 'monoclinic'
loop_
_space_group_symop_operation_xyz
x,y,z
-x,1/2+y,-z
loop_
_atom_site_type_symbol
_atom_site_label
_atom_site_fract_x
_atom_site_fract_y
_atom_site_fract_z
Si Si1 0.814040 0.802890 0.507977
Si Si2 0.596875 0.627757 0.822954
Si Si3 0.667430 0.951743 0.261772
Si Si4 0.832947 0.303917 0.721985
Si Si5 0.979569 0.782020 0.003856
Si Si6 0.471401 0.624168 0.244877
Si Si7 0.787274 0.500603 0.249968
O O1 0.709558 0.778933 0.713986
O O2 0.739749 0.943400 0.415509
O O3 0.800784 0.624891 0.404195
O O4 0.006695 0.833631 0.453916
O O5 0.443571 0.601425 0.759517
O O6 0.714187 0.464565 0.773432
O O7 0.527221 0.643015 0.032302
O O8 0.543780 0.791715 0.304087
O O9 0.827177 0.914988 0.083517
O O10 0.907197 0.279030 0.875857
O O11 0.724507 0.150441 0.696362
O O12 0.874468 0.609290 0.065060
O O13 0.101851 0.831770 0.805811
O O14 0.593421 0.485666 0.279583
#
# Coordination Sequence:
#
# PCOD9118471 Si02
#       7
#     2   2   2   2   2   2   2
#     4   9  21  39  53  77 123 144 183 233 298 340
#     4  11  19  37  59  80 113 148 184 241 292 331
#     4   8  20  37  54  79 114 146 189 234 275 348
#     4   9  19  37  55  83 112 144 185 247 277 343
#     4   9  17  34  58  79 110 144 192 230 279 335
#     4   9  18  34  59  80 106 145 192 233 279 331
#     4   9  18  36  56  80 114 149 189 234 282 346
#
# _framework density 27.078890000000001
#
# number of rings (size 3 to 8) (size 9 to 14) (size 15 to 20)
#    0.000    3.429    1.429    0.000    4.000    0.000 
#    7.714    8.571    0.000    0.000    0.000    0.000 
#    0.000    0.000    0.000    0.000    0.000    0.000 
#
# Total GULP energy -78303.856006 kJ/mol
# GULP energy per Si atom -5593.132572 kJ/mol
# Density = 2.701726 g / cm^3
# Si number density = 27.078890 Si / 1000 Ang^3
#
#
#
# Elastic Constant Matrix: (Units=GPa)
#
#
# Indices 1 2 3 4 5 6 
#
# 1 187.2474 36.3043 41.8153 0.0000 -23.5025 0.0000
# 2 36.3043 77.2967 7.7347 0.0000 10.2210 0.0000
# 3 41.8153 7.7347 70.5211 0.0000 11.0768 0.0000
# 4 0.0000 0.0000 0.0000 37.1869 0.0000 -0.9324
# 5 -23.5025 10.2210 11.0768 0.0000 33.1011 0.0000
# 6 0.0000 0.0000 0.0000 -0.9324 0.0000 23.4924
#
#
#
# Elastic Compliance Matrix: (Units=1/GPa)
#
#
# Indices 1 2 3 4 5 6 
#
# 1 0.008963 -0.004897 -0.006348 0.000000 0.010000 0.000000
# 2 -0.004897 0.016214 0.002594 0.000000 -0.009351 0.000000
# 3 -0.006348 0.002594 0.019519 0.000000 -0.011840 0.000000
# 4 0.000000 0.000000 0.000000 0.026918 0.000000 0.001068
# 5 0.010000 -0.009351 -0.011840 0.000000 0.044160 0.000000
# 6 0.000000 0.000000 0.000000 0.001068 0.000000 0.042609
#
#
# Mechanical properties :
#
#
# Convention : Reuss Voigt Hill
#
# Bulk Modulus (GPa) = 36.50354 56.30818 46.40586
# Shear Modulus (GPa) = 27.05383 35.37014 31.21198
#
# Velocity S-wave (km/s) = 3.16424 3.61804 3.39873
# Velocity P-wave (km/s) = 5.18263 6.18813 5.70756
#
# Compressibility (1/GPa) = 0.02739461
#
# Stress axis : x y z
#
# Youngs Moduli (GPa) = 111.57385 61.67529 51.23093
#
# Poissons Ratio (x) = 0.30200 0.32522
# Poissons Ratio (y) = 0.54634 -0.13289
# Poissons Ratio (z) = 0.70828 -0.15998
#
# Static dielectric constant tensor:
#      x y z
#    x 2.075100 0.000000 -0.032910 
#    y 0.000000 2.302090 0.000000 
#    z -0.032910 0.000000 2.166680 
# 
# From -- ./inp_files/6019.got.cif
#   From: 2010.05.17/outbox.cif.g08.bks.cpg/sg4_4_cif.got.tgz:6019.got - 2010.06.03 18:43:04.
