data_PCOD9118907
_publ_section_title
;
Structure prediction by ZEFSAII (Michael W. Deem and Ramdas Pophale) SiO2 
 PCOD9118907
Probable space group: P 21
;
_chemical_formula_sum "Si O2"
_cell_formula_units_Z 12
_cell_length_a 21.480707
_cell_length_b 5.102586
_cell_length_c 18.537137
_cell_angle_alpha 90.000000
_cell_angle_beta 12.848401
_cell_angle_gamma 90.000000
_cell_volume 451.816433
_symmetry_space_group_name_H-M "P 21"
_symmetry_group_IT_number 4
_symmetry_cell_setting 'monoclinic'
loop_
_space_group_symop_operation_xyz
x,y,z
-x,1/2+y,-z
loop_
_atom_site_type_symbol
_atom_site_label
_atom_site_fract_x
_atom_site_fract_y
_atom_site_fract_z
Si Si1 0.845363 0.957550 0.203555
Si Si2 0.849007 0.679058 0.836505
Si Si3 0.645879 0.773378 0.211102
Si Si4 0.678173 0.133640 0.808688
Si Si5 0.824266 0.592275 0.352022
Si Si6 0.387624 0.693959 0.953665
O O1 0.841911 0.870682 0.291350
O O2 0.536877 0.072125 0.535640
O O3 0.941503 0.691399 0.055786
O O4 0.104433 0.580074 0.500021
O O5 0.829369 0.625680 0.942929
O O6 0.609849 0.496446 0.072109
O O7 0.805931 0.986341 0.870511
O O8 0.405929 0.932548 0.436471
O O9 0.868408 0.965549 0.996054
O O10 0.526902 0.393182 0.955385
O O11 0.745968 0.179525 0.815789
O O12 0.694320 0.600444 0.579627
#
# Coordination Sequence:
#
# PCOD9118907 Si02
#       6
#     2   2   2   2   2   2
#     4  12  26  56  80 124 158 214 270 344 414 498
#     4  11  23  44  71 105 152 204 261 322 392 471
#     4  11  26  52  80 117 159 211 265 329 408 486
#     4  12  24  40  64 108 148 206 262 322 386 462
#     4  11  26  52  80 117 159 211 265 329 408 486
#     4  11  23  44  71 105 152 204 261 322 392 471
#
# _framework density 26.559460000000001
#
# number of rings (size 3 to 8) (size 9 to 14) (size 15 to 20)
#    0.000    0.667    3.333    4.000    0.000    4.000 
#    6.000    0.000    0.000    0.000    0.000    0.000 
#    0.000    0.000    0.000    0.000    0.000    0.000 
#
# Total GULP energy -67122.454016 kJ/mol
# GULP energy per Si atom -5593.537835 kJ/mol
# Density = 2.649901 g / cm^3
# Si number density = 26.559460 Si / 1000 Ang^3
#
#
#
# Elastic Constant Matrix: (Units=GPa)
#
#
# Indices 1 2 3 4 5 6 
#
# 1 52.2739 12.4262 33.4003 0.0000 10.9003 0.0000
# 2 12.4262 117.8693 42.9383 0.0000 -5.0799 0.0000
# 3 33.4003 42.9383 140.6767 0.0000 14.4586 0.0000
# 4 0.0000 0.0000 0.0000 45.5381 0.0000 5.4341
# 5 10.9003 -5.0799 14.4586 0.0000 53.9869 0.0000
# 6 0.0000 0.0000 0.0000 5.4341 0.0000 45.8963
#
#
#
# Elastic Compliance Matrix: (Units=1/GPa)
#
#
# Indices 1 2 3 4 5 6 
#
# 1 0.023171 -0.000805 -0.004902 0.000000 -0.003441 0.000000
# 2 -0.000805 0.009732 -0.002972 0.000000 0.001874 0.000000
# 3 -0.004902 -0.002972 0.009364 0.000000 -0.001798 0.000000
# 4 0.000000 0.000000 0.000000 0.022274 0.000000 -0.002637
# 5 -0.003441 0.001874 -0.001798 0.000000 0.019876 0.000000
# 6 0.000000 0.000000 0.000000 -0.002637 0.000000 0.022101
#
#
# Mechanical properties :
#
#
# Convention : Reuss Voigt Hill
#
# Bulk Modulus (GPa) = 40.14593 54.26105 47.20349
# Shear Modulus (GPa) = 37.82725 43.88792 40.85758
#
# Velocity S-wave (km/s) = 3.77801 4.06943 3.92643
# Velocity P-wave (km/s) = 5.84632 6.52340 6.19412
#
# Compressibility (1/GPa) = 0.02490913
#
# Stress axis : x y z
#
# Youngs Moduli (GPa) = 43.15717 102.75044 106.78926
#
# Poissons Ratio (x) = 0.08276 0.52347
# Poissons Ratio (y) = 0.03476 0.31738
# Poissons Ratio (z) = 0.21155 0.30537
#
# Static dielectric constant tensor:
#      x y z
#    x 2.239420 0.000000 0.000120 
#    y 0.000000 2.046940 0.000000 
#    z 0.000120 0.000000 2.098010 
# 
# From -- ./inp_files/3909.got.cif
#   From: 2010.05.17/outbox.cif.g08.bks.cpg/sg4_2_cif.got.tgz:3909.got - 2010.06.03 18:43:04.
