data_PCOD9118625
_publ_section_title
;
Structure prediction by ZEFSAII (Michael W. Deem and Ramdas Pophale) SiO2 
 PCOD9118625
Probable space group: P 21
;
_chemical_formula_sum "Si O2"
_cell_formula_units_Z 12
_cell_length_a 7.175516
_cell_length_b 5.579378
_cell_length_c 11.579801
_cell_angle_alpha 90.000000
_cell_angle_beta 74.416957
_cell_angle_gamma 90.000000
_cell_volume 446.555539
_symmetry_space_group_name_H-M "P 21"
_symmetry_group_IT_number 4
_symmetry_cell_setting 'monoclinic'
loop_
_space_group_symop_operation_xyz
x,y,z
-x,1/2+y,-z
loop_
_atom_site_type_symbol
_atom_site_label
_atom_site_fract_x
_atom_site_fract_y
_atom_site_fract_z
Si Si1 0.540996 0.889630 0.395849
Si Si2 0.768101 0.118060 0.045274
Si Si3 0.835209 0.107905 0.779059
Si Si4 0.450883 0.388323 0.346956
Si Si5 0.183753 0.109094 0.881912
Si Si6 0.095979 0.893283 0.446526
O O1 0.568767 0.639743 0.324530
O O2 0.633497 0.890187 0.506644
O O3 0.311869 0.893512 0.460477
O O4 0.567763 0.140398 0.327300
O O5 0.718747 0.127889 0.917636
O O6 0.005707 0.121748 0.008435
O O7 0.717852 0.865574 0.111419
O O8 0.699044 0.369622 0.108828
O O9 0.721975 0.922600 0.715563
O O10 0.050424 0.059587 0.791052
O O11 0.865396 0.344952 0.696265
O O12 0.997808 0.647532 0.507851
#
# Coordination Sequence:
#
# PCOD9118625 Si02
#       6
#     2   2   2   2   2   2
#     4   9  18  32  42  61  86 112 154 189 215 246
#     4   8  15  25  40  62  88 109 132 176 225 271
#     4   9  17  29  45  64  89 117 145 174 221 265
#     4   9  17  28  48  63  81 115 145 186 230 259
#     4   8  15  25  40  62  88 109 132 176 225 271
#     4  11  22  31  43  62  90 128 158 177 200 252
#
# _framework density 26.872357999999998
#
# number of rings (size 3 to 8) (size 9 to 14) (size 15 to 20)
#    1.000    2.000    0.000    2.000    0.000    8.000 
#    0.000    0.000    0.000    0.000    0.000    0.000 
#    0.000   21.333    0.000    6.000    0.000    0.000 
#
# Total GULP energy -66966.753653 kJ/mol
# GULP energy per Si atom -5580.562804 kJ/mol
# Density = 2.681120 g / cm^3
# Si number density = 26.872358 Si / 1000 Ang^3
#
#
#
# Elastic Constant Matrix: (Units=GPa)
#
#
# Indices 1 2 3 4 5 6 
#
# 1 91.6144 38.9893 40.5825 0.0000 23.4831 0.0000
# 2 38.9893 273.1043 116.7226 0.0000 19.1680 0.0000
# 3 40.5825 116.7226 158.2103 0.0000 42.6407 0.0000
# 4 0.0000 0.0000 0.0000 41.6915 0.0000 -8.2569
# 5 23.4831 19.1680 42.6407 0.0000 38.0484 0.0000
# 6 0.0000 0.0000 0.0000 -8.2569 0.0000 48.9270
#
#
#
# Elastic Compliance Matrix: (Units=1/GPa)
#
#
# Indices 1 2 3 4 5 6 
#
# 1 0.013502 -0.001106 -0.000790 0.000000 -0.006891 0.000000
# 2 -0.001106 0.005606 -0.004693 0.000000 0.003117 0.000000
# 3 -0.000790 -0.004693 0.013206 0.000000 -0.011948 0.000000
# 4 0.000000 0.000000 0.000000 0.024815 0.000000 0.004188
# 5 -0.006891 0.003117 -0.011948 0.000000 0.042355 0.000000
# 6 0.000000 0.000000 0.000000 0.004188 0.000000 0.021145
#
#
# Mechanical properties :
#
#
# Convention : Reuss Voigt Hill
#
# Bulk Modulus (GPa) = 52.25678 101.72420 76.99049
# Shear Modulus (GPa) = 35.66686 47.50902 41.58794
#
# Velocity S-wave (km/s) = 3.64712 4.20926 3.93824
# Velocity P-wave (km/s) = 6.10114 7.84606 7.02796
#
# Compressibility (1/GPa) = 0.01913627
#
# Stress axis : x y z
#
# Youngs Moduli (GPa) = 74.06087 178.36969 75.72551
#
# Poissons Ratio (x) = 0.19734 0.05983
# Poissons Ratio (y) = 0.08194 0.35535
# Poissons Ratio (z) = 0.05851 0.83702
#
# Static dielectric constant tensor:
#      x y z
#    x 2.164500 0.000000 -0.101710 
#    y 0.000000 2.127760 0.000000 
#    z -0.101710 0.000000 2.276340 
# 
# From -- ./inp_files/10696.got.cif
#   From: 2010.05.17/outbox.cif.g08.bks.cpg/sg4_6_cif.got.tgz:10696.got - 2010.06.03 18:43:04.
