data_PCOD9118533
_publ_section_title
;
Structure prediction by ZEFSAII (Michael W. Deem and Ramdas Pophale) SiO2 
 PCOD9118533
Probable space group: P 21
;
_chemical_formula_sum "Si O2"
_cell_formula_units_Z 16
_cell_length_a 17.254736
_cell_length_b 9.527394
_cell_length_c 8.416850
_cell_angle_alpha 90.000000
_cell_angle_beta 146.809018
_cell_angle_gamma 90.000000
_cell_volume 757.463705
_symmetry_space_group_name_H-M "P 21"
_symmetry_group_IT_number 4
_symmetry_cell_setting 'monoclinic'
loop_
_space_group_symop_operation_xyz
x,y,z
-x,1/2+y,-z
loop_
_atom_site_type_symbol
_atom_site_label
_atom_site_fract_x
_atom_site_fract_y
_atom_site_fract_z
Si Si1 0.650979 0.848320 0.545052
Si Si2 0.584184 0.585432 0.240291
Si Si3 0.668423 0.399773 0.907853
Si Si4 0.860770 0.889412 0.199321
Si Si5 0.683930 0.685620 0.077719
Si Si6 0.371262 0.801171 0.512016
Si Si7 0.882220 0.177505 0.407133
Si Si8 0.270196 0.574490 0.559945
O O1 0.625397 0.686468 0.456204
O O2 0.494264 0.907000 0.312939
O O3 0.716290 0.925224 0.503166
O O4 0.749341 0.878495 0.864017
O O5 0.670905 0.633492 0.235024
O O6 0.613307 0.426177 0.335847
O O7 0.419289 0.596920 0.908844
O O8 0.675838 0.363261 0.735751
O O9 0.731474 0.551990 0.055749
O O10 0.747142 0.273686 0.131686
O O11 0.783934 0.817118 0.218361
O O12 0.990706 0.788418 0.379609
O O13 0.897104 0.048847 0.308480
O O14 0.526475 0.733470 0.755999
O O15 0.270724 0.684919 0.415690
O O16 0.853614 0.107809 0.529612
#
# Coordination Sequence:
#
# PCOD9118533 Si02
#       8
#     2   2   2   2   2   2   2   2
#     4  12  23  41  71 104 136 173 230 284 344 403
#     4  11  21  36  63 102 134 171 216 283 344 398
#     4  12  23  40  69 103 136 174 225 292 341 408
#     4  12  27  47  69  98 137 189 234 281 338 415
#     4  11  23  39  66  99 138 175 226 275 350 408
#     4  11  22  35  63 101 135 167 219 285 338 398
#     4  12  27  48  70  95 143 188 231 280 346 412
#     4  11  22  42  65 100 137 177 219 284 345 406
#
# _framework density 21.123123
#
# number of rings (size 3 to 8) (size 9 to 14) (size 15 to 20)
#    0.000    0.500    5.000    6.000    0.000    0.000 
#    0.000    8.750    0.000    0.000    0.000    0.000 
#    0.000    0.000    0.000    0.000    0.000    0.000 
#
# Total GULP energy -89502.706783 kJ/mol
# GULP energy per Si atom -5593.919174 kJ/mol
# Density = 2.107505 g / cm^3
# Si number density = 21.123123 Si / 1000 Ang^3
#
#
#
# Elastic Constant Matrix: (Units=GPa)
#
#
# Indices 1 2 3 4 5 6 
#
# 1 46.9982 0.9729 14.9173 0.0000 6.4028 0.0000
# 2 0.9729 123.4800 21.8872 0.0000 4.2428 0.0000
# 3 14.9173 21.8872 48.2473 0.0000 10.6203 0.0000
# 4 0.0000 0.0000 0.0000 12.1248 0.0000 -2.8281
# 5 6.4028 4.2428 10.6203 0.0000 22.2862 0.0000
# 6 0.0000 0.0000 0.0000 -2.8281 0.0000 46.0710
#
#
#
# Elastic Compliance Matrix: (Units=1/GPa)
#
#
# Indices 1 2 3 4 5 6 
#
# 1 0.024032 0.001207 -0.007159 0.000000 -0.003723 0.000000
# 2 0.001207 0.008869 -0.004411 0.000000 0.000067 0.000000
# 3 -0.007159 -0.004411 0.027152 0.000000 -0.010042 0.000000
# 4 0.000000 0.000000 0.000000 0.083674 0.000000 0.005136
# 5 -0.003723 0.000067 -0.010042 0.000000 0.050713 0.000000
# 6 0.000000 0.000000 0.000000 0.005136 0.000000 0.022021
#
#
# Mechanical properties :
#
#
# Convention : Reuss Voigt Hill
#
# Bulk Modulus (GPa) = 25.42768 32.69782 29.06275
# Shear Modulus (GPa) = 19.97654 28.15960 24.06807
#
# Velocity S-wave (km/s) = 3.07859 3.65515 3.37919
# Velocity P-wave (km/s) = 4.97000 5.77293 5.38645
#
# Compressibility (1/GPa) = 0.03932723
#
# Stress axis : x y z
#
# Youngs Moduli (GPa) = 41.61171 112.75782 36.83031
#
# Poissons Ratio (x) = -0.13615 0.26365
# Poissons Ratio (y) = -0.05024 0.16247
# Poissons Ratio (z) = 0.29788 0.49740
#
# Static dielectric constant tensor:
#      x y z
#    x 1.772070 0.000000 0.001260 
#    y 0.000000 1.772140 0.000000 
#    z 0.001260 0.000000 1.740000 
# 
# From -- ./inp_files/5578.got.cif
#   From: 2010.05.17/outbox.cif.g08.bks.cpg/sg4_3_cif.got.tgz:5578.got - 2010.06.03 18:43:04.
