data_PCOD9118640
_publ_section_title
;
Structure prediction by ZEFSAII (Michael W. Deem and Ramdas Pophale) SiO2 
 PCOD9118640
Probable space group: P 21
;
_chemical_formula_sum "Si O2"
_cell_formula_units_Z 16
_cell_length_a 9.164640
_cell_length_b 5.257417
_cell_length_c 14.558404
_cell_angle_alpha 90.000000
_cell_angle_beta 62.606789
_cell_angle_gamma 90.000000
_cell_volume 622.803349
_symmetry_space_group_name_H-M "P 21"
_symmetry_group_IT_number 4
_symmetry_cell_setting 'monoclinic'
loop_
_space_group_symop_operation_xyz
x,y,z
-x,1/2+y,-z
loop_
_atom_site_type_symbol
_atom_site_label
_atom_site_fract_x
_atom_site_fract_y
_atom_site_fract_z
Si Si1 0.507328 0.040760 0.942470
Si Si2 0.829825 0.369578 0.622162
Si Si3 0.102054 0.051659 0.602399
Si Si4 0.562187 0.078699 0.629190
Si Si5 0.096549 0.532703 0.820577
Si Si6 0.344753 0.401008 0.600438
Si Si7 0.260850 0.012534 0.846057
Si Si8 0.180274 0.231239 0.217964
O O1 0.358355 0.047802 0.912752
O O2 0.676901 0.917186 0.856808
O O3 0.537678 0.328444 0.967615
O O4 0.856470 0.452775 0.510090
O O5 0.723841 0.114113 0.642746
O O6 0.752163 0.555650 0.718887
O O7 0.009943 0.317317 0.609474
O O8 0.262365 0.122613 0.612143
O O9 0.970442 0.892330 0.696051
O O10 0.500492 0.364663 0.620747
O O11 0.608735 0.972927 0.515987
O O12 0.415194 0.970013 0.731648
O O13 0.213621 0.556031 0.696159
O O14 0.154540 0.262342 0.847232
O O15 0.911323 0.568383 0.836204
O O16 0.145720 0.764980 0.872753
#
# Coordination Sequence:
#
# PCOD9118640 Si02
#       8
#     2   2   2   2   2   2   2   2
#     4  12  31  55  85 118 150 195 269 340 410 472
#     4  12  24  38  64 105 151 197 264 296 373 444
#     4  12  23  42  63 105 152 206 257 312 365 468
#     4  11  23  37  64 105 150 208 249 305 357 449
#     4  11  24  46  75 113 153 204 247 311 377 480
#     4  11  22  39  62 104 157 201 260 289 368 449
#     4  11  26  49  78 110 153 198 257 314 396 451
#     4  12  27  46  77 108 156 203 253 327 396 453
#
# _framework density 25.690291999999999
#
# number of rings (size 3 to 8) (size 9 to 14) (size 15 to 20)
#    0.000    0.500    2.500    6.000    8.750    0.000 
#    0.000    2.500    0.000    0.000    0.000    0.000 
#    0.000    0.000    0.000    0.000    0.000    0.000 
#
# Total GULP energy -89544.741489 kJ/mol
# GULP energy per Si atom -5596.546343 kJ/mol
# Density = 2.563182 g / cm^3
# Si number density = 25.690292 Si / 1000 Ang^3
#
#
#
# Elastic Constant Matrix: (Units=GPa)
#
#
# Indices 1 2 3 4 5 6 
#
# 1 115.3546 32.1900 37.2573 0.0000 16.3435 0.0000
# 2 32.1900 87.5720 9.4618 0.0000 6.8810 0.0000
# 3 37.2573 9.4618 77.2698 0.0000 4.1323 0.0000
# 4 0.0000 0.0000 0.0000 45.9934 0.0000 1.1768
# 5 16.3435 6.8810 4.1323 0.0000 30.6691 0.0000
# 6 0.0000 0.0000 0.0000 1.1768 0.0000 51.9057
#
#
#
# Elastic Compliance Matrix: (Units=1/GPa)
#
#
# Indices 1 2 3 4 5 6 
#
# 1 0.011976 -0.003466 -0.005087 0.000000 -0.004919 0.000000
# 2 -0.003466 0.012757 0.000165 0.000000 -0.001037 0.000000
# 3 -0.005087 0.000165 0.015342 0.000000 0.000607 0.000000
# 4 0.000000 0.000000 0.000000 0.021755 0.000000 -0.000493
# 5 -0.004919 -0.001037 0.000607 0.000000 0.035378 0.000000
# 6 0.000000 0.000000 0.000000 -0.000493 0.000000 0.019277
#
#
# Mechanical properties :
#
#
# Convention : Reuss Voigt Hill
#
# Bulk Modulus (GPa) = 42.92230 48.66830 45.79530
# Shear Modulus (GPa) = 35.45395 39.13279 37.29337
#
# Velocity S-wave (km/s) = 3.71894 3.90712 3.81419
# Velocity P-wave (km/s) = 5.93165 6.27212 6.10426
#
# Compressibility (1/GPa) = 0.02329791
#
# Stress axis : x y z
#
# Youngs Moduli (GPa) = 83.49993 78.38857 65.18111
#
# Poissons Ratio (x) = 0.27170 0.33158
# Poissons Ratio (y) = 0.28942 -0.01073
# Poissons Ratio (z) = 0.42477 -0.01290
#
# Static dielectric constant tensor:
#      x y z
#    x 1.937160 0.000000 -0.020180 
#    y 0.000000 2.078180 0.000000 
#    z -0.020180 0.000000 2.050790 
# 
# From -- ./inp_files/13447.got.cif
#   From: 2010.05.17/outbox.cif.g08.bks.cpg/sg4_7_cif.got.tgz:13447.got - 2010.06.03 18:43:04.
