data_PCOD9118216
_publ_section_title
;
Structure prediction by ZEFSAII (Michael W. Deem and Ramdas Pophale) SiO2 
 PCOD9118216
Probable space group: P 21
;
_chemical_formula_sum "Si O2"
_cell_formula_units_Z 14
_cell_length_a 13.579523
_cell_length_b 8.205957
_cell_length_c 5.112131
_cell_angle_alpha 90.000000
_cell_angle_beta 109.223577
_cell_angle_gamma 90.000000
_cell_volume 537.896308
_symmetry_space_group_name_H-M "P 21"
_symmetry_group_IT_number 4
_symmetry_cell_setting 'monoclinic'
loop_
_space_group_symop_operation_xyz
x,y,z
-x,1/2+y,-z
loop_
_atom_site_type_symbol
_atom_site_label
_atom_site_fract_x
_atom_site_fract_y
_atom_site_fract_z
Si Si1 0.791780 0.122570 0.855899
Si Si2 0.633717 0.876516 0.591977
Si Si3 0.064747 0.182989 0.342594
Si Si4 0.470911 0.498302 0.980208
Si Si5 0.333269 0.818639 0.866537
Si Si6 0.813049 0.789957 0.050415
Si Si7 0.894113 0.319740 0.565623
O O1 0.719447 0.264159 0.906553
O O2 0.891045 0.185472 0.790173
O O3 0.723327 0.009120 0.607761
O O4 0.809313 0.985764 0.094380
O O5 0.573235 0.865098 0.269320
O O6 0.702764 0.745392 0.812770
O O7 0.560177 0.952867 0.750768
O O8 0.105666 0.259487 0.111476
O O9 0.961188 0.260496 0.378229
O O10 0.059613 0.989867 0.303570
O O11 0.150756 0.208008 0.652061
O O12 0.594650 0.477338 0.067002
O O13 0.413620 0.669716 0.867307
O O14 0.228991 0.837974 0.604474
#
# Coordination Sequence:
#
# PCOD9118216 Si02
#       7
#     2   2   2   2   2   2   2
#     4   9  23  46  78  96 159 188 247 311 382 421
#     4   9  21  42  76  96 140 190 241 298 367 431
#     4  12  29  45  77 112 150 200 256 304 392 444
#     4  11  23  43  70 106 139 198 237 302 373 439
#     4  11  26  46  72 109 150 193 248 311 368 453
#     4  10  24  48  76 110 146 203 247 313 370 459
#     4  12  28  48  75 113 152 200 252 321 368 465
#
# _framework density 26.027322000000002
#
# number of rings (size 3 to 8) (size 9 to 14) (size 15 to 20)
#    0.857    0.571    1.429    1.714   10.000    2.286 
#    0.000    0.000    0.000    0.000    0.000    0.000 
#    0.000    0.000    0.000    0.000    0.000    0.000 
#
# Total GULP energy -78214.804928 kJ/mol
# GULP energy per Si atom -5586.771781 kJ/mol
# Density = 2.596808 g / cm^3
# Si number density = 26.027322 Si / 1000 Ang^3
#
#
#
# Elastic Constant Matrix: (Units=GPa)
#
#
# Indices 1 2 3 4 5 6 
#
# 1 99.7466 52.6345 6.6520 0.0000 3.1044 0.0000
# 2 52.6345 76.9592 8.3253 0.0000 -10.0464 0.0000
# 3 6.6520 8.3253 91.0779 0.0000 2.0983 0.0000
# 4 0.0000 0.0000 0.0000 33.0720 0.0000 -0.8131
# 5 3.1044 -10.0464 2.0983 0.0000 53.4314 0.0000
# 6 0.0000 0.0000 0.0000 -0.8131 0.0000 50.7699
#
#
#
# Elastic Compliance Matrix: (Units=1/GPa)
#
#
# Indices 1 2 3 4 5 6 
#
# 1 0.016171 -0.011457 -0.000063 0.000000 -0.003091 0.000000
# 2 -0.011457 0.021587 -0.001246 0.000000 0.004774 0.000000
# 3 -0.000063 -0.001246 0.011114 0.000000 -0.000667 0.000000
# 4 0.000000 0.000000 0.000000 0.030249 0.000000 0.000484
# 5 -0.003091 0.004774 -0.000667 0.000000 0.019819 0.000000
# 6 0.000000 0.000000 0.000000 0.000484 0.000000 0.019704
#
#
# Mechanical properties :
#
#
# Convention : Reuss Voigt Hill
#
# Bulk Modulus (GPa) = 42.84393 44.77856 43.81124
# Shear Modulus (GPa) = 32.90414 40.79947 36.85181
#
# Velocity S-wave (km/s) = 3.55944 3.96354 3.76691
# Velocity P-wave (km/s) = 5.77838 6.17964 5.98238
#
# Compressibility (1/GPa) = 0.02334053
#
# Stress axis : x y z
#
# Youngs Moduli (GPa) = 61.83787 46.32315 89.98064
#
# Poissons Ratio (x) = 0.53071 0.00564
# Poissons Ratio (y) = 0.70846 0.11216
# Poissons Ratio (z) = 0.00387 0.05774
#
# Static dielectric constant tensor:
#      x y z
#    x 2.054610 0.000000 0.105460 
#    y 0.000000 2.033280 0.000000 
#    z 0.105460 0.000000 2.115350 
# 
# From -- ./inp_files/3492.got.cif
#   From: 2010.05.17/outbox.cif.g08.bks.cpg/sg4_2_cif.got.tgz:3492.got - 2010.06.03 18:43:04.
