data_PCOD9118804
_publ_section_title
;
Structure prediction by ZEFSAII (Michael W. Deem and Ramdas Pophale) SiO2 
 PCOD9118804
Probable space group: P 21
;
_chemical_formula_sum "Si O2"
_cell_formula_units_Z 16
_cell_length_a 9.732735
_cell_length_b 16.091088
_cell_length_c 9.737539
_cell_angle_alpha 90.000000
_cell_angle_beta 150.592490
_cell_angle_gamma 90.000000
_cell_volume 748.801803
_symmetry_space_group_name_H-M "P 21"
_symmetry_group_IT_number 4
_symmetry_cell_setting 'monoclinic'
loop_
_space_group_symop_operation_xyz
x,y,z
-x,1/2+y,-z
loop_
_atom_site_type_symbol
_atom_site_label
_atom_site_fract_x
_atom_site_fract_y
_atom_site_fract_z
Si Si1 0.948518 0.265140 0.820668
Si Si2 0.879252 0.635045 0.606345
Si Si3 0.279100 0.353158 0.865690
Si Si4 0.648896 0.987860 0.598442
Si Si5 0.180532 0.889655 0.050873
Si Si6 0.600839 0.019730 0.873767
Si Si7 0.864362 0.301916 0.279649
Si Si8 0.598864 0.666627 0.649262
O O1 0.085637 0.311133 0.812430
O O2 0.949368 0.326822 0.951063
O O3 0.632798 0.236055 0.522307
O O4 0.133971 0.185941 0.025362
O O5 0.669928 0.576912 0.338122
O O6 0.013165 0.710390 0.639713
O O7 0.699026 0.669984 0.577591
O O8 0.125723 0.577900 0.882030
O O9 0.093548 0.351860 0.566974
O O10 0.362487 0.444765 0.989023
O O11 0.565638 0.302612 0.094537
O O12 0.478491 0.918585 0.366971
O O13 0.574763 0.984225 0.696176
O O14 0.543525 0.077279 0.456669
O O15 0.974707 0.968683 0.866644
O O16 0.189590 0.844975 0.913436
#
# Coordination Sequence:
#
# PCOD9118804 Si02
#       8
#     2   2   2   2   2   2   2   2
#     4  12  24  42  70 100 133 174 229 283 340 396
#     4  11  23  43  72 102 137 181 235 285 342 416
#     4  12  27  46  68 103 143 186 229 280 345 418
#     4  11  23  40  69 104 135 170 226 292 342 393
#     4  12  24  42  70 100 133 174 229 283 340 396
#     4  11  23  43  72 102 137 181 235 285 342 416
#     4  12  27  46  68 103 143 186 229 280 345 418
#     4  11  23  40  69 104 135 170 226 292 342 393
#
# _framework density 21.367469
#
# number of rings (size 3 to 8) (size 9 to 14) (size 15 to 20)
#    0.000    0.500    2.500    7.500    3.500    0.000 
#    0.000   12.500    0.000    0.000    0.000    0.000 
#    0.000    0.000    0.000    0.000    0.000    0.000 
#
# Total GULP energy -89603.014127 kJ/mol
# GULP energy per Si atom -5600.188383 kJ/mol
# Density = 2.131884 g / cm^3
# Si number density = 21.367469 Si / 1000 Ang^3
#
#
#
# Elastic Constant Matrix: (Units=GPa)
#
#
# Indices 1 2 3 4 5 6 
#
# 1 82.7209 46.7477 41.6354 0.0000 -9.0742 0.0000
# 2 46.7477 84.8394 33.2917 0.0000 -8.1451 0.0000
# 3 41.6354 33.2917 115.3763 0.0000 9.4215 0.0000
# 4 0.0000 0.0000 0.0000 41.1027 0.0000 7.0828
# 5 -9.0742 -8.1451 9.4215 0.0000 20.4934 0.0000
# 6 0.0000 0.0000 0.0000 7.0828 0.0000 16.2444
#
#
#
# Elastic Compliance Matrix: (Units=1/GPa)
#
#
# Indices 1 2 3 4 5 6 
#
# 1 0.020578 -0.008280 -0.005727 0.000000 0.008454 0.000000
# 2 -0.008280 0.017772 -0.002512 0.000000 0.004552 0.000000
# 3 -0.005727 -0.002512 0.012206 0.000000 -0.009146 0.000000
# 4 0.000000 0.000000 0.000000 0.026306 0.000000 -0.011470
# 5 0.008454 0.004552 -0.009146 0.000000 0.058553 0.000000
# 6 0.000000 0.000000 0.000000 -0.011470 0.000000 0.066561
#
#
# Mechanical properties :
#
#
# Convention : Reuss Voigt Hill
#
# Bulk Modulus (GPa) = 57.08420 58.47627 57.78023
# Shear Modulus (GPa) = 20.75964 26.31888 23.53926
#
# Velocity S-wave (km/s) = 3.12036 3.51340 3.32270
# Velocity P-wave (km/s) = 6.30521 6.62458 6.46686
#
# Compressibility (1/GPa) = 0.01751798
#
# Stress axis : x y z
#
# Youngs Moduli (GPa) = 48.59604 56.26842 81.92944
#
# Poissons Ratio (x) = 0.46589 0.46921
# Poissons Ratio (y) = 0.40236 0.20580
# Poissons Ratio (z) = 0.27831 0.14134
#
# Static dielectric constant tensor:
#      x y z
#    x 1.741630 0.000000 0.003640 
#    y 0.000000 1.799070 0.000000 
#    z 0.003640 0.000000 1.753490 
# 
# From -- ./inp_files/6919.got.cif
#   From: 2010.05.17/outbox.cif.g08.bks.cpg/sg4_4_cif.got.tgz:6919.got - 2010.06.03 18:43:04.
