data_PCOD9118198
_publ_section_title
;
Structure prediction by ZEFSAII (Michael W. Deem and Ramdas Pophale) SiO2 
 PCOD9118198
Probable space group: P 21
;
_chemical_formula_sum "Si O2"
_cell_formula_units_Z 14
_cell_length_a 10.768210
_cell_length_b 9.854920
_cell_length_c 12.433052
_cell_angle_alpha 90.000000
_cell_angle_beta 154.480020
_cell_angle_gamma 90.000000
_cell_volume 568.428822
_symmetry_space_group_name_H-M "P 21"
_symmetry_group_IT_number 4
_symmetry_cell_setting 'monoclinic'
loop_
_space_group_symop_operation_xyz
x,y,z
-x,1/2+y,-z
loop_
_atom_site_type_symbol
_atom_site_label
_atom_site_fract_x
_atom_site_fract_y
_atom_site_fract_z
Si Si1 0.809382 0.902460 0.564087
Si Si2 0.859079 0.401552 0.623253
Si Si3 0.360090 0.257703 0.914324
Si Si4 0.557520 0.500625 0.922474
Si Si5 0.289041 0.355113 0.277044
Si Si6 0.894985 0.102661 0.010720
Si Si7 0.261034 0.138912 0.611377
O O1 0.642156 0.877956 0.544111
O O2 0.891948 0.754493 0.579827
O O3 0.231067 0.175631 0.711936
O O4 0.096487 0.986854 0.816423
O O5 0.573681 0.321471 0.431785
O O6 0.828633 0.487172 0.489433
O O7 0.129827 0.306497 0.821155
O O8 0.913362 0.516392 0.755626
O O9 0.488897 0.390460 0.960833
O O10 0.550690 0.146427 0.122321
O O11 0.394039 0.464865 0.685646
O O12 0.058038 0.234577 0.095312
O O13 0.180530 0.495865 0.141427
O O14 0.599391 0.144971 0.840343
#
# Coordination Sequence:
#
# PCOD9118198 Si02
#       7
#     2   2   2   2   2   2   2
#     4  11  25  49  78 112 152 209 260 319 393 473
#     4  11  26  47  76 115 151 205 264 323 400 464
#     4  11  26  49  77 112 158 200 268 328 391 473
#     4  11  28  47  81 114 155 210 268 324 397 464
#     4  11  26  48  80 109 161 206 263 324 397 477
#     4  11  25  49  76 114 157 209 261 324 399 468
#     4  10  24  47  76 106 154 209 254 322 395 465
#
# _framework density 24.629294000000002
#
# number of rings (size 3 to 8) (size 9 to 14) (size 15 to 20)
#    0.000    1.143    1.429    2.571   10.000    3.429 
#    5.143    0.000    0.000    0.000    0.000    0.000 
#    0.000    0.000    0.000    0.000    0.000    0.000 
#
# Total GULP energy -78479.704418 kJ/mol
# GULP energy per Si atom -5605.693173 kJ/mol
# Density = 2.457324 g / cm^3
# Si number density = 24.629294 Si / 1000 Ang^3
#
#
#
# Elastic Constant Matrix: (Units=GPa)
#
#
# Indices 1 2 3 4 5 6 
#
# 1 61.3792 39.2487 5.3022 0.0000 -10.9487 0.0000
# 2 39.2487 86.0245 31.3587 0.0000 -4.9058 0.0000
# 3 5.3022 31.3587 75.6919 0.0000 4.7792 0.0000
# 4 0.0000 0.0000 0.0000 23.1786 0.0000 -2.6222
# 5 -10.9487 -4.9058 4.7792 0.0000 25.3877 0.0000
# 6 0.0000 0.0000 0.0000 -2.6222 0.0000 40.8291
#
#
#
# Elastic Compliance Matrix: (Units=1/GPa)
#
#
# Indices 1 2 3 4 5 6 
#
# 1 0.025172 -0.012014 0.002707 0.000000 0.008024 0.000000
# 2 -0.012014 0.019790 -0.007359 0.000000 0.000028 0.000000
# 3 0.002707 -0.007359 0.016280 0.000000 -0.003319 0.000000
# 4 0.000000 0.000000 0.000000 0.043459 0.000000 0.002791
# 5 0.008024 0.000028 -0.003319 0.000000 0.043480 0.000000
# 6 0.000000 0.000000 0.000000 0.002791 0.000000 0.024672
#
#
# Mechanical properties :
#
#
# Convention : Reuss Voigt Hill
#
# Bulk Modulus (GPa) = 35.82840 41.65721 38.74281
# Shear Modulus (GPa) = 23.20307 27.69148 25.44727
#
# Velocity S-wave (km/s) = 3.07268 3.35674 3.21785
# Velocity P-wave (km/s) = 5.21221 5.65456 5.43788
#
# Compressibility (1/GPa) = 0.02791082
#
# Stress axis : x y z
#
# Youngs Moduli (GPa) = 39.72663 50.52975 61.42412
#
# Poissons Ratio (x) = 0.60707 -0.16630
# Poissons Ratio (y) = 0.47728 0.45203
# Poissons Ratio (z) = -0.10756 0.37186
#
# Static dielectric constant tensor:
#      x y z
#    x 1.935460 0.000000 0.017200 
#    y 0.000000 1.938910 0.000000 
#    z 0.017200 0.000000 1.976950 
# 
# From -- ./inp_files/13953.got.cif
#   From: 2010.05.17/outbox.cif.g08.bks.cpg/sg4_7_cif.got.tgz:13953.got - 2010.06.03 18:43:04.
