data_PCOD9118696
_publ_section_title
;
Structure prediction by ZEFSAII (Michael W. Deem and Ramdas Pophale) SiO2 
 PCOD9118696
Probable space group: P 21
;
_chemical_formula_sum "Si O2"
_cell_formula_units_Z 12
_cell_length_a 12.108086
_cell_length_b 7.968863
_cell_length_c 8.147300
_cell_angle_alpha 90.000000
_cell_angle_beta 143.837137
_cell_angle_gamma 90.000000
_cell_volume 463.872153
_symmetry_space_group_name_H-M "P 21"
_symmetry_group_IT_number 4
_symmetry_cell_setting 'monoclinic'
loop_
_space_group_symop_operation_xyz
x,y,z
-x,1/2+y,-z
loop_
_atom_site_type_symbol
_atom_site_label
_atom_site_fract_x
_atom_site_fract_y
_atom_site_fract_z
Si Si1 0.714725 0.458860 0.741533
Si Si2 0.027464 0.609156 0.292117
Si Si3 0.179468 0.852339 0.717937
Si Si4 0.843072 0.112934 0.029095
Si Si5 0.346253 0.444378 0.489586
Si Si6 0.709732 0.588550 0.405187
O O1 0.555389 0.488006 0.684926
O O2 0.638707 0.473640 0.468579
O O3 0.878324 0.593991 0.966680
O O4 0.798496 0.275635 0.864099
O O5 0.947400 0.463869 0.314367
O O6 0.045939 0.775972 0.417371
O O7 0.230899 0.565564 0.469112
O O8 0.239155 0.685158 0.894562
O O9 0.323223 0.981970 0.801658
O O10 0.063682 0.100436 0.322147
O O11 0.760670 0.962420 0.817770
O O12 0.349132 0.271640 0.597500
#
# Coordination Sequence:
#
# PCOD9118696 Si02
#       6
#     2   2   2   2   2   2
#     4  11  25  42  70 107 139 188 253 299 359 433
#     4  11  22  43  69 102 146 188 247 298 370 427
#     4  11  23  42  74 104 144 198 238 300 378 437
#     4  11  22  45  67 105 141 187 241 300 362 430
#     4  12  24  44  72 105 141 190 248 304 356 437
#     4  12  22  42  74 105 139 195 241 299 369 434
#
# _framework density 25.869197
#
# number of rings (size 3 to 8) (size 9 to 14) (size 15 to 20)
#    0.000    0.667    6.667    2.000    2.333    0.000 
#    0.000   13.333    0.000    0.000    0.000    0.000 
#    0.000    0.000    0.000    0.000    0.000    0.000 
#
# Total GULP energy -66968.565915 kJ/mol
# GULP energy per Si atom -5580.713826 kJ/mol
# Density = 2.581032 g / cm^3
# Si number density = 25.869197 Si / 1000 Ang^3
#
#
#
# Elastic Constant Matrix: (Units=GPa)
#
#
# Indices 1 2 3 4 5 6 
#
# 1 168.6113 50.2809 27.6954 0.0000 -11.6787 0.0000
# 2 50.2809 102.3150 19.4514 0.0000 -12.7137 0.0000
# 3 27.6954 19.4514 56.4797 0.0000 6.7159 0.0000
# 4 0.0000 0.0000 0.0000 30.7128 0.0000 -22.7966
# 5 -11.6787 -12.7137 6.7159 0.0000 53.8201 0.0000
# 6 0.0000 0.0000 0.0000 -22.7966 0.0000 54.3200
#
#
#
# Elastic Compliance Matrix: (Units=1/GPa)
#
#
# Indices 1 2 3 4 5 6 
#
# 1 0.007341 -0.002933 -0.002737 0.000000 0.001242 0.000000
# 2 -0.002933 0.012118 -0.003045 0.000000 0.002606 0.000000
# 3 -0.002737 -0.003045 0.020558 0.000000 -0.003879 0.000000
# 4 0.000000 0.000000 0.000000 0.047291 0.000000 0.019847
# 5 0.001242 0.002606 -0.003879 0.000000 0.019949 0.000000
# 6 0.000000 0.000000 0.000000 0.019847 0.000000 0.026739
#
#
# Mechanical properties :
#
#
# Convention : Reuss Voigt Hill
#
# Bulk Modulus (GPa) = 44.27530 58.02905 51.15217
# Shear Modulus (GPa) = 31.45555 43.10247 37.27901
#
# Velocity S-wave (km/s) = 3.49082 4.08630 3.80025
# Velocity P-wave (km/s) = 5.77928 6.68911 6.25077
#
# Compressibility (1/GPa) = 0.02258596
#
# Stress axis : x y z
#
# Youngs Moduli (GPa) = 136.22041 82.52323 48.64368
#
# Poissons Ratio (x) = 0.24204 0.13315
# Poissons Ratio (y) = 0.39953 0.14812
# Poissons Ratio (z) = 0.37288 0.25129
#
# Static dielectric constant tensor:
#      x y z
#    x 2.038760 0.000000 -0.065550 
#    y 0.000000 2.108500 0.000000 
#    z -0.065550 0.000000 2.121190 
# 
# From -- ./inp_files/7454.got.cif
#   From: 2010.05.17/outbox.cif.g08.bks.cpg/sg4_4_cif.got.tgz:7454.got - 2010.06.03 18:43:04.
