data_PCOD9118620
_publ_section_title
;
Structure prediction by ZEFSAII (Michael W. Deem and Ramdas Pophale) SiO2 
 PCOD9118620
Probable space group: P 21
;
_chemical_formula_sum "Si O2"
_cell_formula_units_Z 16
_cell_length_a 13.774851
_cell_length_b 8.950380
_cell_length_c 5.403628
_cell_angle_alpha 90.000000
_cell_angle_beta 107.199554
_cell_angle_gamma 90.000000
_cell_volume 636.421459
_symmetry_space_group_name_H-M "P 21"
_symmetry_group_IT_number 4
_symmetry_cell_setting 'monoclinic'
loop_
_space_group_symop_operation_xyz
x,y,z
-x,1/2+y,-z
loop_
_atom_site_type_symbol
_atom_site_label
_atom_site_fract_x
_atom_site_fract_y
_atom_site_fract_z
Si Si1 0.261008 0.140170 0.974628
Si Si2 0.205644 0.845829 0.427145
Si Si3 0.406736 0.954826 0.780658
Si Si4 0.867504 0.175658 0.130718
Si Si5 0.433493 0.490170 0.719428
Si Si6 0.107137 0.167031 0.232059
Si Si7 0.784979 0.910043 0.373783
Si Si8 0.436747 0.213914 0.433446
O O1 0.145122 0.141395 0.977820
O O2 0.322512 0.203954 0.252393
O O3 0.269023 0.264634 0.776029
O O4 0.323580 0.996513 0.936547
O O5 0.327516 0.866263 0.545878
O O6 0.159869 0.767882 0.638952
O O7 0.157747 0.015167 0.385965
O O8 0.179128 0.753139 0.154111
O O9 0.438020 0.107781 0.669757
O O10 0.511152 0.917142 0.002560
O O11 0.987257 0.165779 0.172610
O O12 0.833259 0.008503 0.189992
O O13 0.312649 0.505213 0.615149
O O14 0.463722 0.379866 0.521727
O O15 0.488506 0.644523 0.710179
O O16 0.141908 0.328985 0.372255
#
# Coordination Sequence:
#
# PCOD9118620 Si02
#       8
#     2   2   2   2   2   2   2   2
#     4  11  21  46  79 103 146 211 270 316 389 503
#     4  12  27  55  74 120 160 208 264 343 406 478
#     4  11  24  46  76 108 152 207 267 315 407 493
#     4  12  33  47  82 124 161 199 275 354 405 456
#     4  11  26  45  76 112 154 209 265 323 404 481
#     4  12  26  50  86 105 157 222 269 318 418 505
#     4  12  27  53  74 117 158 210 269 334 403 492
#     4  11  24  46  71 109 148 208 261 321 390 484
#
# _framework density 25.140574999999998
#
# number of rings (size 3 to 8) (size 9 to 14) (size 15 to 20)
#    0.000    0.500    5.000    1.500    8.750    2.000 
#    0.000    0.000    0.000    0.000    0.000    0.000 
#    0.000    0.000    0.000    0.000    0.000    0.000 
#
# Total GULP energy -89347.953996 kJ/mol
# GULP energy per Si atom -5584.247125 kJ/mol
# Density = 2.508335 g / cm^3
# Si number density = 25.140575 Si / 1000 Ang^3
#
#
#
# Elastic Constant Matrix: (Units=GPa)
#
#
# Indices 1 2 3 4 5 6 
#
# 1 146.1243 36.1455 25.8364 0.0000 17.6142 0.0000
# 2 36.1455 88.6227 38.0353 0.0000 7.1044 0.0000
# 3 25.8364 38.0353 110.0700 0.0000 -2.3827 0.0000
# 4 0.0000 0.0000 0.0000 45.9350 0.0000 -11.8238
# 5 17.6142 7.1044 -2.3827 0.0000 34.0041 0.0000
# 6 0.0000 0.0000 0.0000 -11.8238 0.0000 48.0792
#
#
#
# Elastic Compliance Matrix: (Units=1/GPa)
#
#
# Indices 1 2 3 4 5 6 
#
# 1 0.008119 -0.002533 -0.001112 0.000000 -0.003754 0.000000
# 2 -0.002533 0.014372 -0.004415 0.000000 -0.002000 0.000000
# 3 -0.001112 -0.004415 0.010921 0.000000 0.002263 0.000000
# 4 0.000000 0.000000 0.000000 0.023241 0.000000 0.005716
# 5 -0.003754 -0.002000 0.002263 0.000000 0.031929 0.000000
# 6 0.000000 0.000000 0.000000 0.005716 0.000000 0.022205
#
#
# Mechanical properties :
#
#
# Convention : Reuss Voigt Hill
#
# Bulk Modulus (GPa) = 57.83025 60.53902 59.18463
# Shear Modulus (GPa) = 37.68702 41.92362 39.80532
#
# Velocity S-wave (km/s) = 3.87596 4.08802 3.98340
# Velocity P-wave (km/s) = 6.56380 6.81285 6.68949
#
# Compressibility (1/GPa) = 0.01729199
#
# Stress axis : x y z
#
# Youngs Moduli (GPa) = 123.16357 69.57852 91.56927
#
# Poissons Ratio (x) = 0.17627 0.10179
# Poissons Ratio (y) = 0.31203 0.40428
# Poissons Ratio (z) = 0.13691 0.30719
#
# Static dielectric constant tensor:
#      x y z
#    x 2.018830 0.000000 -0.072840 
#    y 0.000000 2.065150 0.000000 
#    z -0.072840 0.000000 2.052050 
# 
# From -- ./inp_files/3505.got.cif
#   From: 2010.05.17/outbox.cif.g08.bks.cpg/sg4_2_cif.got.tgz:3505.got - 2010.06.03 18:43:04.
