data_PCOD9118136
_publ_section_title
;
Structure prediction by ZEFSAII (Michael W. Deem and Ramdas Pophale) SiO2 
 PCOD9118136
Probable space group: P 21
;
_chemical_formula_sum "Si O2"
_cell_formula_units_Z 14
_cell_length_a 24.716278
_cell_length_b 5.383295
_cell_length_c 22.085073
_cell_angle_alpha 90.000000
_cell_angle_beta 10.208933
_cell_angle_gamma 90.000000
_cell_volume 520.819675
_symmetry_space_group_name_H-M "P 21"
_symmetry_group_IT_number 4
_symmetry_cell_setting 'monoclinic'
loop_
_space_group_symop_operation_xyz
x,y,z
-x,1/2+y,-z
loop_
_atom_site_type_symbol
_atom_site_label
_atom_site_fract_x
_atom_site_fract_y
_atom_site_fract_z
Si Si1 0.478607 0.408190 0.649550
Si Si2 0.125969 0.950494 0.886869
Si Si3 0.287336 0.097613 0.337407
Si Si4 0.515498 0.953066 0.778219
Si Si5 0.932502 0.722252 0.219348
Si Si6 0.071364 0.237410 0.195999
Si Si7 0.058764 0.478478 0.401792
O O1 0.555805 0.359537 0.494262
O O2 0.788595 0.496767 0.339504
O O3 0.235796 0.630514 0.917864
O O4 0.319483 0.215969 0.869577
O O5 0.042268 0.924322 0.049361
O O6 0.913403 0.732908 0.091741
O O7 0.998514 0.994786 0.693927
O O8 0.148506 0.095906 0.423360
O O9 0.434259 0.326914 0.212245
O O10 0.588639 0.923501 0.003926
O O11 0.673184 0.786645 0.552996
O O12 0.747684 0.182985 0.522675
O O13 0.185789 0.047623 0.121590
O O14 0.072771 0.710553 0.433402
#
# Coordination Sequence:
#
# PCOD9118136 Si02
#       7
#     2   2   2   2   2   2   2
#     4  11  24  44  69 103 147 194 259 324 390 462
#     4  10  24  46  70 102 142 202 258 324 394 464
#     4  12  28  50  78 116 160 200 262 320 394 470
#     4  12  26  44  75 111 153 202 260 326 393 463
#     4  11  24  44  69 103 147 194 259 324 390 462
#     4  12  26  44  75 111 153 202 260 326 393 463
#     4  12  30  54  84 118 162 206 258 318 390 480
#
# _framework density 26.880707000000001
#
# number of rings (size 3 to 8) (size 9 to 14) (size 15 to 20)
#    0.000    0.571    1.429    5.143    8.000    8.000 
#    0.000    0.000    0.000    0.000    0.000    0.000 
#    0.000    0.000    0.000    0.000    0.000    0.000 
#
# Total GULP energy -78280.499851 kJ/mol
# GULP energy per Si atom -5591.464275 kJ/mol
# Density = 2.681952 g / cm^3
# Si number density = 26.880707 Si / 1000 Ang^3
#
#
#
# Elastic Constant Matrix: (Units=GPa)
#
#
# Indices 1 2 3 4 5 6 
#
# 1 102.2122 28.8659 23.3004 0.0000 -18.5698 0.0000
# 2 28.8659 78.1906 8.6795 0.0000 -5.6663 0.0000
# 3 23.3004 8.6795 117.0796 0.0000 7.4552 0.0000
# 4 0.0000 0.0000 0.0000 40.5835 0.0000 -2.6977
# 5 -18.5698 -5.6663 7.4552 0.0000 33.8712 0.0000
# 6 0.0000 0.0000 0.0000 -2.6977 0.0000 32.1646
#
#
#
# Elastic Compliance Matrix: (Units=1/GPa)
#
#
# Indices 1 2 3 4 5 6 
#
# 1 0.012761 -0.003910 -0.002691 0.000000 0.006935 0.000000
# 2 -0.003910 0.014289 -0.000301 0.000000 0.000313 0.000000
# 3 -0.002691 -0.000301 0.009327 0.000000 -0.003579 0.000000
# 4 0.000000 0.000000 0.000000 0.024779 0.000000 0.002078
# 5 0.006935 0.000313 -0.003579 0.000000 0.034166 0.000000
# 6 0.000000 0.000000 0.000000 0.002078 0.000000 0.031264
#
#
# Mechanical properties :
#
#
# Convention : Reuss Voigt Hill
#
# Bulk Modulus (GPa) = 44.30187 46.57488 45.43838
# Shear Modulus (GPa) = 33.80339 37.09964 35.45151
#
# Velocity S-wave (km/s) = 3.55002 3.71908 3.63553
# Velocity P-wave (km/s) = 5.77237 5.98383 5.87905
#
# Compressibility (1/GPa) = 0.02257241
#
# Stress axis : x y z
#
# Youngs Moduli (GPa) = 78.36302 69.98501 107.21539
#
# Poissons Ratio (x) = 0.27363 0.28855
# Poissons Ratio (y) = 0.30638 0.03228
# Poissons Ratio (z) = 0.21090 0.02107
#
# Static dielectric constant tensor:
#      x y z
#    x 2.185350 0.000000 0.100870 
#    y 0.000000 2.202390 0.000000 
#    z 0.100870 0.000000 2.106390 
# 
# From -- ./inp_files/15914.got.cif
#   From: 2010.05.17/outbox.cif.g08.bks.cpg/sg4_8_cif.got.tgz:15914.got - 2010.06.03 18:43:04.
