data_PCOD9118958
_publ_section_title
;
Structure prediction by ZEFSAII (Michael W. Deem and Ramdas Pophale) SiO2 
 PCOD9118958
Probable space group: P 21
;
_chemical_formula_sum "Si O2"
_cell_formula_units_Z 16
_cell_length_a 15.121698
_cell_length_b 6.884969
_cell_length_c 13.950766
_cell_angle_alpha 90.000000
_cell_angle_beta 29.811220
_cell_angle_gamma 90.000000
_cell_volume 722.075656
_symmetry_space_group_name_H-M "P 21"
_symmetry_group_IT_number 4
_symmetry_cell_setting 'monoclinic'
loop_
_space_group_symop_operation_xyz
x,y,z
-x,1/2+y,-z
loop_
_atom_site_type_symbol
_atom_site_label
_atom_site_fract_x
_atom_site_fract_y
_atom_site_fract_z
Si Si1 0.871855 0.130260 0.530204
Si Si2 0.507572 0.054189 0.633801
Si Si3 0.245434 0.280237 0.237916
Si Si4 0.053760 0.563696 0.063169
Si Si5 0.669259 0.848329 0.063520
Si Si6 0.733695 0.307551 0.281575
Si Si7 0.328746 0.025733 0.323283
Si Si8 0.858355 0.844165 0.378843
O O1 0.755316 0.314626 0.611534
O O2 0.043739 0.198948 0.426560
O O3 0.759273 0.981375 0.699999
O O4 0.931721 0.013405 0.378607
O O5 0.400720 0.153697 0.820340
O O6 0.597017 0.226056 0.488047
O O7 0.375084 0.932818 0.692601
O O8 0.672138 0.923915 0.513808
O O9 0.359812 0.127548 0.191440
O O10 0.294542 0.309382 0.081919
O O11 0.885007 0.439222 0.187862
O O12 0.986010 0.762102 0.177144
O O13 0.167501 0.438408 0.031567
O O14 0.173400 0.627666 0.860608
O O15 0.508018 0.003245 0.214708
O O16 0.189413 0.160627 0.509680
#
# Coordination Sequence:
#
# PCOD9118958 Si02
#       8
#     2   2   2   2   2   2   2   2
#     4  11  23  46  68 103 139 192 230 290 351 417
#     4  12  25  47  73 103 144 187 235 294 366 423
#     4  11  26  41  72  98 144 186 236 288 349 417
#     4  12  26  45  74 106 142 185 243 293 355 430
#     4  12  27  43  72 105 143 187 238 292 348 428
#     4  12  26  47  72 105 143 184 233 303 364 419
#     4  11  24  47  66 103 149 185 232 289 356 413
#     4  11  25  44  75 103 140 190 235 285 349 429
#
# _framework density 22.158342999999999
#
# number of rings (size 3 to 8) (size 9 to 14) (size 15 to 20)
#    0.000    0.500    2.500    5.250    7.000    0.000 
#    0.000    0.000    0.000    0.000    0.000    0.000 
#    0.000    0.000    0.000    0.000    0.000    0.000 
#
# Total GULP energy -89646.880633 kJ/mol
# GULP energy per Si atom -5602.930040 kJ/mol
# Density = 2.210791 g / cm^3
# Si number density = 22.158343 Si / 1000 Ang^3
#
#
#
# Elastic Constant Matrix: (Units=GPa)
#
#
# Indices 1 2 3 4 5 6 
#
# 1 88.1519 27.3460 -3.0209 0.0000 -17.9061 0.0000
# 2 27.3460 89.5291 10.0978 0.0000 -1.1756 0.0000
# 3 -3.0209 10.0978 33.3995 0.0000 3.5723 0.0000
# 4 0.0000 0.0000 0.0000 34.7818 0.0000 0.5055
# 5 -17.9061 -1.1756 3.5723 0.0000 48.5762 0.0000
# 6 0.0000 0.0000 0.0000 0.5055 0.0000 58.8000
#
#
#
# Elastic Compliance Matrix: (Units=1/GPa)
#
#
# Indices 1 2 3 4 5 6 
#
# 1 0.013746 -0.004367 0.002049 0.000000 0.004811 0.000000
# 2 -0.004367 0.012965 -0.004209 0.000000 -0.000986 0.000000
# 3 0.002049 -0.004209 0.031577 0.000000 -0.001669 0.000000
# 4 0.000000 0.000000 0.000000 0.028754 0.000000 -0.000247
# 5 0.004811 -0.000986 -0.001669 0.000000 0.022458 0.000000
# 6 0.000000 0.000000 0.000000 -0.000247 0.000000 0.017009
#
#
# Mechanical properties :
#
#
# Convention : Reuss Voigt Hill
#
# Bulk Modulus (GPa) = 22.10707 31.10290 26.60499
# Shear Modulus (GPa) = 32.33284 40.20878 36.27081
#
# Velocity S-wave (km/s) = 3.82406 4.26445 4.05024
# Velocity P-wave (km/s) = 5.43106 6.18987 5.82284
#
# Compressibility (1/GPa) = 0.04523439
#
# Stress axis : x y z
#
# Youngs Moduli (GPa) = 72.74826 77.13029 31.66863
#
# Poissons Ratio (x) = 0.33679 -0.06489
# Poissons Ratio (y) = 0.31766 0.13330
# Poissons Ratio (z) = -0.14906 0.32466
#
# Static dielectric constant tensor:
#      x y z
#    x 1.793680 0.000000 0.025280 
#    y 0.000000 1.791670 0.000000 
#    z 0.025280 0.000000 1.816630 
# 
# From -- ./inp_files/14066.got.cif
#   From: 2010.05.17/outbox.cif.g08.bks.cpg/sg4_8_cif.got.tgz:14066.got - 2010.06.03 18:43:04.
