data_PCOD9118454
_publ_section_title
;
Structure prediction by ZEFSAII (Michael W. Deem and Ramdas Pophale) SiO2 
 PCOD9118454
Probable space group: P 21
;
_chemical_formula_sum "Si O2"
_cell_formula_units_Z 12
_cell_length_a 7.199179
_cell_length_b 9.337726
_cell_length_c 7.442541
_cell_angle_alpha 90.000000
_cell_angle_beta 120.892915
_cell_angle_gamma 90.000000
_cell_volume 429.336301
_symmetry_space_group_name_H-M "P 21"
_symmetry_group_IT_number 4
_symmetry_cell_setting 'monoclinic'
loop_
_space_group_symop_operation_xyz
x,y,z
-x,1/2+y,-z
loop_
_atom_site_type_symbol
_atom_site_label
_atom_site_fract_x
_atom_site_fract_y
_atom_site_fract_z
Si Si1 0.760722 0.839340 0.143984
Si Si2 0.362175 0.171802 0.416181
Si Si3 0.726016 0.044824 0.421153
Si Si4 0.628789 0.531685 0.190972
Si Si5 0.885451 0.264243 0.195766
Si Si6 0.784410 0.249862 0.746565
O O1 0.673771 0.678049 0.104690
O O2 0.005599 0.843529 0.192578
O O3 0.769170 0.892726 0.354788
O O4 0.592380 0.944983 0.962586
O O5 0.469096 0.074824 0.314284
O O6 0.554564 0.287853 0.541798
O O7 0.132776 0.238079 0.261627
O O8 0.352705 0.079820 0.593420
O O9 0.825991 0.153603 0.323993
O O10 0.814793 0.097352 0.658132
O O11 0.812062 0.416844 0.232295
O O12 0.240975 0.738808 0.053948
#
# Coordination Sequence:
#
# PCOD9118454 Si02
#       6
#     2   2   2   2   2   2
#     4  12  27  55  88 134 181 238 304 364 460 538
#     4  10  27  56  88 134 175 237 301 373 451 538
#     4  10  27  55  91 128 176 237 300 381 446 534
#     4  12  29  52  92 131 182 238 299 376 450 543
#     4  12  27  56  92 133 178 237 307 378 453 537
#     4  10  27  54  91 132 174 241 301 370 446 542
#
# _framework density 27.950116999999999
#
# number of rings (size 3 to 8) (size 9 to 14) (size 15 to 20)
#    1.000    0.000    0.000    4.000    4.667    9.333 
#    6.000    3.333    0.000    0.000    0.000    0.000 
#    0.000    0.000    0.000    0.000    0.000    0.000 
#
# Total GULP energy -67322.740965 kJ/mol
# GULP energy per Si atom -5610.228414 kJ/mol
# Density = 2.788650 g / cm^3
# Si number density = 27.950117 Si / 1000 Ang^3
#
#
#
# Elastic Constant Matrix: (Units=GPa)
#
#
# Indices 1 2 3 4 5 6 
#
# 1 132.5195 35.6419 8.0663 0.0000 11.5864 0.0000
# 2 35.6419 177.6727 25.4484 0.0000 5.9387 0.0000
# 3 8.0663 25.4484 89.2458 0.0000 10.0393 0.0000
# 4 0.0000 0.0000 0.0000 42.1577 0.0000 -4.1400
# 5 11.5864 5.9387 10.0393 0.0000 72.2145 0.0000
# 6 0.0000 0.0000 0.0000 -4.1400 0.0000 58.4243
#
#
#
# Elastic Compliance Matrix: (Units=1/GPa)
#
#
# Indices 1 2 3 4 5 6 
#
# 1 0.008075 -0.001559 -0.000156 0.000000 -0.001146 0.000000
# 2 -0.001559 0.006174 -0.001616 0.000000 -0.000033 0.000000
# 3 -0.000156 -0.001616 0.011847 0.000000 -0.001489 0.000000
# 4 0.000000 0.000000 0.000000 0.023887 0.000000 0.001693
# 5 -0.001146 -0.000033 -0.001489 0.000000 0.014241 0.000000
# 6 0.000000 0.000000 0.000000 0.001693 0.000000 0.017236
#
#
# Mechanical properties :
#
#
# Convention : Reuss Voigt Hill
#
# Bulk Modulus (GPa) = 51.45781 59.75015 55.60398
# Shear Modulus (GPa) = 52.85378 56.57806 54.71592
#
# Velocity S-wave (km/s) = 4.35329 4.50405 4.42931
# Velocity P-wave (km/s) = 6.61201 6.96222 6.78937
#
# Compressibility (1/GPa) = 0.01943340
#
# Stress axis : x y z
#
# Youngs Moduli (GPa) = 123.83741 161.97891 84.40681
#
# Poissons Ratio (x) = 0.25256 0.01320
# Poissons Ratio (y) = 0.19309 0.13638
# Poissons Ratio (z) = 0.01936 0.26172
#
# Static dielectric constant tensor:
#      x y z
#    x 2.143220 0.000000 0.065090 
#    y 0.000000 2.244470 0.000000 
#    z 0.065090 0.000000 2.248360 
# 
# From -- ./inp_files/10892.got.cif
#   From: 2010.05.17/outbox.cif.g08.bks.cpg/sg4_6_cif.got.tgz:10892.got - 2010.06.03 18:43:04.
