data_PCOD9118298
_publ_section_title
;
Structure prediction by ZEFSAII (Michael W. Deem and Ramdas Pophale) SiO2 
 PCOD9118298
Probable space group: P 21
;
_chemical_formula_sum "Si O2"
_cell_formula_units_Z 16
_cell_length_a 8.328781
_cell_length_b 10.571965
_cell_length_c 12.018017
_cell_angle_alpha 90.000000
_cell_angle_beta 138.541526
_cell_angle_gamma 90.000000
_cell_volume 700.613517
_symmetry_space_group_name_H-M "P 21"
_symmetry_group_IT_number 4
_symmetry_cell_setting 'monoclinic'
loop_
_space_group_symop_operation_xyz
x,y,z
-x,1/2+y,-z
loop_
_atom_site_type_symbol
_atom_site_label
_atom_site_fract_x
_atom_site_fract_y
_atom_site_fract_z
Si Si1 0.090022 0.241360 0.308172
Si Si2 0.990406 0.357084 0.021882
Si Si3 0.728615 0.099628 0.863719
Si Si4 0.857096 0.952117 0.516739
Si Si5 0.356283 0.058799 0.867472
Si Si6 0.412209 0.615556 0.447612
Si Si7 0.929950 0.782035 0.173303
Si Si8 0.224816 0.517223 0.779634
O O1 0.047257 0.335857 0.182044
O O2 0.166122 0.305948 0.464085
O O3 0.322945 0.164614 0.389511
O O4 0.864266 0.153012 0.221900
O O5 0.029108 0.508585 0.018200
O O6 0.141588 0.301787 0.993463
O O7 0.775323 0.251367 0.896594
O O8 0.559085 0.065882 0.878260
O O9 0.589774 0.062955 0.678620
O O10 0.819732 0.995155 0.372588
O O11 0.668212 0.020463 0.499244
O O12 0.125610 0.987129 0.698965
O O13 0.257077 0.192045 0.860178
O O14 0.494446 0.995926 0.043092
O O15 0.194428 0.718716 0.326493
O O16 0.930284 0.915897 0.232966
#
# Coordination Sequence:
#
# PCOD9118298 Si02
#       8
#     2   2   2   2   2   2   2   2
#     4  12  26  46  73 108 138 195 242 297 371 441
#     4  11  22  45  72 106 145 186 247 291 364 438
#     4  11  22  46  72 104 146 192 237 307 357 434
#     4  11  28  48  71 106 147 187 246 301 363 437
#     4  11  25  48  72 102 147 193 238 302 364 427
#     4  10  25  45  69 100 144 188 238 305 358 424
#     4  10  25  46  67 107 141 191 241 301 360 435
#     4  12  27  46  74 107 146 192 243 294 375 438
#
# _framework density 22.837126000000001
#
# number of rings (size 3 to 8) (size 9 to 14) (size 15 to 20)
#    0.000    1.000    3.750    0.750   10.500    1.000 
#    2.250    0.000    0.000    0.000    0.000    0.000 
#    0.000    0.000    0.000    0.000    0.000    0.000 
#
# Total GULP energy -89239.570332 kJ/mol
# GULP energy per Si atom -5577.473146 kJ/mol
# Density = 2.278515 g / cm^3
# Si number density = 22.837126 Si / 1000 Ang^3
#
#
#
# Elastic Constant Matrix: (Units=GPa)
#
#
# Indices 1 2 3 4 5 6 
#
# 1 90.8050 12.6500 51.8460 0.0000 -22.6421 0.0000
# 2 12.6500 25.8566 5.2870 0.0000 -6.7423 0.0000
# 3 51.8460 5.2870 99.5372 0.0000 -22.0921 0.0000
# 4 0.0000 0.0000 0.0000 12.9816 0.0000 -17.2037
# 5 -22.6421 -6.7423 -22.0921 0.0000 38.8295 0.0000
# 6 0.0000 0.0000 0.0000 -17.2037 0.0000 15.6503
#
#
#
# Elastic Compliance Matrix: (Units=1/GPa)
#
#
# Indices 1 2 3 4 5 6 
#
# 1 0.017390 -0.005689 -0.007696 0.000000 0.004774 0.000000
# 2 -0.005689 0.042410 0.001841 0.000000 0.005094 0.000000
# 3 -0.007696 0.001841 0.014916 0.000000 0.004318 0.000000
# 4 0.000000 0.000000 0.000000 -0.168642 0.000000 -0.185381
# 5 0.004774 0.005094 0.004318 0.000000 0.031879 0.000000
# 6 0.000000 0.000000 0.000000 -0.185381 0.000000 -0.139884
#
#
# Mechanical properties :
#
#
# Convention : Reuss Voigt Hill
#
# Bulk Modulus (GPa) = 19.36946 39.52941 29.44943
# Shear Modulus (GPa) = -30.93397 23.25331 -3.84033
#
# Velocity S-wave (km/s) = -3.68441 3.19442 -1.29818
# Velocity P-wave (km/s) = 3.09836 5.56351 3.26747
#
# Compressibility (1/GPa) = 0.05162768
#
# Stress axis : x y z
#
# Youngs Moduli (GPa) = 57.50557 23.57929 67.04297
#
# Poissons Ratio (x) = 0.13415 0.51597
# Poissons Ratio (y) = 0.32716 -0.12345
# Poissons Ratio (z) = 0.44257 -0.04342
#
# Static dielectric constant tensor:
#      x y z
#    x 1.823320 0.000000 -0.011450 
#    y 0.000000 1.907620 0.000000 
#    z -0.011450 0.000000 1.919890 
# 
# From -- ./inp_files/6117.got.cif
#   From: 2010.05.17/outbox.cif.g08.bks.cpg/sg4_4_cif.got.tgz:6117.got - 2010.06.03 18:43:04.
