data_PCOD9118079
_publ_section_title
;
Structure prediction by ZEFSAII (Michael W. Deem and Ramdas Pophale) SiO2 
 PCOD9118079
Probable space group: P 21
;
_chemical_formula_sum "Si O2"
_cell_formula_units_Z 14
_cell_length_a 9.875925
_cell_length_b 5.326990
_cell_length_c 23.980731
_cell_angle_alpha 90.000000
_cell_angle_beta 25.941272
_cell_angle_gamma 90.000000
_cell_volume 551.886996
_symmetry_space_group_name_H-M "P 21"
_symmetry_group_IT_number 4
_symmetry_cell_setting 'monoclinic'
loop_
_space_group_symop_operation_xyz
x,y,z
-x,1/2+y,-z
loop_
_atom_site_type_symbol
_atom_site_label
_atom_site_fract_x
_atom_site_fract_y
_atom_site_fract_z
Si Si1 0.071254 0.686480 0.614909
Si Si2 0.301080 0.508039 0.322292
Si Si3 0.309624 0.444234 0.628925
Si Si4 0.292034 0.167323 0.013913
Si Si5 0.202976 0.281262 0.925046
Si Si6 0.907219 0.165460 0.861053
Si Si7 0.327324 0.300897 0.430604
O O1 0.061100 0.517840 0.673957
O O2 0.363505 0.868468 0.519886
O O3 0.184347 0.525770 0.520132
O O4 0.770396 0.832740 0.705027
O O5 0.542551 0.723207 0.216271
O O6 0.412646 0.369257 0.336253
O O7 0.961265 0.608219 0.464321
O O8 0.400975 0.672337 0.635111
O O9 0.180311 0.230377 0.717356
O O10 0.089018 0.401006 0.110097
O O11 0.127792 0.899177 0.083548
O O12 0.368522 0.229873 0.922452
O O13 0.598299 0.162392 0.937868
O O14 0.053087 0.556962 0.981498
#
# Coordination Sequence:
#
# PCOD9118079 Si02
#       7
#     2   2   2   2   2   2   2
#     4  11  24  43  68 111 148 188 252 307 388 440
#     4  11  27  47  77 103 153 201 252 312 376 469
#     4  11  25  40  74 109 145 195 245 325 369 452
#     4  10  24  48  67 109 141 196 250 304 377 440
#     4  12  30  49  78 111 150 200 257 313 373 447
#     4  10  24  44  77  99 148 192 249 308 375 445
#     4  11  24  47  71 110 147 198 251 303 390 441
#
# _framework density 25.367509999999999
#
# number of rings (size 3 to 8) (size 9 to 14) (size 15 to 20)
#    0.000    1.143    2.857    0.857    8.000    4.571 
#    0.000    0.000    0.000    0.000    0.000    0.000 
#    0.000    0.000    0.000    0.000    0.000    0.000 
#
# Total GULP energy -78462.993597 kJ/mol
# GULP energy per Si atom -5604.499543 kJ/mol
# Density = 2.530977 g / cm^3
# Si number density = 25.367510 Si / 1000 Ang^3
#
#
#
# Elastic Constant Matrix: (Units=GPa)
#
#
# Indices 1 2 3 4 5 6 
#
# 1 116.7584 19.2617 15.2798 0.0000 4.3179 0.0000
# 2 19.2617 95.8283 20.1984 0.0000 -12.3835 0.0000
# 3 15.2798 20.1984 76.4005 0.0000 1.8563 0.0000
# 4 0.0000 0.0000 0.0000 46.3518 0.0000 2.3796
# 5 4.3179 -12.3835 1.8563 0.0000 28.6284 0.0000
# 6 0.0000 0.0000 0.0000 2.3796 0.0000 35.9962
#
#
#
# Elastic Compliance Matrix: (Units=1/GPa)
#
#
# Indices 1 2 3 4 5 6 
#
# 1 0.009112 -0.001829 -0.001288 0.000000 -0.002082 0.000000
# 2 -0.001829 0.012175 -0.002992 0.000000 0.005736 0.000000
# 3 -0.001288 -0.002992 0.014187 0.000000 -0.002020 0.000000
# 4 0.000000 0.000000 0.000000 0.021648 0.000000 -0.001431
# 5 -0.002082 0.005736 -0.002020 0.000000 0.037857 0.000000
# 6 0.000000 0.000000 0.000000 -0.001431 0.000000 0.027875
#
#
# Mechanical properties :
#
#
# Convention : Reuss Voigt Hill
#
# Bulk Modulus (GPa) = 43.00241 44.27409 43.63825
# Shear Modulus (GPa) = 35.00813 37.81178 36.40996
#
# Velocity S-wave (km/s) = 3.71892 3.86496 3.79264
# Velocity P-wave (km/s) = 5.95223 6.11623 6.03478
#
# Compressibility (1/GPa) = 0.02325451
#
# Stress axis : x y z
#
# Youngs Moduli (GPa) = 109.74522 82.13579 70.48837
#
# Poissons Ratio (x) = 0.15023 0.09080
# Poissons Ratio (y) = 0.20073 0.21092
# Poissons Ratio (z) = 0.14138 0.24578
#
# Static dielectric constant tensor:
#      x y z
#    x 1.952690 0.000000 -0.014430 
#    y 0.000000 2.040930 0.000000 
#    z -0.014430 0.000000 1.976010 
# 
# From -- ./inp_files/8573.got.cif
#   From: 2010.05.17/outbox.cif.g08.bks.cpg/sg4_5_cif.got.tgz:8573.got - 2010.06.03 18:43:04.
