data_PCOD9118966
_publ_section_title
;
Structure prediction by ZEFSAII (Michael W. Deem and Ramdas Pophale) SiO2 
 PCOD9118966
Probable space group: P 21
;
_chemical_formula_sum "Si O2"
_cell_formula_units_Z 16
_cell_length_a 12.654720
_cell_length_b 7.661063
_cell_length_c 6.608764
_cell_angle_alpha 90.000000
_cell_angle_beta 101.532307
_cell_angle_gamma 90.000000
_cell_volume 627.775887
_symmetry_space_group_name_H-M "P 21"
_symmetry_group_IT_number 4
_symmetry_cell_setting 'monoclinic'
loop_
_space_group_symop_operation_xyz
x,y,z
-x,1/2+y,-z
loop_
_atom_site_type_symbol
_atom_site_label
_atom_site_fract_x
_atom_site_fract_y
_atom_site_fract_z
Si Si1 0.728453 0.529450 0.820201
Si Si2 0.983949 0.071983 0.677631
Si Si3 0.072564 0.782313 0.972076
Si Si4 0.575511 0.130332 0.242756
Si Si5 0.795611 0.650870 0.430673
Si Si6 0.516616 0.344702 0.564670
Si Si7 0.811627 0.042752 0.283478
Si Si8 0.403823 0.099162 0.857389
O O1 0.770679 0.651554 0.657490
O O2 0.633586 0.401428 0.697604
O O3 0.828037 0.413300 0.938751
O O4 0.668941 0.643897 0.967928
O O5 0.877506 0.098569 0.507291
O O6 0.086974 0.079101 0.572044
O O7 0.986411 0.220541 0.848405
O O8 0.993851 0.886784 0.792960
O O9 0.119207 0.610343 0.879236
O O10 0.527594 0.303069 0.329983
O O11 0.697341 0.137184 0.224952
O O12 0.561960 0.009668 0.435111
O O13 0.508561 0.048820 0.031989
O O14 0.701199 0.528716 0.303479
O O15 0.789980 0.838677 0.318541
O O16 0.457910 0.215332 0.701172
#
# Coordination Sequence:
#
# PCOD9118966 Si02
#       8
#     2   2   2   2   2   2   2   2
#     4  11  27  47  78 107 153 204 255 323 391 468
#     4  12  29  47  82 107 159 198 262 328 388 470
#     4  12  28  50  75 119 149 208 263 320 399 466
#     4  11  26  44  73 105 147 193 247 309 385 461
#     4  12  27  50  77 111 153 203 259 319 400 458
#     4  11  24  45  69 108 143 191 247 309 381 462
#     4  12  28  49  74 115 151 203 260 329 383 469
#     4  11  23  46  72 108 147 198 247 317 385 470
#
# _framework density 25.486803999999999
#
# number of rings (size 3 to 8) (size 9 to 14) (size 15 to 20)
#    0.000    0.500    2.500    4.500    8.750    6.000 
#    2.250    0.000    0.000    0.000    0.000    0.000 
#    0.000    0.000    0.000    0.000    0.000    0.000 
#
# Total GULP energy -89331.832276 kJ/mol
# GULP energy per Si atom -5583.239517 kJ/mol
# Density = 2.542879 g / cm^3
# Si number density = 25.486804 Si / 1000 Ang^3
#
#
#
# Elastic Constant Matrix: (Units=GPa)
#
#
# Indices 1 2 3 4 5 6 
#
# 1 95.7002 0.0881 42.5086 0.0000 -17.0119 0.0000
# 2 0.0881 61.2369 1.6163 0.0000 -2.5366 0.0000
# 3 42.5086 1.6163 111.0146 0.0000 -7.4716 0.0000
# 4 0.0000 0.0000 0.0000 45.3218 0.0000 -8.2064
# 5 -17.0119 -2.5366 -7.4716 0.0000 35.9325 0.0000
# 6 0.0000 0.0000 0.0000 -8.2064 0.0000 42.7498
#
#
#
# Elastic Compliance Matrix: (Units=1/GPa)
#
#
# Indices 1 2 3 4 5 6 
#
# 1 0.013562 0.000333 -0.004832 0.000000 0.005440 0.000000
# 2 0.000333 0.016389 -0.000282 0.000000 0.001256 0.000000
# 3 -0.004832 -0.000282 0.010859 0.000000 -0.000050 0.000000
# 4 0.000000 0.000000 0.000000 0.022859 0.000000 0.004388
# 5 0.005440 0.001256 -0.000050 0.000000 0.030484 0.000000
# 6 0.000000 0.000000 0.000000 0.004388 0.000000 0.024234
#
#
# Mechanical properties :
#
#
# Convention : Reuss Voigt Hill
#
# Bulk Modulus (GPa) = 32.00045 39.59753 35.79899
# Shear Modulus (GPa) = 36.13662 39.71676 37.92669
#
# Velocity S-wave (km/s) = 3.76953 3.95185 3.86176
# Velocity P-wave (km/s) = 5.61505 6.03266 5.82760
#
# Compressibility (1/GPa) = 0.03124956
#
# Stress axis : x y z
#
# Youngs Moduli (GPa) = 73.73432 61.01646 92.09160
#
# Poissons Ratio (x) = -0.02034 0.44497
# Poissons Ratio (y) = -0.02458 0.02594
# Poissons Ratio (z) = 0.35627 0.01719
#
# Static dielectric constant tensor:
#      x y z
#    x 1.956530 0.000000 0.022690 
#    y 0.000000 2.384830 0.000000 
#    z 0.022690 0.000000 2.004760 
# 
# From -- ./inp_files/2585.got.cif
#   From: 2010.05.17/outbox.cif.g08.bks.cpg/sg4_2_cif.got.tgz:2585.got - 2010.06.03 18:43:04.
