data_PCOD9118909
_publ_section_title
;
Structure prediction by ZEFSAII (Michael W. Deem and Ramdas Pophale) SiO2 
 PCOD9118909
Probable space group: P 21
;
_chemical_formula_sum "Si O2"
_cell_formula_units_Z 16
_cell_length_a 6.563426
_cell_length_b 13.618526
_cell_length_c 9.543768
_cell_angle_alpha 90.000000
_cell_angle_beta 53.408125
_cell_angle_gamma 90.000000
_cell_volume 684.925160
_symmetry_space_group_name_H-M "P 21"
_symmetry_group_IT_number 4
_symmetry_cell_setting 'monoclinic'
loop_
_space_group_symop_operation_xyz
x,y,z
-x,1/2+y,-z
loop_
_atom_site_type_symbol
_atom_site_label
_atom_site_fract_x
_atom_site_fract_y
_atom_site_fract_z
Si Si1 0.993516 0.731220 0.661206
Si Si2 0.646971 0.458599 0.100382
Si Si3 0.599094 0.223980 0.078037
Si Si4 0.859597 0.230538 0.691778
Si Si5 0.092088 0.510526 0.407024
Si Si6 0.777147 0.403251 0.333763
Si Si7 0.121134 0.573715 0.823877
Si Si8 0.232961 0.391662 0.624714
O O1 0.696081 0.712302 0.757183
O O2 0.142657 0.775338 0.464470
O O3 0.009921 0.820717 0.766055
O O4 0.135575 0.643452 0.681581
O O5 0.669027 0.339974 0.073846
O O6 0.350643 0.483100 0.217398
O O7 0.751701 0.474507 0.213764
O O8 0.828429 0.533102 0.943540
O O9 0.768696 0.142653 0.094590
O O10 0.634686 0.213391 0.894658
O O11 0.053917 0.297146 0.700895
O O12 0.941053 0.125194 0.599874
O O13 0.130028 0.461365 0.541793
O O14 0.846861 0.467868 0.435969
O O15 0.504626 0.354546 0.463264
O O16 0.254746 0.467151 0.745817
#
# Coordination Sequence:
#
# PCOD9118909 Si02
#       8
#     2   2   2   2   2   2   2   2
#     4  12  25  47  76 104 143 195 241 295 371 429
#     4  11  23  46  71 104 146 182 247 297 360 441
#     4  12  26  48  73 104 146 192 239 303 364 436
#     4  12  25  48  73 107 148 190 246 299 364 440
#     4  11  23  45  72 103 143 192 237 300 363 430
#     4  11  23  44  72 103 140 193 236 299 371 422
#     4  12  26  47  70 108 147 189 243 307 361 435
#     4  11  25  43  71 107 145 187 247 300 358 443
#
# _framework density 23.360216999999999
#
# number of rings (size 3 to 8) (size 9 to 14) (size 15 to 20)
#    0.000    0.500    6.250    2.250    1.750    0.000 
#    6.750    0.000    0.000    0.000    0.000    0.000 
#    0.000    0.000    0.000    0.000    0.000    0.000 
#
# Total GULP energy -89077.863738 kJ/mol
# GULP energy per Si atom -5567.366484 kJ/mol
# Density = 2.330705 g / cm^3
# Si number density = 23.360217 Si / 1000 Ang^3
#
#
#
# Elastic Constant Matrix: (Units=GPa)
#
#
# Indices 1 2 3 4 5 6 
#
# 1 58.2916 15.9944 16.4855 0.0000 7.3575 0.0000
# 2 15.9944 105.1967 -12.0323 0.0000 3.3427 0.0000
# 3 16.4855 -12.0323 90.3783 0.0000 7.0352 0.0000
# 4 0.0000 0.0000 0.0000 30.6686 0.0000 -7.1431
# 5 7.3575 3.3427 7.0352 0.0000 14.5328 0.0000
# 6 0.0000 0.0000 0.0000 -7.1431 0.0000 22.2284
#
#
#
# Elastic Compliance Matrix: (Units=1/GPa)
#
#
# Indices 1 2 3 4 5 6 
#
# 1 0.019984 -0.003191 -0.003470 0.000000 -0.007704 0.000000
# 2 -0.003191 0.010286 0.002089 0.000000 -0.001762 0.000000
# 3 -0.003470 0.002089 0.012341 0.000000 -0.004698 0.000000
# 4 0.000000 0.000000 0.000000 0.035245 0.000000 0.011326
# 5 -0.007704 -0.001762 -0.004698 0.000000 0.075389 0.000000
# 6 0.000000 0.000000 0.000000 0.011326 0.000000 0.048627
#
#
# Mechanical properties :
#
#
# Convention : Reuss Voigt Hill
#
# Bulk Modulus (GPa) = 29.88043 32.75131 31.31587
# Shear Modulus (GPa) = 22.50497 29.04723 25.77610
#
# Velocity S-wave (km/s) = 3.10722 3.53008 3.32538
# Velocity P-wave (km/s) = 5.06873 5.53768 5.30838
#
# Compressibility (1/GPa) = 0.03346672
#
# Stress axis : x y z
#
# Youngs Moduli (GPa) = 50.03898 97.21980 81.02846
#
# Poissons Ratio (x) = 0.31019 0.28120
# Poissons Ratio (y) = 0.15966 -0.16923
# Poissons Ratio (z) = 0.17365 -0.20304
#
# Static dielectric constant tensor:
#      x y z
#    x 1.864740 0.000000 0.082480 
#    y 0.000000 2.062580 0.000000 
#    z 0.082480 0.000000 2.077820 
# 
# From -- ./inp_files/4791.got.cif
#   From: 2010.05.17/outbox.cif.g08.bks.cpg/sg4_3_cif.got.tgz:4791.got - 2010.06.03 18:43:04.
