data_PCOD9118684
_publ_section_title
;
Structure prediction by ZEFSAII (Michael W. Deem and Ramdas Pophale) SiO2 
 PCOD9118684
Probable space group: P 21
;
_chemical_formula_sum "Si O2"
_cell_formula_units_Z 16
_cell_length_a 24.081602
_cell_length_b 6.462007
_cell_length_c 5.181949
_cell_angle_alpha 90.000000
_cell_angle_beta 122.528895
_cell_angle_gamma 90.000000
_cell_volume 679.885088
_symmetry_space_group_name_H-M "P 21"
_symmetry_group_IT_number 4
_symmetry_cell_setting 'monoclinic'
loop_
_space_group_symop_operation_xyz
x,y,z
-x,1/2+y,-z
loop_
_atom_site_type_symbol
_atom_site_label
_atom_site_fract_x
_atom_site_fract_y
_atom_site_fract_z
Si Si1 0.892674 0.685430 0.852061
Si Si2 0.782483 0.395694 0.706247
Si Si3 0.006072 0.395775 0.265157
Si Si4 0.568872 0.256630 0.924885
Si Si5 0.296491 0.532253 0.748069
Si Si6 0.568820 0.535168 0.418479
Si Si7 0.296543 0.259179 0.234834
Si Si8 0.892683 0.106133 0.111570
O O1 0.831461 0.537334 0.658632
O O2 0.938016 0.752442 0.731199
O O3 0.947964 0.572379 0.164987
O O4 0.868336 0.895757 0.921052
O O5 0.741619 0.547444 0.789422
O O6 0.741732 0.243794 0.418940
O O7 0.831469 0.254256 0.998900
O O8 0.061968 0.539182 0.540930
O O9 0.947980 0.219099 0.074930
O O10 0.560285 0.395506 0.649974
O O11 0.500043 0.145905 0.812054
O O12 0.587453 0.396297 0.217867
O O13 0.627850 0.097994 0.018123
O O14 0.293422 0.395595 0.483811
O O15 0.272693 0.395756 0.931993
O O16 0.627764 0.693776 0.620723
#
# Coordination Sequence:
#
# PCOD9118684 Si02
#       8
#     2   2   2   2   2   2   2   2
#     4  11  23  46  70 107 139 189 244 311 387 464
#     4  11  28  52  70 112 150 200 266 308 402 480
#     4  11  22  42  74 100 142 178 240 310 378 458
#     4  12  24  45  78 119 158 202 261 323 386 457
#     4  12  27  53  78 108 158 209 262 325 390 463
#     4  12  24  45  78 119 158 202 261 323 386 457
#     4  12  27  53  78 108 158 209 262 325 390 463
#     4  11  23  46  70 107 139 189 244 311 387 464
#
# _framework density 23.533387000000001
#
# number of rings (size 3 to 8) (size 9 to 14) (size 15 to 20)
#    0.000    0.500    3.750    4.500    0.000    0.000 
#   13.500    0.000    0.000    0.000    0.000    0.000 
#    0.000    0.000    0.000    0.000    0.000    0.000 
#
# Total GULP energy -89152.951605 kJ/mol
# GULP energy per Si atom -5572.059475 kJ/mol
# Density = 2.347982 g / cm^3
# Si number density = 23.533387 Si / 1000 Ang^3
#
#
#
# Elastic Constant Matrix: (Units=GPa)
#
#
# Indices 1 2 3 4 5 6 
#
# 1 86.0113 56.2932 35.7311 0.0000 22.5269 0.0000
# 2 56.2932 144.5953 49.5172 0.0000 17.7367 0.0000
# 3 35.7311 49.5172 73.3360 0.0000 10.3336 0.0000
# 4 0.0000 0.0000 0.0000 34.6375 0.0000 -45.7088
# 5 22.5269 17.7367 10.3336 0.0000 52.2812 0.0000
# 6 0.0000 0.0000 0.0000 -45.7088 0.0000 16.7633
#
#
#
# Elastic Compliance Matrix: (Units=1/GPa)
#
#
# Indices 1 2 3 4 5 6 
#
# 1 0.018135 -0.004741 -0.004897 0.000000 -0.005238 0.000000
# 2 -0.004741 0.010424 -0.004647 0.000000 -0.000575 0.000000
# 3 -0.004897 -0.004647 0.019174 0.000000 -0.000103 0.000000
# 4 0.000000 0.000000 0.000000 -0.011111 0.000000 -0.030298
# 5 -0.005238 -0.000575 -0.000103 0.000000 0.021600 0.000000
# 6 0.000000 0.000000 0.000000 -0.030298 0.000000 -0.022959
#
#
# Mechanical properties :
#
#
# Convention : Reuss Voigt Hill
#
# Bulk Modulus (GPa) = 52.18345 65.22506 58.70425
# Shear Modulus (GPa) = 71.20529 31.56315 51.38422
#
# Velocity S-wave (km/s) = 5.50662 3.66622 4.67782
# Velocity P-wave (km/s) = 7.91535 6.76001 7.36038
#
# Compressibility (1/GPa) = 0.01916316
#
# Stress axis : x y z
#
# Youngs Moduli (GPa) = 55.14104 95.93671 52.15373
#
# Poissons Ratio (x) = 0.45483 0.25539
# Poissons Ratio (y) = 0.26142 0.24237
# Poissons Ratio (z) = 0.27001 0.44583
#
# Static dielectric constant tensor:
#      x y z
#    x 1.788500 0.000000 0.014970 
#    y 0.000000 1.956900 0.000000 
#    z 0.014970 0.000000 1.782870 
# 
# From -- ./inp_files/4387.got.cif
#   From: 2010.05.17/outbox.cif.g08.bks.cpg/sg4_3_cif.got.tgz:4387.got - 2010.06.03 18:43:04.
