data_PCOD9118033
_publ_section_title
;
Structure prediction by ZEFSAII (Michael W. Deem and Ramdas Pophale) SiO2 
 PCOD9118033
Probable space group: P 21
;
_chemical_formula_sum "Si O2"
_cell_formula_units_Z 14
_cell_length_a 11.576874
_cell_length_b 7.842236
_cell_length_c 11.940333
_cell_angle_alpha 90.000000
_cell_angle_beta 140.129919
_cell_angle_gamma 90.000000
_cell_volume 694.926448
_symmetry_space_group_name_H-M "P 21"
_symmetry_group_IT_number 4
_symmetry_cell_setting 'monoclinic'
loop_
_space_group_symop_operation_xyz
x,y,z
-x,1/2+y,-z
loop_
_atom_site_type_symbol
_atom_site_label
_atom_site_fract_x
_atom_site_fract_y
_atom_site_fract_z
Si Si1 0.531763 0.204750 0.496415
Si Si2 0.903272 0.053812 0.844572
Si Si3 0.977516 0.187473 0.134530
Si Si4 0.463481 0.958178 0.829713
Si Si5 0.687358 0.535182 0.510822
Si Si6 0.316691 0.148728 0.110778
Si Si7 0.646004 0.320831 0.011919
O O1 0.729602 0.120633 0.649981
O O2 0.575933 0.397397 0.497590
O O3 0.429870 0.198927 0.539954
O O4 0.403999 0.141450 0.299773
O O5 0.922488 0.852439 0.841874
O O6 0.876672 0.101628 0.955098
O O7 0.098982 0.131515 0.955693
O O8 0.116656 0.058764 0.293389
O O9 0.846707 0.260376 0.131336
O O10 0.613297 0.823279 0.895395
O O11 0.321415 0.980762 0.623342
O O12 0.533119 0.149463 0.904358
O O13 0.383863 0.881110 0.883875
O O14 0.386506 0.984750 0.092209
#
# Coordination Sequence:
#
# PCOD9118033 Si02
#       7
#     2   2   2   2   2   2   2
#     4  11  23  39  66  99 143 169 218 275 349 403
#     4  11  23  39  66  99 143 169 218 275 349 403
#     4  11  24  41  65 101 136 174 223 279 344 408
#     4  11  24  44  70  92 132 182 235 273 337 395
#     4  11  24  41  65 101 136 174 223 279 344 408
#     4  10  24  44  64 104 134 174 224 286 330 412
#     4  11  24  44  70  92 132 182 235 273 337 395
#
# _framework density 20.146017000000001
#
# number of rings (size 3 to 8) (size 9 to 14) (size 15 to 20)
#    0.000    1.143    2.857    2.571   12.000    0.000 
#    0.000    7.143    0.000    0.000    0.000    0.000 
#    0.000    0.000    0.000    0.000    0.000    0.000 
#
# Total GULP energy -78191.024462 kJ/mol
# GULP energy per Si atom -5585.073176 kJ/mol
# Density = 2.010016 g / cm^3
# Si number density = 20.146017 Si / 1000 Ang^3
#
#
#
# Elastic Constant Matrix: (Units=GPa)
#
#
# Indices 1 2 3 4 5 6 
#
# 1 105.5923 30.5725 44.5369 0.0000 -16.8021 0.0000
# 2 30.5725 65.8041 22.2714 0.0000 -9.9075 0.0000
# 3 44.5369 22.2714 99.3052 0.0000 0.9310 0.0000
# 4 0.0000 0.0000 0.0000 34.1382 0.0000 -1.0151
# 5 -16.8021 -9.9075 0.9310 0.0000 23.1911 0.0000
# 6 0.0000 0.0000 0.0000 -1.0151 0.0000 43.9049
#
#
#
# Elastic Compliance Matrix: (Units=1/GPa)
#
#
# Indices 1 2 3 4 5 6 
#
# 1 0.014327 -0.003320 -0.005767 0.000000 0.009193 0.000000
# 2 -0.003320 0.018502 -0.002713 0.000000 0.005607 0.000000
# 3 -0.005767 -0.002713 0.013320 0.000000 -0.005872 0.000000
# 4 0.000000 0.000000 0.000000 0.029313 0.000000 0.000678
# 5 0.009193 0.005607 -0.005872 0.000000 0.052412 0.000000
# 6 0.000000 0.000000 0.000000 0.000678 0.000000 0.022792
#
#
# Mechanical properties :
#
#
# Convention : Reuss Voigt Hill
#
# Bulk Modulus (GPa) = 44.34959 51.71812 48.03385
# Shear Modulus (GPa) = 27.50556 31.80156 29.65356
#
# Velocity S-wave (km/s) = 3.69902 3.97741 3.84074
# Velocity P-wave (km/s) = 6.34866 6.84255 6.60023
#
# Compressibility (1/GPa) = 0.02254812
#
# Stress axis : x y z
#
# Youngs Moduli (GPa) = 69.79852 54.04923 75.07604
#
# Poissons Ratio (x) = 0.17946 0.43296
# Poissons Ratio (y) = 0.23176 0.20367
# Poissons Ratio (z) = 0.40252 0.14663
#
# Static dielectric constant tensor:
#      x y z
#    x 1.728670 0.000000 0.019850 
#    y 0.000000 1.808370 0.000000 
#    z 0.019850 0.000000 1.687280 
# 
# From -- ./inp_files/11961.got.cif
#   From: 2010.05.17/outbox.cif.g08.bks.cpg/sg4_6_cif.got.tgz:11961.got - 2010.06.03 18:43:04.
