data_PCOD9118823
_publ_section_title
;
Structure prediction by ZEFSAII (Michael W. Deem and Ramdas Pophale) SiO2 
 PCOD9118823
Probable space group: P 21
;
_chemical_formula_sum "Si O2"
_cell_formula_units_Z 16
_cell_length_a 11.532482
_cell_length_b 5.356862
_cell_length_c 28.110199
_cell_angle_alpha 90.000000
_cell_angle_beta 158.130351
_cell_angle_gamma 90.000000
_cell_volume 646.873036
_symmetry_space_group_name_H-M "P 21"
_symmetry_group_IT_number 4
_symmetry_cell_setting 'monoclinic'
loop_
_space_group_symop_operation_xyz
x,y,z
-x,1/2+y,-z
loop_
_atom_site_type_symbol
_atom_site_label
_atom_site_fract_x
_atom_site_fract_y
_atom_site_fract_z
Si Si1 0.629366 0.583840 0.073557
Si Si2 0.843219 0.068798 0.500716
Si Si3 0.331203 0.896024 0.816481
Si Si4 0.719439 0.243234 0.710326
Si Si5 0.506146 0.399549 0.295534
Si Si6 0.205691 0.726277 0.421910
Si Si7 0.818341 0.728653 0.923001
Si Si8 0.888267 0.590964 0.701445
O O1 0.541243 0.593212 0.096429
O O2 0.011387 0.572148 0.212443
O O3 0.487871 0.339847 0.994674
O O4 0.623099 0.194993 0.377728
O O5 0.904544 0.270685 0.565881
O O6 0.639928 0.824480 0.440498
O O7 0.173502 0.001746 0.604771
O O8 0.215276 0.691479 0.809405
O O9 0.559874 0.799674 0.863810
O O10 0.010486 0.985251 0.670251
O O11 0.869530 0.502234 0.748589
O O12 0.674797 0.118364 0.744683
O O13 0.308413 0.279687 0.178050
O O14 0.573278 0.740023 0.570946
O O15 0.159629 0.873366 0.355999
O O16 0.080697 0.941619 0.031884
#
# Coordination Sequence:
#
# PCOD9118823 Si02
#       8
#     2   2   2   2   2   2   2   2
#     4  12  30  49  77 113 154 214 273 334 400 472
#     4  11  26  45  76 119 157 203 262 337 426 488
#     4  12  27  50  77 111 157 205 270 341 400 488
#     4  11  27  46  74 113 158 205 259 339 407 489
#     4  12  27  49  79 115 163 213 273 343 416 499
#     4  11  23  41  71 115 157 198 247 324 414 498
#     4  12  34  57  84 117 160 229 288 337 399 490
#     4  11  24  43  74 117 156 199 248 323 418 494
#
# _framework density 24.734373000000001
#
# number of rings (size 3 to 8) (size 9 to 14) (size 15 to 20)
#    0.000    0.500    5.000    0.750   14.000    1.000 
#    0.000    0.000    0.000    0.000    0.000    0.000 
#    0.000    0.000    0.000    0.000    0.000    0.000 
#
# Total GULP energy -89143.399175 kJ/mol
# GULP energy per Si atom -5571.462448 kJ/mol
# Density = 2.467808 g / cm^3
# Si number density = 24.734373 Si / 1000 Ang^3
#
#
#
# Elastic Constant Matrix: (Units=GPa)
#
#
# Indices 1 2 3 4 5 6 
#
# 1 86.4364 -10.0118 24.5056 0.0002 4.6372 -0.0001
# 2 -10.0118 46.1497 12.6158 0.0000 -5.3886 0.0000
# 3 24.5056 12.6158 65.6992 0.0002 -6.7146 -0.0003
# 4 0.0002 0.0000 0.0002 40.2563 0.0001 -2.7650
# 5 4.6372 -5.3886 -6.7146 0.0001 51.3422 0.0002
# 6 -0.0001 0.0000 -0.0003 -2.7650 0.0002 36.4039
#
#
#
# Elastic Compliance Matrix: (Units=1/GPa)
#
#
# Indices 1 2 3 4 5 6 
#
# 1 0.013951 0.004546 -0.006240 0.000000 -0.001599 0.000000
# 2 0.004546 0.024525 -0.006267 0.000000 0.001344 0.000000
# 3 -0.006240 -0.006267 0.018996 0.000000 0.002390 0.000000
# 4 0.000000 0.000000 0.000000 0.024971 0.000000 0.001897
# 5 -0.001599 0.001344 0.002390 0.000000 0.020075 0.000000
# 6 0.000000 0.000000 0.000000 0.001897 0.000000 0.027614
#
#
# Mechanical properties :
#
#
# Convention : Reuss Voigt Hill
#
# Bulk Modulus (GPa) = 24.06850 28.05603 26.06227
# Shear Modulus (GPa) = 31.26869 37.01220 34.14044
#
# Velocity S-wave (km/s) = 3.55939 3.87251 3.71925
# Velocity P-wave (km/s) = 5.16181 5.60024 5.38549
#
# Compressibility (1/GPa) = 0.04154808
#
# Stress axis : x y z
#
# Youngs Moduli (GPa) = 71.68190 40.77477 52.64242
#
# Poissons Ratio (x) = -0.18534 0.32848
# Poissons Ratio (y) = -0.32583 0.32994
# Poissons Ratio (z) = 0.44728 0.25556
#
# Static dielectric constant tensor:
#      x y z
#    x 2.004490 0.000000 -0.040490 
#    y 0.000000 2.191720 0.000000 
#    z -0.040490 0.000000 2.049310 
# 
# From -- ./inp_files/16534.got.cif
#   From: 2010.05.17/outbox.cif.g08.bks.cpg/sg4_9_cif.got.tgz:16534.got - 2010.06.03 18:43:04.
