data_PCOD9118201
_publ_section_title
;
Structure prediction by ZEFSAII (Michael W. Deem and Ramdas Pophale) SiO2 
 PCOD9118201
Probable space group: P 21
;
_chemical_formula_sum "Si O2"
_cell_formula_units_Z 16
_cell_length_a 10.676008
_cell_length_b 8.952400
_cell_length_c 8.026422
_cell_angle_alpha 90.000000
_cell_angle_beta 58.123519
_cell_angle_gamma 90.000000
_cell_volume 651.440086
_symmetry_space_group_name_H-M "P 21"
_symmetry_group_IT_number 4
_symmetry_cell_setting 'monoclinic'
loop_
_space_group_symop_operation_xyz
x,y,z
-x,1/2+y,-z
loop_
_atom_site_type_symbol
_atom_site_label
_atom_site_fract_x
_atom_site_fract_y
_atom_site_fract_z
Si Si1 0.228064 0.012940 0.126422
Si Si2 0.670457 0.217873 0.081097
Si Si3 0.320936 0.428511 0.552104
Si Si4 0.050502 0.357285 0.519908
Si Si5 0.945821 0.067016 0.762685
Si Si6 0.192173 0.178548 0.811882
Si Si7 0.363889 0.055965 0.366519
Si Si8 0.372555 0.774657 0.549101
O O1 0.281815 0.093625 0.254491
O O2 0.232419 0.118336 0.963158
O O3 0.065901 0.946808 0.280015
O O4 0.336234 0.870848 0.017624
O O5 0.525714 0.122971 0.226573
O O6 0.733909 0.277500 0.214891
O O7 0.778359 0.105567 0.914105
O O8 0.216329 0.391163 0.467792
O O9 0.218062 0.356826 0.772126
O O10 0.477890 0.349334 0.479662
O O11 0.030857 0.409823 0.343676
O O12 0.003605 0.188359 0.587283
O O13 0.036202 0.111740 0.863735
O O14 0.293469 0.115306 0.588376
O O15 0.636403 0.101493 0.491099
O O16 0.347269 0.878620 0.408403
#
# Coordination Sequence:
#
# PCOD9118201 Si02
#       8
#     2   2   2   2   2   2   2   2
#     4  11  26  47  78 117 146 202 257 325 389 465
#     4  11  25  46  70 113 151 193 263 307 387 469
#     4  11  25  43  76 107 145 208 247 311 386 454
#     4  10  24  47  76 111 153 196 260 317 391 454
#     4  10  24  48  74 112 154 199 256 325 383 465
#     4  11  23  48  77 105 156 193 260 316 385 465
#     4  12  25  48  76 108 152 204 248 319 392 454
#     4  12  24  45  73 103 153 197 249 310 389 446
#
# _framework density 24.560970000000001
#
# number of rings (size 3 to 8) (size 9 to 14) (size 15 to 20)
#    0.000    1.000    5.000    0.000    5.250    2.000 
#    2.250    0.000    0.000    0.000    0.000    0.000 
#    0.000    0.000    0.000    0.000    0.000    0.000 
#
# Total GULP energy -89323.148322 kJ/mol
# GULP energy per Si atom -5582.696770 kJ/mol
# Density = 2.450507 g / cm^3
# Si number density = 24.560970 Si / 1000 Ang^3
#
#
#
# Elastic Constant Matrix: (Units=GPa)
#
#
# Indices 1 2 3 4 5 6 
#
# 1 77.0912 29.6782 42.3001 0.0000 10.2799 0.0000
# 2 29.6782 113.8354 33.6709 0.0000 17.2365 0.0000
# 3 42.3001 33.6709 110.7034 0.0000 11.7412 0.0000
# 4 0.0000 0.0000 0.0000 40.1652 0.0000 2.6631
# 5 10.2799 17.2365 11.7412 0.0000 40.2069 0.0000
# 6 0.0000 0.0000 0.0000 2.6631 0.0000 23.9987
#
#
#
# Elastic Compliance Matrix: (Units=1/GPa)
#
#
# Indices 1 2 3 4 5 6 
#
# 1 0.017284 -0.002586 -0.005642 0.000000 -0.001663 0.000000
# 2 -0.002586 0.010508 -0.001858 0.000000 -0.003301 0.000000
# 3 -0.005642 -0.001858 0.011885 0.000000 -0.001232 0.000000
# 4 0.000000 0.000000 0.000000 0.025082 0.000000 -0.002783
# 5 -0.001663 -0.003301 -0.001232 0.000000 0.027071 0.000000
# 6 0.000000 0.000000 0.000000 -0.002783 0.000000 0.041978
#
#
# Mechanical properties :
#
#
# Convention : Reuss Voigt Hill
#
# Bulk Modulus (GPa) = 51.26470 56.99204 54.12837
# Shear Modulus (GPa) = 31.15641 33.93955 32.54798
#
# Velocity S-wave (km/s) = 3.56551 3.72136 3.64427
# Velocity P-wave (km/s) = 6.15372 6.45905 6.30823
#
# Compressibility (1/GPa) = 0.01950660
#
# Stress axis : x y z
#
# Youngs Moduli (GPa) = 57.85559 95.16430 84.14301
#
# Poissons Ratio (x) = 0.24607 0.47470
# Poissons Ratio (y) = 0.14960 0.15634
# Poissons Ratio (z) = 0.32640 0.17681
#
# Static dielectric constant tensor:
#      x y z
#    x 2.025380 0.000000 -0.009820 
#    y 0.000000 2.087030 0.000000 
#    z -0.009820 0.000000 1.987820 
# 
# From -- ./inp_files/8335.got.cif
#   From: 2010.05.17/outbox.cif.g08.bks.cpg/sg4_5_cif.got.tgz:8335.got - 2010.06.03 18:43:04.
