data_PCOD9118005
_publ_section_title
;
Structure prediction by ZEFSAII (Michael W. Deem and Ramdas Pophale) SiO2 
 PCOD9118005
Probable space group: P 21
;
_chemical_formula_sum "Si O2"
_cell_formula_units_Z 16
_cell_length_a 8.963476
_cell_length_b 15.544523
_cell_length_c 6.767716
_cell_angle_alpha 90.000000
_cell_angle_beta 45.752264
_cell_angle_gamma 90.000000
_cell_volume 675.474303
_symmetry_space_group_name_H-M "P 21"
_symmetry_group_IT_number 4
_symmetry_cell_setting 'monoclinic'
loop_
_space_group_symop_operation_xyz
x,y,z
-x,1/2+y,-z
loop_
_atom_site_type_symbol
_atom_site_label
_atom_site_fract_x
_atom_site_fract_y
_atom_site_fract_z
Si Si1 0.486310 0.166430 0.130666
Si Si2 0.811667 0.533778 0.736563
Si Si3 0.902505 0.970998 0.870932
Si Si4 0.247352 0.922514 0.868371
Si Si5 0.084090 0.666636 0.723803
Si Si6 0.446056 0.572159 0.561864
Si Si7 0.869911 0.250139 0.919600
Si Si8 0.147250 0.301421 0.322352
O O1 0.441328 0.142387 0.402880
O O2 0.351813 0.243013 0.160508
O O3 0.405701 0.080185 0.101926
O O4 0.726208 0.192979 0.909638
O O5 0.945518 0.523845 0.415270
O O6 0.938273 0.592413 0.772817
O O7 0.781254 0.444622 0.874387
O O8 0.046258 0.936037 0.916193
O O9 0.817496 0.892817 0.813374
O O10 0.722405 0.026084 0.138527
O O11 0.413608 0.993684 0.644009
O O12 0.283153 0.820303 0.835491
O O13 0.315883 0.626280 0.519970
O O14 0.039612 0.691619 0.991492
O O15 0.019197 0.750522 0.660747
O O16 0.045708 0.298627 0.633765
#
# Coordination Sequence:
#
# PCOD9118005 Si02
#       8
#     2   2   2   2   2   2   2   2
#     4  10  26  43  66 107 135 177 230 293 336 417
#     4  11  24  44  73  99 139 186 230 281 352 411
#     4  12  25  48  67 107 145 182 235 288 350 422
#     4  12  25  46  69 106 140 184 234 288 349 420
#     4  10  24  43  68 101 135 183 222 288 347 410
#     4  11  26  44  73 103 144 182 232 290 346 416
#     4  11  25  46  70 102 143 180 234 287 353 415
#     4  11  25  46  72  97 143 186 227 287 355 417
#
# _framework density 23.687061
#
# number of rings (size 3 to 8) (size 9 to 14) (size 15 to 20)
#    0.000    1.000    5.000    0.000   10.500    4.000 
#    0.000    0.000    0.000    0.000    0.000    0.000 
#    0.000    0.000    0.000    0.000    0.000    0.000 
#
# Total GULP energy -89406.047952 kJ/mol
# GULP energy per Si atom -5587.877997 kJ/mol
# Density = 2.363315 g / cm^3
# Si number density = 23.687061 Si / 1000 Ang^3
#
#
#
# Elastic Constant Matrix: (Units=GPa)
#
#
# Indices 1 2 3 4 5 6 
#
# 1 93.6315 4.3536 -2.9619 0.0000 28.7430 0.0000
# 2 4.3536 69.4860 -7.5737 0.0000 3.5832 0.0000
# 3 -2.9619 -7.5737 68.2541 0.0000 1.5662 0.0000
# 4 0.0000 0.0000 0.0000 34.8672 0.0000 9.6362
# 5 28.7430 3.5832 1.5662 0.0000 22.1641 0.0000
# 6 0.0000 0.0000 0.0000 9.6362 0.0000 39.9809
#
#
#
# Elastic Compliance Matrix: (Units=1/GPa)
#
#
# Indices 1 2 3 4 5 6 
#
# 1 0.017864 0.000228 0.001335 0.000000 -0.023297 0.000000
# 2 0.000228 0.014707 0.001706 0.000000 -0.002793 0.000000
# 3 0.001335 0.001706 0.014969 0.000000 -0.003065 0.000000
# 4 0.000000 0.000000 0.000000 0.030727 0.000000 -0.007406
# 5 -0.023297 -0.002793 -0.003065 0.000000 0.075999 0.000000
# 6 0.000000 0.000000 0.000000 -0.007406 0.000000 0.026797
#
#
# Mechanical properties :
#
#
# Convention : Reuss Voigt Hill
#
# Bulk Modulus (GPa) = 18.49229 24.33419 21.41324
# Shear Modulus (GPa) = 25.96728 35.23935 30.60332
#
# Velocity S-wave (km/s) = 3.31458 3.86126 3.59832
# Velocity P-wave (km/s) = 4.74051 5.49314 5.13065
#
# Compressibility (1/GPa) = 0.05407659
#
# Stress axis : x y z
#
# Youngs Moduli (GPa) = 55.97991 67.99428 66.80615
#
# Poissons Ratio (x) = -0.01548 -0.08919
# Poissons Ratio (y) = -0.01274 -0.11397
# Poissons Ratio (z) = -0.07474 -0.11599
#
# Static dielectric constant tensor:
#      x y z
#    x 1.884590 0.000000 0.008680 
#    y 0.000000 1.879620 0.000000 
#    z 0.008680 0.000000 1.947110 
# 
# From -- ./inp_files/2021.got.cif
#   From: 2010.05.17/outbox.cif.g08.bks.cpg/sg4_2_cif.got.tgz:2021.got - 2010.06.03 18:43:04.
