data_PCOD9118627
_publ_section_title
;
Structure prediction by ZEFSAII (Michael W. Deem and Ramdas Pophale) SiO2 
 PCOD9118627
Probable space group: P 21
;
_chemical_formula_sum "Si O2"
_cell_formula_units_Z 10
_cell_length_a 7.211016
_cell_length_b 5.738259
_cell_length_c 9.344626
_cell_angle_alpha 90.000000
_cell_angle_beta 92.089285
_cell_angle_gamma 90.000000
_cell_volume 386.411219
_symmetry_space_group_name_H-M "P 21"
_symmetry_group_IT_number 4
_symmetry_cell_setting 'monoclinic'
loop_
_space_group_symop_operation_xyz
x,y,z
-x,1/2+y,-z
loop_
_atom_site_type_symbol
_atom_site_label
_atom_site_fract_x
_atom_site_fract_y
_atom_site_fract_z
Si Si1 0.752835 0.500000 0.038321
Si Si2 0.131152 0.527063 0.694431
Si Si3 0.579826 0.415691 0.339086
Si Si4 0.813908 0.985636 0.971099
Si Si5 0.782440 0.739082 0.564450
O O1 0.640923 0.511946 0.184996
O O2 0.716661 0.733031 0.943087
O O3 0.724514 0.246584 0.958750
O O4 0.974817 0.494624 0.080222
O O5 0.315238 0.669192 0.659424
O O6 0.157594 0.458241 0.856913
O O7 0.111220 0.339789 0.570069
O O8 0.941275 0.665860 0.675988
O O9 0.660276 0.545311 0.480755
O O10 0.360915 0.404598 0.357552
#
# Coordination Sequence:
#
# PCOD9118627 Si02
#       5
#     2   2   2   2   2
#     4   9  18  34  59  86 114 156 202 244 297 357
#     4  11  22  36  58  85 121 155 199 247 302 357
#     4  11  22  36  58  85 121 155 199 247 302 357
#     4   9  18  34  59  86 114 156 202 244 297 357
#     4  12  22  36  58  86 120 158 196 250 302 360
#
# _framework density 25.879168
#
# number of rings (size 3 to 8) (size 9 to 14) (size 15 to 20)
#    0.000    1.600    6.000    0.000    0.000    0.000 
#    0.000    0.000    0.000   24.000    0.000    0.000 
#    0.000    0.000    0.000    0.000    0.000    0.000 
#
# Total GULP energy -55871.338504 kJ/mol
# GULP energy per Si atom -5587.133850 kJ/mol
# Density = 2.582027 g / cm^3
# Si number density = 25.879168 Si / 1000 Ang^3
#
#
#
# Elastic Constant Matrix: (Units=GPa)
#
#
# Indices 1 2 3 4 5 6 
#
# 1 96.5206 3.2164 19.8338 0.0000 -28.6350 0.0000
# 2 3.2164 117.2631 23.1760 0.0000 6.8271 0.0000
# 3 19.8338 23.1760 103.5238 0.0000 -28.8880 0.0000
# 4 0.0000 0.0000 0.0000 25.6209 0.0000 -4.9765
# 5 -28.6350 6.8271 -28.8880 0.0000 37.4984 0.0000
# 6 0.0000 0.0000 0.0000 -4.9765 0.0000 24.5583
#
#
#
# Elastic Compliance Matrix: (Units=1/GPa)
#
#
# Indices 1 2 3 4 5 6 
#
# 1 0.013551 -0.001176 0.000783 0.000000 0.011166 0.000000
# 2 -0.001176 0.009530 -0.003367 0.000000 -0.005227 0.000000
# 3 0.000783 -0.003367 0.013504 0.000000 0.011614 0.000000
# 4 0.000000 0.000000 0.000000 0.040630 0.000000 0.008233
# 5 0.011166 -0.005227 0.011614 0.000000 0.045093 0.000000
# 6 0.000000 0.000000 0.000000 0.008233 0.000000 0.042388
#
#
# Mechanical properties :
#
#
# Convention : Reuss Voigt Hill
#
# Bulk Modulus (GPa) = 34.40589 45.52886 39.96737
# Shear Modulus (GPa) = 27.48687 35.60760 31.54724
#
# Velocity S-wave (km/s) = 3.26256 3.71336 3.49524
# Velocity P-wave (km/s) = 5.24558 6.00137 5.63616
#
# Compressibility (1/GPa) = 0.02906479
#
# Stress axis : x y z
#
# Youngs Moduli (GPa) = 73.79350 104.93391 74.05093
#
# Poissons Ratio (x) = 0.12345 -0.05797
# Poissons Ratio (y) = 0.08682 0.24930
# Poissons Ratio (z) = -0.05777 0.35327
#
# Static dielectric constant tensor:
#      x y z
#    x 1.984840 0.000000 -0.022410 
#    y 0.000000 2.231390 0.000000 
#    z -0.022410 0.000000 1.991690 
# 
# From -- ./inp_files/2263.got.cif
#   From: 2010.05.17/outbox.cif.g08.bks.cpg/sg4_2_cif.got.tgz:2263.got - 2010.06.03 18:43:04.
