data_PCOD9118723
_publ_section_title
;
Structure prediction by ZEFSAII (Michael W. Deem and Ramdas Pophale) SiO2 
 PCOD9118723
Probable space group: P 21
;
_chemical_formula_sum "Si O2"
_cell_formula_units_Z 16
_cell_length_a 21.636232
_cell_length_b 5.972370
_cell_length_c 8.610462
_cell_angle_alpha 90.000000
_cell_angle_beta 140.099611
_cell_angle_gamma 90.000000
_cell_volume 713.708511
_symmetry_space_group_name_H-M "P 21"
_symmetry_group_IT_number 4
_symmetry_cell_setting 'monoclinic'
loop_
_space_group_symop_operation_xyz
x,y,z
-x,1/2+y,-z
loop_
_atom_site_type_symbol
_atom_site_label
_atom_site_fract_x
_atom_site_fract_y
_atom_site_fract_z
Si Si1 0.612801 0.003640 0.601144
Si Si2 0.732205 0.958119 0.279203
Si Si3 0.920132 0.749953 0.499864
Si Si4 0.989265 0.013666 0.063963
Si Si5 0.426412 0.219724 0.192451
Si Si6 0.889987 0.518856 0.143305
Si Si7 0.788105 0.840898 0.733229
Si Si8 0.273109 0.830352 0.948782
O O1 0.529553 0.125008 0.343496
O O2 0.559804 0.826829 0.610629
O O3 0.696732 0.899092 0.661109
O O4 0.667423 0.163756 0.826518
O O5 0.816078 0.847422 0.336640
O O6 0.755064 0.868865 0.493165
O O7 0.744192 0.215768 0.251690
O O8 0.624263 0.890048 0.022861
O O9 0.922851 0.718284 0.320872
O O10 0.011463 0.903810 0.714946
O O11 0.938321 0.542291 0.651448
O O12 0.880025 0.006357 0.918916
O O13 0.999686 0.256243 0.988571
O O14 0.343299 0.037085 0.056123
O O15 0.821405 0.385939 0.131812
O O16 0.829100 0.607391 0.880177
#
# Coordination Sequence:
#
# PCOD9118723 Si02
#       8
#     2   2   2   2   2   2   2   2
#     4  11  23  45  74 105 135 185 250 310 377 446
#     4  11  26  44  67 104 148 194 243 301 395 462
#     4  12  24  43  72 105 146 195 254 309 381 457
#     4  12  27  47  74 109 155 209 251 309 395 471
#     4  11  22  46  73  99 136 189 240 309 377 452
#     4  12  24  44  73 110 146 196 262 321 370 458
#     4  12  26  47  69 110 151 191 253 317 380 466
#     4  11  22  44  72 100 139 189 241 308 369 456
#
# _framework density 22.418113000000002
#
# number of rings (size 3 to 8) (size 9 to 14) (size 15 to 20)
#    0.000    0.500    5.000    3.750    1.750    0.000 
#    4.500    0.000    0.000    0.000    0.000    0.000 
#    0.000    0.000    0.000    0.000    0.000    0.000 
#
# Total GULP energy -89286.746877 kJ/mol
# GULP energy per Si atom -5580.421680 kJ/mol
# Density = 2.236709 g / cm^3
# Si number density = 22.418113 Si / 1000 Ang^3
#
#
#
# Elastic Constant Matrix: (Units=GPa)
#
#
# Indices 1 2 3 4 5 6 
#
# 1 39.2250 20.0203 20.5259 0.0000 8.0888 0.0000
# 2 20.0203 62.3800 27.3544 0.0000 -1.5140 0.0000
# 3 20.5259 27.3544 108.4527 0.0000 7.4442 0.0000
# 4 0.0000 0.0000 0.0000 37.5721 0.0000 12.2110
# 5 8.0888 -1.5140 7.4442 0.0000 52.4284 0.0000
# 6 0.0000 0.0000 0.0000 12.2110 0.0000 31.0761
#
#
#
# Elastic Compliance Matrix: (Units=1/GPa)
#
#
# Indices 1 2 3 4 5 6 
#
# 1 0.033051 -0.009139 -0.003617 0.000000 -0.004850 0.000000
# 2 -0.009139 0.020624 -0.003645 0.000000 0.002523 0.000000
# 3 -0.003617 -0.003645 0.010900 0.000000 -0.001095 0.000000
# 4 0.000000 0.000000 0.000000 0.030512 0.000000 -0.011989
# 5 -0.004850 0.002523 -0.001095 0.000000 0.020050 0.000000
# 6 0.000000 0.000000 0.000000 -0.011989 0.000000 0.036890
#
#
# Mechanical properties :
#
#
# Convention : Reuss Voigt Hill
#
# Bulk Modulus (GPa) = 31.47480 38.42878 34.95179
# Shear Modulus (GPa) = 25.58579 33.69246 29.63912
#
# Velocity S-wave (km/s) = 3.38198 3.88095 3.64002
# Velocity P-wave (km/s) = 5.41486 6.10421 5.76984
#
# Compressibility (1/GPa) = 0.03177145
#
# Stress axis : x y z
#
# Youngs Moduli (GPa) = 30.25591 48.48815 91.74460
#
# Poissons Ratio (x) = 0.44313 0.33188
# Poissons Ratio (y) = 0.27651 0.33444
# Poissons Ratio (z) = 0.10945 0.17675
#
# Static dielectric constant tensor:
#      x y z
#    x 1.817090 0.000000 -0.019020 
#    y 0.000000 1.965720 0.000000 
#    z -0.019020 0.000000 1.856580 
# 
# From -- ./inp_files/8953.got.cif
#   From: 2010.05.17/outbox.cif.g08.bks.cpg/sg4_5_cif.got.tgz:8953.got - 2010.06.03 18:43:04.
