data_PCOD9118200
_publ_section_title
;
Structure prediction by ZEFSAII (Michael W. Deem and Ramdas Pophale) SiO2 
 PCOD9118200
Probable space group: P 21
;
_chemical_formula_sum "Si O2"
_cell_formula_units_Z 12
_cell_length_a 8.043750
_cell_length_b 10.823044
_cell_length_c 9.409763
_cell_angle_alpha 90.000000
_cell_angle_beta 148.376777
_cell_angle_gamma 90.000000
_cell_volume 429.528789
_symmetry_space_group_name_H-M "P 21"
_symmetry_group_IT_number 4
_symmetry_cell_setting 'monoclinic'
loop_
_space_group_symop_operation_xyz
x,y,z
-x,1/2+y,-z
loop_
_atom_site_type_symbol
_atom_site_label
_atom_site_fract_x
_atom_site_fract_y
_atom_site_fract_z
Si Si1 0.757461 0.189960 0.193829
Si Si2 0.158601 0.452653 0.105380
Si Si3 0.298971 0.180732 0.265197
Si Si4 0.441710 0.952479 0.875148
Si Si5 0.466004 0.254641 0.702633
Si Si6 0.757698 0.011762 0.500592
O O1 0.732914 0.212129 0.005083
O O2 0.654904 0.047161 0.123490
O O3 0.539923 0.305410 0.084475
O O4 0.116495 0.213100 0.502868
O O5 0.891544 0.550757 0.862494
O O6 0.121763 0.302946 0.076539
O O7 0.457613 0.471992 0.216181
O O8 0.202865 0.486304 0.302069
O O9 0.453766 0.214455 0.529851
O O10 0.589287 0.143888 0.370019
O O11 0.092142 0.991691 0.669584
O O12 0.468101 0.401613 0.712589
#
# Coordination Sequence:
#
# PCOD9118200 Si02
#       6
#     2   2   2   2   2   2
#     4  11  25  47  74 114 152 206 260 321 393 471
#     4  11  26  50  76 115 156 209 262 334 400 476
#     4  11  25  46  81 112 160 210 270 324 406 477
#     4  11  26  49  77 112 158 203 268 324 403 466
#     4  10  24  47  76 107 161 201 253 329 392 457
#     4  10  26  45  74 114 153 209 265 328 390 481
#
# _framework density 27.937588000000002
#
# number of rings (size 3 to 8) (size 9 to 14) (size 15 to 20)
#    0.000    1.333    1.667    1.000    9.333    6.667 
#    6.000    0.000    0.000    0.000    0.000    0.000 
#    0.000    0.000    0.000    0.000    0.000    0.000 
#
# Total GULP energy -67187.300145 kJ/mol
# GULP energy per Si atom -5598.941679 kJ/mol
# Density = 2.787400 g / cm^3
# Si number density = 27.937588 Si / 1000 Ang^3
#
#
#
# Elastic Constant Matrix: (Units=GPa)
#
#
# Indices 1 2 3 4 5 6 
#
# 1 147.5924 77.9663 33.0963 0.0000 10.6550 0.0000
# 2 77.9663 215.8896 55.6022 0.0000 4.2649 0.0000
# 3 33.0963 55.6022 99.2425 0.0000 -0.0509 0.0000
# 4 0.0000 0.0000 0.0000 58.4669 0.0000 1.3750
# 5 10.6550 4.2649 -0.0509 0.0000 46.4252 0.0000
# 6 0.0000 0.0000 0.0000 1.3750 0.0000 73.2576
#
#
#
# Elastic Compliance Matrix: (Units=1/GPa)
#
#
# Indices 1 2 3 4 5 6 
#
# 1 0.008652 -0.002743 -0.001350 0.000000 -0.001735 0.000000
# 2 -0.002743 0.006294 -0.002612 0.000000 0.000048 0.000000
# 3 -0.001350 -0.002612 0.011990 0.000000 0.000563 0.000000
# 4 0.000000 0.000000 0.000000 0.017111 0.000000 -0.000321
# 5 -0.001735 0.000048 0.000563 0.000000 0.021934 0.000000
# 6 0.000000 0.000000 0.000000 -0.000321 0.000000 0.013656
#
#
# Mechanical properties :
#
#
# Convention : Reuss Voigt Hill
#
# Bulk Modulus (GPa) = 73.92002 88.45048 81.18525
# Shear Modulus (GPa) = 51.25251 55.36728 53.30989
#
# Velocity S-wave (km/s) = 4.28780 4.45659 4.37301
# Velocity P-wave (km/s) = 7.14353 7.62957 7.39055
#
# Compressibility (1/GPa) = 0.01352814
#
# Stress axis : x y z
#
# Youngs Moduli (GPa) = 115.57731 158.87602 83.40311
#
# Poissons Ratio (x) = 0.43576 0.11256
# Poissons Ratio (y) = 0.31700 0.21783
# Poissons Ratio (z) = 0.15599 0.41494
#
# Static dielectric constant tensor:
#      x y z
#    x 2.333500 0.000000 0.063400 
#    y 0.000000 2.231590 0.000000 
#    z 0.063400 0.000000 2.111850 
# 
# From -- ./inp_files/1358.got.cif
#   From: 2010.05.17/outbox.cif.g08.bks.cpg/sg4_1_cif.got.tgz:1358.got - 2010.06.03 18:43:04.
