data_PCOD9118361
_publ_section_title
;
Structure prediction by ZEFSAII (Michael W. Deem and Ramdas Pophale) SiO2 
 PCOD9118361
Probable space group: P 21
;
_chemical_formula_sum "Si O2"
_cell_formula_units_Z 16
_cell_length_a 13.454623
_cell_length_b 8.583880
_cell_length_c 5.458034
_cell_angle_alpha 90.000000
_cell_angle_beta 82.853738
_cell_angle_gamma 90.000000
_cell_volume 625.467223
_symmetry_space_group_name_H-M "P 21"
_symmetry_group_IT_number 4
_symmetry_cell_setting 'monoclinic'
loop_
_space_group_symop_operation_xyz
x,y,z
-x,1/2+y,-z
loop_
_atom_site_type_symbol
_atom_site_label
_atom_site_fract_x
_atom_site_fract_y
_atom_site_fract_z
Si Si1 0.851221 0.720400 0.237311
Si Si2 0.699872 0.730661 0.642933
Si Si3 0.703097 0.415351 0.932336
Si Si4 0.200071 0.521315 0.589726
Si Si5 0.497710 0.909696 0.718469
Si Si6 0.626918 0.206287 0.571838
Si Si7 0.971577 0.260835 0.491198
Si Si8 0.911786 0.423517 0.020108
O O1 0.737954 0.676602 0.359347
O O2 0.908632 0.610604 0.033750
O O3 0.918646 0.703502 0.463033
O O4 0.840999 0.903621 0.188946
O O5 0.721627 0.585177 0.808433
O O6 0.585464 0.781843 0.715273
O O7 0.758894 0.897120 0.627836
O O8 0.705896 0.275542 0.737247
O O9 0.589416 0.409168 0.057053
O O10 0.793685 0.384662 0.089624
O O11 0.300319 0.613013 0.636928
O O12 0.108320 0.623980 0.528535
O O13 0.435589 0.853364 0.501568
O O14 0.549601 0.076726 0.687411
O O15 0.966797 0.361353 0.244612
O O16 0.941644 0.356106 0.748167
#
# Coordination Sequence:
#
# PCOD9118361 Si02
#       8
#     2   2   2   2   2   2   2   2
#     4  10  25  48  77 109 158 211 261 336 402 488
#     4   9  23  47  69 108 157 201 266 331 399 481
#     4  12  24  42  73 106 154 199 267 325 414 470
#     4   9  22  45  70 108 152 203 259 331 394 478
#     4  11  24  41  74 104 147 207 261 328 402 482
#     4  11  23  43  70 103 153 200 261 329 397 489
#     4  12  25  52  80 117 157 211 269 331 408 483
#     4  12  28  46  83 115 156 210 264 333 406 485
#
# _framework density 25.580877999999998
#
# number of rings (size 3 to 8) (size 9 to 14) (size 15 to 20)
#    0.750    0.500    1.250    3.750    3.500    3.000 
#    2.250    1.250    0.000    0.000    0.000    0.000 
#    0.000    0.000    0.000    0.000    0.000    0.000 
#
# Total GULP energy -89328.485297 kJ/mol
# GULP energy per Si atom -5583.030331 kJ/mol
# Density = 2.552265 g / cm^3
# Si number density = 25.580878 Si / 1000 Ang^3
#
#
#
# Elastic Constant Matrix: (Units=GPa)
#
#
# Indices 1 2 3 4 5 6 
#
# 1 94.8752 20.7019 5.0103 0.0000 -11.6234 0.0000
# 2 20.7019 59.5873 40.1668 0.0000 -8.8678 0.0000
# 3 5.0103 40.1668 87.9189 0.0000 -5.6739 0.0000
# 4 0.0000 0.0000 0.0000 32.9497 0.0000 -17.1226
# 5 -11.6234 -8.8678 -5.6739 0.0000 40.6135 0.0000
# 6 0.0000 0.0000 0.0000 -17.1226 0.0000 39.4562
#
#
#
# Elastic Compliance Matrix: (Units=1/GPa)
#
#
# Indices 1 2 3 4 5 6 
#
# 1 0.011830 -0.004893 0.001726 0.000000 0.002559 0.000000
# 2 -0.004893 0.026863 -0.011812 0.000000 0.002815 0.000000
# 3 0.001726 -0.011812 0.016688 0.000000 0.000246 0.000000
# 4 0.000000 0.000000 0.000000 0.039186 0.000000 0.017006
# 5 0.002559 0.002815 0.000246 0.000000 0.026004 0.000000
# 6 0.000000 0.000000 0.000000 0.017006 0.000000 0.032724
#
#
# Mechanical properties :
#
#
# Convention : Reuss Voigt Hill
#
# Bulk Modulus (GPa) = 39.33319 41.57105 40.45212
# Shear Modulus (GPa) = 26.07849 34.37070 30.22459
#
# Velocity S-wave (km/s) = 3.19635 3.66950 3.44107
# Velocity P-wave (km/s) = 5.38810 5.85148 5.62456
#
# Compressibility (1/GPa) = 0.02542382
#
# Stress axis : x y z
#
# Youngs Moduli (GPa) = 84.53003 37.22525 59.92231
#
# Poissons Ratio (x) = 0.18214 -0.10345
# Poissons Ratio (y) = 0.41361 0.70783
# Poissons Ratio (z) = -0.14593 0.43972
#
# Static dielectric constant tensor:
#      x y z
#    x 2.077240 0.000000 -0.062970 
#    y 0.000000 2.169350 0.000000 
#    z -0.062970 0.000000 2.101410 
# 
# From -- ./inp_files/3569.got.cif
#   From: 2010.05.17/outbox.cif.g08.bks.cpg/sg4_2_cif.got.tgz:3569.got - 2010.06.03 18:43:04.
