data_PCOD9118439
_publ_section_title
;
Structure prediction by ZEFSAII (Michael W. Deem and Ramdas Pophale) SiO2 
 PCOD9118439
Probable space group: P 21
;
_chemical_formula_sum "Si O2"
_cell_formula_units_Z 12
_cell_length_a 10.460726
_cell_length_b 4.860749
_cell_length_c 8.981400
_cell_angle_alpha 90.000000
_cell_angle_beta 88.611382
_cell_angle_gamma 90.000000
_cell_volume 456.542802
_symmetry_space_group_name_H-M "P 21"
_symmetry_group_IT_number 4
_symmetry_cell_setting 'monoclinic'
loop_
_space_group_symop_operation_xyz
x,y,z
-x,1/2+y,-z
loop_
_atom_site_type_symbol
_atom_site_label
_atom_site_fract_x
_atom_site_fract_y
_atom_site_fract_z
Si Si1 0.186564 0.977320 0.886245
Si Si2 0.922931 0.732946 0.833267
Si Si3 0.302370 0.985433 0.579283
Si Si4 0.917660 0.115924 0.553734
Si Si5 0.688815 0.371412 0.834503
Si Si6 0.419662 0.342642 0.323883
O O1 0.074243 0.766386 0.844963
O O2 0.248382 0.092961 0.736663
O O3 0.287466 0.825731 0.991706
O O4 0.124796 0.214146 0.993457
O O5 0.830171 0.486936 0.780655
O O6 0.896420 0.973993 0.715506
O O7 0.331221 0.217295 0.456761
O O8 0.202724 0.762385 0.519740
O O9 0.439252 0.854659 0.614221
O O10 0.025824 0.356905 0.543374
O O11 0.595952 0.627868 0.809853
O O12 0.628427 0.128846 0.741485
#
# Coordination Sequence:
#
# PCOD9118439 Si02
#       6
#     2   2   2   2   2   2
#     4  10  26  55  87 129 176 230 292 366 448 531
#     4  10  26  53  87 132 173 226 287 373 447 534
#     4  12  30  58  91 132 176 240 309 360 444 520
#     4  12  30  55  91 133 178 231 292 370 454 530
#     4  10  29  52  86 122 177 231 287 359 452 507
#     4  12  29  53  86 128 178 234 299 370 413 534
#
# _framework density 26.284502
#
# number of rings (size 3 to 8) (size 9 to 14) (size 15 to 20)
#    1.000    0.000    1.667    1.000    9.333    4.000 
#    3.000    0.000    0.000    2.000    0.000    0.000 
#    0.000    0.000    0.000    0.000    0.000    0.000 
#
# Total GULP energy -67129.405638 kJ/mol
# GULP energy per Si atom -5594.117137 kJ/mol
# Density = 2.622468 g / cm^3
# Si number density = 26.284502 Si / 1000 Ang^3
#
#
#
# Elastic Constant Matrix: (Units=GPa)
#
#
# Indices 1 2 3 4 5 6 
#
# 1 134.9742 67.3337 86.9037 0.0000 31.6125 0.0000
# 2 67.3337 166.7088 43.3518 0.0000 23.3442 0.0000
# 3 86.9037 43.3518 142.1181 0.0000 20.6240 0.0000
# 4 0.0000 0.0000 0.0000 20.0570 0.0000 8.5707
# 5 31.6125 23.3442 20.6240 0.0000 52.3784 0.0000
# 6 0.0000 0.0000 0.0000 8.5707 0.0000 33.8080
#
#
#
# Elastic Compliance Matrix: (Units=1/GPa)
#
#
# Indices 1 2 3 4 5 6 
#
# 1 0.015022 -0.003487 -0.007458 0.000000 -0.004576 0.000000
# 2 -0.003487 0.007585 0.000004 0.000000 -0.001277 0.000000
# 3 -0.007458 0.000004 0.011606 0.000000 -0.000070 0.000000
# 4 0.000000 0.000000 0.000000 0.055915 0.000000 -0.014175
# 5 -0.004576 -0.001277 -0.000070 0.000000 0.022450 0.000000
# 6 0.000000 0.000000 0.000000 -0.014175 0.000000 0.033172
#
#
# Mechanical properties :
#
#
# Convention : Reuss Voigt Hill
#
# Bulk Modulus (GPa) = 81.10089 93.21994 87.16042
# Shear Modulus (GPa) = 29.11321 37.66279 33.38800
#
# Velocity S-wave (km/s) = 3.33170 3.78946 3.56793
# Velocity P-wave (km/s) = 6.76183 7.39523 7.08561
#
# Compressibility (1/GPa) = 0.01233032
#
# Stress axis : x y z
#
# Youngs Moduli (GPa) = 66.56879 131.84293 86.16319
#
# Poissons Ratio (x) = 0.45977 0.64261
# Poissons Ratio (y) = 0.23214 -0.00035
# Poissons Ratio (z) = 0.49647 -0.00054
#
# Static dielectric constant tensor:
#      x y z
#    x 2.094400 0.000000 -0.052290 
#    y 0.000000 2.064570 0.000000 
#    z -0.052290 0.000000 2.132900 
# 
# From -- ./inp_files/7171.got.cif
#   From: 2010.05.17/outbox.cif.g08.bks.cpg/sg4_4_cif.got.tgz:7171.got - 2010.06.03 18:43:04.
