data_PCOD9118825
_publ_section_title
;
Structure prediction by ZEFSAII (Michael W. Deem and Ramdas Pophale) SiO2 
 PCOD9118825
Probable space group: P 21
;
_chemical_formula_sum "Si O2"
_cell_formula_units_Z 16
_cell_length_a 11.051170
_cell_length_b 5.395155
_cell_length_c 16.868476
_cell_angle_alpha 90.000000
_cell_angle_beta 140.023293
_cell_angle_gamma 90.000000
_cell_volume 646.167380
_symmetry_space_group_name_H-M "P 21"
_symmetry_group_IT_number 4
_symmetry_cell_setting 'monoclinic'
loop_
_space_group_symop_operation_xyz
x,y,z
-x,1/2+y,-z
loop_
_atom_site_type_symbol
_atom_site_label
_atom_site_fract_x
_atom_site_fract_y
_atom_site_fract_z
Si Si1 0.424298 0.047720 0.278541
Si Si2 0.947029 0.468971 0.425377
Si Si3 0.584999 0.788316 0.575933
Si Si4 0.906459 0.251163 0.823320
Si Si5 0.992262 0.914731 0.730782
Si Si6 0.559169 0.730538 0.228497
Si Si7 0.807550 0.922528 0.915616
Si Si8 0.580818 0.304382 0.008132
O O1 0.468162 0.274082 0.357921
O O2 0.281894 0.153576 0.141710
O O3 0.299355 0.868234 0.270656
O O4 0.593604 0.916351 0.319300
O O5 0.015481 0.441766 0.368186
O O6 0.725947 0.536934 0.305070
O O7 0.976265 0.213667 0.489108
O O8 0.478442 0.554143 0.486471
O O9 0.807603 0.766614 0.668171
O O10 0.902435 0.014740 0.881695
O O11 0.965950 0.172281 0.766081
O O12 0.054571 0.427171 0.941084
O O13 0.195304 0.815711 0.862447
O O14 0.366393 0.597872 0.154701
O O15 0.506115 0.870434 0.121531
O O16 0.490079 0.522862 0.015388
#
# Coordination Sequence:
#
# PCOD9118825 Si02
#       8
#     2   2   2   2   2   2   2   2
#     4  11  25  45  76 107 165 201 268 321 406 488
#     4  12  33  59  83 115 159 222 291 341 404 483
#     4  12  30  52  77 121 160 217 276 336 410 490
#     4  11  23  44  69 126 156 213 248 325 416 495
#     4  12  29  54  86 116 169 215 281 348 416 496
#     4  11  29  50  79 117 157 217 266 343 412 490
#     4  11  23  41  76 114 167 200 254 321 412 501
#     4  12  30  53  82 124 165 209 276 345 420 499
#
# _framework density 24.761382999999999
#
# number of rings (size 3 to 8) (size 9 to 14) (size 15 to 20)
#    0.000    0.500    3.750    1.500   14.000    3.000 
#    0.000    0.000    0.000    0.000    0.000    0.000 
#    0.000    0.000    0.000    0.000    0.000    0.000 
#
# Total GULP energy -89514.748975 kJ/mol
# GULP energy per Si atom -5594.671811 kJ/mol
# Density = 2.470503 g / cm^3
# Si number density = 24.761383 Si / 1000 Ang^3
#
#
#
# Elastic Constant Matrix: (Units=GPa)
#
#
# Indices 1 2 3 4 5 6 
#
# 1 88.3108 19.6458 27.4852 0.0000 -11.7855 0.0000
# 2 19.6458 87.1604 34.6331 0.0000 1.4802 0.0000
# 3 27.4852 34.6331 102.8173 0.0000 -4.5346 0.0000
# 4 0.0000 0.0000 0.0000 41.7797 0.0000 -1.5420
# 5 -11.7855 1.4802 -4.5346 0.0000 45.9412 0.0000
# 6 0.0000 0.0000 0.0000 -1.5420 0.0000 46.4115
#
#
#
# Elastic Compliance Matrix: (Units=1/GPa)
#
#
# Indices 1 2 3 4 5 6 
#
# 1 0.013006 -0.001914 -0.002694 0.000000 0.003132 0.000000
# 2 -0.001914 0.013563 -0.004116 0.000000 -0.001334 0.000000
# 3 -0.002694 -0.004116 0.011859 0.000000 0.000612 0.000000
# 4 0.000000 0.000000 0.000000 0.023964 0.000000 0.000796
# 5 0.003132 -0.001334 0.000612 0.000000 0.022674 0.000000
# 6 0.000000 0.000000 0.000000 0.000796 0.000000 0.021573
#
#
# Mechanical properties :
#
#
# Convention : Reuss Voigt Hill
#
# Bulk Modulus (GPa) = 47.66318 49.09073 48.37695
# Shear Modulus (GPa) = 38.14469 39.92810 39.03639
#
# Velocity S-wave (km/s) = 3.92917 4.01997 3.97483
# Velocity P-wave (km/s) = 6.31469 6.43548 6.37537
#
# Compressibility (1/GPa) = 0.02098056
#
# Stress axis : x y z
#
# Youngs Moduli (GPa) = 76.88807 73.73245 84.32151
#
# Poissons Ratio (x) = 0.14115 0.22714
# Poissons Ratio (y) = 0.14719 0.34703
# Poissons Ratio (z) = 0.20712 0.30345
#
# Static dielectric constant tensor:
#      x y z
#    x 1.948820 0.000000 -0.023070 
#    y 0.000000 2.009430 0.000000 
#    z -0.023070 0.000000 2.015750 
# 
# From -- ./inp_files/13618.got.cif
#   From: 2010.05.17/outbox.cif.g08.bks.cpg/sg4_7_cif.got.tgz:13618.got - 2010.06.03 18:43:04.
