data_PCOD9118289
_publ_section_title
;
Structure prediction by ZEFSAII (Michael W. Deem and Ramdas Pophale) SiO2 
 PCOD9118289
Probable space group: P 21
;
_chemical_formula_sum "Si O2"
_cell_formula_units_Z 16
_cell_length_a 31.381537
_cell_length_b 4.856180
_cell_length_c 25.635111
_cell_angle_alpha 90.000000
_cell_angle_beta 170.768557
_cell_angle_gamma 90.000000
_cell_volume 626.715621
_symmetry_space_group_name_H-M "P 21"
_symmetry_group_IT_number 4
_symmetry_cell_setting 'monoclinic'
loop_
_space_group_symop_operation_xyz
x,y,z
-x,1/2+y,-z
loop_
_atom_site_type_symbol
_atom_site_label
_atom_site_fract_x
_atom_site_fract_y
_atom_site_fract_z
Si Si1 0.885315 0.105870 0.334694
Si Si2 0.559560 0.913510 0.746212
Si Si3 0.922094 0.769888 0.874356
Si Si4 0.334133 0.899518 0.286449
Si Si5 0.102233 0.804616 0.765068
Si Si6 0.301502 0.359242 0.635472
Si Si7 0.587818 0.177586 0.337419
Si Si8 0.937889 0.015786 0.123753
O O1 0.957266 0.147770 0.360971
O O2 0.079622 0.296183 0.603703
O O3 0.587011 0.213504 0.985243
O O4 0.427376 0.661532 0.617163
O O5 0.344950 0.112771 0.461852
O O6 0.745225 0.815073 0.923260
O O7 0.712391 0.091407 0.976767
O O8 0.081910 0.884989 0.018803
O O9 0.895181 0.023508 0.881163
O O10 0.436038 0.210577 0.410021
O O11 0.234382 0.745251 0.114304
O O12 0.848719 0.917419 0.491356
O O13 0.285909 0.058604 0.968610
O O14 0.325866 0.572235 0.616611
O O15 0.096027 0.149527 0.362107
O O16 0.821958 0.411172 0.621911
#
# Coordination Sequence:
#
# PCOD9118289 Si02
#       8
#     2   2   2   2   2   2   2   2
#     4  11  27  48  76 110 154 194 240 304 376 442
#     4  11  24  43  68 101 139 187 245 302 363 435
#     4  12  27  46  68 100 144 192 245 307 374 437
#     4  12  27  46  68 100 144 192 245 307 374 437
#     4  10  25  44  72 106 143 188 247 298 364 440
#     4  10  25  44  72 106 143 188 247 298 364 440
#     4  11  21  40  70 100 132 182 240 306 352 436
#     4  11  24  43  68 101 139 187 245 302 363 435
#
# _framework density 25.529917999999999
#
# number of rings (size 3 to 8) (size 9 to 14) (size 15 to 20)
#    0.000    1.000    1.250    4.500   10.500    1.000 
#    0.000    0.000    0.000    0.000    0.000    0.000 
#    0.000    0.000    0.000    0.000    0.000    0.000 
#
# Total GULP energy -89173.679630 kJ/mol
# GULP energy per Si atom -5573.354977 kJ/mol
# Density = 2.547181 g / cm^3
# Si number density = 25.529918 Si / 1000 Ang^3
#
#
#
# Elastic Constant Matrix: (Units=GPa)
#
#
# Indices 1 2 3 4 5 6 
#
# 1 140.3612 25.6681 59.9361 0.0000 62.4147 0.0000
# 2 25.6681 63.4502 -7.6335 0.0000 -41.7759 0.0000
# 3 59.9361 -7.6335 63.6553 0.0000 -42.1522 0.0000
# 4 0.0000 0.0000 0.0000 47.4857 0.0000 -9.9157
# 5 62.4147 -41.7759 -42.1522 0.0000 -59.2532 0.0000
# 6 0.0000 0.0000 0.0000 -9.9157 0.0000 31.4803
#
#
#
# Elastic Compliance Matrix: (Units=1/GPa)
#
#
# Indices 1 2 3 4 5 6 
#
# 1 0.005050 0.001267 -0.001137 0.000000 0.005235 0.000000
# 2 0.001267 0.011721 -0.002975 0.000000 -0.004813 0.000000
# 3 -0.001137 -0.002975 0.011569 0.000000 -0.007330 0.000000
# 4 0.000000 0.000000 0.000000 0.022542 0.000000 0.007100
# 5 0.005235 -0.004813 -0.007330 0.000000 -0.002754 0.000000
# 6 0.000000 0.000000 0.000000 0.007100 0.000000 0.034002
#
#
# Mechanical properties :
#
#
# Convention : Reuss Voigt Hill
#
# Bulk Modulus (GPa) = 44.14641 47.04534 45.59588
# Shear Modulus (GPa) = 52.42789 16.57562 34.50176
#
# Velocity S-wave (km/s) = 4.53657 2.55083 3.68016
# Velocity P-wave (km/s) = 6.69105 5.20991 5.99639
#
# Compressibility (1/GPa) = 0.02265190
#
# Stress axis : x y z
#
# Youngs Moduli (GPa) = 198.00946 85.31684 86.43720
#
# Poissons Ratio (x) = -0.10810 0.09825
# Poissons Ratio (y) = -0.25088 0.25712
# Poissons Ratio (z) = 0.22507 0.25378
#
# Static dielectric constant tensor:
#      x y z
#    x 2.032230 0.000000 0.019010 
#    y 0.000000 2.108640 0.000000 
#    z 0.019010 0.000000 2.049400 
# 
# From -- ./inp_files/15359.got.cif
#   From: 2010.05.17/outbox.cif.g08.bks.cpg/sg4_8_cif.got.tgz:15359.got - 2010.06.03 18:43:04.
