data_PCOD9118970
_publ_section_title
;
Structure prediction by ZEFSAII (Michael W. Deem and Ramdas Pophale) SiO2 
 PCOD9118970
Probable space group: P 21
;
_chemical_formula_sum "Si O2"
_cell_formula_units_Z 16
_cell_length_a 11.692558
_cell_length_b 7.752228
_cell_length_c 12.016177
_cell_angle_alpha 90.000000
_cell_angle_beta 37.156243
_cell_angle_gamma 90.000000
_cell_volume 657.858644
_symmetry_space_group_name_H-M "P 21"
_symmetry_group_IT_number 4
_symmetry_cell_setting 'monoclinic'
loop_
_space_group_symop_operation_xyz
x,y,z
-x,1/2+y,-z
loop_
_atom_site_type_symbol
_atom_site_label
_atom_site_fract_x
_atom_site_fract_y
_atom_site_fract_z
Si Si1 0.039844 0.219330 0.644399
Si Si2 0.407576 0.300488 0.129368
Si Si3 0.987397 0.350289 0.455548
Si Si4 0.515594 0.687411 0.702172
Si Si5 0.439670 0.303602 0.673539
Si Si6 0.937480 0.661963 0.132034
Si Si7 0.406603 0.681616 0.230771
Si Si8 0.757392 0.294530 0.255240
O O1 0.265528 0.233547 0.484726
O O2 0.965929 0.224252 0.827725
O O3 0.977490 0.354976 0.598778
O O4 0.004426 0.033246 0.613460
O O5 0.501623 0.182255 0.151417
O O6 0.398814 0.488637 0.191542
O O7 0.187533 0.256008 0.277308
O O8 0.526397 0.293591 0.925979
O O9 0.796869 0.250569 0.569928
O O10 0.472367 0.503151 0.680165
O O11 0.382601 0.821021 0.741329
O O12 0.245810 0.272670 0.759218
O O13 0.445828 0.203871 0.784738
O O14 0.616050 0.239921 0.462225
O O15 0.862133 0.469135 0.208630
O O16 0.082692 0.669283 0.917009
#
# Coordination Sequence:
#
# PCOD9118970 Si02
#       8
#     2   2   2   2   2   2   2   2
#     4  11  23  48  74 104 147 194 244 307 372 436
#     4  11  27  43  71 112 143 198 248 307 372 441
#     4  11  24  46  72 104 144 194 243 307 370 435
#     4  11  23  46  75  99 150 192 244 308 367 434
#     4  12  24  48  74 106 147 196 247 308 370 439
#     4  12  27  47  73 112 148 197 247 310 372 440
#     4  12  25  45  73 105 150 192 249 304 377 438
#     4  12  25  47  72 108 147 197 248 301 370 441
#
# _framework density 24.321332999999999
#
# number of rings (size 3 to 8) (size 9 to 14) (size 15 to 20)
#    0.000    0.500    5.000    2.250    3.500    3.000 
#    4.500    0.000    0.000    0.000    0.000    0.000 
#    0.000    0.000    0.000    0.000    0.000    0.000 
#
# Total GULP energy -89588.904172 kJ/mol
# GULP energy per Si atom -5599.306511 kJ/mol
# Density = 2.426598 g / cm^3
# Si number density = 24.321333 Si / 1000 Ang^3
#
#
#
# Elastic Constant Matrix: (Units=GPa)
#
#
# Indices 1 2 3 4 5 6 
#
# 1 122.8992 5.9397 39.0151 0.0000 17.0318 0.0000
# 2 5.9397 43.8072 17.0095 0.0000 19.4026 0.0000
# 3 39.0151 17.0095 108.1461 0.0000 11.5672 0.0000
# 4 0.0000 0.0000 0.0000 20.5568 0.0000 2.9588
# 5 17.0318 19.4026 11.5672 0.0000 39.1156 0.0000
# 6 0.0000 0.0000 0.0000 2.9588 0.0000 47.5825
#
#
#
# Elastic Compliance Matrix: (Units=1/GPa)
#
#
# Indices 1 2 3 4 5 6 
#
# 1 0.009680 0.001810 -0.003336 0.000000 -0.004126 0.000000
# 2 0.001810 0.030670 -0.003888 0.000000 -0.014852 0.000000
# 3 -0.003336 -0.003888 0.011050 0.000000 0.000114 0.000000
# 4 0.000000 0.000000 0.000000 0.049085 0.000000 -0.003052
# 5 -0.004126 -0.014852 0.000114 0.000000 0.034695 0.000000
# 6 0.000000 0.000000 0.000000 -0.003052 0.000000 0.021206
#
#
# Mechanical properties :
#
#
# Convention : Reuss Voigt Hill
#
# Bulk Modulus (GPa) = 24.64763 44.30901 34.47832
# Shear Modulus (GPa) = 27.66459 35.64352 31.65405
#
# Velocity S-wave (km/s) = 3.37629 3.83237 3.61154
# Velocity P-wave (km/s) = 5.03540 6.15146 5.62120
#
# Compressibility (1/GPa) = 0.04057185
#
# Stress axis : x y z
#
# Youngs Moduli (GPa) = 103.30567 32.60566 90.50175
#
# Poissons Ratio (x) = -0.05903 0.30187
# Poissons Ratio (y) = -0.18701 0.35190
# Poissons Ratio (z) = 0.34458 0.12678
#
# Static dielectric constant tensor:
#      x y z
#    x 1.925870 0.000000 0.005800 
#    y 0.000000 1.975540 0.000000 
#    z 0.005800 0.000000 1.950590 
# 
# From -- ./inp_files/12098.got.cif
#   From: 2010.05.17/outbox.cif.g08.bks.cpg/sg4_7_cif.got.tgz:12098.got - 2010.06.03 18:43:04.
