data_PCOD9118210
_publ_section_title
;
Structure prediction by ZEFSAII (Michael W. Deem and Ramdas Pophale) SiO2 
 PCOD9118210
Probable space group: P 21
;
_chemical_formula_sum "Si O2"
_cell_formula_units_Z 16
_cell_length_a 6.927820
_cell_length_b 9.697211
_cell_length_c 9.644677
_cell_angle_alpha 90.000000
_cell_angle_beta 91.210877
_cell_angle_gamma 90.000000
_cell_volume 647.789844
_symmetry_space_group_name_H-M "P 21"
_symmetry_group_IT_number 4
_symmetry_cell_setting 'monoclinic'
loop_
_space_group_symop_operation_xyz
x,y,z
-x,1/2+y,-z
loop_
_atom_site_type_symbol
_atom_site_label
_atom_site_fract_x
_atom_site_fract_y
_atom_site_fract_z
Si Si1 0.762732 0.759060 0.808557
Si Si2 0.973092 0.005858 0.268967
Si Si3 0.192972 0.512760 0.031491
Si Si4 0.303237 0.149269 0.610106
Si Si5 0.458349 0.847690 0.567735
Si Si6 0.138326 0.645967 0.484625
Si Si7 0.572613 0.657962 0.086831
Si Si8 0.216552 0.745004 0.203925
O O1 0.901924 0.645401 0.744336
O O2 0.876819 0.890477 0.871443
O O3 0.596133 0.808413 0.699592
O O4 0.669078 0.692722 0.944665
O O5 0.401432 0.007850 0.555773
O O6 0.859168 0.017328 0.410925
O O7 0.845401 0.991794 0.129558
O O8 0.421308 0.532960 0.063127
O O9 0.107684 0.658671 0.083000
O O10 0.428291 0.278208 0.558804
O O11 0.298437 0.136160 0.776452
O O12 0.086394 0.166174 0.553254
O O13 0.233791 0.639265 0.333587
O O14 0.115745 0.877221 0.263196
O O15 0.254389 0.765486 0.566649
O O16 0.420883 0.775511 0.135949
#
# Coordination Sequence:
#
# PCOD9118210 Si02
#       8
#     2   2   2   2   2   2   2   2
#     4  12  26  47  76 112 147 198 253 312 383 450
#     4  12  26  45  75 109 146 201 249 311 378 452
#     4  10  24  48  70 109 142 193 246 308 378 441
#     4  12  27  50  78 110 154 204 251 323 384 448
#     4  12  26  53  75 113 154 198 264 315 380 461
#     4  12  27  46  72 113 151 200 250 309 378 453
#     4  10  25  47  71 105 146 196 237 314 371 444
#     4  10  25  48  69 107 148 192 246 308 376 447
#
# _framework density 24.699366999999999
#
# number of rings (size 3 to 8) (size 9 to 14) (size 15 to 20)
#    0.750    0.000    3.750    2.250    5.250    4.000 
#    0.000    0.000    0.000    0.000    0.000    0.000 
#    0.000    0.000    0.000    0.000    0.000    0.000 
#
# Total GULP energy -89463.726813 kJ/mol
# GULP energy per Si atom -5591.482926 kJ/mol
# Density = 2.464315 g / cm^3
# Si number density = 24.699367 Si / 1000 Ang^3
#
#
#
# Elastic Constant Matrix: (Units=GPa)
#
#
# Indices 1 2 3 4 5 6 
#
# 1 96.7027 36.3080 33.6286 0.0000 13.6206 0.0000
# 2 36.3080 97.6565 -4.8727 0.0000 10.0082 0.0000
# 3 33.6286 -4.8727 128.2810 0.0000 16.5971 0.0000
# 4 0.0000 0.0000 0.0000 35.4210 0.0000 -5.3276
# 5 13.6206 10.0082 16.5971 0.0000 42.4222 0.0000
# 6 0.0000 0.0000 0.0000 -5.3276 0.0000 42.0262
#
#
#
# Elastic Compliance Matrix: (Units=1/GPa)
#
#
# Indices 1 2 3 4 5 6 
#
# 1 0.013753 -0.005105 -0.003564 0.000000 -0.001817 0.000000
# 2 -0.005105 0.012459 0.002085 0.000000 -0.002116 0.000000
# 3 -0.003564 0.002085 0.009190 0.000000 -0.002943 0.000000
# 4 0.000000 0.000000 0.000000 0.028781 0.000000 0.003648
# 5 -0.001817 -0.002116 -0.002943 0.000000 0.025807 0.000000
# 6 0.000000 0.000000 0.000000 0.003648 0.000000 0.024257
#
#
# Mechanical properties :
#
#
# Convention : Reuss Voigt Hill
#
# Bulk Modulus (GPa) = 44.97626 50.30756 47.64191
# Shear Modulus (GPa) = 37.08517 41.14564 39.11541
#
# Velocity S-wave (km/s) = 3.87907 4.08592 3.98384
# Velocity P-wave (km/s) = 6.18967 6.53237 6.36332
#
# Compressibility (1/GPa) = 0.02223395
#
# Stress axis : x y z
#
# Youngs Moduli (GPa) = 72.71126 80.26422 108.81760
#
# Poissons Ratio (x) = 0.40974 0.38784
# Poissons Ratio (y) = 0.37118 -0.22691
# Poissons Ratio (z) = 0.25915 -0.16737
#
# Static dielectric constant tensor:
#      x y z
#    x 1.968220 0.000000 0.038410 
#    y 0.000000 1.986430 0.000000 
#    z 0.038410 0.000000 1.931120 
# 
# From -- ./inp_files/6632.got.cif
#   From: 2010.05.17/outbox.cif.g08.bks.cpg/sg4_4_cif.got.tgz:6632.got - 2010.06.03 18:43:04.
