data_PCOD9118175
_publ_section_title
;
Structure prediction by ZEFSAII (Michael W. Deem and Ramdas Pophale) SiO2 
 PCOD9118175
Probable space group: P 21
;
_chemical_formula_sum "Si O2"
_cell_formula_units_Z 14
_cell_length_a 9.304117
_cell_length_b 9.105310
_cell_length_c 6.926482
_cell_angle_alpha 90.000000
_cell_angle_beta 88.509617
_cell_angle_gamma 90.000000
_cell_volume 586.591364
_symmetry_space_group_name_H-M "P 21"
_symmetry_group_IT_number 4
_symmetry_cell_setting 'monoclinic'
loop_
_space_group_symop_operation_xyz
x,y,z
-x,1/2+y,-z
loop_
_atom_site_type_symbol
_atom_site_label
_atom_site_fract_x
_atom_site_fract_y
_atom_site_fract_z
Si Si1 0.422518 0.365870 0.250932
Si Si2 0.414864 0.596029 0.906113
Si Si3 0.350246 0.336412 0.650586
Si Si4 0.042577 0.324556 0.754297
Si Si5 0.680833 0.516019 0.394758
Si Si6 0.135300 0.801936 0.861342
Si Si7 0.948752 0.614737 0.582232
O O1 0.461248 0.218897 0.130017
O O2 0.305839 0.363000 0.426392
O O3 0.560624 0.390805 0.389540
O O4 0.413274 0.499502 0.101311
O O5 0.431819 0.473763 0.738266
O O6 0.264403 0.683972 0.886600
O O7 0.210571 0.320407 0.794850
O O8 0.401749 0.167941 0.649061
O O9 0.010584 0.184925 0.623751
O O10 0.029771 0.466591 0.623497
O O11 0.936658 0.339405 0.934254
O O12 0.793922 0.445886 0.237778
O O13 0.782588 0.560477 0.570414
O O14 0.009082 0.728936 0.737467
#
# Coordination Sequence:
#
# PCOD9118175 Si02
#       7
#     2   2   2   2   2   2   2
#     4  11  25  48  70 105 137 185 243 286 353 416
#     4  11  25  46  73 100 142 188 233 297 346 419
#     4  11  24  43  72 100 139 182 231 291 344 418
#     4  11  26  42  71 105 141 185 228 291 356 424
#     4  10  24  47  67 105 141 184 236 288 350 418
#     4  11  25  45  71 107 146 185 234 290 359 421
#     4  11  23  45  68 104 142 179 233 287 354 418
#
# _framework density 23.866698
#
# number of rings (size 3 to 8) (size 9 to 14) (size 15 to 20)
#    0.000    1.143    2.857    1.714    6.000    2.286 
#   18.000    0.000    0.000    0.000    0.000    0.000 
#    0.000    0.000    0.000    0.000    0.000    0.000 
#
# Total GULP energy -78065.751561 kJ/mol
# GULP energy per Si atom -5576.125111 kJ/mol
# Density = 2.381238 g / cm^3
# Si number density = 23.866698 Si / 1000 Ang^3
#
#
#
# Elastic Constant Matrix: (Units=GPa)
#
#
# Indices 1 2 3 4 5 6 
#
# 1 41.1032 22.5501 31.8181 0.0000 0.0908 0.0000
# 2 22.5501 156.7667 53.6417 0.0000 6.5298 0.0000
# 3 31.8181 53.6417 92.7034 0.0000 1.6139 0.0000
# 4 0.0000 0.0000 0.0000 42.3122 0.0000 8.0386
# 5 0.0908 6.5298 1.6139 0.0000 24.8363 0.0000
# 6 0.0000 0.0000 0.0000 8.0386 0.0000 25.4921
#
#
#
# Elastic Compliance Matrix: (Units=1/GPa)
#
#
# Indices 1 2 3 4 5 6 
#
# 1 0.033301 -0.001135 -0.010788 0.000000 0.000878 0.000000
# 2 -0.001135 0.008073 -0.004250 0.000000 -0.001842 0.000000
# 3 -0.010788 -0.004250 0.016948 0.000000 0.000055 0.000000
# 4 0.000000 0.000000 0.000000 0.025140 0.000000 -0.007928
# 5 0.000878 -0.001842 0.000055 0.000000 0.040741 0.000000
# 6 0.000000 0.000000 0.000000 -0.007928 0.000000 0.041728
#
#
# Mechanical properties :
#
#
# Convention : Reuss Voigt Hill
#
# Bulk Modulus (GPa) = 38.49726 56.28812 47.39269
# Shear Modulus (GPa) = 24.16212 30.69900 27.43056
#
# Velocity S-wave (km/s) = 3.18524 3.59035 3.39385
# Velocity P-wave (km/s) = 5.44911 6.38929 5.93784
#
# Compressibility (1/GPa) = 0.02597588
#
# Stress axis : x y z
#
# Youngs Moduli (GPa) = 30.02911 123.86854 59.00454
#
# Poissons Ratio (x) = 0.14063 0.63654
# Poissons Ratio (y) = 0.03409 0.25075
# Poissons Ratio (z) = 0.32396 0.52640
#
# Static dielectric constant tensor:
#      x y z
#    x 2.020010 0.000000 0.008060 
#    y 0.000000 1.899040 0.000000 
#    z 0.008060 0.000000 1.935320 
# 
# From -- ./inp_files/2468.got.cif
#   From: 2010.05.17/outbox.cif.g08.bks.cpg/sg4_2_cif.got.tgz:2468.got - 2010.06.03 18:43:04.
