data_PCOD9118649
_publ_section_title
;
Structure prediction by ZEFSAII (Michael W. Deem and Ramdas Pophale) SiO2 
 PCOD9118649
Probable space group: P 21
;
_chemical_formula_sum "Si O2"
_cell_formula_units_Z 12
_cell_length_a 7.378235
_cell_length_b 5.545350
_cell_length_c 19.500747
_cell_angle_alpha 90.000000
_cell_angle_beta 42.265821
_cell_angle_gamma 90.000000
_cell_volume 536.625054
_symmetry_space_group_name_H-M "P 21"
_symmetry_group_IT_number 4
_symmetry_cell_setting 'monoclinic'
loop_
_space_group_symop_operation_xyz
x,y,z
-x,1/2+y,-z
loop_
_atom_site_type_symbol
_atom_site_label
_atom_site_fract_x
_atom_site_fract_y
_atom_site_fract_z
Si Si1 0.862441 0.023030 0.822202
Si Si2 0.881589 0.529530 0.561070
Si Si3 0.593312 0.732660 0.270163
Si Si4 0.708662 0.842837 0.721952
Si Si5 0.286133 0.241646 0.014068
Si Si6 0.775465 0.032175 0.093749
O O1 0.594622 0.170105 0.919034
O O2 0.137590 0.147486 0.768111
O O3 0.855592 0.971281 0.743577
O O4 0.819769 0.781297 0.879728
O O5 0.568853 0.440535 0.643672
O O6 0.885670 0.629706 0.638459
O O7 0.960781 0.775126 0.497098
O O8 0.387602 0.516609 0.312063
O O9 0.665253 0.821310 0.173406
O O10 0.427543 0.744655 0.830761
O O11 0.243639 0.481684 0.980922
O O12 0.079154 0.068329 0.033156
#
# Coordination Sequence:
#
# PCOD9118649 Si02
#       6
#     2   2   2   2   2   2
#     4  12  24  40  66 108 146 200 242 294 352 412
#     4  11  24  48  87 108 134 188 237 300 388 455
#     4  11  23  45  72 103 147 185 237 305 367 429
#     4  11  23  45  72 103 147 185 237 305 367 429
#     4  12  22  38  64 100 150 198 258 280 330 418
#     4  11  22  40  63  96 146 202 249 294 344 397
#
# _framework density 22.361982000000001
#
# number of rings (size 3 to 8) (size 9 to 14) (size 15 to 20)
#    0.000    0.667    5.000    4.000    0.000    0.000 
#    0.000    0.000    7.333    0.000    0.000    0.000 
#    0.000    0.000    0.000    0.000    0.000    0.000 
#
# Total GULP energy -66974.915061 kJ/mol
# GULP energy per Si atom -5581.242922 kJ/mol
# Density = 2.231108 g / cm^3
# Si number density = 22.361982 Si / 1000 Ang^3
#
#
#
# Elastic Constant Matrix: (Units=GPa)
#
#
# Indices 1 2 3 4 5 6 
#
# 1 114.5585 26.0951 26.5609 0.0000 -13.9614 0.0000
# 2 26.0951 87.8157 42.1705 0.0000 2.0638 0.0000
# 3 26.5609 42.1705 98.9535 0.0000 -0.4931 0.0000
# 4 0.0000 0.0000 0.0000 64.3264 0.0000 0.0008
# 5 -13.9614 2.0638 -0.4931 0.0000 -6.4501 0.0000
# 6 0.0000 0.0000 0.0000 0.0008 0.0000 28.9615
#
#
#
# Elastic Compliance Matrix: (Units=1/GPa)
#
#
# Indices 1 2 3 4 5 6 
#
# 1 0.007370 -0.001033 -0.001619 0.000000 -0.016160 0.000000
# 2 -0.001033 0.014300 -0.005781 0.000000 0.007254 0.000000
# 3 -0.001619 -0.005781 0.013007 0.000000 0.000659 0.000000
# 4 0.000000 0.000000 0.000000 0.015546 0.000000 0.000000
# 5 -0.016160 0.007254 0.000659 0.000000 -0.117787 0.000000
# 6 0.000000 0.000000 0.000000 0.000000 0.000000 0.034529
#
#
# Mechanical properties :
#
#
# Convention : Reuss Voigt Hill
#
# Bulk Modulus (GPa) = 56.14011 54.55341 55.34676
# Shear Modulus (GPa) = -488.60826 31.13431 -228.73698
#
# Velocity S-wave (km/s) = -14.79777 3.73539 -10.12474
# Velocity P-wave (km/s) = 16.33418 6.56146 10.57716
#
# Compressibility (1/GPa) = 0.01781258
#
# Stress axis : x y z
#
# Youngs Moduli (GPa) = 135.67929 69.93016 76.88152
#
# Poissons Ratio (x) = 0.07224 0.12444
# Poissons Ratio (y) = 0.14017 0.44443
# Poissons Ratio (z) = 0.21961 0.40424
#
# Static dielectric constant tensor:
#      x y z
#    x 1.792930 0.000000 0.038620 
#    y 0.000000 2.025370 0.000000 
#    z 0.038620 0.000000 1.911620 
# 
# From -- ./inp_files/3350.got.cif
#   From: 2010.05.17/outbox.cif.g08.bks.cpg/sg4_2_cif.got.tgz:3350.got - 2010.06.03 18:43:04.
