data_PCOD9118700
_publ_section_title
;
Structure prediction by ZEFSAII (Michael W. Deem and Ramdas Pophale) SiO2 
 PCOD9118700
Probable space group: P 21
;
_chemical_formula_sum "Si O2"
_cell_formula_units_Z 16
_cell_length_a 13.288839
_cell_length_b 5.215773
_cell_length_c 9.476204
_cell_angle_alpha 90.000000
_cell_angle_beta 91.075520
_cell_angle_gamma 90.000000
_cell_volume 656.694840
_symmetry_space_group_name_H-M "P 21"
_symmetry_group_IT_number 4
_symmetry_cell_setting 'monoclinic'
loop_
_space_group_symop_operation_xyz
x,y,z
-x,1/2+y,-z
loop_
_atom_site_type_symbol
_atom_site_label
_atom_site_fract_x
_atom_site_fract_y
_atom_site_fract_z
Si Si1 0.064317 0.663580 0.467724
Si Si2 0.179382 0.220648 0.802218
Si Si3 0.721891 0.230832 0.073613
Si Si4 0.207898 0.792729 0.232312
Si Si5 0.981957 0.440885 0.908952
Si Si6 0.574121 0.296836 0.310044
Si Si7 0.256890 0.451372 0.559217
Si Si8 0.370360 0.094541 0.406516
O O1 0.123328 0.634836 0.319129
O O2 0.162581 0.636264 0.568039
O O3 0.990657 0.428631 0.499912
O O4 0.245176 0.450256 0.871880
O O5 0.066525 0.325760 0.806762
O O6 0.218408 0.205089 0.644494
O O7 0.200310 0.953645 0.877102
O O8 0.620411 0.330144 0.153297
O O9 0.731635 0.206650 0.905191
O O10 0.125507 0.996104 0.166361
O O11 0.294537 0.887091 0.340339
O O12 0.022056 0.699900 0.982375
O O13 0.647402 0.079731 0.370981
O O14 0.462774 0.181285 0.312326
O O15 0.584875 0.510953 0.437027
O O16 0.297062 0.338247 0.416243
#
# Coordination Sequence:
#
# PCOD9118700 Si02
#       8
#     2   2   2   2   2   2   2   2
#     4  12  28  47  72 116 162 199 249 321 380 453
#     4  11  22  43  71 101 147 202 247 296 367 466
#     4  11  25  46  75 108 151 195 252 309 387 451
#     4  12  27  47  77 116 155 198 261 324 382 454
#     4  12  24  43  68 103 151 204 243 292 377 462
#     4  11  24  47  77 109 146 206 257 318 393 459
#     4  11  24  43  75 106 148 201 259 306 381 456
#     4  12  24  48  77 115 148 201 266 326 385 457
#
# _framework density 24.364436000000001
#
# number of rings (size 3 to 8) (size 9 to 14) (size 15 to 20)
#    0.000    0.500    6.250    1.500    0.000    7.000 
#    0.000    5.000    0.000    0.000    0.000    0.000 
#    0.000    0.000    0.000    0.000    0.000    0.000 
#
# Total GULP energy -89230.341351 kJ/mol
# GULP energy per Si atom -5576.896334 kJ/mol
# Density = 2.430898 g / cm^3
# Si number density = 24.364436 Si / 1000 Ang^3
#
#
#
# Elastic Constant Matrix: (Units=GPa)
#
#
# Indices 1 2 3 4 5 6 
#
# 1 159.3696 36.2959 46.2169 0.0000 -37.9050 0.0000
# 2 36.2959 122.8344 18.1581 0.0000 -6.3914 0.0000
# 3 46.2169 18.1581 86.9357 0.0000 -39.6186 0.0000
# 4 0.0000 0.0000 0.0000 18.8596 0.0000 -9.2027
# 5 -37.9050 -6.3914 -39.6186 0.0000 48.9348 0.0000
# 6 0.0000 0.0000 0.0000 -9.2027 0.0000 34.2785
#
#
#
# Elastic Compliance Matrix: (Units=1/GPa)
#
#
# Indices 1 2 3 4 5 6 
#
# 1 0.008391 -0.001952 -0.001913 0.000000 0.004696 0.000000
# 2 -0.001952 0.008863 -0.001545 0.000000 -0.001605 0.000000
# 3 -0.001913 -0.001545 0.019135 0.000000 0.013809 0.000000
# 4 0.000000 0.000000 0.000000 0.061017 0.000000 0.016381
# 5 0.004696 -0.001605 0.013809 0.000000 0.035043 0.000000
# 6 0.000000 0.000000 0.000000 0.016381 0.000000 0.033571
#
#
# Mechanical properties :
#
#
# Convention : Reuss Voigt Hill
#
# Bulk Modulus (GPa) = 39.11036 63.38684 51.24860
# Shear Modulus (GPa) = 26.97408 38.31249 32.64328
#
# Velocity S-wave (km/s) = 3.33093 3.96975 3.66429
# Velocity P-wave (km/s) = 5.55703 6.86181 6.24360
#
# Compressibility (1/GPa) = 0.02556867
#
# Stress axis : x y z
#
# Youngs Moduli (GPa) = 119.17515 112.83164 52.25894
#
# Poissons Ratio (x) = 0.22028 0.09998
# Poissons Ratio (y) = 0.23267 0.08074
# Poissons Ratio (z) = 0.22799 0.17432
#
# Static dielectric constant tensor:
#      x y z
#    x 1.920970 0.000000 -0.008640 
#    y 0.000000 1.968360 0.000000 
#    z -0.008640 0.000000 2.148710 
# 
# From -- ./inp_files/7316.got.cif
#   From: 2010.05.17/outbox.cif.g08.bks.cpg/sg4_4_cif.got.tgz:7316.got - 2010.06.03 18:43:04.
