data_PCOD9118341
_publ_section_title
;
Structure prediction by ZEFSAII (Michael W. Deem and Ramdas Pophale) SiO2 
 PCOD9118341
Probable space group: P 21
;
_chemical_formula_sum "Si O2"
_cell_formula_units_Z 14
_cell_length_a 11.073045
_cell_length_b 4.882322
_cell_length_c 9.976948
_cell_angle_alpha 90.000000
_cell_angle_beta 78.032005
_cell_angle_gamma 90.000000
_cell_volume 527.651382
_symmetry_space_group_name_H-M "P 21"
_symmetry_group_IT_number 4
_symmetry_cell_setting 'monoclinic'
loop_
_space_group_symop_operation_xyz
x,y,z
-x,1/2+y,-z
loop_
_atom_site_type_symbol
_atom_site_label
_atom_site_fract_x
_atom_site_fract_y
_atom_site_fract_z
Si Si1 0.591964 0.885690 0.300815
Si Si2 0.994860 0.746991 0.406426
Si Si3 0.191062 0.663555 0.676123
Si Si4 0.329367 0.079114 0.452571
Si Si5 0.466741 0.661150 0.087607
Si Si6 0.978376 0.818601 0.912526
Si Si7 0.215992 0.990739 0.208997
O O1 0.639169 0.769792 0.430314
O O2 0.705608 0.080024 0.237634
O O3 0.464046 0.030286 0.360654
O O4 0.551214 0.666804 0.200665
O O5 0.982609 0.450047 0.472363
O O6 0.880009 0.894650 0.361678
O O7 0.110442 0.779464 0.282209
O O8 0.084423 0.836069 0.774499
O O9 0.264734 0.819045 0.540285
O O10 0.251222 0.154681 0.338592
O O11 0.335109 0.811608 0.139389
O O12 0.539206 0.856669 0.966490
O O13 0.853046 0.688453 0.880115
O O14 0.031226 0.601848 0.008267
#
# Coordination Sequence:
#
# PCOD9118341 Si02
#       7
#     2   2   2   2   2   2   2
#     4  11  25  42  74 105 147 184 235 299 359 432
#     4  11  23  42  68 102 140 177 225 287 359 422
#     4  11  25  41  74  99 142 186 229 297 357 424
#     4  11  22  46  69 113 142 181 235 298 376 424
#     4  11  29  48  74 104 143 197 242 287 349 429
#     4  11  29  50  73 103 142 196 247 294 346 422
#     4  10  25  47  74 106 146 185 239 306 352 429
#
# _framework density 26.532668000000001
#
# number of rings (size 3 to 8) (size 9 to 14) (size 15 to 20)
#    0.000    1.143    2.857    0.857    8.000    4.571 
#    2.571    0.000    0.000    0.000    0.000    0.000 
#    0.000    0.000    0.000    0.000    0.000    0.000 
#
# Total GULP energy -78469.664069 kJ/mol
# GULP energy per Si atom -5604.976005 kJ/mol
# Density = 2.647228 g / cm^3
# Si number density = 26.532668 Si / 1000 Ang^3
#
#
#
# Elastic Constant Matrix: (Units=GPa)
#
#
# Indices 1 2 3 4 5 6 
#
# 1 173.8398 8.7107 30.9817 0.0000 3.3694 0.0000
# 2 8.7107 78.5171 17.6032 0.0000 6.3100 0.0000
# 3 30.9817 17.6032 94.2897 0.0000 13.7362 0.0000
# 4 0.0000 0.0000 0.0000 62.2780 0.0000 23.2504
# 5 3.3694 6.3100 13.7362 0.0000 42.4951 0.0000
# 6 0.0000 0.0000 0.0000 23.2504 0.0000 47.2672
#
#
#
# Elastic Compliance Matrix: (Units=1/GPa)
#
#
# Indices 1 2 3 4 5 6 
#
# 1 0.006116 -0.000248 -0.001992 0.000000 0.000196 0.000000
# 2 -0.000248 0.013364 -0.002232 0.000000 -0.001243 0.000000
# 3 -0.001992 -0.002232 0.012179 0.000000 -0.003447 0.000000
# 4 0.000000 0.000000 0.000000 0.019669 0.000000 -0.009675
# 5 0.000196 -0.001243 -0.003447 0.000000 0.024816 0.000000
# 6 0.000000 0.000000 0.000000 -0.009675 0.000000 0.025915
#
#
# Mechanical properties :
#
#
# Convention : Reuss Voigt Hill
#
# Bulk Modulus (GPa) = 44.02366 51.24865 47.63616
# Shear Modulus (GPa) = 42.16745 49.69811 45.93278
#
# Velocity S-wave (km/s) = 3.99088 4.33262 4.16526
# Velocity P-wave (km/s) = 6.15341 6.66228 6.41290
#
# Compressibility (1/GPa) = 0.02271506
#
# Stress axis : x y z
#
# Youngs Moduli (GPa) = 163.50474 74.82801 82.10781
#
# Poissons Ratio (x) = 0.01853 0.16355
# Poissons Ratio (y) = 0.04050 0.18330
# Poissons Ratio (z) = 0.32568 0.16705
#
# Static dielectric constant tensor:
#      x y z
#    x 1.781960 0.000000 -0.087890 
#    y 0.000000 2.123530 0.000000 
#    z -0.087890 0.000000 2.087360 
# 
# From -- ./inp_files/7349.got.cif
#   From: 2010.05.17/outbox.cif.g08.bks.cpg/sg4_4_cif.got.tgz:7349.got - 2010.06.03 18:43:04.
