data_PCOD9118983
_publ_section_title
;
Structure prediction by ZEFSAII (Michael W. Deem and Ramdas Pophale) SiO2 
 PCOD9118983
Probable space group: P 21
;
_chemical_formula_sum "Si O2"
_cell_formula_units_Z 14
_cell_length_a 8.987771
_cell_length_b 6.258064
_cell_length_c 17.366974
_cell_angle_alpha 90.000000
_cell_angle_beta 141.080866
_cell_angle_gamma 90.000000
_cell_volume 613.662985
_symmetry_space_group_name_H-M "P 21"
_symmetry_group_IT_number 4
_symmetry_cell_setting 'monoclinic'
loop_
_space_group_symop_operation_xyz
x,y,z
-x,1/2+y,-z
loop_
_atom_site_type_symbol
_atom_site_label
_atom_site_fract_x
_atom_site_fract_y
_atom_site_fract_z
Si Si1 0.526858 0.436120 0.231582
Si Si2 0.649557 0.728431 0.973195
Si Si3 0.087324 0.320601 0.269326
Si Si4 0.996573 0.100873 0.615044
Si Si5 0.838186 0.191910 0.826774
Si Si6 0.475884 0.096023 0.341312
Si Si7 0.248258 0.427586 0.826246
O O1 0.514252 0.399788 0.135487
O O2 0.331047 0.603329 0.176465
O O3 0.462448 0.226307 0.255404
O O4 0.789897 0.520056 0.352881
O O5 0.501573 0.513969 0.899663
O O6 0.689214 0.770568 0.078713
O O7 0.906877 0.759601 0.039388
O O8 0.054954 0.436081 0.336820
O O9 0.086109 0.501896 0.202054
O O10 0.345156 0.220794 0.357886
O O11 0.896344 0.127045 0.193597
O O12 0.752587 0.099384 0.470927
O O13 0.091319 0.315260 0.696860
O O14 0.677341 0.378488 0.725033
#
# Coordination Sequence:
#
# PCOD9118983 Si02
#       7
#     2   2   2   2   2   2   2
#     4  11  29  44  68 112 141 202 236 299 379 438
#     4  12  24  45  75 103 150 188 242 307 367 446
#     4  11  23  47  71 112 136 189 249 299 381 422
#     4  12  27  47  76 108 147 197 251 308 369 442
#     4  11  26  47  70 107 146 193 242 302 374 436
#     4  11  28  48  74 103 155 191 252 305 368 450
#     4  12  25  46  74 115 147 188 250 318 374 436
#
# _framework density 22.813824
#
# number of rings (size 3 to 8) (size 9 to 14) (size 15 to 20)
#    0.000    0.571    4.286    1.714   10.000    1.143 
#    0.000    0.000    0.000    0.000    0.000    0.000 
#    0.000    0.000    0.000    0.000    0.000    0.000 
#
# Total GULP energy -78162.016096 kJ/mol
# GULP energy per Si atom -5583.001150 kJ/mol
# Density = 2.276190 g / cm^3
# Si number density = 22.813824 Si / 1000 Ang^3
#
#
#
# Elastic Constant Matrix: (Units=GPa)
#
#
# Indices 1 2 3 4 5 6 
#
# 1 100.0159 26.5611 24.7003 0.0000 26.0529 0.0000
# 2 26.5611 90.1862 36.1786 0.0000 13.5396 0.0000
# 3 24.7003 36.1786 120.4219 0.0000 40.4052 0.0000
# 4 0.0000 0.0000 0.0000 26.3813 0.0000 11.7062
# 5 26.0529 13.5396 40.4052 0.0000 40.4903 0.0000
# 6 0.0000 0.0000 0.0000 11.7062 0.0000 50.2690
#
#
#
# Elastic Compliance Matrix: (Units=1/GPa)
#
#
# Indices 1 2 3 4 5 6 
#
# 1 0.012651 -0.002908 0.001028 0.000000 -0.008194 0.000000
# 2 -0.002908 0.013288 -0.003807 0.000000 0.001227 0.000000
# 3 0.001028 -0.003807 0.013578 0.000000 -0.012938 0.000000
# 4 0.000000 0.000000 0.000000 0.042274 0.000000 -0.009844
# 5 -0.008194 0.001227 -0.012938 0.000000 0.042470 0.000000
# 6 0.000000 0.000000 0.000000 -0.009844 0.000000 0.022185
#
#
# Mechanical properties :
#
#
# Convention : Reuss Voigt Hill
#
# Bulk Modulus (GPa) = 35.53412 53.94490 44.73951
# Shear Modulus (GPa) = 29.90391 38.30703 34.10547
#
# Velocity S-wave (km/s) = 3.62440 4.10215 3.87065
# Velocity P-wave (km/s) = 5.75539 6.79219 6.29517
#
# Compressibility (1/GPa) = 0.02814197
#
# Stress axis : x y z
#
# Youngs Moduli (GPa) = 79.04386 75.25714 73.64737
#
# Poissons Ratio (x) = 0.21887 -0.07571
# Poissons Ratio (y) = 0.22988 0.28040
# Poissons Ratio (z) = -0.08125 0.28653
#
# Static dielectric constant tensor:
#      x y z
#    x 1.854540 0.000000 0.048970 
#    y 0.000000 1.933220 0.000000 
#    z 0.048970 0.000000 1.895610 
# 
# From -- ./inp_files/7069.got.cif
#   From: 2010.05.17/outbox.cif.g08.bks.cpg/sg4_4_cif.got.tgz:7069.got - 2010.06.03 18:43:04.
