data_PCOD9118520
_publ_section_title
;
Structure prediction by ZEFSAII (Michael W. Deem and Ramdas Pophale) SiO2 
 PCOD9118520
Probable space group: P 21
;
_chemical_formula_sum "Si O2"
_cell_formula_units_Z 16
_cell_length_a 7.717526
_cell_length_b 9.355474
_cell_length_c 17.018457
_cell_angle_alpha 90.000000
_cell_angle_beta 30.836261
_cell_angle_gamma 90.000000
_cell_volume 629.841304
_symmetry_space_group_name_H-M "P 21"
_symmetry_group_IT_number 4
_symmetry_cell_setting 'monoclinic'
loop_
_space_group_symop_operation_xyz
x,y,z
-x,1/2+y,-z
loop_
_atom_site_type_symbol
_atom_site_label
_atom_site_fract_x
_atom_site_fract_y
_atom_site_fract_z
Si Si1 0.735815 0.439200 0.723734
Si Si2 0.061818 0.986404 0.522129
Si Si3 0.311669 0.931724 0.040930
Si Si4 0.901576 0.907002 0.943057
Si Si5 0.158804 0.160686 0.758995
Si Si6 0.237224 0.625368 0.237260
Si Si7 0.150350 0.726640 0.589989
Si Si8 0.753498 0.159299 0.274871
O O1 0.926032 0.418124 0.567161
O O2 0.797940 0.298672 0.751672
O O3 0.890582 0.593819 0.686123
O O4 0.324366 0.435527 0.891109
O O5 0.995469 0.869992 0.615661
O O6 0.415006 0.072293 0.389542
O O7 0.800806 0.101654 0.655304
O O8 0.111372 0.782512 0.108813
O O9 0.625316 0.908778 0.978427
O O10 0.034831 0.040071 0.181819
O O11 0.454711 0.027820 0.913283
O O12 0.117939 0.763956 0.844366
O O13 0.138232 0.039405 0.832033
O O14 0.531454 0.210298 0.592347
O O15 0.042815 0.093131 0.720241
O O16 0.274820 0.742296 0.631168
#
# Coordination Sequence:
#
# PCOD9118520 Si02
#       8
#     2   2   2   2   2   2   2   2
#     4  12  26  47  66  98 146 188 228 281 360 433
#     4  12  28  45  66 105 142 185 233 286 359 426
#     4  11  20  42  71 106 133 172 235 296 344 404
#     4  11  23  40  70 101 137 185 228 287 351 413
#     4  11  22  39  71 110 132 171 241 296 341 403
#     4  11  23  42  72  99 142 183 229 292 349 413
#     4  12  25  44  73 101 136 181 238 296 346 411
#     4  12  23  43  73 102 134 177 242 298 340 407
#
# _framework density 25.403226
#
# number of rings (size 3 to 8) (size 9 to 14) (size 15 to 20)
#    0.000    0.500    6.250    3.000    3.500    0.000 
#    2.250    0.000    0.000    0.000    0.000    0.000 
#    0.000    0.000    0.000    0.000    0.000    0.000 
#
# Total GULP energy -89248.901408 kJ/mol
# GULP energy per Si atom -5578.056338 kJ/mol
# Density = 2.534541 g / cm^3
# Si number density = 25.403226 Si / 1000 Ang^3
#
#
#
# Elastic Constant Matrix: (Units=GPa)
#
#
# Indices 1 2 3 4 5 6 
#
# 1 26.8671 4.3948 -2.2213 0.0000 3.8278 0.0000
# 2 4.3948 101.2037 0.4678 0.0000 -4.4050 0.0000
# 3 -2.2213 0.4678 57.6835 0.0000 1.9511 0.0000
# 4 0.0000 0.0000 0.0000 99.5607 0.0000 -5.4106
# 5 3.8278 -4.4050 1.9511 0.0000 37.0870 0.0000
# 6 0.0000 0.0000 0.0000 -5.4106 0.0000 22.5369
#
#
#
# Elastic Compliance Matrix: (Units=1/GPa)
#
#
# Indices 1 2 3 4 5 6 
#
# 1 0.038265 -0.001854 0.001633 0.000000 -0.004256 0.000000
# 2 -0.001854 0.010023 -0.000200 0.000000 0.001392 0.000000
# 3 0.001633 -0.000200 0.017438 0.000000 -0.001110 0.000000
# 4 0.000000 0.000000 0.000000 0.010177 0.000000 0.002443
# 5 -0.004256 0.001392 -0.001110 0.000000 0.027627 0.000000
# 6 0.000000 0.000000 0.000000 0.002443 0.000000 0.044958
#
#
# Mechanical properties :
#
#
# Convention : Reuss Voigt Hill
#
# Bulk Modulus (GPa) = 15.41247 21.22633 18.31940
# Shear Modulus (GPa) = 29.24681 44.04444 36.64563
#
# Velocity S-wave (km/s) = 3.39677 4.16843 3.80222
# Velocity P-wave (km/s) = 4.63296 5.61619 5.14810
#
# Compressibility (1/GPa) = 0.06488253
#
# Stress axis : x y z
#
# Youngs Moduli (GPa) = 26.13363 99.76930 57.34605
#
# Poissons Ratio (x) = 0.18502 -0.09362
# Poissons Ratio (y) = 0.04846 0.01146
# Poissons Ratio (z) = -0.04266 0.01993
#
# Static dielectric constant tensor:
#      x y z
#    x 2.079560 0.000000 -0.041170 
#    y 0.000000 2.141930 0.000000 
#    z -0.041170 0.000000 2.017930 
# 
# From -- ./inp_files/9663.got.cif
#   From: 2010.05.17/outbox.cif.g08.bks.cpg/sg4_5_cif.got.tgz:9663.got - 2010.06.03 18:43:04.
