data_PCOD9118315
_publ_section_title
;
Structure prediction by ZEFSAII (Michael W. Deem and Ramdas Pophale) SiO2 
 PCOD9118315
Probable space group: P 21
;
_chemical_formula_sum "Si O2"
_cell_formula_units_Z 16
_cell_length_a 7.726594
_cell_length_b 9.782305
_cell_length_c 9.114576
_cell_angle_alpha 90.000000
_cell_angle_beta 110.784522
_cell_angle_gamma 90.000000
_cell_volume 644.081675
_symmetry_space_group_name_H-M "P 21"
_symmetry_group_IT_number 4
_symmetry_cell_setting 'monoclinic'
loop_
_space_group_symop_operation_xyz
x,y,z
-x,1/2+y,-z
loop_
_atom_site_type_symbol
_atom_site_label
_atom_site_fract_x
_atom_site_fract_y
_atom_site_fract_z
Si Si1 0.894173 0.481940 0.467312
Si Si2 0.611925 0.090201 0.703669
Si Si3 0.239166 0.425468 0.759636
Si Si4 0.548609 0.312090 0.440330
Si Si5 0.658021 0.431927 0.880787
Si Si6 0.210272 0.132770 0.280061
Si Si7 0.268375 0.122256 0.829466
Si Si8 0.159883 0.658319 0.972273
O O1 0.743179 0.359613 0.428015
O O2 0.830725 0.604225 0.561014
O O3 0.892942 0.544022 0.305998
O O4 0.090656 0.435849 0.586447
O O5 0.600952 0.223888 0.599016
O O6 0.445801 0.101275 0.774433
O O7 0.565826 0.955416 0.594540
O O8 0.798316 0.088742 0.857465
O O9 0.447924 0.426818 0.767517
O O10 0.218754 0.279798 0.832016
O O11 0.216569 0.550253 0.865055
O O12 0.403152 0.210686 0.316963
O O13 0.781053 0.478459 0.781315
O O14 0.683376 0.551761 0.005362
O O15 0.718923 0.294557 0.978830
O O16 0.045200 0.200520 0.139649
#
# Coordination Sequence:
#
# PCOD9118315 Si02
#       8
#     2   2   2   2   2   2   2   2
#     4  10  25  46  69 101 144 183 241 293 347 428
#     4  11  23  44  69 100 142 182 234 292 353 418
#     4  11  24  45  71 100 140 187 234 293 358 421
#     4  11  23  44  70  96 140 185 228 289 351 414
#     4  12  25  44  73 105 140 187 230 295 364 416
#     4  11  26  43  71 107 139 186 242 289 350 422
#     4  11  24  44  68 103 142 184 233 290 359 419
#     4  11  26  46  69 104 147 182 238 299 346 434
#
# _framework density 24.841569
#
# number of rings (size 3 to 8) (size 9 to 14) (size 15 to 20)
#    0.000    1.000    5.000    0.750    3.500    7.000 
#    0.000    0.000    0.000    0.000    0.000    0.000 
#    0.000    0.000    0.000    0.000    0.000    0.000 
#
# Total GULP energy -89555.213116 kJ/mol
# GULP energy per Si atom -5597.200820 kJ/mol
# Density = 2.478503 g / cm^3
# Si number density = 24.841569 Si / 1000 Ang^3
#
#
#
# Elastic Constant Matrix: (Units=GPa)
#
#
# Indices 1 2 3 4 5 6 
#
# 1 68.9371 14.5865 36.3061 0.0000 31.2430 0.0000
# 2 14.5865 99.5441 3.7786 0.0000 8.6249 0.0000
# 3 36.3061 3.7786 103.1201 0.0000 38.3238 0.0000
# 4 0.0000 0.0000 0.0000 51.5684 0.0000 4.8168
# 5 31.2430 8.6249 38.3238 0.0000 52.7232 0.0000
# 6 0.0000 0.0000 0.0000 4.8168 0.0000 19.1370
#
#
#
# Elastic Compliance Matrix: (Units=1/GPa)
#
#
# Indices 1 2 3 4 5 6 
#
# 1 0.021294 -0.002156 -0.003918 0.000000 -0.009418 0.000000
# 2 -0.002156 0.010417 0.000734 0.000000 -0.000960 0.000000
# 3 -0.003918 0.000734 0.014019 0.000000 -0.007988 0.000000
# 4 0.000000 0.000000 0.000000 0.019859 0.000000 -0.004998
# 5 -0.009418 -0.000960 -0.007988 0.000000 0.030512 0.000000
# 6 0.000000 0.000000 0.000000 -0.004998 0.000000 0.053513
#
#
# Mechanical properties :
#
#
# Convention : Reuss Voigt Hill
#
# Bulk Modulus (GPa) = 28.53004 42.32709 35.42856
# Shear Modulus (GPa) = 29.07398 39.14772 34.11085
#
# Velocity S-wave (km/s) = 3.42479 3.97406 3.70961
# Velocity P-wave (km/s) = 5.21043 6.17522 5.71323
#
# Compressibility (1/GPa) = 0.03505078
#
# Stress axis : x y z
#
# Youngs Moduli (GPa) = 46.96219 95.99689 71.33288
#
# Poissons Ratio (x) = 0.20692 0.27948
# Poissons Ratio (y) = 0.10123 -0.05237
# Poissons Ratio (z) = 0.18400 -0.07047
#
# Static dielectric constant tensor:
#      x y z
#    x 2.012690 0.000000 0.024850 
#    y 0.000000 1.974320 0.000000 
#    z 0.024850 0.000000 1.947210 
# 
# From -- ./inp_files/5856.got.cif
#   From: 2010.05.17/outbox.cif.g08.bks.cpg/sg4_3_cif.got.tgz:5856.got - 2010.06.03 18:43:04.
