data_PCOD9118232
_publ_section_title
;
Structure prediction by ZEFSAII (Michael W. Deem and Ramdas Pophale) SiO2 
 PCOD9118232
Probable space group: P 21
;
_chemical_formula_sum "Si O2"
_cell_formula_units_Z 14
_cell_length_a 13.412818
_cell_length_b 8.741485
_cell_length_c 4.927752
_cell_angle_alpha 90.000000
_cell_angle_beta 59.482029
_cell_angle_gamma 90.000000
_cell_volume 497.730452
_symmetry_space_group_name_H-M "P 21"
_symmetry_group_IT_number 4
_symmetry_cell_setting 'monoclinic'
loop_
_space_group_symop_operation_xyz
x,y,z
-x,1/2+y,-z
loop_
_atom_site_type_symbol
_atom_site_label
_atom_site_fract_x
_atom_site_fract_y
_atom_site_fract_z
Si Si1 0.778523 0.698930 0.116838
Si Si2 0.617486 0.527862 0.989945
Si Si3 0.729692 0.307424 0.444917
Si Si4 0.091847 0.413543 0.388993
Si Si5 0.400135 0.348832 0.223355
Si Si6 0.963024 0.205612 0.197924
Si Si7 0.289966 0.602642 0.995925
O O1 0.712708 0.550667 0.092001
O O2 0.817021 0.773274 0.769597
O O3 0.903990 0.690866 0.090364
O O4 0.693994 0.803310 0.416648
O O5 0.675947 0.460961 0.638445
O O6 0.570196 0.694262 0.976540
O O7 0.365254 0.473727 0.043509
O O8 0.512390 0.418835 0.211321
O O9 0.863970 0.293529 0.169207
O O10 0.733836 0.215347 0.723659
O O11 0.066271 0.532359 0.663306
O O12 0.982028 0.328678 0.418362
O O13 0.166109 0.526305 0.089773
O O14 0.664477 0.198916 0.319727
#
# Coordination Sequence:
#
# PCOD9118232 Si02
#       7
#     2   2   2   2   2   2   2
#     4  10  24  49  82 122 171 226 300 363 449 537
#     4  12  28  53  82 122 172 232 306 375 449 541
#     4  11  26  50  81 127 167 222 288 365 450 540
#     4   9  19  43  75 114 170 217 274 354 440 534
#     4  12  27  53  82 121 171 238 298 379 444 527
#     4   9  20  44  78 123 167 219 278 361 454 533
#     4  11  24  50  78 119 172 220 290 353 446 534
#
# _framework density 28.127672
#
# number of rings (size 3 to 8) (size 9 to 14) (size 15 to 20)
#    0.857    0.571    1.429    2.571    2.000    1.143 
#   23.143    0.000    0.000    0.000    0.000    0.000 
#    0.000    0.000    0.000    0.000    0.000    0.000 
#
# Total GULP energy -78138.814483 kJ/mol
# GULP energy per Si atom -5581.343892 kJ/mol
# Density = 2.806365 g / cm^3
# Si number density = 28.127672 Si / 1000 Ang^3
#
#
#
# Elastic Constant Matrix: (Units=GPa)
#
#
# Indices 1 2 3 4 5 6 
#
# 1 100.1191 61.8550 70.9129 0.0000 -18.9531 0.0000
# 2 61.8550 108.3514 39.6517 0.0000 0.4519 0.0000
# 3 70.9129 39.6517 164.4495 0.0000 4.8488 0.0000
# 4 0.0000 0.0000 0.0000 55.7974 0.0000 -3.1543
# 5 -18.9531 0.4519 4.8488 0.0000 50.0272 0.0000
# 6 0.0000 0.0000 0.0000 -3.1543 0.0000 59.9599
#
#
#
# Elastic Compliance Matrix: (Units=1/GPa)
#
#
# Indices 1 2 3 4 5 6 
#
# 1 0.024596 -0.011069 -0.008238 0.000000 0.010217 0.000000
# 2 -0.011069 0.015105 0.001262 0.000000 -0.004452 0.000000
# 3 -0.008238 0.001262 0.009448 0.000000 -0.004048 0.000000
# 4 0.000000 0.000000 0.000000 0.017975 0.000000 0.000946
# 5 0.010217 -0.004452 -0.004048 0.000000 0.024292 0.000000
# 6 0.000000 0.000000 0.000000 0.000946 0.000000 0.016728
#
#
# Mechanical properties :
#
#
# Convention : Reuss Voigt Hill
#
# Bulk Modulus (GPa) = 76.57504 79.75101 78.16303
# Shear Modulus (GPa) = 33.65020 46.52360 40.08690
#
# Velocity S-wave (km/s) = 3.46256 4.07137 3.77925
# Velocity P-wave (km/s) = 6.57792 7.10747 6.84782
#
# Compressibility (1/GPa) = 0.01305909
#
# Stress axis : x y z
#
# Youngs Moduli (GPa) = 40.65723 66.20418 105.83773
#
# Poissons Ratio (x) = 0.73281 0.87194
# Poissons Ratio (y) = 0.45003 -0.13360
# Poissons Ratio (z) = 0.33495 -0.08357
#
# Static dielectric constant tensor:
#      x y z
#    x 2.374360 0.000000 -0.086300 
#    y 0.000000 2.310050 0.000000 
#    z -0.086300 0.000000 2.256380 
# 
# From -- ./inp_files/3758.got.cif
#   From: 2010.05.17/outbox.cif.g08.bks.cpg/sg4_2_cif.got.tgz:3758.got - 2010.06.03 18:43:04.
