data_PCOD9118390
_publ_section_title
;
Structure prediction by ZEFSAII (Michael W. Deem and Ramdas Pophale) SiO2 
 PCOD9118390
Probable space group: P 21
;
_chemical_formula_sum "Si O2"
_cell_formula_units_Z 16
_cell_length_a 13.965717
_cell_length_b 9.216812
_cell_length_c 10.958724
_cell_angle_alpha 90.000000
_cell_angle_beta 150.244286
_cell_angle_gamma 90.000000
_cell_volume 700.085254
_symmetry_space_group_name_H-M "P 21"
_symmetry_group_IT_number 4
_symmetry_cell_setting 'monoclinic'
loop_
_space_group_symop_operation_xyz
x,y,z
-x,1/2+y,-z
loop_
_atom_site_type_symbol
_atom_site_label
_atom_site_fract_x
_atom_site_fract_y
_atom_site_fract_z
Si Si1 0.021789 0.531980 0.541285
Si Si2 0.137408 0.460994 0.014674
Si Si3 0.159968 0.466324 0.322612
Si Si4 0.609950 0.074388 0.915882
Si Si5 0.520501 0.133500 0.182814
Si Si6 0.657784 0.347576 0.123536
Si Si7 0.111279 0.159526 0.855535
Si Si8 0.178582 0.148673 0.445583
O O1 0.879060 0.396055 0.380662
O O2 0.007645 0.611253 0.396556
O O3 0.926027 0.629926 0.540678
O O4 0.237610 0.496868 0.823542
O O5 0.186339 0.438813 0.209052
O O6 0.314278 0.527444 0.132357
O O7 0.071064 0.313020 0.874449
O O8 0.963281 0.574398 0.808000
O O9 0.307894 0.586260 0.537997
O O10 0.198551 0.316836 0.436049
O O11 0.948039 0.531231 0.117203
O O12 0.380740 0.062919 0.672874
O O13 0.643812 0.241770 0.991503
O O14 0.578534 0.258810 0.151760
O O15 0.331947 0.167181 0.054767
O O16 0.458134 0.993346 0.034546
#
# Coordination Sequence:
#
# PCOD9118390 Si02
#       8
#     2   2   2   2   2   2   2   2
#     4  10  26  42  75 111 147 189 237 306 386 450
#     4  11  29  47  75 104 148 205 257 307 367 441
#     4  12  27  50  72 109 147 203 260 308 361 443
#     4  11  24  45  74 106 149 192 241 302 378 435
#     4  11  27  46  80 111 151 194 242 315 375 458
#     4  11  24  48  75 116 152 187 244 310 388 446
#     4  11  27  48  74 109 147 199 248 308 379 438
#     4  11  26  48  75 108 151 193 247 320 372 443
#
# _framework density 22.854361000000001
#
# number of rings (size 3 to 8) (size 9 to 14) (size 15 to 20)
#    0.000    1.000    1.250    3.000   17.500    2.000 
#    0.000    0.000    0.000    0.000    0.000    0.000 
#    0.000    0.000    0.000    0.000    0.000    0.000 
#
# Total GULP energy -89570.286730 kJ/mol
# GULP energy per Si atom -5598.142921 kJ/mol
# Density = 2.280234 g / cm^3
# Si number density = 22.854361 Si / 1000 Ang^3
#
#
#
# Elastic Constant Matrix: (Units=GPa)
#
#
# Indices 1 2 3 4 5 6 
#
# 1 110.8233 29.8959 26.9954 0.0000 1.1870 0.0000
# 2 29.8959 108.7748 13.3811 0.0000 0.0827 0.0000
# 3 26.9954 13.3811 59.9827 0.0000 21.9101 0.0000
# 4 0.0000 0.0000 0.0000 32.2042 0.0000 9.4215
# 5 1.1870 0.0827 21.9101 0.0000 44.7871 0.0000
# 6 0.0000 0.0000 0.0000 9.4215 0.0000 34.7446
#
#
#
# Elastic Compliance Matrix: (Units=1/GPa)
#
#
# Indices 1 2 3 4 5 6 
#
# 1 0.010904 -0.002358 -0.005208 0.000000 0.002263 0.000000
# 2 -0.002358 0.010019 -0.001449 0.000000 0.000753 0.000000
# 3 -0.005208 -0.001449 0.023484 0.000000 -0.011348 0.000000
# 4 0.000000 0.000000 0.000000 0.033727 0.000000 -0.009146
# 5 0.002263 0.000753 -0.011348 0.000000 0.027818 0.000000
# 6 0.000000 0.000000 0.000000 -0.009146 0.000000 0.031261
#
#
# Mechanical properties :
#
#
# Convention : Reuss Voigt Hill
#
# Bulk Modulus (GPa) = 37.91192 46.68062 42.29627
# Shear Modulus (GPa) = 30.48135 36.30107 33.39121
#
# Velocity S-wave (km/s) = 3.65598 3.98975 3.82651
# Velocity P-wave (km/s) = 5.86908 6.45707 6.17008
#
# Compressibility (1/GPa) = 0.02637693
#
# Stress axis : x y z
#
# Youngs Moduli (GPa) = 91.71106 99.81023 42.58306
#
# Poissons Ratio (x) = 0.23534 0.22177
# Poissons Ratio (y) = 0.21624 0.06170
# Poissons Ratio (z) = 0.47763 0.14461
#
# Static dielectric constant tensor:
#      x y z
#    x 1.858010 0.000000 0.019760 
#    y 0.000000 1.872060 0.000000 
#    z 0.019760 0.000000 1.857900 
# 
# From -- ./inp_files/12680.got.cif
#   From: 2010.05.17/outbox.cif.g08.bks.cpg/sg4_7_cif.got.tgz:12680.got - 2010.06.03 18:43:04.
