data_PCOD9118786
_publ_section_title
;
Structure prediction by ZEFSAII (Michael W. Deem and Ramdas Pophale) SiO2 
 PCOD9118786
Probable space group: P 21
;
_chemical_formula_sum "Si O2"
_cell_formula_units_Z 16
_cell_length_a 11.414480
_cell_length_b 8.236248
_cell_length_c 11.693272
_cell_angle_alpha 90.000000
_cell_angle_beta 33.309362
_cell_angle_gamma 90.000000
_cell_volume 603.698372
_symmetry_space_group_name_H-M "P 21"
_symmetry_group_IT_number 4
_symmetry_cell_setting 'monoclinic'
loop_
_space_group_symop_operation_xyz
x,y,z
-x,1/2+y,-z
loop_
_atom_site_type_symbol
_atom_site_label
_atom_site_fract_x
_atom_site_fract_y
_atom_site_fract_z
Si Si1 0.717114 0.769480 0.807363
Si Si2 0.807900 0.134654 0.297135
Si Si3 0.567517 0.810465 0.511763
Si Si4 0.791498 0.836885 0.013248
Si Si5 0.614739 0.199466 0.683910
Si Si6 0.016618 0.149858 0.769312
Si Si7 0.092081 0.974819 0.462661
Si Si8 0.618302 0.372516 0.083810
O O1 0.745553 0.826565 0.913490
O O2 0.816808 0.594459 0.705081
O O3 0.490045 0.774384 0.931521
O O4 0.865613 0.897656 0.617427
O O5 0.651094 0.266432 0.370600
O O6 0.783226 0.136257 0.454669
O O7 0.046250 0.196568 0.079596
O O8 0.697269 0.965098 0.357512
O O9 0.493010 0.830365 0.704617
O O10 0.754548 0.677831 0.360968
O O11 0.890451 0.014072 0.945110
O O12 0.557728 0.802418 0.248885
O O13 0.746182 0.325365 0.652258
O O14 0.468286 0.058029 0.858418
O O15 0.863963 0.310169 0.888203
O O16 0.064032 0.075685 0.604197
#
# Coordination Sequence:
#
# PCOD9118786 Si02
#       8
#     2   2   2   2   2   2   2   2
#     4  11  23  39  66 101 138 182 223 278 341 419
#     4  11  24  46  68 100 133 180 231 289 350 409
#     4  11  25  44  73  94 137 177 230 291 348 412
#     4  11  25  41  67 102 137 177 229 278 344 416
#     4  11  24  45  67 100 143 178 232 287 342 414
#     4  11  23  44  68 101 134 182 229 281 347 411
#     4  11  23  42  70  96 146 189 224 283 346 413
#     4  11  25  43  67 106 136 179 234 281 348 412
#
# _framework density 26.503302000000001
#
# number of rings (size 3 to 8) (size 9 to 14) (size 15 to 20)
#    0.000    1.000    3.750    3.000    1.750    6.000 
#    0.000    0.000    0.000    0.000    0.000    0.000 
#    0.000    0.000    0.000    0.000    0.000    0.000 
#
# Total GULP energy -89578.288688 kJ/mol
# GULP energy per Si atom -5598.643043 kJ/mol
# Density = 2.644298 g / cm^3
# Si number density = 26.503302 Si / 1000 Ang^3
#
#
#
# Elastic Constant Matrix: (Units=GPa)
#
#
# Indices 1 2 3 4 5 6 
#
# 1 76.3797 3.2082 21.2017 0.0000 -11.5495 0.0000
# 2 3.2082 78.8157 -1.6432 0.0000 9.2092 0.0000
# 3 21.2017 -1.6432 91.3531 0.0000 -11.0600 0.0000
# 4 0.0000 0.0000 0.0000 45.0181 0.0000 -11.2756
# 5 -11.5495 9.2092 -11.0600 0.0000 48.9455 0.0000
# 6 0.0000 0.0000 0.0000 -11.2756 0.0000 42.8152
#
#
#
# Elastic Compliance Matrix: (Units=1/GPa)
#
#
# Indices 1 2 3 4 5 6 
#
# 1 0.014409 -0.000989 -0.003010 0.000000 0.002906 0.000000
# 2 -0.000989 0.013041 0.000143 0.000000 -0.002655 0.000000
# 3 -0.003010 0.000143 0.011884 0.000000 0.001948 0.000000
# 4 0.000000 0.000000 0.000000 0.023782 0.000000 0.006263
# 5 0.002906 -0.002655 0.001948 0.000000 0.022056 0.000000
# 6 0.000000 0.000000 0.000000 0.006263 0.000000 0.025006
#
#
# Mechanical properties :
#
#
# Convention : Reuss Voigt Hill
#
# Bulk Modulus (GPa) = 31.62426 32.45354 32.03890
# Shear Modulus (GPa) = 38.93152 42.27455 40.60303
#
# Velocity S-wave (km/s) = 3.83682 3.99816 3.91832
# Velocity P-wave (km/s) = 5.62017 5.79529 5.70840
#
# Compressibility (1/GPa) = 0.03162129
#
# Stress axis : x y z
#
# Youngs Moduli (GPa) = 69.40114 76.67973 84.14992
#
# Poissons Ratio (x) = 0.07582 0.25330
# Poissons Ratio (y) = 0.06863 -0.01200
# Poissons Ratio (z) = 0.20890 -0.01094
#
# Static dielectric constant tensor:
#      x y z
#    x 2.045360 0.000000 0.084870 
#    y 0.000000 2.159340 0.000000 
#    z 0.084870 0.000000 2.104720 
# 
# From -- ./inp_files/13948.got.cif
#   From: 2010.05.17/outbox.cif.g08.bks.cpg/sg4_7_cif.got.tgz:13948.got - 2010.06.03 18:43:04.
