data_PCOD9118919
_publ_section_title
;
Structure prediction by ZEFSAII (Michael W. Deem and Ramdas Pophale) SiO2 
 PCOD9118919
Probable space group: P 21
;
_chemical_formula_sum "Si O2"
_cell_formula_units_Z 16
_cell_length_a 13.702019
_cell_length_b 5.825065
_cell_length_c 21.400143
_cell_angle_alpha 90.000000
_cell_angle_beta 22.800806
_cell_angle_gamma 90.000000
_cell_volume 661.920338
_symmetry_space_group_name_H-M "P 21"
_symmetry_group_IT_number 4
_symmetry_cell_setting 'monoclinic'
loop_
_space_group_symop_operation_xyz
x,y,z
-x,1/2+y,-z
loop_
_atom_site_type_symbol
_atom_site_label
_atom_site_fract_x
_atom_site_fract_y
_atom_site_fract_z
Si Si1 0.418072 0.978510 0.243337
Si Si2 0.171579 0.515318 0.570062
Si Si3 0.451212 0.626569 0.112696
Si Si4 0.168688 0.907037 0.675638
Si Si5 0.936349 0.811189 0.603202
Si Si6 0.416385 0.683190 0.639884
Si Si7 0.753527 0.241687 0.890224
Si Si8 0.854155 0.969894 0.088892
O O1 0.471756 0.830465 0.149669
O O2 0.168716 0.876269 0.423242
O O3 0.307815 0.226376 0.290257
O O4 0.650845 0.975111 0.152825
O O5 0.425681 0.368849 0.413185
O O6 0.049459 0.613851 0.580030
O O7 0.966060 0.356116 0.722840
O O8 0.201508 0.718155 0.602452
O O9 0.176794 0.512032 0.287127
O O10 0.464343 0.688793 0.031317
O O11 0.658746 0.426448 0.995917
O O12 0.389335 0.085066 0.526653
O O13 0.896832 0.023677 0.832543
O O14 0.209086 0.807991 0.720438
O O15 0.298529 0.496674 0.755567
O O16 0.008463 0.217098 0.993849
#
# Coordination Sequence:
#
# PCOD9118919 Si02
#       8
#     2   2   2   2   2   2   2   2
#     4  12  29  50  81 116 158 217 283 339 419 496
#     4  11  23  44  75 111 157 200 257 335 415 487
#     4  12  26  47  72 117 158 203 258 337 424 504
#     4  11  23  46  75 118 147 208 257 340 407 490
#     4  12  25  46  80 115 155 209 274 347 415 494
#     4  11  26  47  81 112 156 206 282 332 405 498
#     4  11  26  43  70 112 162 200 253 328 427 502
#     4  12  34  59  82 119 171 231 284 346 412 497
#
# _framework density 24.172091000000002
#
# number of rings (size 3 to 8) (size 9 to 14) (size 15 to 20)
#    0.000    0.500    5.000    1.500    8.750    2.000 
#    0.000    0.000    0.000    0.000    0.000    0.000 
#    0.000    0.000    0.000    0.000    0.000    0.000 
#
# Total GULP energy -89552.752795 kJ/mol
# GULP energy per Si atom -5597.047050 kJ/mol
# Density = 2.411707 g / cm^3
# Si number density = 24.172091 Si / 1000 Ang^3
#
#
#
# Elastic Constant Matrix: (Units=GPa)
#
#
# Indices 1 2 3 4 5 6 
#
# 1 98.8499 21.8544 29.5472 0.0000 -21.9463 0.0000
# 2 21.8544 86.4565 45.7371 0.0000 -9.5781 0.0000
# 3 29.5472 45.7371 87.0591 0.0000 8.3315 0.0000
# 4 0.0000 0.0000 0.0000 55.3685 0.0000 4.9106
# 5 -21.9463 -9.5781 8.3315 0.0000 35.5234 0.0000
# 6 0.0000 0.0000 0.0000 4.9106 0.0000 49.2662
#
#
#
# Elastic Compliance Matrix: (Units=1/GPa)
#
#
# Indices 1 2 3 4 5 6 
#
# 1 0.014101 0.000899 -0.006256 0.000000 0.010421 0.000000
# 2 0.000899 0.017657 -0.010322 0.000000 0.007737 0.000000
# 3 -0.006256 -0.010322 0.020120 0.000000 -0.011367 0.000000
# 4 0.000000 0.000000 0.000000 0.018222 0.000000 -0.001816
# 5 0.010421 0.007737 -0.011367 0.000000 0.039341 0.000000
# 6 0.000000 0.000000 0.000000 -0.001816 0.000000 0.020479
#
#
# Mechanical properties :
#
#
# Convention : Reuss Voigt Hill
#
# Bulk Modulus (GPa) = 48.72875 51.84921 50.28898
# Shear Modulus (GPa) = 29.74139 39.71340 34.72739
#
# Velocity S-wave (km/s) = 3.51151 4.05772 3.79446
# Velocity P-wave (km/s) = 6.05342 6.59167 6.32827
#
# Compressibility (1/GPa) = 0.02052177
#
# Stress axis : x y z
#
# Youngs Moduli (GPa) = 70.91661 56.63563 49.70192
#
# Poissons Ratio (x) = -0.05094 0.31092
# Poissons Ratio (y) = -0.06378 0.51301
# Poissons Ratio (z) = 0.44363 0.58458
#
# Static dielectric constant tensor:
#      x y z
#    x 1.951190 0.000000 -0.031580 
#    y 0.000000 2.056760 0.000000 
#    z -0.031580 0.000000 1.923100 
# 
# From -- ./inp_files/16068.got.cif
#   From: 2010.05.17/outbox.cif.g08.bks.cpg/sg4_9_cif.got.tgz:16068.got - 2010.06.03 18:43:04.
