data_PCOD9118978
_publ_section_title
;
Structure prediction by ZEFSAII (Michael W. Deem and Ramdas Pophale) SiO2 
 PCOD9118978
Probable space group: P 21
;
_chemical_formula_sum "Si O2"
_cell_formula_units_Z 14
_cell_length_a 9.935080
_cell_length_b 9.711760
_cell_length_c 7.912676
_cell_angle_alpha 90.000000
_cell_angle_beta 48.959049
_cell_angle_gamma 90.000000
_cell_volume 575.840931
_symmetry_space_group_name_H-M "P 21"
_symmetry_group_IT_number 4
_symmetry_cell_setting 'monoclinic'
loop_
_space_group_symop_operation_xyz
x,y,z
-x,1/2+y,-z
loop_
_atom_site_type_symbol
_atom_site_label
_atom_site_fract_x
_atom_site_fract_y
_atom_site_fract_z
Si Si1 0.688072 0.537050 0.899278
Si Si2 0.855357 0.552360 0.123950
Si Si3 0.880184 0.292340 0.618175
Si Si4 0.853038 0.252996 0.257730
Si Si5 0.521440 0.686953 0.589988
Si Si6 0.266942 0.327452 0.304592
Si Si7 0.332081 0.554853 0.045996
O O1 0.794165 0.443220 0.680105
O O2 0.683565 0.695573 0.851048
O O3 0.480799 0.497366 0.056657
O O4 0.778891 0.515875 0.002109
O O5 0.902853 0.409548 0.173642
O O6 0.690073 0.625883 0.353199
O O7 0.025727 0.650332 0.953526
O O8 0.885115 0.224330 0.429194
O O9 0.071941 0.295725 0.546159
O O10 0.747317 0.200949 0.840571
O O11 0.642844 0.234616 0.390429
O O12 0.598938 0.807798 0.646171
O O13 0.431265 0.571128 0.787679
O O14 0.198296 0.438243 0.217202
#
# Coordination Sequence:
#
# PCOD9118978 Si02
#       7
#     2   2   2   2   2   2   2
#     4  11  23  47  70 105 142 192 245 302 361 447
#     4  12  28  48  74 112 153 193 254 304 389 435
#     4  12  25  46  74 108 144 192 256 299 367 438
#     4  12  28  48  75 111 151 199 245 319 370 448
#     4  11  28  47  76 109 156 193 243 313 373 439
#     4  11  24  44  73 108 141 196 244 301 357 442
#     4  11  24  44  76 105 147 195 245 300 369 435
#
# _framework density 24.312270000000002
#
# number of rings (size 3 to 8) (size 9 to 14) (size 15 to 20)
#    0.000    0.571    1.429    6.857    6.000    2.286 
#    0.000    0.000    0.000    0.000    0.000    0.000 
#    0.000    0.000    0.000    0.000    0.000    0.000 
#
# Total GULP energy -78231.567444 kJ/mol
# GULP energy per Si atom -5587.969103 kJ/mol
# Density = 2.425693 g / cm^3
# Si number density = 24.312270 Si / 1000 Ang^3
#
#
#
# Elastic Constant Matrix: (Units=GPa)
#
#
# Indices 1 2 3 4 5 6 
#
# 1 451.7061 403.0241 373.4000 0.0000 -319.3487 0.0000
# 2 403.0241 557.2299 447.0594 0.0000 -358.3516 0.0000
# 3 373.4000 447.0594 467.2019 0.0000 -337.6333 0.0000
# 4 0.0000 0.0000 0.0000 45.4242 0.0000 -14.9511
# 5 -319.3487 -358.3516 -337.6333 0.0000 287.9545 0.0000
# 6 0.0000 0.0000 0.0000 -14.9511 0.0000 19.5854
#
#
#
# Elastic Compliance Matrix: (Units=1/GPa)
#
#
# Indices 1 2 3 4 5 6 
#
# 1 0.010291 -0.000610 0.000381 0.000000 0.011100 0.000000
# 2 -0.000610 0.009924 -0.003750 0.000000 0.007277 0.000000
# 3 0.000381 -0.003750 0.015441 0.000000 0.013860 0.000000
# 4 0.000000 0.000000 0.000000 0.029402 0.000000 0.022445
# 5 0.011100 0.007277 0.013860 0.000000 0.041090 0.000000
# 6 0.000000 0.000000 0.000000 0.022445 0.000000 0.068193
#
#
# Mechanical properties :
#
#
# Convention : Reuss Voigt Hill
#
# Bulk Modulus (GPa) = 36.10504 435.90054 236.00279
# Shear Modulus (GPa) = 26.10538 87.43643 56.77090
#
# Velocity S-wave (km/s) = 3.28037 6.00350 4.83750
# Velocity P-wave (km/s) = 5.40653 15.09098 11.33508
#
# Compressibility (1/GPa) = 0.02769697
#
# Stress axis : x y z
#
# Youngs Moduli (GPa) = 97.16966 100.76827 64.76472
#
# Poissons Ratio (x) = 0.06149 -0.02465
# Poissons Ratio (y) = 0.05929 0.24285
# Poissons Ratio (z) = -0.03698 0.37785
#
# Static dielectric constant tensor:
#      x y z
#    x 1.801230 0.000000 0.157210 
#    y 0.000000 -1.289550 0.000000 
#    z 0.157210 0.000000 1.786070 
# 
# From -- ./inp_files/7592.got.cif
#   From: 2010.05.17/outbox.cif.g08.bks.cpg/sg4_4_cif.got.tgz:7592.got - 2010.06.03 18:43:04.
