data_PCOD9118812
_publ_section_title
;
Structure prediction by ZEFSAII (Michael W. Deem and Ramdas Pophale) SiO2 
 PCOD9118812
Probable space group: P 21
;
_chemical_formula_sum "Si O2"
_cell_formula_units_Z 12
_cell_length_a 13.741362
_cell_length_b 7.473919
_cell_length_c 14.867016
_cell_angle_alpha 90.000000
_cell_angle_beta 161.102200
_cell_angle_gamma 90.000000
_cell_volume 494.524224
_symmetry_space_group_name_H-M "P 21"
_symmetry_group_IT_number 4
_symmetry_cell_setting 'monoclinic'
loop_
_space_group_symop_operation_xyz
x,y,z
-x,1/2+y,-z
loop_
_atom_site_type_symbol
_atom_site_label
_atom_site_fract_x
_atom_site_fract_y
_atom_site_fract_z
Si Si1 0.990710 0.262220 0.902695
Si Si2 0.602751 0.622316 0.585893
Si Si3 0.348497 0.188616 0.577904
Si Si4 0.025287 0.901800 0.617343
Si Si5 0.791245 0.956180 0.070324
Si Si6 0.637857 0.774560 0.112553
O O1 0.788239 0.439366 0.739297
O O2 0.741216 0.107564 0.682749
O O3 0.217153 0.233405 0.182138
O O4 0.168047 0.297554 0.966223
O O5 0.592843 0.703991 0.476592
O O6 0.191471 0.355787 0.488880
O O7 0.642567 0.122790 0.887753
O O8 0.117676 0.022364 0.387137
O O9 0.831271 0.873306 0.357941
O O10 0.186281 0.093297 0.757725
O O11 0.300888 0.760574 0.855763
O O12 0.608844 0.885723 0.995285
#
# Coordination Sequence:
#
# PCOD9118812 Si02
#       6
#     2   2   2   2   2   2
#     4  11  23  41  65  94 129 169 214 265 320 377
#     4  11  23  41  65  94 129 169 214 265 320 377
#     4  11  23  43  66  92 128 172 214 261 318 378
#     4  12  25  42  66  96 130 169 213 264 319 379
#     4  11  23  43  66  92 128 172 214 261 318 378
#     4  12  25  42  66  96 130 169 213 264 319 379
#
# _framework density 24.265749
#
# number of rings (size 3 to 8) (size 9 to 14) (size 15 to 20)
#    0.000    0.667    0.000   11.000    0.000    2.667 
#    0.000    0.000    0.000    0.000    0.000    0.000 
#    0.000    0.000    0.000    0.000    0.000    0.000 
#
# Total GULP energy -67238.590543 kJ/mol
# GULP energy per Si atom -5603.215879 kJ/mol
# Density = 2.421052 g / cm^3
# Si number density = 24.265749 Si / 1000 Ang^3
#
#
#
# Elastic Constant Matrix: (Units=GPa)
#
#
# Indices 1 2 3 4 5 6 
#
# 1 91.5350 -4.6100 15.5684 0.0000 -14.5055 0.0000
# 2 -4.6100 38.7835 -3.4336 0.0000 -16.2712 0.0000
# 3 15.5684 -3.4336 122.9160 0.0000 -14.0885 0.0000
# 4 0.0000 0.0000 0.0000 43.8204 0.0000 2.7034
# 5 -14.5055 -16.2712 -14.0885 0.0000 38.4824 0.0000
# 6 0.0000 0.0000 0.0000 2.7034 0.0000 36.2043
#
#
#
# Elastic Compliance Matrix: (Units=1/GPa)
#
#
# Indices 1 2 3 4 5 6 
#
# 1 0.012193 0.003885 -0.000752 0.000000 0.005963 0.000000
# 2 0.003885 0.033335 0.002320 0.000000 0.016408 0.000000
# 3 -0.000752 0.002320 0.008743 0.000000 0.003898 0.000000
# 4 0.000000 0.000000 0.000000 0.022926 0.000000 -0.001712
# 5 0.005963 0.016408 0.003898 0.000000 0.036599 0.000000
# 6 0.000000 0.000000 0.000000 -0.001712 0.000000 0.027749
#
#
# Mechanical properties :
#
#
# Convention : Reuss Voigt Hill
#
# Bulk Modulus (GPa) = 15.34323 29.80934 22.57628
# Shear Modulus (GPa) = 32.81579 40.08206 36.44893
#
# Velocity S-wave (km/s) = 3.68142 4.06864 3.87986
# Velocity P-wave (km/s) = 4.94036 5.86370 5.42172
#
# Compressibility (1/GPa) = 0.06517534
#
# Stress axis : x y z
#
# Youngs Moduli (GPa) = 82.01176 29.99824 114.38348
#
# Poissons Ratio (x) = -0.11653 0.08606
# Poissons Ratio (y) = -0.31858 -0.26536
# Poissons Ratio (z) = 0.06170 -0.06959
#
# Static dielectric constant tensor:
#      x y z
#    x 1.882300 0.000000 0.015890 
#    y 0.000000 2.005380 0.000000 
#    z 0.015890 0.000000 1.854660 
# 
# From -- ./inp_files/12164.got.cif
#   From: 2010.05.17/outbox.cif.g08.bks.cpg/sg4_7_cif.got.tgz:12164.got - 2010.06.03 18:43:04.
