data_PCOD9118265
_publ_section_title
;
Structure prediction by ZEFSAII (Michael W. Deem and Ramdas Pophale) SiO2 
 PCOD9118265
Probable space group: P 21
;
_chemical_formula_sum "Si O2"
_cell_formula_units_Z 16
_cell_length_a 11.296294
_cell_length_b 7.782005
_cell_length_c 12.016772
_cell_angle_alpha 90.000000
_cell_angle_beta 142.589554
_cell_angle_gamma 90.000000
_cell_volume 641.765503
_symmetry_space_group_name_H-M "P 21"
_symmetry_group_IT_number 4
_symmetry_cell_setting 'monoclinic'
loop_
_space_group_symop_operation_xyz
x,y,z
-x,1/2+y,-z
loop_
_atom_site_type_symbol
_atom_site_label
_atom_site_fract_x
_atom_site_fract_y
_atom_site_fract_z
Si Si1 0.810307 0.450590 0.494711
Si Si2 0.245544 0.405802 0.827334
Si Si3 0.607104 0.779672 0.448690
Si Si4 0.195586 0.003249 0.767772
Si Si5 0.031856 0.431644 0.184763
Si Si6 0.601172 0.849041 0.835632
Si Si7 0.497169 0.501434 0.839615
Si Si8 0.190145 0.650907 0.130119
O O1 0.729508 0.627544 0.483225
O O2 0.841622 0.440904 0.384540
O O3 0.619369 0.335798 0.375337
O O4 0.023676 0.424225 0.702825
O O5 0.252376 0.205156 0.796290
O O6 0.302723 0.529471 0.767650
O O7 0.388780 0.443863 0.037020
O O8 0.747107 0.861367 0.643595
O O9 0.559818 0.900918 0.310649
O O10 0.394128 0.722483 0.330707
O O11 0.023080 0.974949 0.728349
O O12 0.368764 0.910855 0.966799
O O13 0.039854 0.600824 0.114020
O O14 0.898709 0.285997 0.025238
O O15 0.633637 0.654731 0.897588
O O16 0.746409 0.967646 0.875948
#
# Coordination Sequence:
#
# PCOD9118265 Si02
#       8
#     2   2   2   2   2   2   2   2
#     4  11  23  41  69 104 145 183 240 290 366 445
#     4  11  23  39  65 106 145 185 242 292 366 439
#     4  11  25  49  70 107 144 186 241 309 366 436
#     4  11  24  42  68 104 143 193 235 293 374 439
#     4  12  28  49  78 100 148 195 249 309 368 431
#     4  10  25  42  68 100 142 192 239 298 362 428
#     4  11  22  42  70 104 150 187 232 301 370 437
#     4  11  28  50  72 105 141 191 258 302 366 431
#
# _framework density 24.931224
#
# number of rings (size 3 to 8) (size 9 to 14) (size 15 to 20)
#    0.000    1.000    3.750    1.500    7.000    3.000 
#    2.250    0.000    0.000    0.000    0.000    0.000 
#    0.000    0.000    0.000    0.000    0.000    0.000 
#
# Total GULP energy -89326.704857 kJ/mol
# GULP energy per Si atom -5582.919054 kJ/mol
# Density = 2.487448 g / cm^3
# Si number density = 24.931224 Si / 1000 Ang^3
#
#
#
# Elastic Constant Matrix: (Units=GPa)
#
#
# Indices 1 2 3 4 5 6 
#
# 1 90.7486 10.7098 13.6856 0.0000 -2.0587 0.0000
# 2 10.7098 40.7758 1.4445 0.0000 1.1333 0.0000
# 3 13.6856 1.4445 88.1253 0.0000 21.1007 0.0000
# 4 0.0000 0.0000 0.0000 28.6907 0.0000 0.4945
# 5 -2.0587 1.1333 21.1007 0.0000 39.0752 0.0000
# 6 0.0000 0.0000 0.0000 0.4945 0.0000 26.7309
#
#
#
# Elastic Compliance Matrix: (Units=1/GPa)
#
#
# Indices 1 2 3 4 5 6 
#
# 1 0.011761 -0.003063 -0.002235 0.000000 0.001915 0.000000
# 2 -0.003063 0.025347 0.000316 0.000000 -0.001067 0.000000
# 3 -0.002235 0.000316 0.013460 0.000000 -0.007395 0.000000
# 4 0.000000 0.000000 0.000000 0.034866 0.000000 -0.000645
# 5 0.001915 -0.001067 -0.007395 0.000000 0.029717 0.000000
# 6 0.000000 0.000000 0.000000 -0.000645 0.000000 0.037422
#
#
# Mechanical properties :
#
#
# Convention : Reuss Voigt Hill
#
# Bulk Modulus (GPa) = 24.62806 30.14774 27.38790
# Shear Modulus (GPa) = 28.39731 31.82002 30.10866
#
# Velocity S-wave (km/s) = 3.37861 3.57643 3.47892
# Velocity P-wave (km/s) = 5.01197 5.40121 5.21022
#
# Compressibility (1/GPa) = 0.04060409
#
# Stress axis : x y z
#
# Youngs Moduli (GPa) = 85.02338 39.45184 74.29338
#
# Poissons Ratio (x) = 0.12085 0.16604
# Poissons Ratio (y) = 0.26045 -0.02346
# Poissons Ratio (z) = 0.19002 -0.01246
#
# Static dielectric constant tensor:
#      x y z
#    x 2.061340 0.000000 0.064900 
#    y 0.000000 2.046210 0.000000 
#    z 0.064900 0.000000 2.023440 
# 
# From -- ./inp_files/12155.got.cif
#   From: 2010.05.17/outbox.cif.g08.bks.cpg/sg4_7_cif.got.tgz:12155.got - 2010.06.03 18:43:04.
