data_PCOD9118803
_publ_section_title
;
Structure prediction by ZEFSAII (Michael W. Deem and Ramdas Pophale) SiO2 
 PCOD9118803
Probable space group: P 21
;
_chemical_formula_sum "Si O2"
_cell_formula_units_Z 12
_cell_length_a 14.999130
_cell_length_b 5.059104
_cell_length_c 9.253816
_cell_angle_alpha 90.000000
_cell_angle_beta 139.298581
_cell_angle_gamma 90.000000
_cell_volume 457.916379
_symmetry_space_group_name_H-M "P 21"
_symmetry_group_IT_number 4
_symmetry_cell_setting 'monoclinic'
loop_
_space_group_symop_operation_xyz
x,y,z
-x,1/2+y,-z
loop_
_atom_site_type_symbol
_atom_site_label
_atom_site_fract_x
_atom_site_fract_y
_atom_site_fract_z
Si Si1 0.838738 0.247930 0.703292
Si Si2 0.213315 0.246156 0.520418
Si Si3 0.035342 0.899715 0.625079
Si Si4 0.438856 0.423809 0.001023
Si Si5 0.156488 0.121631 0.023024
Si Si6 0.568060 0.919563 0.660051
O O1 0.762512 0.455166 0.504949
O O2 0.002683 0.229525 0.869297
O O3 0.772708 0.965757 0.586069
O O4 0.823631 0.387742 0.837980
O O5 0.055001 0.256441 0.365703
O O6 0.292420 0.326676 0.760987
O O7 0.042909 0.668479 0.518128
O O8 0.164649 0.999655 0.871302
O O9 0.451480 0.429159 0.189557
O O10 0.466773 0.710263 0.966421
O O11 0.274517 0.337612 0.172047
O O12 0.478907 0.688666 0.474568
#
# Coordination Sequence:
#
# PCOD9118803 Si02
#       6
#     2   2   2   2   2   2
#     4  11  25  44  77 114 141 202 235 336 382 467
#     4  11  25  44  72 106 143 187 256 304 384 455
#     4  11  23  40  69 101 139 186 234 312 385 445
#     4  12  28  51  78 109 153 213 266 313 386 466
#     4  11  26  48  74 110 158 188 266 304 407 446
#     4  12  31  51  78 114 158 212 261 327 378 465
#
# _framework density 26.205655
#
# number of rings (size 3 to 8) (size 9 to 14) (size 15 to 20)
#    0.000    0.667    0.000    7.000    7.000    9.333 
#    0.000    0.000    0.000    0.000    0.000    0.000 
#    0.000    0.000    0.000    0.000    0.000    0.000 
#
# Total GULP energy -67210.526388 kJ/mol
# GULP energy per Si atom -5600.877199 kJ/mol
# Density = 2.614601 g / cm^3
# Si number density = 26.205655 Si / 1000 Ang^3
#
#
#
# Elastic Constant Matrix: (Units=GPa)
#
#
# Indices 1 2 3 4 5 6 
#
# 1 104.7036 47.5977 56.3465 0.0000 -36.5359 0.0000
# 2 47.5977 153.4934 53.9508 0.0000 -18.9001 0.0000
# 3 56.3465 53.9508 131.9077 0.0000 -37.3023 0.0000
# 4 0.0000 0.0000 0.0000 39.9860 0.0000 -5.4368
# 5 -36.5359 -18.9001 -37.3023 0.0000 55.3076 0.0000
# 6 0.0000 0.0000 0.0000 -5.4368 0.0000 43.7923
#
#
#
# Elastic Compliance Matrix: (Units=1/GPa)
#
#
# Indices 1 2 3 4 5 6 
#
# 1 0.014890 -0.002597 -0.003420 0.000000 0.006642 0.000000
# 2 -0.002597 0.008079 -0.002347 0.000000 -0.000538 0.000000
# 3 -0.003420 -0.002347 0.011289 0.000000 0.004553 0.000000
# 4 0.000000 0.000000 0.000000 0.025438 0.000000 0.003158
# 5 0.006642 -0.000538 0.004553 0.000000 0.025355 0.000000
# 6 0.000000 0.000000 0.000000 0.003158 0.000000 0.023227
#
#
# Mechanical properties :
#
#
# Convention : Reuss Voigt Hill
#
# Bulk Modulus (GPa) = 57.04556 78.43272 67.73914
# Shear Modulus (GPa) = 38.21173 43.29782 40.75477
#
# Velocity S-wave (km/s) = 3.82271 4.06918 3.94787
# Velocity P-wave (km/s) = 6.42650 7.21611 6.83272
#
# Compressibility (1/GPa) = 0.01752985
#
# Stress axis : x y z
#
# Youngs Moduli (GPa) = 67.16140 123.77662 88.57934
#
# Poissons Ratio (x) = 0.32149 0.30291
# Poissons Ratio (y) = 0.17444 0.20789
# Poissons Ratio (z) = 0.22967 0.29050
#
# Static dielectric constant tensor:
#      x y z
#    x 2.122410 0.000000 -0.000390 
#    y 0.000000 2.055180 0.000000 
#    z -0.000390 0.000000 2.135240 
# 
# From -- ./inp_files/9088.got.cif
#   From: 2010.05.17/outbox.cif.g08.bks.cpg/sg4_5_cif.got.tgz:9088.got - 2010.06.03 18:43:04.
