data_PCOD9118590
_publ_section_title
;
Structure prediction by ZEFSAII (Michael W. Deem and Ramdas Pophale) SiO2 
 PCOD9118590
Probable space group: P 21
;
_chemical_formula_sum "Si O2"
_cell_formula_units_Z 16
_cell_length_a 8.492759
_cell_length_b 10.963318
_cell_length_c 12.080169
_cell_angle_alpha 90.000000
_cell_angle_beta 146.264867
_cell_angle_gamma 90.000000
_cell_volume 624.646183
_symmetry_space_group_name_H-M "P 21"
_symmetry_group_IT_number 4
_symmetry_cell_setting 'monoclinic'
loop_
_space_group_symop_operation_xyz
x,y,z
-x,1/2+y,-z
loop_
_atom_site_type_symbol
_atom_site_label
_atom_site_fract_x
_atom_site_fract_y
_atom_site_fract_z
Si Si1 0.657408 0.179120 0.259993
Si Si2 0.869402 0.548599 0.034504
Si Si3 0.069596 0.379606 0.685676
Si Si4 0.495991 0.948965 0.869709
Si Si5 0.217071 0.124780 0.451053
Si Si6 0.039262 0.600000 0.354054
Si Si7 0.477739 0.819821 0.224471
Si Si8 0.068381 0.635277 0.937663
O O1 0.391857 0.110176 0.053861
O O2 0.593337 0.320769 0.233577
O O3 0.926320 0.167792 0.338987
O O4 0.720088 0.108737 0.411231
O O5 0.741229 0.432649 0.894054
O O6 0.087265 0.532159 0.264072
O O7 0.954239 0.649204 0.994036
O O8 0.994116 0.245203 0.683959
O O9 0.230165 0.361075 0.662231
O O10 0.814991 0.479187 0.540069
O O11 0.321969 0.424362 0.913137
O O12 0.225171 0.033467 0.738987
O O13 0.732677 0.016797 0.936004
O O14 0.441286 0.223104 0.630761
O O15 0.176496 0.130944 0.295846
O O16 0.294055 0.736817 0.033218
#
# Coordination Sequence:
#
# PCOD9118590 Si02
#       8
#     2   2   2   2   2   2   2   2
#     4  12  25  40  73 105 141 181 243 307 361 424
#     4  12  28  47  67 106 149 195 239 294 369 441
#     4  11  21  43  72 109 141 175 238 311 369 423
#     4  11  23  44  70 104 144 186 240 299 368 430
#     4  11  25  44  74 107 138 184 245 307 362 424
#     4  12  25  42  75 107 139 184 243 311 361 427
#     4  12  24  44  76 103 143 190 247 300 366 431
#     4  11  27  46  69  99 147 199 233 291 364 446
#
# _framework density 25.6145
#
# number of rings (size 3 to 8) (size 9 to 14) (size 15 to 20)
#    0.000    0.500    6.250    1.500    7.000    1.000 
#    0.000    0.000    2.750    0.000    0.000    0.000 
#    0.000    0.000    0.000    0.000    0.000    0.000 
#
# Total GULP energy -89348.842530 kJ/mol
# GULP energy per Si atom -5584.302658 kJ/mol
# Density = 2.555620 g / cm^3
# Si number density = 25.614500 Si / 1000 Ang^3
#
#
#
# Elastic Constant Matrix: (Units=GPa)
#
#
# Indices 1 2 3 4 5 6 
#
# 1 50.3683 3.4205 19.2534 0.0000 -17.9037 0.0000
# 2 3.4205 133.2849 45.6316 0.0000 5.5076 0.0000
# 3 19.2534 45.6316 115.9874 0.0000 -20.9164 0.0000
# 4 0.0000 0.0000 0.0000 56.5789 0.0000 0.2077
# 5 -17.9037 5.5076 -20.9164 0.0000 31.6665 0.0000
# 6 0.0000 0.0000 0.0000 0.2077 0.0000 20.6666
#
#
#
# Elastic Compliance Matrix: (Units=1/GPa)
#
#
# Indices 1 2 3 4 5 6 
#
# 1 0.025236 -0.000686 -0.001504 0.000000 0.013394 0.000000
# 2 -0.000686 0.009229 -0.004401 0.000000 -0.004900 0.000000
# 3 -0.001504 -0.004401 0.012019 0.000000 0.007854 0.000000
# 4 0.000000 0.000000 0.000000 0.017675 0.000000 -0.000178
# 5 0.013394 -0.004900 0.007854 0.000000 0.045192 0.000000
# 6 0.000000 0.000000 0.000000 -0.000178 0.000000 0.048389
#
#
# Mechanical properties :
#
#
# Convention : Reuss Voigt Hill
#
# Bulk Modulus (GPa) = 30.02721 48.47241 39.24981
# Shear Modulus (GPa) = 27.46900 37.20473 32.33687
#
# Velocity S-wave (km/s) = 3.27831 3.81529 3.55694
# Velocity P-wave (km/s) = 5.10665 6.19463 5.67677
#
# Compressibility (1/GPa) = 0.03330313
#
# Stress axis : x y z
#
# Youngs Moduli (GPa) = 39.62557 108.34857 83.20223
#
# Poissons Ratio (x) = 0.07436 0.12511
# Poissons Ratio (y) = 0.02720 0.36615
# Poissons Ratio (z) = 0.05958 0.47682
#
# Static dielectric constant tensor:
#      x y z
#    x 1.971700 0.000000 -0.042810 
#    y 0.000000 2.084930 0.000000 
#    z -0.042810 0.000000 2.081170 
# 
# From -- ./inp_files/11301.got.cif
#   From: 2010.05.17/outbox.cif.g08.bks.cpg/sg4_6_cif.got.tgz:11301.got - 2010.06.03 18:43:04.
