data_PCOD9118991
_publ_section_title
;
Structure prediction by ZEFSAII (Michael W. Deem and Ramdas Pophale) SiO2 
 PCOD9118991
Probable space group: P 21
;
_chemical_formula_sum "Si O2"
_cell_formula_units_Z 16
_cell_length_a 9.211608
_cell_length_b 10.988107
_cell_length_c 8.186137
_cell_angle_alpha 90.000000
_cell_angle_beta 47.061578
_cell_angle_gamma 90.000000
_cell_volume 606.596062
_symmetry_space_group_name_H-M "P 21"
_symmetry_group_IT_number 4
_symmetry_cell_setting 'monoclinic'
loop_
_space_group_symop_operation_xyz
x,y,z
-x,1/2+y,-z
loop_
_atom_site_type_symbol
_atom_site_label
_atom_site_fract_x
_atom_site_fract_y
_atom_site_fract_z
Si Si1 0.336610 0.461220 0.412250
Si Si2 0.947339 0.327370 0.651068
Si Si3 0.458955 0.079198 0.007264
Si Si4 0.596265 0.027365 0.299872
Si Si5 0.378541 0.333629 0.970994
Si Si6 0.819157 0.582641 0.470110
Si Si7 0.931318 0.329082 0.299540
Si Si8 0.692963 0.283571 0.148801
O O1 0.123619 0.426195 0.499915
O O2 0.494115 0.558763 0.219988
O O3 0.280549 0.512819 0.632624
O O4 0.475219 0.342382 0.329472
O O5 0.062685 0.205275 0.611941
O O6 0.853670 0.301375 0.543430
O O7 0.805994 0.350914 0.913549
O O8 0.484877 0.225500 0.987687
O O9 0.275177 0.059256 0.274533
O O10 0.592448 0.959818 0.951363
O O11 0.374300 0.076405 0.495810
O O12 0.682246 0.137940 0.125751
O O13 0.570534 0.893027 0.242451
O O14 0.156011 0.282400 0.122976
O O15 0.949473 0.474776 0.298090
O O16 0.806989 0.297602 0.234693
#
# Coordination Sequence:
#
# PCOD9118991 Si02
#       8
#     2   2   2   2   2   2   2   2
#     4  12  25  49  78 114 158 215 273 330 424 499
#     4  12  26  50  79 113 164 205 277 340 418 491
#     4  11  24  46  81 112 157 216 277 333 421 502
#     4  11  26  47  77 108 161 215 270 336 416 488
#     4  11  25  49  77 117 160 212 278 347 411 501
#     4  11  23  47  73 109 160 207 264 346 405 491
#     4  12  25  50  75 118 159 210 271 350 412 490
#     4  12  28  50  80 117 161 218 270 344 417 496
#
# _framework density 26.376695999999999
#
# number of rings (size 3 to 8) (size 9 to 14) (size 15 to 20)
#    0.000    0.500    5.000    2.250    3.500    2.000 
#   13.500    0.000    0.000    0.000    0.000    0.000 
#    0.000    0.000    0.000    0.000    0.000    0.000 
#
# Total GULP energy -89253.368451 kJ/mol
# GULP energy per Si atom -5578.335528 kJ/mol
# Density = 2.631666 g / cm^3
# Si number density = 26.376696 Si / 1000 Ang^3
#
#
#
# Elastic Constant Matrix: (Units=GPa)
#
#
# Indices 1 2 3 4 5 6 
#
# 1 137.3725 18.2994 29.3580 0.0000 9.2371 0.0000
# 2 18.2994 119.1279 14.3154 0.0000 3.8428 0.0000
# 3 29.3580 14.3154 97.9224 0.0000 -6.5276 0.0000
# 4 0.0000 0.0000 0.0000 39.5601 0.0000 -0.5961
# 5 9.2371 3.8428 -6.5276 0.0000 31.2515 0.0000
# 6 0.0000 0.0000 0.0000 -0.5961 0.0000 26.6967
#
#
#
# Elastic Compliance Matrix: (Units=1/GPa)
#
#
# Indices 1 2 3 4 5 6 
#
# 1 0.008116 -0.000856 -0.002496 0.000000 -0.002815 0.000000
# 2 -0.000856 0.008690 -0.001083 0.000000 -0.001042 0.000000
# 3 -0.002496 -0.001083 0.011335 0.000000 0.003238 0.000000
# 4 0.000000 0.000000 0.000000 0.025286 0.000000 0.000565
# 5 -0.002815 -0.001042 0.003238 0.000000 0.033635 0.000000
# 6 0.000000 0.000000 0.000000 0.000565 0.000000 0.037470
#
#
# Mechanical properties :
#
#
# Convention : Reuss Voigt Hill
#
# Bulk Modulus (GPa) = 51.89282 53.15204 52.52243
# Shear Modulus (GPa) = 35.75879 38.99832 37.37856
#
# Velocity S-wave (km/s) = 3.68597 3.84932 3.76853
# Velocity P-wave (km/s) = 6.15074 6.32070 6.23630
#
# Compressibility (1/GPa) = 0.01927049
#
# Stress axis : x y z
#
# Youngs Moduli (GPa) = 123.21086 115.08013 88.22501
#
# Poissons Ratio (x) = 0.09851 0.22019
# Poissons Ratio (y) = 0.10547 0.09556
# Poissons Ratio (z) = 0.30751 0.12465
#
# Static dielectric constant tensor:
#      x y z
#    x 2.198170 0.000000 0.137550 
#    y 0.000000 2.094600 0.000000 
#    z 0.137550 0.000000 2.242480 
# 
# From -- ./inp_files/6399.got.cif
#   From: 2010.05.17/outbox.cif.g08.bks.cpg/sg4_4_cif.got.tgz:6399.got - 2010.06.03 18:43:04.
