data_PCOD9118088
_publ_section_title
;
Structure prediction by ZEFSAII (Michael W. Deem and Ramdas Pophale) SiO2 
 PCOD9118088
Probable space group: P 21
;
_chemical_formula_sum "Si O2"
_cell_formula_units_Z 16
_cell_length_a 10.030227
_cell_length_b 7.787844
_cell_length_c 18.273203
_cell_angle_alpha 90.000000
_cell_angle_beta 150.333317
_cell_angle_gamma 90.000000
_cell_volume 706.491708
_symmetry_space_group_name_H-M "P 21"
_symmetry_group_IT_number 4
_symmetry_cell_setting 'monoclinic'
loop_
_space_group_symop_operation_xyz
x,y,z
-x,1/2+y,-z
loop_
_atom_site_type_symbol
_atom_site_label
_atom_site_fract_x
_atom_site_fract_y
_atom_site_fract_z
Si Si1 0.661967 0.191940 0.840823
Si Si2 0.771840 0.995210 0.120666
Si Si3 0.683197 0.894145 0.683245
Si Si4 0.605311 0.201898 0.320559
Si Si5 0.837067 0.828414 0.470073
Si Si6 0.289372 0.864625 0.985458
Si Si7 0.748330 0.653977 0.575139
Si Si8 0.813009 0.827552 0.986173
O O1 0.374821 0.192796 0.664809
O O2 0.753777 0.010260 0.917785
O O3 0.630746 0.318322 0.894589
O O4 0.894445 0.264327 0.899305
O O5 0.745568 0.181570 0.071540
O O6 0.036276 0.010161 0.297075
O O7 0.514721 0.962038 0.047995
O O8 0.793117 0.862717 0.063216
O O9 0.565971 0.792077 0.696913
O O10 0.674575 0.765247 0.610497
O O11 0.992730 0.944773 0.844225
O O12 0.507555 0.057555 0.579288
O O13 0.414576 0.205106 0.157743
O O14 0.875827 0.307092 0.431359
O O15 0.703335 0.014003 0.392863
O O16 0.867356 0.779130 0.569685
#
# Coordination Sequence:
#
# PCOD9118088 Si02
#       8
#     2   2   2   2   2   2   2   2
#     4  11  24  43  71 106 139 189 242 297 369 433
#     4  10  26  45  69 105 145 186 241 293 364 432
#     4  11  24  46  69 103 148 190 247 298 367 441
#     4  12  26  49  71 106 144 191 248 307 364 444
#     4  12  28  45  75 104 146 194 242 305 374 433
#     4  10  24  45  68 101 141 189 239 297 355 429
#     4  11  26  47  70 107 146 198 242 297 369 444
#     4  11  24  46  73 106 145 187 245 304 362 442
#
# _framework density 22.647116
#
# number of rings (size 3 to 8) (size 9 to 14) (size 15 to 20)
#    0.000    1.000    1.250    3.750   12.250    2.000 
#    2.250    0.000    0.000    0.000    0.000    0.000 
#    0.000    0.000    0.000    0.000    0.000    0.000 
#
# Total GULP energy -89647.670536 kJ/mol
# GULP energy per Si atom -5602.979409 kJ/mol
# Density = 2.259557 g / cm^3
# Si number density = 22.647116 Si / 1000 Ang^3
#
#
#
# Elastic Constant Matrix: (Units=GPa)
#
#
# Indices 1 2 3 4 5 6 
#
# 1 172.7130 52.9879 74.9445 0.0000 8.9646 0.0000
# 2 52.9879 70.9288 -2.0182 0.0000 -3.9685 0.0000
# 3 74.9445 -2.0182 93.2440 0.0000 0.6720 0.0000
# 4 0.0000 0.0000 0.0000 23.1262 0.0000 -0.5462
# 5 8.9646 -3.9685 0.6720 0.0000 40.5059 0.0000
# 6 0.0000 0.0000 0.0000 -0.5462 0.0000 37.0361
#
#
#
# Elastic Compliance Matrix: (Units=1/GPa)
#
#
# Indices 1 2 3 4 5 6 
#
# 1 0.014895 -0.011711 -0.012194 0.000000 -0.004242 0.000000
# 2 -0.011711 0.023393 0.009885 0.000000 0.004720 0.000000
# 3 -0.012194 0.009885 0.020716 0.000000 0.003324 0.000000
# 4 0.000000 0.000000 0.000000 0.043256 0.000000 0.000638
# 5 -0.004242 0.004720 0.003324 0.000000 0.026034 0.000000
# 6 0.000000 0.000000 0.000000 0.000638 0.000000 0.027010
#
#
# Mechanical properties :
#
#
# Convention : Reuss Voigt Hill
#
# Bulk Modulus (GPa) = 32.29714 65.41269 48.85491
# Shear Modulus (GPa) = 25.81775 34.19842 30.00808
#
# Velocity S-wave (km/s) = 3.38005 3.89016 3.64404
# Velocity P-wave (km/s) = 5.43369 7.00885 6.27092
#
# Compressibility (1/GPa) = 0.03096249
#
# Stress axis : x y z
#
# Youngs Moduli (GPa) = 67.13847 42.74761 48.27244
#
# Poissons Ratio (x) = 0.50064 0.58865
# Poissons Ratio (y) = 0.78629 -0.47719
# Poissons Ratio (z) = 0.81871 -0.42257
#
# Static dielectric constant tensor:
#      x y z
#    x 1.805120 0.000000 -0.031640 
#    y 0.000000 1.864430 0.000000 
#    z -0.031640 0.000000 1.824520 
# 
# From -- ./inp_files/5518.got.cif
#   From: 2010.05.17/outbox.cif.g08.bks.cpg/sg4_3_cif.got.tgz:5518.got - 2010.06.03 18:43:04.
