data_PCOD9118462
_publ_section_title
;
Structure prediction by ZEFSAII (Michael W. Deem and Ramdas Pophale) SiO2 
 PCOD9118462
Probable space group: P 21
;
_chemical_formula_sum "Si O2"
_cell_formula_units_Z 12
_cell_length_a 8.845550
_cell_length_b 4.933339
_cell_length_c 22.066806
_cell_angle_alpha 90.000000
_cell_angle_beta 147.833534
_cell_angle_gamma 90.000000
_cell_volume 512.658031
_symmetry_space_group_name_H-M "P 21"
_symmetry_group_IT_number 4
_symmetry_cell_setting 'monoclinic'
loop_
_space_group_symop_operation_xyz
x,y,z
-x,1/2+y,-z
loop_
_atom_site_type_symbol
_atom_site_label
_atom_site_fract_x
_atom_site_fract_y
_atom_site_fract_z
Si Si1 0.987705 0.277430 0.536359
Si Si2 0.693031 0.384129 0.055513
Si Si3 0.020995 0.470746 0.045487
Si Si4 0.021684 0.523562 0.282629
Si Si5 0.142596 0.027825 0.394428
Si Si6 0.647669 0.384198 0.255705
O O1 0.762551 0.400784 0.509035
O O2 0.116059 0.538830 0.544826
O O3 0.198459 0.087265 0.646315
O O4 0.947823 0.444906 0.189662
O O5 0.804960 0.442705 0.026625
O O6 0.427753 0.583110 0.977991
O O7 0.328810 0.355716 0.166552
O O8 0.935639 0.278616 0.960662
O O9 0.144150 0.814743 0.340643
O O10 0.711679 0.509552 0.210853
O O11 0.214076 0.316453 0.388497
O O12 0.818063 0.104832 0.304859
#
# Coordination Sequence:
#
# PCOD9118462 Si02
#       6
#     2   2   2   2   2   2
#     4  11  18  31  55  91 123 147 192 253 315 362
#     4  12  24  40  58  86 118 164 217 260 295 364
#     4  12  27  40  61  90 127 169 205 257 310 358
#     4   9  18  33  54  75 112 152 195 240 297 347
#     4   9  18  31  55  78 115 148 189 242 298 351
#     4   9  21  35  57  84 123 154 202 246 311 348
#
# _framework density 23.407416999999999
#
# number of rings (size 3 to 8) (size 9 to 14) (size 15 to 20)
#    1.000    0.667    1.667    4.000    7.000    0.000 
#    0.000    0.000    0.000    0.000    0.000   14.000 
#    0.000    0.000    0.000    0.000    0.000    0.000 
#
# Total GULP energy -66830.865852 kJ/mol
# GULP energy per Si atom -5569.238821 kJ/mol
# Density = 2.335414 g / cm^3
# Si number density = 23.407417 Si / 1000 Ang^3
#
#
#
# Elastic Constant Matrix: (Units=GPa)
#
#
# Indices 1 2 3 4 5 6 
#
# 1 82.9270 -2.6105 20.9987 0.0000 -8.8390 0.0000
# 2 -2.6105 119.6927 0.9439 0.0000 -4.9506 0.0000
# 3 20.9987 0.9439 37.6594 0.0000 -15.5934 0.0000
# 4 0.0000 0.0000 0.0000 26.8398 0.0000 -13.2192
# 5 -8.8390 -4.9506 -15.5934 0.0000 26.0156 0.0000
# 6 0.0000 0.0000 0.0000 -13.2192 0.0000 46.4413
#
#
#
# Elastic Compliance Matrix: (Units=1/GPa)
#
#
# Indices 1 2 3 4 5 6 
#
# 1 0.014058 0.000376 -0.007769 0.000000 0.000191 0.000000
# 2 0.000376 0.008441 0.000395 0.000000 0.001971 0.000000
# 3 -0.007769 0.000395 0.039656 0.000000 0.021205 0.000000
# 4 0.000000 0.000000 0.000000 0.043333 0.000000 0.012334
# 5 0.000191 0.001971 0.021205 0.000000 0.051588 0.000000
# 6 0.000000 0.000000 0.000000 0.012334 0.000000 0.025043
#
#
# Mechanical properties :
#
#
# Convention : Reuss Voigt Hill
#
# Bulk Modulus (GPa) = 20.76463 30.99368 25.87915
# Shear Modulus (GPa) = 23.56601 34.58917 29.07759
#
# Velocity S-wave (km/s) = 3.17641 3.84826 3.52836
# Velocity P-wave (km/s) = 4.72684 5.74588 5.26109
#
# Compressibility (1/GPa) = 0.04815883
#
# Stress axis : x y z
#
# Youngs Moduli (GPa) = 71.13246 118.46490 25.21690
#
# Poissons Ratio (x) = -0.04452 0.19591
# Poissons Ratio (y) = -0.02673 -0.00996
# Poissons Ratio (z) = 0.55263 -0.04678
#
# Static dielectric constant tensor:
#      x y z
#    x 1.936820 0.000000 -0.006330 
#    y 0.000000 1.907530 0.000000 
#    z -0.006330 0.000000 1.729860 
# 
# From -- ./inp_files/15559.got.cif
#   From: 2010.05.17/outbox.cif.g08.bks.cpg/sg4_8_cif.got.tgz:15559.got - 2010.06.03 18:43:04.
