data_PCOD9118380
_publ_section_title
;
Structure prediction by ZEFSAII (Michael W. Deem and Ramdas Pophale) SiO2 
 PCOD9118380
Probable space group: P 21
;
_chemical_formula_sum "Si O2"
_cell_formula_units_Z 14
_cell_length_a 5.207150
_cell_length_b 21.403222
_cell_length_c 6.790169
_cell_angle_alpha 90.000000
_cell_angle_beta 44.373920
_cell_angle_gamma 90.000000
_cell_volume 529.233087
_symmetry_space_group_name_H-M "P 21"
_symmetry_group_IT_number 4
_symmetry_cell_setting 'monoclinic'
loop_
_space_group_symop_operation_xyz
x,y,z
-x,1/2+y,-z
loop_
_atom_site_type_symbol
_atom_site_label
_atom_site_fract_x
_atom_site_fract_y
_atom_site_fract_z
Si Si1 0.441996 0.869140 0.371078
Si Si2 0.797088 0.270765 0.768088
Si Si3 0.926767 0.573903 0.347331
Si Si4 0.296961 0.185010 0.262974
Si Si5 0.227386 0.887630 0.930129
Si Si6 0.189238 0.083050 0.049761
Si Si7 0.815524 0.471556 0.705382
O O1 0.465876 0.801881 0.254092
O O2 0.108257 0.905240 0.445698
O O3 0.806262 0.907541 0.117216
O O4 0.399413 0.872497 0.626588
O O5 0.823941 0.324377 0.916373
O O6 0.130754 0.246746 0.453277
O O7 0.656707 0.209844 0.958353
O O8 0.370019 0.575904 0.144892
O O9 0.716885 0.631549 0.565625
O O10 0.877913 0.576553 0.141741
O O11 0.749368 0.512720 0.545024
O O12 0.080622 0.149972 0.203523
O O13 0.382394 0.940809 0.990790
O O14 0.989819 0.028148 0.281908
#
# Coordination Sequence:
#
# PCOD9118380 Si02
#       7
#     2   2   2   2   2   2   2
#     4  11  25  44  71 105 143 190 241 301 365 435
#     4  11  24  47  68 109 136 195 238 308 356 443
#     4  11  26  48  75 110 148 193 245 302 368 436
#     4  11  24  47  72 103 150 187 250 296 370 427
#     4  11  25  44  71 105 143 190 241 301 365 435
#     4  11  26  48  75 110 148 193 245 302 368 436
#     4  10  26  40  74 102 152 182 246 294 372 430
#
# _framework density 26.453372000000002
#
# number of rings (size 3 to 8) (size 9 to 14) (size 15 to 20)
#    0.000    1.143    1.429    2.571    8.000    9.143 
#    5.143    0.000    0.000    0.000    0.000    0.000 
#    0.000    0.000    0.000    0.000    0.000    0.000 
#
# Total GULP energy -78049.655949 kJ/mol
# GULP energy per Si atom -5574.975425 kJ/mol
# Density = 2.639316 g / cm^3
# Si number density = 26.453372 Si / 1000 Ang^3
#
#
#
# Elastic Constant Matrix: (Units=GPa)
#
#
# Indices 1 2 3 4 5 6 
#
# 1 109.0761 12.4385 68.7264 0.0000 24.4872 0.0000
# 2 12.4385 112.0060 18.0513 0.0000 16.9697 0.0000
# 3 68.7264 18.0513 149.1112 0.0000 43.1886 0.0000
# 4 0.0000 0.0000 0.0000 54.5769 0.0000 11.5674
# 5 24.4872 16.9697 43.1886 0.0000 61.5071 0.0000
# 6 0.0000 0.0000 0.0000 11.5674 0.0000 16.2506
#
#
#
# Elastic Compliance Matrix: (Units=1/GPa)
#
#
# Indices 1 2 3 4 5 6 
#
# 1 0.013006 -0.000367 -0.005623 0.000000 -0.001128 0.000000
# 2 -0.000367 0.009356 -0.000324 0.000000 -0.002208 0.000000
# 3 -0.005623 -0.000324 0.010875 0.000000 -0.005308 0.000000
# 4 0.000000 0.000000 0.000000 0.021578 0.000000 -0.015360
# 5 -0.001128 -0.002208 -0.005308 0.000000 0.021044 0.000000
# 6 0.000000 0.000000 0.000000 -0.015360 0.000000 0.072469
#
#
# Mechanical properties :
#
#
# Convention : Reuss Voigt Hill
#
# Bulk Modulus (GPa) = 48.52602 63.18062 55.85332
# Shear Modulus (GPa) = 29.79275 44.53205 37.16240
#
# Velocity S-wave (km/s) = 3.35959 4.10740 3.75217
# Velocity P-wave (km/s) = 5.78212 6.81395 6.31913
#
# Compressibility (1/GPa) = 0.02060750
#
# Stress axis : x y z
#
# Youngs Moduli (GPa) = 76.88604 106.88856 91.95487
#
# Poissons Ratio (x) = 0.03924 0.51711
# Poissons Ratio (y) = 0.02823 0.02979
# Poissons Ratio (z) = 0.43237 0.03463
#
# Static dielectric constant tensor:
#      x y z
#    x 2.305830 0.000000 -0.125450 
#    y 0.000000 2.077370 0.000000 
#    z -0.125450 0.000000 2.026770 
# 
# From -- ./inp_files/511.got.cif
#   From: 2010.05.17/outbox.cif.g08.bks.cpg/sg4_1_cif.got.tgz:511.got - 2010.06.03 18:43:04.
