data_PCOD9118994
_publ_section_title
;
Structure prediction by ZEFSAII (Michael W. Deem and Ramdas Pophale) SiO2 
 PCOD9118994
Probable space group: P 21
;
_chemical_formula_sum "Si O2"
_cell_formula_units_Z 16
_cell_length_a 8.807808
_cell_length_b 13.291451
_cell_length_c 5.321754
_cell_angle_alpha 90.000000
_cell_angle_beta 89.733558
_cell_angle_gamma 90.000000
_cell_volume 623.003280
_symmetry_space_group_name_H-M "P 21"
_symmetry_group_IT_number 4
_symmetry_cell_setting 'monoclinic'
loop_
_space_group_symop_operation_xyz
x,y,z
-x,1/2+y,-z
loop_
_atom_site_type_symbol
_atom_site_label
_atom_site_fract_x
_atom_site_fract_y
_atom_site_fract_z
Si Si1 0.498351 0.573640 0.034785
Si Si2 0.029914 0.772853 0.667798
Si Si3 0.082802 0.492228 0.186624
Si Si4 0.196924 0.890890 0.303970
Si Si5 0.498358 0.879747 0.616268
Si Si6 0.155636 0.103670 0.091797
Si Si7 0.334070 0.746682 0.927967
Si Si8 0.720094 0.983893 0.321435
O O1 0.673148 0.602693 0.010167
O O2 0.390490 0.664536 0.124974
O O3 0.424275 0.552208 0.759509
O O4 0.476919 0.474465 0.200678
O O5 0.998529 0.883723 0.783758
O O6 0.895008 0.699695 0.747244
O O7 0.071652 0.808590 0.385604
O O8 0.183102 0.720109 0.774190
O O9 0.176201 0.511515 0.441422
O O10 0.184975 0.480590 0.935444
O O11 0.962430 0.580125 0.131880
O O12 0.330312 0.894194 0.506486
O O13 0.139733 0.002355 0.259488
O O14 0.284641 0.848356 0.064887
O O15 0.480322 0.776142 0.763518
O O16 0.632659 0.882882 0.412662
#
# Coordination Sequence:
#
# PCOD9118994 Si02
#       8
#     2   2   2   2   2   2   2   2
#     4  12  26  49  79 118 156 213 278 326 402 488
#     4  11  27  48  76 120 158 220 268 332 417 487
#     4  12  27  51  80 117 168 206 269 341 402 483
#     4  11  23  53  80 109 174 209 262 340 411 469
#     4  11  23  47  80 109 157 213 266 326 404 469
#     4  12  25  52  78 116 163 212 274 334 411 481
#     4  11  25  49  75 115 163 213 261 340 408 475
#     4  12  26  49  82 114 159 214 264 331 399 476
#
# _framework density 25.682051999999999
#
# number of rings (size 3 to 8) (size 9 to 14) (size 15 to 20)
#    0.000    0.500    5.000    2.250    1.750    3.000 
#    6.750    1.250    0.000    0.000    0.000    0.000 
#    0.000    0.000    0.000    0.000    0.000    0.000 
#
# Total GULP energy -89529.727446 kJ/mol
# GULP energy per Si atom -5595.607965 kJ/mol
# Density = 2.562360 g / cm^3
# Si number density = 25.682052 Si / 1000 Ang^3
#
#
#
# Elastic Constant Matrix: (Units=GPa)
#
#
# Indices 1 2 3 4 5 6 
#
# 1 119.1354 6.3178 42.0225 0.0000 -5.8632 0.0000
# 2 6.3178 68.9612 2.7423 0.0000 2.4617 0.0000
# 3 42.0225 2.7423 106.3633 0.0000 5.8818 0.0000
# 4 0.0000 0.0000 0.0000 30.9463 0.0000 -1.4852
# 5 -5.8632 2.4617 5.8818 0.0000 44.6432 0.0000
# 6 0.0000 0.0000 0.0000 -1.4852 0.0000 48.6155
#
#
#
# Elastic Compliance Matrix: (Units=1/GPa)
#
#
# Indices 1 2 3 4 5 6 
#
# 1 0.009945 -0.000819 -0.004012 0.000000 0.001880 0.000000
# 2 -0.000819 0.014609 -0.000003 0.000000 -0.000913 0.000000
# 3 -0.004012 -0.000003 0.011097 0.000000 -0.001989 0.000000
# 4 0.000000 0.000000 0.000000 0.032361 0.000000 0.000989
# 5 0.001880 -0.000913 -0.001989 0.000000 0.022959 0.000000
# 6 0.000000 0.000000 0.000000 0.000989 0.000000 0.020600
#
#
# Mechanical properties :
#
#
# Convention : Reuss Voigt Hill
#
# Bulk Modulus (GPa) = 38.48570 44.06948 41.27759
# Shear Modulus (GPa) = 38.49161 41.06614 39.77888
#
# Velocity S-wave (km/s) = 3.87560 4.00311 3.93987
# Velocity P-wave (km/s) = 5.91988 6.20995 6.06665
#
# Compressibility (1/GPa) = 0.02598368
#
# Stress axis : x y z
#
# Youngs Moduli (GPa) = 100.55448 68.45283 90.11582
#
# Poissons Ratio (x) = 0.05604 0.36154
# Poissons Ratio (y) = 0.08232 0.00025
# Poissons Ratio (z) = 0.40342 0.00019
#
# Static dielectric constant tensor:
#      x y z
#    x 2.053710 0.000000 -0.001720 
#    y 0.000000 2.103530 0.000000 
#    z -0.001720 0.000000 2.102730 
# 
# From -- ./inp_files/1752.got.cif
#   From: 2010.05.17/outbox.cif.g08.bks.cpg/sg4_1_cif.got.tgz:1752.got - 2010.06.03 18:43:04.
