data_PCOD9118585
_publ_section_title
;
Structure prediction by ZEFSAII (Michael W. Deem and Ramdas Pophale) SiO2 
 PCOD9118585
Probable space group: P 21
;
_chemical_formula_sum "Si O2"
_cell_formula_units_Z 16
_cell_length_a 13.242578
_cell_length_b 11.864872
_cell_length_c 9.854330
_cell_angle_alpha 90.000000
_cell_angle_beta 31.003286
_cell_angle_gamma 90.000000
_cell_volume 797.523493
_symmetry_space_group_name_H-M "P 21"
_symmetry_group_IT_number 4
_symmetry_cell_setting 'monoclinic'
loop_
_space_group_symop_operation_xyz
x,y,z
-x,1/2+y,-z
loop_
_atom_site_type_symbol
_atom_site_label
_atom_site_fract_x
_atom_site_fract_y
_atom_site_fract_z
Si Si1 0.895698 0.452300 0.818152
Si Si2 0.217306 0.288366 0.418487
Si Si3 0.300529 0.992707 0.675332
Si Si4 0.054318 0.206538 0.886438
Si Si5 0.011969 0.196525 0.388273
Si Si6 0.982997 0.381800 0.187406
Si Si7 0.334176 0.745279 0.037316
Si Si8 0.276750 0.582255 0.848259
O O1 0.778964 0.363035 0.859909
O O2 0.121252 0.411041 0.551605
O O3 0.896040 0.581388 0.773253
O O4 0.793356 0.438599 0.082327
O O5 0.113603 0.221768 0.661700
O O6 0.146939 0.241690 0.355332
O O7 0.447319 0.274577 0.170450
O O8 0.196669 0.113812 0.784218
O O9 0.530704 0.014609 0.418459
O O10 0.227045 0.925483 0.626336
O O11 0.072854 0.319202 0.952015
O O12 0.833525 0.156636 0.139385
O O13 0.985986 0.290322 0.302135
O O14 0.797073 0.180142 0.701377
O O15 0.114072 0.489211 0.075952
O O16 0.333974 0.667121 0.903386
#
# Coordination Sequence:
#
# PCOD9118585 Si02
#       8
#     2   2   2   2   2   2   2   2
#     4  11  24  45  71 100 134 179 226 284 333 401
#     4  11  24  45  68  94 136 180 223 275 338 400
#     4  11  23  40  72 101 132 178 224 279 339 397
#     4  11  21  43  66  93 139 175 217 278 335 384
#     4  11  26  47  65  99 140 174 228 278 335 407
#     4  11  25  43  68 100 137 175 220 286 337 393
#     4  11  25  44  70  98 136 186 223 273 341 409
#     4  11  24  41  70 101 136 173 229 275 338 405
#
# _framework density 20.062104000000001
#
# number of rings (size 3 to 8) (size 9 to 14) (size 15 to 20)
#    0.000    1.000    6.250    0.000    5.250    3.000 
#    2.250    0.000    0.000    0.000    0.000    0.000 
#    0.000    0.000    0.000    0.000    0.000    0.000 
#
# Total GULP energy -89314.456564 kJ/mol
# GULP energy per Si atom -5582.153535 kJ/mol
# Density = 2.001644 g / cm^3
# Si number density = 20.062104 Si / 1000 Ang^3
#
#
#
# Elastic Constant Matrix: (Units=GPa)
#
#
# Indices 1 2 3 4 5 6 
#
# 1 81.0792 24.1729 45.6371 0.0000 -11.5378 0.0000
# 2 24.1729 86.6158 14.7207 0.0000 -0.5945 0.0000
# 3 45.6371 14.7207 68.1285 0.0000 -9.7736 0.0000
# 4 0.0000 0.0000 0.0000 27.1779 0.0000 2.4600
# 5 -11.5378 -0.5945 -9.7736 0.0000 34.9684 0.0000
# 6 0.0000 0.0000 0.0000 2.4600 0.0000 29.1063
#
#
#
# Elastic Compliance Matrix: (Units=1/GPa)
#
#
# Indices 1 2 3 4 5 6 
#
# 1 0.021172 -0.003692 -0.012909 0.000000 0.003315 0.000000
# 2 -0.003692 0.012639 -0.000418 0.000000 -0.001120 0.000000
# 3 -0.012909 -0.000418 0.023757 0.000000 0.002373 0.000000
# 4 0.000000 0.000000 0.000000 0.037078 0.000000 -0.003134
# 5 0.003315 -0.001120 0.002373 0.000000 0.030335 0.000000
# 6 0.000000 0.000000 0.000000 -0.003134 0.000000 0.034622
#
#
# Mechanical properties :
#
#
# Convention : Reuss Voigt Hill
#
# Bulk Modulus (GPa) = 42.50218 44.98722 43.74470
# Shear Modulus (GPa) = 24.81563 28.33671 26.57617
#
# Velocity S-wave (km/s) = 3.52083 3.76233 3.64358
# Velocity P-wave (km/s) = 6.14489 6.43010 6.28911
#
# Compressibility (1/GPa) = 0.02352820
#
# Stress axis : x y z
#
# Youngs Moduli (GPa) = 47.23125 79.11980 42.09352
#
# Poissons Ratio (x) = 0.29212 0.54340
# Poissons Ratio (y) = 0.17438 0.01761
# Poissons Ratio (z) = 0.60973 0.03311
#
# Static dielectric constant tensor:
#      x y z
#    x 1.718010 0.000000 0.010990 
#    y 0.000000 1.713950 0.000000 
#    z 0.010990 0.000000 1.711630 
# 
# From -- ./inp_files/8436.got.cif
#   From: 2010.05.17/outbox.cif.g08.bks.cpg/sg4_5_cif.got.tgz:8436.got - 2010.06.03 18:43:04.
