data_PCOD9118412
_publ_section_title
;
Structure prediction by ZEFSAII (Michael W. Deem and Ramdas Pophale) SiO2 
 PCOD9118412
Probable space group: P 21
;
_chemical_formula_sum "Si O2"
_cell_formula_units_Z 16
_cell_length_a 19.883935
_cell_length_b 6.610921
_cell_length_c 12.660787
_cell_angle_alpha 90.000000
_cell_angle_beta 156.221125
_cell_angle_gamma 90.000000
_cell_volume 671.048734
_symmetry_space_group_name_H-M "P 21"
_symmetry_group_IT_number 4
_symmetry_cell_setting 'monoclinic'
loop_
_space_group_symop_operation_xyz
x,y,z
-x,1/2+y,-z
loop_
_atom_site_type_symbol
_atom_site_label
_atom_site_fract_x
_atom_site_fract_y
_atom_site_fract_z
Si Si1 0.690134 0.612050 0.881482
Si Si2 0.322426 0.899774 0.671377
Si Si3 0.100159 0.578900 0.226770
Si Si4 0.784007 0.686800 0.634690
Si Si5 0.311429 0.573614 0.838323
Si Si6 0.224930 0.543384 0.946663
Si Si7 0.993253 0.840567 0.699594
Si Si8 0.458344 0.243552 0.547180
O O1 0.529997 0.469122 0.671465
O O2 0.663824 0.708971 0.726889
O O3 0.848503 0.467402 0.115697
O O4 0.738998 0.807086 0.019512
O O5 0.205602 0.760799 0.427214
O O6 0.319434 0.774996 0.775911
O O7 0.239568 0.115580 0.519618
O O8 0.515120 0.950039 0.923127
O O9 0.232378 0.425199 0.369215
O O10 0.019304 0.432376 0.199795
O O11 0.957890 0.630431 0.939051
O O12 0.628774 0.618058 0.482880
O O13 0.259064 0.637468 0.880547
O O14 0.169036 0.424460 0.591131
O O15 0.051894 0.613326 0.752001
O O16 0.370907 0.624683 0.232130
#
# Coordination Sequence:
#
# PCOD9118412 Si02
#       8
#     2   2   2   2   2   2   2   2
#     4  11  23  44  71 107 147 188 234 314 379 452
#     4  11  27  50  72 106 151 196 261 309 365 448
#     4  11  25  45  74 111 148 194 243 314 383 449
#     4  12  24  45  73 113 148 193 245 313 385 449
#     4  11  27  51  72 104 148 205 253 302 364 446
#     4  11  25  46  72 104 142 192 242 302 376 443
#     4  10  26  46  66 105 145 186 249 296 369 440
#     4  11  23  41  72 108 147 182 241 300 387 453
#
# _framework density 23.843274999999998
#
# number of rings (size 3 to 8) (size 9 to 14) (size 15 to 20)
#    0.000    1.000    5.000    0.000    7.000    3.000 
#    2.250    0.000    0.000    0.000    0.000    0.000 
#    0.000    0.000    0.000    0.000    0.000    0.000 
#
# Total GULP energy -89172.503043 kJ/mol
# GULP energy per Si atom -5573.281440 kJ/mol
# Density = 2.378901 g / cm^3
# Si number density = 23.843275 Si / 1000 Ang^3
#
#
#
# Elastic Constant Matrix: (Units=GPa)
#
#
# Indices 1 2 3 4 5 6 
#
# 1 85.9381 12.4627 52.7519 0.0000 -3.6124 0.0000
# 2 12.4627 97.1364 29.5532 0.0000 2.4155 0.0000
# 3 52.7519 29.5532 108.9532 0.0000 -1.6391 0.0000
# 4 0.0000 0.0000 0.0000 40.4361 0.0000 0.3750
# 5 -3.6124 2.4155 -1.6391 0.0000 29.6072 0.0000
# 6 0.0000 0.0000 0.0000 0.3750 0.0000 30.8748
#
#
#
# Elastic Compliance Matrix: (Units=1/GPa)
#
#
# Indices 1 2 3 4 5 6 
#
# 1 0.016639 0.000295 -0.008113 0.000000 0.001557 0.000000
# 2 0.000295 0.011261 -0.003213 0.000000 -0.001061 0.000000
# 3 -0.008113 -0.003213 0.013978 0.000000 0.000046 0.000000
# 4 0.000000 0.000000 0.000000 0.024733 0.000000 -0.000300
# 5 0.001557 -0.001061 0.000046 0.000000 0.034055 0.000000
# 6 0.000000 0.000000 0.000000 -0.000300 0.000000 0.032393
#
#
# Mechanical properties :
#
#
# Convention : Reuss Voigt Hill
#
# Bulk Modulus (GPa) = 50.46392 53.50706 51.98549
# Shear Modulus (GPa) = 30.91657 33.33428 32.12542
#
# Velocity S-wave (km/s) = 3.60482 3.74312 3.67462
# Velocity P-wave (km/s) = 6.20783 6.41647 6.31301
#
# Compressibility (1/GPa) = 0.01981614
#
# Stress axis : x y z
#
# Youngs Moduli (GPa) = 60.10069 88.80250 71.53931
#
# Poissons Ratio (x) = -0.02617 0.58036
# Poissons Ratio (y) = -0.01771 0.22987
# Poissons Ratio (z) = 0.48757 0.28533
#
# Static dielectric constant tensor:
#      x y z
#    x 1.970150 0.000000 0.030380 
#    y 0.000000 2.099260 0.000000 
#    z 0.030380 0.000000 1.884630 
# 
# From -- ./inp_files/14542.got.cif
#   From: 2010.05.17/outbox.cif.g08.bks.cpg/sg4_8_cif.got.tgz:14542.got - 2010.06.03 18:43:04.
