data_PCOD9118464
_publ_section_title
;
Structure prediction by ZEFSAII (Michael W. Deem and Ramdas Pophale) SiO2 
 PCOD9118464
Probable space group: P 21
;
_chemical_formula_sum "Si O2"
_cell_formula_units_Z 16
_cell_length_a 26.190314
_cell_length_b 5.826893
_cell_length_c 8.787633
_cell_angle_alpha 90.000000
_cell_angle_beta 30.282355
_cell_angle_gamma 90.000000
_cell_volume 676.247462
_symmetry_space_group_name_H-M "P 21"
_symmetry_group_IT_number 4
_symmetry_cell_setting 'monoclinic'
loop_
_space_group_symop_operation_xyz
x,y,z
-x,1/2+y,-z
loop_
_atom_site_type_symbol
_atom_site_label
_atom_site_fract_x
_atom_site_fract_y
_atom_site_fract_z
Si Si1 0.946429 0.178880 0.145035
Si Si2 0.274401 0.194004 0.245209
Si Si3 0.362509 0.527933 0.264218
Si Si4 0.756133 0.744922 0.175650
Si Si5 0.200992 0.893113 0.697858
Si Si6 0.189056 0.513249 0.242773
Si Si7 0.546783 0.549690 0.621580
Si Si8 0.394703 0.783310 0.782499
O O1 0.874267 0.205207 0.180055
O O2 0.889174 0.162827 0.457222
O O3 0.003935 0.424963 0.997240
O O4 0.328560 0.404351 0.193825
O O5 0.198002 0.279311 0.314445
O O6 0.208753 0.075391 0.543556
O O7 0.348973 0.012898 0.976263
O O8 0.308348 0.381712 0.532575
O O9 0.311551 0.775303 0.416477
O O10 0.483706 0.537727 0.939831
O O11 0.817021 0.538514 0.102452
O O12 0.662425 0.629948 0.327796
O O13 0.818046 0.925669 0.912710
O O14 0.298286 0.628785 0.988855
O O15 0.478875 0.704612 0.685212
O O16 0.551546 0.312945 0.518414
#
# Coordination Sequence:
#
# PCOD9118464 Si02
#       8
#     2   2   2   2   2   2   2   2
#     4  12  27  49  94 123 140 187 270 335 393 501
#     4  11  18  42  71  93 139 206 250 306 377 444
#     4  11  24  41  63  98 151 206 247 309 357 448
#     4  11  29  39  70 103 158 210 242 306 388 466
#     4  11  24  49  72 107 152 197 238 315 409 449
#     4  12  24  48  71 113 147 199 251 319 401 457
#     4  12  23  39  61 105 141 206 270 307 347 428
#     4  12  23  39  68  98 152 201 266 335 354 427
#
# _framework density 23.659977000000001
#
# number of rings (size 3 to 8) (size 9 to 14) (size 15 to 20)
#    0.000    0.500    6.250    2.250    5.250    0.000 
#    0.000    0.000    2.750    0.000    0.000    0.000 
#    0.000    0.000    0.000    0.000    0.000    0.000 
#
# Total GULP energy -89277.735077 kJ/mol
# GULP energy per Si atom -5579.858442 kJ/mol
# Density = 2.360613 g / cm^3
# Si number density = 23.659977 Si / 1000 Ang^3
#
#
#
# Elastic Constant Matrix: (Units=GPa)
#
#
# Indices 1 2 3 4 5 6 
#
# 1 68.1667 31.4229 44.2324 0.0000 17.4368 0.0000
# 2 31.4229 87.6508 41.6780 0.0000 1.6283 0.0000
# 3 44.2324 41.6780 85.8425 0.0000 11.8564 0.0000
# 4 0.0000 0.0000 0.0000 55.2404 0.0000 2.4718
# 5 17.4368 1.6283 11.8564 0.0000 30.7825 0.0000
# 6 0.0000 0.0000 0.0000 2.4718 0.0000 42.1275
#
#
#
# Elastic Compliance Matrix: (Units=1/GPa)
#
#
# Indices 1 2 3 4 5 6 
#
# 1 0.025657 -0.004435 -0.009603 0.000000 -0.010600 0.000000
# 2 -0.004435 0.015730 -0.005898 0.000000 0.003952 0.000000
# 3 -0.009603 -0.005898 0.019715 0.000000 -0.001842 0.000000
# 4 0.000000 0.000000 0.000000 0.018150 0.000000 -0.001065
# 5 -0.010600 0.003952 -0.001842 0.000000 0.038991 0.000000
# 6 0.000000 0.000000 0.000000 -0.001065 0.000000 0.023800
#
#
# Mechanical properties :
#
#
# Convention : Reuss Voigt Hill
#
# Bulk Modulus (GPa) = 47.10150 52.92517 50.01334
# Shear Modulus (GPa) = 26.45621 33.91854 30.18737
#
# Velocity S-wave (km/s) = 3.34755 3.79038 3.57583
# Velocity P-wave (km/s) = 5.90698 6.44776 6.18328
#
# Compressibility (1/GPa) = 0.02123074
#
# Stress axis : x y z
#
# Youngs Moduli (GPa) = 38.97567 63.57380 50.72193
#
# Poissons Ratio (x) = 0.28194 0.48709
# Poissons Ratio (y) = 0.17285 0.29914
# Poissons Ratio (z) = 0.37429 0.37494
#
# Static dielectric constant tensor:
#      x y z
#    x 2.000220 0.000000 -0.002920 
#    y 0.000000 1.992360 0.000000 
#    z -0.002920 0.000000 1.965420 
# 
# From -- ./inp_files/10115.got.cif
#   From: 2010.05.17/outbox.cif.g08.bks.cpg/sg4_6_cif.got.tgz:10115.got - 2010.06.03 18:43:04.
