data_PCOD9118753
_publ_section_title
;
Structure prediction by ZEFSAII (Michael W. Deem and Ramdas Pophale) SiO2 
 PCOD9118753
Probable space group: P 21
;
_chemical_formula_sum "Si O2"
_cell_formula_units_Z 16
_cell_length_a 19.567000
_cell_length_b 6.629776
_cell_length_c 7.448779
_cell_angle_alpha 90.000000
_cell_angle_beta 129.798339
_cell_angle_gamma 90.000000
_cell_volume 742.403821
_symmetry_space_group_name_H-M "P 21"
_symmetry_group_IT_number 4
_symmetry_cell_setting 'monoclinic'
loop_
_space_group_symop_operation_xyz
x,y,z
-x,1/2+y,-z
loop_
_atom_site_type_symbol
_atom_site_label
_atom_site_fract_x
_atom_site_fract_y
_atom_site_fract_z
Si Si1 0.642274 0.043040 0.357236
Si Si2 0.079242 0.711265 0.827034
Si Si3 0.182143 0.809628 0.354948
Si Si4 0.559680 0.323120 0.510270
Si Si5 0.302638 0.152438 0.390384
Si Si6 0.402928 0.567657 0.105088
Si Si7 0.111616 0.031133 0.576943
Si Si8 0.219605 0.388063 0.918026
O O1 0.740185 0.142616 0.504755
O O2 0.597000 0.137378 0.456622
O O3 0.652664 0.804988 0.395259
O O4 0.586567 0.098177 0.087952
O O5 0.093804 0.912759 0.733139
O O6 0.141567 0.539758 0.843593
O O7 0.978490 0.637105 0.641272
O O8 0.110851 0.745382 0.084545
O O9 0.142173 0.869240 0.479555
O O10 0.231020 0.009358 0.363093
O O11 0.624026 0.508958 0.574825
O O12 0.462891 0.386041 0.281578
O O13 0.568132 0.259905 0.730138
O O14 0.257006 0.286669 0.161572
O O15 0.300323 0.512682 0.967669
O O16 0.183161 0.207383 0.732980
#
# Coordination Sequence:
#
# PCOD9118753 Si02
#       8
#     2   2   2   2   2   2   2   2
#     4  11  25  46  69 102 139 184 232 289 349 421
#     4  12  25  47  68 101 141 181 231 299 349 419
#     4  11  25  44  71 102 136 182 236 288 353 426
#     4  11  27  45  68 104 140 183 234 293 343 413
#     4  11  22  46  71  99 141 180 229 294 351 408
#     4  12  26  46  72 101 143 188 238 284 354 426
#     4  12  27  44  72 102 139 186 236 289 360 420
#     4  12  23  46  73  97 141 184 228 292 353 415
#
# _framework density 21.551614000000001
#
# number of rings (size 3 to 8) (size 9 to 14) (size 15 to 20)
#    0.000    0.500    5.000    3.000    3.500    2.000 
#    4.500    0.000    0.000    0.000    0.000    0.000 
#    0.000    0.000    0.000    0.000    0.000    0.000 
#
# Total GULP energy -89608.805636 kJ/mol
# GULP energy per Si atom -5600.550352 kJ/mol
# Density = 2.150256 g / cm^3
# Si number density = 21.551614 Si / 1000 Ang^3
#
#
#
# Elastic Constant Matrix: (Units=GPa)
#
#
# Indices 1 2 3 4 5 6 
#
# 1 29.8003 -0.1575 25.0822 0.0000 1.8872 0.0000
# 2 -0.1575 54.3577 12.2157 0.0000 -9.6683 0.0000
# 3 25.0822 12.2157 115.4827 0.0000 -20.3249 0.0000
# 4 0.0000 0.0000 0.0000 43.3393 0.0000 -3.1029
# 5 1.8872 -9.6683 -20.3249 0.0000 34.7435 0.0000
# 6 0.0000 0.0000 0.0000 -3.1029 0.0000 22.2111
#
#
#
# Elastic Compliance Matrix: (Units=1/GPa)
#
#
# Indices 1 2 3 4 5 6 
#
# 1 0.043392 0.001093 -0.011038 0.000000 -0.008510 0.000000
# 2 0.001093 0.019539 -0.001513 0.000000 0.004493 0.000000
# 3 -0.011038 -0.001513 0.012539 0.000000 0.007514 0.000000
# 4 0.000000 0.000000 0.000000 0.023307 0.000000 0.003256
# 5 -0.008510 0.004493 0.007514 0.000000 0.034890 0.000000
# 6 0.000000 0.000000 0.000000 0.003256 0.000000 0.045477
#
#
# Mechanical properties :
#
#
# Convention : Reuss Voigt Hill
#
# Bulk Modulus (GPa) = 19.02856 30.43572 24.73214
# Shear Modulus (GPa) = 22.77081 30.89213 26.83147
#
# Velocity S-wave (km/s) = 3.25402 3.79014 3.53226
# Velocity P-wave (km/s) = 4.79235 5.77117 5.30439
#
# Compressibility (1/GPa) = 0.05255260
#
# Stress axis : x y z
#
# Youngs Moduli (GPa) = 23.04587 51.17972 79.75002
#
# Poissons Ratio (x) = -0.05592 0.88026
# Poissons Ratio (y) = -0.02518 0.12070
# Poissons Ratio (z) = 0.25438 0.07746
#
# Static dielectric constant tensor:
#      x y z
#    x 1.776500 0.000000 0.000120 
#    y 0.000000 1.762670 0.000000 
#    z 0.000120 0.000000 1.756090 
# 
# From -- ./inp_files/9871.got.cif
#   From: 2010.05.17/outbox.cif.g08.bks.cpg/sg4_5_cif.got.tgz:9871.got - 2010.06.03 18:43:04.
