data_PCOD9118037
_publ_section_title
;
Structure prediction by ZEFSAII (Michael W. Deem and Ramdas Pophale) SiO2 
 PCOD9118037
Probable space group: P 21
;
_chemical_formula_sum "Si O2"
_cell_formula_units_Z 12
_cell_length_a 9.753927
_cell_length_b 7.567486
_cell_length_c 8.220409
_cell_angle_alpha 90.000000
_cell_angle_beta 46.356342
_cell_angle_gamma 90.000000
_cell_volume 439.087249
_symmetry_space_group_name_H-M "P 21"
_symmetry_group_IT_number 4
_symmetry_cell_setting 'monoclinic'
loop_
_space_group_symop_operation_xyz
x,y,z
-x,1/2+y,-z
loop_
_atom_site_type_symbol
_atom_site_label
_atom_site_fract_x
_atom_site_fract_y
_atom_site_fract_z
Si Si1 0.687051 0.696730 0.294678
Si Si2 0.105410 0.213410 0.196674
Si Si3 0.983955 0.296113 0.777288
Si Si4 0.435225 0.365866 0.134800
Si Si5 0.252220 0.738468 0.333050
Si Si6 0.322994 0.788199 0.750575
O O1 0.462483 0.717816 0.499688
O O2 0.716396 0.489369 0.261384
O O3 0.798316 0.778172 0.356029
O O4 0.781032 0.776350 0.056016
O O5 0.251447 0.264714 0.219631
O O6 0.894496 0.288023 0.404265
O O7 0.068812 0.002230 0.209345
O O8 0.898035 0.201914 0.691031
O O9 0.876730 0.214865 0.024117
O O10 0.368735 0.557207 0.249495
O O11 0.555168 0.279703 0.181780
O O12 0.590168 0.375191 0.860521
#
# Coordination Sequence:
#
# PCOD9118037 Si02
#       6
#     2   2   2   2   2   2
#     4  11  24  44  68  98 135 176 219 270 334 395
#     4  11  24  43  69  96 129 175 223 275 328 387
#     4  10  24  44  66  97 135 176 220 271 332 395
#     4  11  24  43  69  99 133 174 225 275 328 389
#     4  11  22  42  68  97 132 173 222 276 329 390
#     4  10  24  44  66  95 134 176 221 273 327 392
#
# _framework density 27.329421
#
# number of rings (size 3 to 8) (size 9 to 14) (size 15 to 20)
#    0.000    1.333    0.000    6.000    0.000   10.667 
#    0.000   15.000    0.000    0.000    0.000    0.000 
#    0.000    0.000    0.000    0.000    0.000    0.000 
#
# Total GULP energy -67214.227061 kJ/mol
# GULP energy per Si atom -5601.185588 kJ/mol
# Density = 2.726722 g / cm^3
# Si number density = 27.329421 Si / 1000 Ang^3
#
#
#
# Elastic Constant Matrix: (Units=GPa)
#
#
# Indices 1 2 3 4 5 6 
#
# 1 128.8294 25.1083 14.9223 0.0000 -14.3296 0.0000
# 2 25.1083 52.1005 -4.8477 0.0000 10.7191 0.0000
# 3 14.9223 -4.8477 192.0160 0.0000 -16.9197 0.0000
# 4 0.0000 0.0000 0.0000 30.8193 0.0000 -7.3618
# 5 -14.3296 10.7191 -16.9197 0.0000 40.3400 0.0000
# 6 0.0000 0.0000 0.0000 -7.3618 0.0000 46.3495
#
#
#
# Elastic Compliance Matrix: (Units=1/GPa)
#
#
# Indices 1 2 3 4 5 6 
#
# 1 0.009406 -0.005526 -0.000464 0.000000 0.004615 0.000000
# 2 -0.005526 0.023550 0.000311 0.000000 -0.008090 0.000000
# 3 -0.000464 0.000311 0.005431 0.000000 0.002030 0.000000
# 4 0.000000 0.000000 0.000000 0.033727 0.000000 0.005357
# 5 0.004615 -0.008090 0.002030 0.000000 0.029430 0.000000
# 6 0.000000 0.000000 0.000000 0.005357 0.000000 0.022426
#
#
# Mechanical properties :
#
#
# Convention : Reuss Voigt Hill
#
# Bulk Modulus (GPa) = 36.99581 49.25684 43.12633
# Shear Modulus (GPa) = 34.64131 46.01931 40.33031
#
# Velocity S-wave (km/s) = 3.56412 4.10796 3.84567
# Velocity P-wave (km/s) = 5.52301 6.36890 5.96098
#
# Compressibility (1/GPa) = 0.02703008
#
# Stress axis : x y z
#
# Youngs Moduli (GPa) = 106.31308 42.46288 184.13812
#
# Poissons Ratio (x) = 0.23464 0.08541
# Poissons Ratio (y) = 0.58745 -0.05729
# Poissons Ratio (z) = 0.04931 -0.01321
#
# Static dielectric constant tensor:
#      x y z
#    x 2.099690 0.000000 0.076540 
#    y 0.000000 2.060080 0.000000 
#    z 0.076540 0.000000 2.284960 
# 
# From -- ./inp_files/7902.got.cif
#   From: 2010.05.17/outbox.cif.g08.bks.cpg/sg4_4_cif.got.tgz:7902.got - 2010.06.03 18:43:04.
