data_PCOD9118695
_publ_section_title
;
Structure prediction by ZEFSAII (Michael W. Deem and Ramdas Pophale) SiO2 
 PCOD9118695
Probable space group: P 21
;
_chemical_formula_sum "Si O2"
_cell_formula_units_Z 16
_cell_length_a 12.808495
_cell_length_b 8.588451
_cell_length_c 11.411951
_cell_angle_alpha 90.000000
_cell_angle_beta 142.937958
_cell_angle_gamma 90.000000
_cell_volume 756.587629
_symmetry_space_group_name_H-M "P 21"
_symmetry_group_IT_number 4
_symmetry_cell_setting 'monoclinic'
loop_
_space_group_symop_operation_xyz
x,y,z
-x,1/2+y,-z
loop_
_atom_site_type_symbol
_atom_site_label
_atom_site_fract_x
_atom_site_fract_y
_atom_site_fract_z
Si Si1 0.844747 0.584760 0.422553
Si Si2 0.699950 0.270235 0.622192
Si Si3 0.857131 0.842541 0.614190
Si Si4 0.733390 0.781652 0.098960
Si Si5 0.792766 0.016023 0.329311
Si Si6 0.648361 0.292863 0.313484
Si Si7 0.330046 0.135761 0.357023
Si Si8 0.952217 0.636137 0.099760
O O1 0.921857 0.696186 0.593350
O O2 0.765826 0.677450 0.242702
O O3 0.700291 0.471561 0.345143
O O4 0.004298 0.490577 0.511013
O O5 0.712016 0.237223 0.495529
O O6 0.529481 0.185433 0.517015
O O7 0.678692 0.455372 0.613149
O O8 0.885111 0.203844 0.828822
O O9 0.749407 0.759349 0.621223
O O10 0.749216 0.931904 0.414015
O O11 0.987953 0.970008 0.789061
O O12 0.889757 0.749498 0.149737
O O13 0.710131 0.949205 0.138084
O O14 0.552320 0.751293 0.875188
O O15 0.747880 0.194646 0.305130
O O16 0.211374 0.134217 0.133963
#
# Coordination Sequence:
#
# PCOD9118695 Si02
#       8
#     2   2   2   2   2   2   2   2
#     4  11  22  43  69 100 137 181 229 280 353 420
#     4  12  25  46  71  98 140 186 228 294 352 405
#     4  11  23  42  70 100 132 180 232 281 345 415
#     4  11  24  40  68 106 137 180 228 286 353 416
#     4  11  23  41  69  99 138 182 228 281 347 424
#     4  12  22  44  67 101 143 180 229 289 345 415
#     4  12  27  46  72 101 137 185 242 288 347 411
#     4  12  24  48  70 103 142 182 236 289 346 418
#
# _framework density 21.147584999999999
#
# number of rings (size 3 to 8) (size 9 to 14) (size 15 to 20)
#    0.000    0.500    5.000    4.500    0.000    0.000 
#    0.000    1.250    0.000    0.000    0.000    0.000 
#    0.000    0.000    0.000    0.000    0.000    0.000 
#
# Total GULP energy -89237.005548 kJ/mol
# GULP energy per Si atom -5577.312847 kJ/mol
# Density = 2.109945 g / cm^3
# Si number density = 21.147585 Si / 1000 Ang^3
#
#
#
# Elastic Constant Matrix: (Units=GPa)
#
#
# Indices 1 2 3 4 5 6 
#
# 1 101.8484 46.0628 29.8473 0.0000 10.0621 0.0000
# 2 46.0628 82.7672 6.0293 0.0000 -7.3132 0.0000
# 3 29.8473 6.0293 67.5810 0.0000 10.8403 0.0000
# 4 0.0000 0.0000 0.0000 24.1306 0.0000 -0.6074
# 5 10.0621 -7.3132 10.8403 0.0000 20.1310 0.0000
# 6 0.0000 0.0000 0.0000 -0.6074 0.0000 40.1338
#
#
#
# Elastic Compliance Matrix: (Units=1/GPa)
#
#
# Indices 1 2 3 4 5 6 
#
# 1 0.016539 -0.009644 -0.004987 0.000000 -0.009085 0.000000
# 2 -0.009644 0.018362 0.000851 0.000000 0.011032 0.000000
# 3 -0.004987 0.000851 0.018032 0.000000 -0.006908 0.000000
# 4 0.000000 0.000000 0.000000 0.041457 0.000000 0.000627
# 5 -0.009085 0.011032 -0.006908 0.000000 0.061943 0.000000
# 6 0.000000 0.000000 0.000000 0.000627 0.000000 0.024926
#
#
# Mechanical properties :
#
#
# Convention : Reuss Voigt Hill
#
# Bulk Modulus (GPa) = 39.41050 46.23059 42.82054
# Shear Modulus (GPa) = 23.01216 28.22957 25.62086
#
# Velocity S-wave (km/s) = 3.30232 3.65757 3.48448
# Velocity P-wave (km/s) = 5.76340 6.30440 6.03996
#
# Compressibility (1/GPa) = 0.02537395
#
# Stress axis : x y z
#
# Youngs Moduli (GPa) = 60.46229 54.45984 55.45803
#
# Poissons Ratio (x) = 0.52522 0.27657
# Poissons Ratio (y) = 0.58310 -0.04722
# Poissons Ratio (z) = 0.30152 -0.04637
#
# Static dielectric constant tensor:
#      x y z
#    x 1.783500 0.000000 -0.032520 
#    y 0.000000 1.823530 0.000000 
#    z -0.032520 0.000000 1.803200 
# 
# From -- ./inp_files/11904.got.cif
#   From: 2010.05.17/outbox.cif.g08.bks.cpg/sg4_6_cif.got.tgz:11904.got - 2010.06.03 18:43:04.
