data_PCOD9118668
_publ_section_title
;
Structure prediction by ZEFSAII (Michael W. Deem and Ramdas Pophale) SiO2 
 PCOD9118668
Probable space group: P 21
;
_chemical_formula_sum "Si O2"
_cell_formula_units_Z 12
_cell_length_a 16.121142
_cell_length_b 5.052128
_cell_length_c 9.590477
_cell_angle_alpha 90.000000
_cell_angle_beta 41.091452
_cell_angle_gamma 90.000000
_cell_volume 513.392380
_symmetry_space_group_name_H-M "P 21"
_symmetry_group_IT_number 4
_symmetry_cell_setting 'monoclinic'
loop_
_space_group_symop_operation_xyz
x,y,z
-x,1/2+y,-z
loop_
_atom_site_type_symbol
_atom_site_label
_atom_site_fract_x
_atom_site_fract_y
_atom_site_fract_z
Si Si1 0.710772 0.982640 0.979744
Si Si2 0.541201 0.698330 0.025595
Si Si3 0.702828 0.603140 0.249764
Si Si4 0.038951 0.806322 0.363199
Si Si5 0.511681 0.862631 0.651846
Si Si6 0.958660 0.303962 0.965614
O O1 0.818079 0.197654 0.824369
O O2 0.680296 0.809038 0.882451
O O3 0.740318 0.791550 0.072591
O O4 0.579715 0.135638 0.172724
O O5 0.486386 0.597839 0.240653
O O6 0.539060 0.435748 0.936265
O O7 0.652811 0.779009 0.439218
O O8 0.572114 0.460281 0.372097
O O9 0.813722 0.403065 0.141930
O O10 0.971595 0.590263 0.548834
O O11 0.996260 0.806591 0.254110
O O12 0.026865 0.520681 0.978206
#
# Coordination Sequence:
#
# PCOD9118668 Si02
#       6
#     2   2   2   2   2   2
#     4  11  23  45  77 102 146 195 246 315 364 449
#     4  11  24  44  66 103 153 191 231 299 379 439
#     4  11  23  43  78 114 145 192 252 303 380 461
#     4  12  27  50  81 108 142 208 271 303 366 469
#     4  11  22  41  78 113 140 194 249 302 374 451
#     4  12  27  51  78 116 162 198 247 334 389 431
#
# _framework density 23.373933999999998
#
# number of rings (size 3 to 8) (size 9 to 14) (size 15 to 20)
#    0.000    0.667    5.000    3.000    2.333    0.000 
#    3.000    3.333    3.667    0.000    0.000    0.000 
#    0.000    0.000    0.000    0.000    0.000    0.000 
#
# Total GULP energy -67139.243674 kJ/mol
# GULP energy per Si atom -5594.936973 kJ/mol
# Density = 2.332073 g / cm^3
# Si number density = 23.373934 Si / 1000 Ang^3
#
#
#
# Elastic Constant Matrix: (Units=GPa)
#
#
# Indices 1 2 3 4 5 6 
#
# 1 86.0391 33.6406 36.7671 0.0000 23.7353 0.0000
# 2 33.6406 108.4793 15.2490 0.0000 7.3425 0.0000
# 3 36.7671 15.2490 82.1251 0.0000 2.5228 0.0000
# 4 0.0000 0.0000 0.0000 44.7080 0.0000 6.9179
# 5 23.7353 7.3425 2.5228 0.0000 29.4355 0.0000
# 6 0.0000 0.0000 0.0000 6.9179 0.0000 58.7857
#
#
#
# Elastic Compliance Matrix: (Units=1/GPa)
#
#
# Indices 1 2 3 4 5 6 
#
# 1 0.020955 -0.004335 -0.008112 0.000000 -0.015121 0.000000
# 2 -0.004335 0.010508 -0.000038 0.000000 0.000877 0.000000
# 3 -0.008112 -0.000038 0.015655 0.000000 0.005209 0.000000
# 4 0.000000 0.000000 0.000000 0.022782 0.000000 -0.002681
# 5 -0.015121 0.000877 0.005209 0.000000 0.045500 0.000000
# 6 0.000000 0.000000 0.000000 -0.002681 0.000000 0.017326
#
#
# Mechanical properties :
#
#
# Convention : Reuss Voigt Hill
#
# Bulk Modulus (GPa) = 45.14633 49.77298 47.45965
# Shear Modulus (GPa) = 30.28828 39.31829 34.80329
#
# Velocity S-wave (km/s) = 3.60365 4.10584 3.86291
# Velocity P-wave (km/s) = 6.05572 6.61949 6.34387
#
# Compressibility (1/GPa) = 0.02215020
#
# Stress axis : x y z
#
# Youngs Moduli (GPa) = 47.72039 95.16125 63.87587
#
# Poissons Ratio (x) = 0.41249 0.51818
# Poissons Ratio (y) = 0.20685 0.00240
# Poissons Ratio (z) = 0.38712 0.00357
#
# Static dielectric constant tensor:
#      x y z
#    x 1.927140 0.000000 0.063150 
#    y 0.000000 1.957870 0.000000 
#    z 0.063150 0.000000 1.953620 
# 
# From -- ./inp_files/9445.got.cif
#   From: 2010.05.17/outbox.cif.g08.bks.cpg/sg4_5_cif.got.tgz:9445.got - 2010.06.03 18:43:04.
