data_PCOD9118401
_publ_section_title
;
Structure prediction by ZEFSAII (Michael W. Deem and Ramdas Pophale) SiO2 
 PCOD9118401
Probable space group: P 21
;
_chemical_formula_sum "Si O2"
_cell_formula_units_Z 16
_cell_length_a 14.258497
_cell_length_b 8.438234
_cell_length_c 4.796493
_cell_angle_alpha 90.000000
_cell_angle_beta 100.380159
_cell_angle_gamma 90.000000
_cell_volume 567.652594
_symmetry_space_group_name_H-M "P 21"
_symmetry_group_IT_number 4
_symmetry_cell_setting 'monoclinic'
loop_
_space_group_symop_operation_xyz
x,y,z
-x,1/2+y,-z
loop_
_atom_site_type_symbol
_atom_site_label
_atom_site_fract_x
_atom_site_fract_y
_atom_site_fract_z
Si Si1 0.300105 0.799120 0.686465
Si Si2 0.358050 0.469934 0.915728
Si Si3 0.844741 0.937311 0.886027
Si Si4 0.816840 0.499801 0.730123
Si Si5 0.904483 0.264139 0.131900
Si Si6 0.375139 0.020897 0.177630
Si Si7 0.093664 0.254962 0.582989
Si Si8 0.539752 0.835226 0.540595
O O1 0.353874 0.637018 0.755856
O O2 0.255400 0.853398 0.371710
O O3 0.198659 0.772569 0.782904
O O4 0.354642 0.943963 0.864380
O O5 0.258713 0.448581 0.028421
O O6 0.389299 0.348309 0.689074
O O7 0.433900 0.462263 0.205563
O O8 0.898280 0.799054 0.091130
O O9 0.849440 0.888321 0.566536
O O10 0.900095 0.101861 0.956835
O O11 0.902350 0.423397 0.945958
O O12 0.730918 0.598449 0.820005
O O13 0.857655 0.591923 0.487857
O O14 0.987642 0.259451 0.403017
O O15 0.441729 0.170245 0.290080
O O16 0.436156 0.879890 0.365226
#
# Coordination Sequence:
#
# PCOD9118401 Si02
#       8
#     2   2   2   2   2   2   2   2
#     4  10  26  46  74 100 152 194 245 307 375 441
#     4  11  26  48  74 106 145 196 249 303 376 439
#     4  11  26  46  70 106 143 191 244 311 368 445
#     4  11  26  47  72 105 151 197 238 314 372 443
#     4  10  26  44  71 104 143 195 247 301 373 444
#     4  11  27  47  72 112 149 194 249 307 379 435
#     4  12  27  44  75 106 149 190 250 305 371 450
#     4  12  28  46  80 109 148 195 252 312 364 457
#
# _framework density 28.186257000000001
#
# number of rings (size 3 to 8) (size 9 to 14) (size 15 to 20)
#    0.000    1.000    0.000    3.750   22.750    0.000 
#    0.000    0.000    0.000    0.000    0.000    0.000 
#    0.000    0.000    0.000    0.000    0.000    0.000 
#
# Total GULP energy -89618.627437 kJ/mol
# GULP energy per Si atom -5601.164215 kJ/mol
# Density = 2.812210 g / cm^3
# Si number density = 28.186257 Si / 1000 Ang^3
#
#
#
# Elastic Constant Matrix: (Units=GPa)
#
#
# Indices 1 2 3 4 5 6 
#
# 1 149.1991 29.8373 42.3333 0.0000 20.3310 0.0000
# 2 29.8373 110.4443 -2.6522 0.0000 17.7235 0.0000
# 3 42.3333 -2.6522 86.9828 0.0000 35.1971 0.0000
# 4 0.0000 0.0000 0.0000 58.2486 0.0000 11.6414
# 5 20.3310 17.7235 35.1971 0.0000 34.6309 0.0000
# 6 0.0000 0.0000 0.0000 11.6414 0.0000 22.5519
#
#
#
# Elastic Compliance Matrix: (Units=1/GPa)
#
#
# Indices 1 2 3 4 5 6 
#
# 1 0.008364 -0.002533 -0.004562 0.000000 0.001022 0.000000
# 2 -0.002533 0.011516 0.005719 0.000000 -0.010219 0.000000
# 3 -0.004562 0.005719 0.023766 0.000000 -0.024403 0.000000
# 4 0.000000 0.000000 0.000000 0.019143 0.000000 -0.009882
# 5 0.001022 -0.010219 -0.024403 0.000000 0.058308 0.000000
# 6 0.000000 0.000000 0.000000 -0.009882 0.000000 0.049443
#
#
# Mechanical properties :
#
#
# Convention : Reuss Voigt Hill
#
# Bulk Modulus (GPa) = 24.45330 53.96257 39.20793
# Shear Modulus (GPa) = 26.74915 41.56013 34.15464
#
# Velocity S-wave (km/s) = 3.08395 3.84406 3.48479
# Velocity P-wave (km/s) = 4.62336 6.23610 5.48928
#
# Compressibility (1/GPa) = 0.04089427
#
# Stress axis : x y z
#
# Youngs Moduli (GPa) = 119.55966 86.83617 42.07776
#
# Poissons Ratio (x) = 0.21997 0.19194
# Poissons Ratio (y) = 0.30287 -0.24065
# Poissons Ratio (z) = 0.54538 -0.49663
#
# Static dielectric constant tensor:
#      x y z
#    x 2.421450 0.000000 -0.144770 
#    y 0.000000 2.419040 0.000000 
#    z -0.144770 0.000000 2.165180 
# 
# From -- ./inp_files/3723.got.cif
#   From: 2010.05.17/outbox.cif.g08.bks.cpg/sg4_2_cif.got.tgz:3723.got - 2010.06.03 18:43:04.
