data_PCOD9118303
_publ_section_title
;
Structure prediction by ZEFSAII (Michael W. Deem and Ramdas Pophale) SiO2 
 PCOD9118303
Probable space group: P 21
;
_chemical_formula_sum "Si O2"
_cell_formula_units_Z 16
_cell_length_a 9.214540
_cell_length_b 9.465613
_cell_length_c 9.174394
_cell_angle_alpha 90.000000
_cell_angle_beta 127.129533
_cell_angle_gamma 90.000000
_cell_volume 637.979603
_symmetry_space_group_name_H-M "P 21"
_symmetry_group_IT_number 4
_symmetry_cell_setting 'monoclinic'
loop_
_space_group_symop_operation_xyz
x,y,z
-x,1/2+y,-z
loop_
_atom_site_type_symbol
_atom_site_label
_atom_site_fract_x
_atom_site_fract_y
_atom_site_fract_z
Si Si1 0.217317 0.784370 0.922826
Si Si2 0.282444 0.419419 0.675914
Si Si3 0.757133 0.293883 0.729174
Si Si4 0.901592 0.002570 0.718130
Si Si5 0.675787 0.602078 0.323650
Si Si6 0.427206 0.364142 0.309761
Si Si7 0.461310 0.159767 0.071123
Si Si8 0.996993 0.504450 0.716412
O O1 0.375527 0.755894 0.900605
O O2 0.090914 0.920966 0.832485
O O3 0.085540 0.649505 0.821648
O O4 0.291328 0.783616 0.131523
O O5 0.172569 0.508634 0.490908
O O6 0.314676 0.266636 0.627418
O O7 0.454701 0.514130 0.819150
O O8 0.158749 0.410890 0.745974
O O9 0.582143 0.305358 0.515575
O O10 0.882464 0.429477 0.772501
O O11 0.882362 0.159529 0.767172
O O12 0.754997 0.910326 0.719865
O O13 0.513577 0.504856 0.287607
O O14 0.854413 0.532181 0.499827
O O15 0.657781 0.617607 0.139604
O O16 0.387631 0.249011 0.161293
#
# Coordination Sequence:
#
# PCOD9118303 Si02
#       8
#     2   2   2   2   2   2   2   2
#     4  11  25  45  74 106 142 181 236 296 361 425
#     4  11  25  44  72 103 143 188 234 294 360 419
#     4  11  25  45  72  98 146 184 235 295 353 423
#     4  12  26  44  71 102 144 189 233 295 357 420
#     4  11  24  44  74 100 143 186 235 300 342 423
#     4  11  27  46  71 105 141 189 240 290 360 423
#     4  11  25  49  74 109 138 186 243 293 356 433
#     4  10  25  45  72 109 141 187 236 293 359 430
#
# _framework density 25.079172
#
# number of rings (size 3 to 8) (size 9 to 14) (size 15 to 20)
#    0.000    1.000    2.500    2.250    8.750    3.000 
#    0.000    0.000    0.000    0.000    0.000    0.000 
#    0.000    0.000    0.000    0.000    0.000    0.000 
#
# Total GULP energy -89728.728127 kJ/mol
# GULP energy per Si atom -5608.045508 kJ/mol
# Density = 2.502209 g / cm^3
# Si number density = 25.079172 Si / 1000 Ang^3
#
#
#
# Elastic Constant Matrix: (Units=GPa)
#
#
# Indices 1 2 3 4 5 6 
#
# 1 107.5421 35.1498 7.4132 0.0000 0.0116 0.0000
# 2 35.1498 85.1971 9.0599 0.0000 18.5639 0.0000
# 3 7.4132 9.0599 109.8079 0.0000 -4.2333 0.0000
# 4 0.0000 0.0000 0.0000 43.9200 0.0000 -1.1813
# 5 0.0116 18.5639 -4.2333 0.0000 26.0363 0.0000
# 6 0.0000 0.0000 0.0000 -1.1813 0.0000 47.3859
#
#
#
# Elastic Compliance Matrix: (Units=1/GPa)
#
#
# Indices 1 2 3 4 5 6 
#
# 1 0.011067 -0.005378 -0.000157 0.000000 0.003804 0.000000
# 2 -0.005378 0.016773 -0.001491 0.000000 -0.012199 0.000000
# 3 -0.000157 -0.001491 0.009340 0.000000 0.002582 0.000000
# 4 0.000000 0.000000 0.000000 0.022784 0.000000 0.000568
# 5 0.003804 -0.012199 0.002582 0.000000 0.047524 0.000000
# 6 0.000000 0.000000 0.000000 0.000568 0.000000 0.021117
#
#
# Mechanical properties :
#
#
# Convention : Reuss Voigt Hill
#
# Bulk Modulus (GPa) = 43.23773 45.08810 44.16291
# Shear Modulus (GPa) = 33.25208 40.19673 36.72440
#
# Velocity S-wave (km/s) = 3.64522 4.00783 3.83082
# Velocity P-wave (km/s) = 5.91564 6.27967 6.10037
#
# Compressibility (1/GPa) = 0.02312795
#
# Stress axis : x y z
#
# Youngs Moduli (GPa) = 90.35959 59.61955 107.06684
#
# Poissons Ratio (x) = 0.32064 0.01678
# Poissons Ratio (y) = 0.48596 0.15965
# Poissons Ratio (z) = 0.01416 0.08890
#
# Static dielectric constant tensor:
#      x y z
#    x 1.967200 0.000000 0.031220 
#    y 0.000000 1.959400 0.000000 
#    z 0.031220 0.000000 1.961010 
# 
# From -- ./inp_files/5860.got.cif
#   From: 2010.05.17/outbox.cif.g08.bks.cpg/sg4_3_cif.got.tgz:5860.got - 2010.06.03 18:43:04.
