data_PCOD9118689
_publ_section_title
;
Structure prediction by ZEFSAII (Michael W. Deem and Ramdas Pophale) SiO2 
 PCOD9118689
Probable space group: P 21
;
_chemical_formula_sum "Si O2"
_cell_formula_units_Z 16
_cell_length_a 6.013765
_cell_length_b 13.357874
_cell_length_c 9.254337
_cell_angle_alpha 90.000000
_cell_angle_beta 57.696174
_cell_angle_gamma 90.000000
_cell_volume 628.350595
_symmetry_space_group_name_H-M "P 21"
_symmetry_group_IT_number 4
_symmetry_cell_setting 'monoclinic'
loop_
_space_group_symop_operation_xyz
x,y,z
-x,1/2+y,-z
loop_
_atom_site_type_symbol
_atom_site_label
_atom_site_fract_x
_atom_site_fract_y
_atom_site_fract_z
Si Si1 0.776770 0.501870 0.729649
Si Si2 0.093201 0.321754 0.723289
Si Si3 0.198885 0.970963 0.869240
Si Si4 0.792464 0.153879 0.374704
Si Si5 0.450454 0.965651 0.473656
Si Si6 0.135345 0.201099 0.999004
Si Si7 0.293185 0.680586 0.276620
Si Si8 0.667412 0.978325 0.905343
O O1 0.926696 0.423684 0.779534
O O2 0.755087 0.450806 0.582249
O O3 0.946329 0.599923 0.655156
O O4 0.503600 0.520806 0.902362
O O5 0.963500 0.246349 0.657325
O O6 0.372392 0.366936 0.584340
O O7 0.065554 0.265506 0.883621
O O8 0.135538 0.080974 0.961096
O O9 0.339588 0.987333 0.667537
O O10 0.444299 0.925185 0.880135
O O11 0.915039 0.930087 0.905928
O O12 0.649295 0.186366 0.572194
O O13 0.611910 0.065362 0.373772
O O14 0.922641 0.217681 0.200510
O O15 0.451960 0.221057 0.901925
O O16 0.242473 0.569968 0.229294
#
# Coordination Sequence:
#
# PCOD9118689 Si02
#       8
#     2   2   2   2   2   2   2   2
#     4  11  24  42  71 104 144 191 239 301 363 436
#     4  11  26  44  66 103 152 182 236 305 378 414
#     4  11  22  43  75 106 140 189 249 295 352 433
#     4  11  22  42  78 103 132 186 256 287 360 434
#     4  11  24  42  71 104 144 191 239 301 363 436
#     4  11  22  43  71 106 137 188 240 305 357 428
#     4  11  22  43  71 106 137 188 240 305 357 428
#     4  11  22  43  75 106 140 189 249 295 352 433
#
# _framework density 25.463488999999999
#
# number of rings (size 3 to 8) (size 9 to 14) (size 15 to 20)
#    0.000    1.000    6.250    2.250    3.500    0.000 
#    0.000    5.000    0.000    0.000    0.000    0.000 
#    0.000    0.000    0.000    0.000    0.000    0.000 
#
# Total GULP energy -89289.415534 kJ/mol
# GULP energy per Si atom -5580.588471 kJ/mol
# Density = 2.540553 g / cm^3
# Si number density = 25.463489 Si / 1000 Ang^3
#
#
#
# Elastic Constant Matrix: (Units=GPa)
#
#
# Indices 1 2 3 4 5 6 
#
# 1 128.3908 14.2131 -5.4851 0.0000 9.1365 0.0000
# 2 14.2131 57.3367 2.0688 0.0000 3.3789 0.0000
# 3 -5.4851 2.0688 92.1457 0.0000 1.2860 0.0000
# 4 0.0000 0.0000 0.0000 15.0228 0.0000 12.3016
# 5 9.1365 3.3789 1.2860 0.0000 36.1454 0.0000
# 6 0.0000 0.0000 0.0000 12.3016 0.0000 29.1714
#
#
#
# Elastic Compliance Matrix: (Units=1/GPa)
#
#
# Indices 1 2 3 4 5 6 
#
# 1 0.008162 -0.001931 0.000556 0.000000 -0.001902 0.000000
# 2 -0.001931 0.018007 -0.000503 0.000000 -0.001177 0.000000
# 3 0.000556 -0.000503 0.010903 0.000000 -0.000481 0.000000
# 4 0.000000 0.000000 0.000000 0.101675 0.000000 -0.042876
# 5 -0.001902 -0.001177 -0.000481 0.000000 0.028274 0.000000
# 6 0.000000 0.000000 0.000000 -0.042876 0.000000 0.052361
#
#
# Mechanical properties :
#
#
# Convention : Reuss Voigt Hill
#
# Bulk Modulus (GPa) = 30.01582 33.27409 31.64495
# Shear Modulus (GPa) = 21.34524 33.87300 27.60912
#
# Velocity S-wave (km/s) = 2.89843 3.65123 3.29639
# Velocity P-wave (km/s) = 4.79735 5.55617 5.19064
#
# Compressibility (1/GPa) = 0.03331576
#
# Stress axis : x y z
#
# Youngs Moduli (GPa) = 122.52479 55.53376 91.71392
#
# Poissons Ratio (x) = 0.10724 -0.05097
# Poissons Ratio (y) = 0.23661 0.04611
# Poissons Ratio (z) = -0.06809 0.02792
#
# Static dielectric constant tensor:
#      x y z
#    x 2.084920 0.000000 -0.027620 
#    y 0.000000 2.008180 0.000000 
#    z -0.027620 0.000000 2.043030 
# 
# From -- ./inp_files/4790.got.cif
#   From: 2010.05.17/outbox.cif.g08.bks.cpg/sg4_3_cif.got.tgz:4790.got - 2010.06.03 18:43:04.
