data_PCOD9118880
_publ_section_title
;
Structure prediction by ZEFSAII (Michael W. Deem and Ramdas Pophale) SiO2 
 PCOD9118880
Probable space group: P 21
;
_chemical_formula_sum "Si O2"
_cell_formula_units_Z 14
_cell_length_a 16.658477
_cell_length_b 5.919534
_cell_length_c 9.924212
_cell_angle_alpha 90.000000
_cell_angle_beta 36.011836
_cell_angle_gamma 90.000000
_cell_volume 575.388247
_symmetry_space_group_name_H-M "P 21"
_symmetry_group_IT_number 4
_symmetry_cell_setting 'monoclinic'
loop_
_space_group_symop_operation_xyz
x,y,z
-x,1/2+y,-z
loop_
_atom_site_type_symbol
_atom_site_label
_atom_site_fract_x
_atom_site_fract_y
_atom_site_fract_z
Si Si1 0.827676 0.459930 0.160825
Si Si2 0.267793 0.136150 0.970058
Si Si3 0.458531 0.862981 0.386405
Si Si4 0.400294 0.748633 0.944764
Si Si5 0.886476 0.786750 0.310582
Si Si6 0.065189 0.301151 0.441230
Si Si7 0.640843 0.077615 0.711094
O O1 0.824646 0.625884 0.036442
O O2 0.681835 0.339053 0.343068
O O3 0.821935 0.588044 0.310109
O O4 0.966574 0.325129 0.956617
O O5 0.421177 0.205379 0.723966
O O6 0.287161 0.905165 0.027738
O O7 0.199929 0.308867 0.165544
O O8 0.418687 0.788766 0.288790
O O9 0.527503 0.103534 0.269519
O O10 0.524649 0.892144 0.841084
O O11 0.340637 0.624193 0.156955
O O12 0.906483 0.744382 0.441257
O O13 0.781573 0.996321 0.451332
O O14 0.003865 0.559272 0.516269
#
# Coordination Sequence:
#
# PCOD9118880 Si02
#       7
#     2   2   2   2   2   2   2
#     4  12  28  50  71 114 152 212 259 332 410 490
#     4  11  29  47  76 111 153 208 264 334 400 480
#     4  11  25  44  74 104 157 196 262 329 400 481
#     4  11  23  44  73 111 149 198 264 326 403 464
#     4  12  28  48  80 111 160 208 271 333 408 495
#     4  12  30  56  83 120 162 215 275 335 408 486
#     4  11  23  43  73 115 145 205 259 333 395 478
#
# _framework density 24.331395000000001
#
# number of rings (size 3 to 8) (size 9 to 14) (size 15 to 20)
#    0.000    0.571    4.286    1.714   12.000    0.000 
#    0.000    0.000    0.000    0.000    0.000    0.000 
#    0.000    0.000    0.000    0.000    0.000    0.000 
#
# Total GULP energy -78262.398028 kJ/mol
# GULP energy per Si atom -5590.171288 kJ/mol
# Density = 2.427602 g / cm^3
# Si number density = 24.331395 Si / 1000 Ang^3
#
#
#
# Elastic Constant Matrix: (Units=GPa)
#
#
# Indices 1 2 3 4 5 6 
#
# 1 90.4388 14.3543 -22.0583 0.0000 8.1474 0.0000
# 2 14.3543 50.3351 1.8563 0.0000 -10.4674 0.0000
# 3 -22.0583 1.8563 88.3881 0.0000 -23.7493 0.0000
# 4 0.0000 0.0000 0.0000 41.5393 0.0000 -12.4561
# 5 8.1474 -10.4674 -23.7493 0.0000 43.8530 0.0000
# 6 0.0000 0.0000 0.0000 -12.4561 0.0000 30.1375
#
#
#
# Elastic Compliance Matrix: (Units=1/GPa)
#
#
# Indices 1 2 3 4 5 6 
#
# 1 0.012528 -0.004052 0.002723 0.000000 -0.001820 0.000000
# 2 -0.004052 0.022299 0.000179 0.000000 0.006172 0.000000
# 3 0.002723 0.000179 0.013886 0.000000 0.007057 0.000000
# 4 0.000000 0.000000 0.000000 0.027479 0.000000 0.011357
# 5 -0.001820 0.006172 0.007057 0.000000 0.028437 0.000000
# 6 0.000000 0.000000 0.000000 0.011357 0.000000 0.037875
#
#
# Mechanical properties :
#
#
# Convention : Reuss Voigt Hill
#
# Bulk Modulus (GPa) = 21.54571 24.16295 22.85433
# Shear Modulus (GPa) = 31.19625 38.77326 34.98476
#
# Velocity S-wave (km/s) = 3.58458 3.99626 3.79601
# Velocity P-wave (km/s) = 5.09967 5.58979 5.35035
#
# Compressibility (1/GPa) = 0.04641295
#
# Stress axis : x y z
#
# Youngs Moduli (GPa) = 79.81920 44.84456 72.01727
#
# Poissons Ratio (x) = 0.18170 -0.19607
# Poissons Ratio (y) = 0.32340 -0.01289
# Poissons Ratio (z) = -0.21731 -0.00803
#
# Static dielectric constant tensor:
#      x y z
#    x 1.899190 0.000000 -0.016720 
#    y 0.000000 1.984270 0.000000 
#    z -0.016720 0.000000 1.935090 
# 
# From -- ./inp_files/7076.got.cif
#   From: 2010.05.17/outbox.cif.g08.bks.cpg/sg4_4_cif.got.tgz:7076.got - 2010.06.03 18:43:04.
