data_PCOD9118169
_publ_section_title
;
Structure prediction by ZEFSAII (Michael W. Deem and Ramdas Pophale) SiO2 
 PCOD9118169
Probable space group: P 21
;
_chemical_formula_sum "Si O2"
_cell_formula_units_Z 16
_cell_length_a 15.003857
_cell_length_b 6.058909
_cell_length_c 14.953033
_cell_angle_alpha 90.000000
_cell_angle_beta 149.544292
_cell_angle_gamma 90.000000
_cell_volume 689.009256
_symmetry_space_group_name_H-M "P 21"
_symmetry_group_IT_number 4
_symmetry_cell_setting 'monoclinic'
loop_
_space_group_symop_operation_xyz
x,y,z
-x,1/2+y,-z
loop_
_atom_site_type_symbol
_atom_site_label
_atom_site_fract_x
_atom_site_fract_y
_atom_site_fract_z
Si Si1 0.503671 0.284690 0.956373
Si Si2 0.361818 0.702185 0.606168
Si Si3 0.436514 0.840282 0.310667
Si Si4 0.102338 0.727375 0.724484
Si Si5 0.277186 0.429480 0.135029
Si Si6 0.183810 0.510021 0.606242
Si Si7 0.724887 0.689690 0.696528
Si Si8 0.048234 0.944511 0.244489
O O1 0.324031 0.314347 0.745280
O O2 0.504273 0.532172 0.007615
O O3 0.696237 0.285791 0.077976
O O4 0.423860 0.458237 0.632655
O O5 0.536363 0.839714 0.737907
O O6 0.291784 0.697386 0.646203
O O7 0.208676 0.787495 0.409376
O O8 0.301162 0.688645 0.141556
O O9 0.557862 0.714280 0.487385
O O10 0.326333 0.011633 0.273248
O O11 0.113515 0.598034 0.639429
O O12 0.975858 0.933367 0.594442
O O13 0.014528 0.575976 0.723035
O O14 0.245833 0.398358 0.214086
O O15 0.119979 0.325964 0.943342
O O16 0.882794 0.611372 0.771863
#
# Coordination Sequence:
#
# PCOD9118169 Si02
#       8
#     2   2   2   2   2   2   2   2
#     4  10  24  46  75 110 147 200 257 320 381 453
#     4  11  26  45  69 105 140 197 242 305 374 452
#     4  11  21  45  72  98 140 183 239 298 374 455
#     4  11  25  45  72 111 146 191 252 307 369 459
#     4  11  27  45  72 102 144 185 243 309 379 457
#     4  11  24  45  76 103 148 198 243 306 382 440
#     4  11  22  43  70 102 134 186 235 297 377 453
#     4  12  27  44  70 107 149 188 249 314 372 461
#
# _framework density 23.22175
#
# number of rings (size 3 to 8) (size 9 to 14) (size 15 to 20)
#    0.000    1.000    2.500    3.000    3.500    7.000 
#    4.500    0.000    0.000    0.000    0.000    0.000 
#    0.000    0.000    0.000    0.000    0.000    0.000 
#
# Total GULP energy -89360.650222 kJ/mol
# GULP energy per Si atom -5585.040639 kJ/mol
# Density = 2.316890 g / cm^3
# Si number density = 23.221750 Si / 1000 Ang^3
#
#
#
# Elastic Constant Matrix: (Units=GPa)
#
#
# Indices 1 2 3 4 5 6 
#
# 1 130.9035 20.6425 19.2012 0.0000 7.1144 0.0000
# 2 20.6425 58.2972 4.3158 0.0000 5.8899 0.0000
# 3 19.2012 4.3158 88.0563 0.0000 21.4505 0.0000
# 4 0.0000 0.0000 0.0000 15.1763 0.0000 -4.5126
# 5 7.1144 5.8899 21.4505 0.0000 27.0611 0.0000
# 6 0.0000 0.0000 0.0000 -4.5126 0.0000 25.2970
#
#
#
# Elastic Compliance Matrix: (Units=1/GPa)
#
#
# Indices 1 2 3 4 5 6 
#
# 1 0.008333 -0.002801 -0.001604 0.000000 -0.000309 0.000000
# 2 -0.002801 0.018481 0.000626 0.000000 -0.003783 0.000000
# 3 -0.001604 0.000626 0.014383 0.000000 -0.011116 0.000000
# 4 0.000000 0.000000 0.000000 0.069583 0.000000 0.012412
# 5 -0.000309 -0.003783 -0.011116 0.000000 0.046669 0.000000
# 6 0.000000 0.000000 0.000000 0.012412 0.000000 0.041745
#
#
# Mechanical properties :
#
#
# Convention : Reuss Voigt Hill
#
# Bulk Modulus (GPa) = 29.72657 40.61954 35.17305
# Shear Modulus (GPa) = 22.93952 29.04672 25.99312
#
# Velocity S-wave (km/s) = 3.14641 3.54056 3.34929
# Velocity P-wave (km/s) = 5.10185 5.85184 5.48967
#
# Compressibility (1/GPa) = 0.03363994
#
# Stress axis : x y z
#
# Youngs Moduli (GPa) = 120.00472 54.10980 69.52501
#
# Poissons Ratio (x) = 0.15154 0.11155
# Poissons Ratio (y) = 0.33609 -0.04355
# Poissons Ratio (z) = 0.19254 -0.03389
#
# Static dielectric constant tensor:
#      x y z
#    x 1.847570 0.000000 -0.037430 
#    y 0.000000 1.968370 0.000000 
#    z -0.037430 0.000000 1.913470 
# 
# From -- ./inp_files/14061.got.cif
#   From: 2010.05.17/outbox.cif.g08.bks.cpg/sg4_8_cif.got.tgz:14061.got - 2010.06.03 18:43:04.
