data_PCOD9118663
_publ_section_title
;
Structure prediction by ZEFSAII (Michael W. Deem and Ramdas Pophale) SiO2 
 PCOD9118663
Probable space group: P 21
;
_chemical_formula_sum "Si O2"
_cell_formula_units_Z 16
_cell_length_a 12.623610
_cell_length_b 9.457405
_cell_length_c 5.892613
_cell_angle_alpha 90.000000
_cell_angle_beta 108.064981
_cell_angle_gamma 90.000000
_cell_volume 668.820312
_symmetry_space_group_name_H-M "P 21"
_symmetry_group_IT_number 4
_symmetry_cell_setting 'monoclinic'
loop_
_space_group_symop_operation_xyz
x,y,z
-x,1/2+y,-z
loop_
_atom_site_type_symbol
_atom_site_label
_atom_site_fract_x
_atom_site_fract_y
_atom_site_fract_z
Si Si1 0.704238 0.081490 0.438724
Si Si2 0.306244 0.166813 0.879474
Si Si3 0.599687 0.874458 0.697566
Si Si4 0.553878 0.145230 0.953331
Si Si5 0.839952 0.507791 0.919118
Si Si6 0.352510 0.842386 0.336174
Si Si7 0.039433 0.310325 0.076822
Si Si8 0.133011 0.395547 0.638079
O O1 0.717745 0.211269 0.613804
O O2 0.676551 0.939361 0.555147
O O3 0.808598 0.048602 0.349052
O O4 0.592286 0.124648 0.233656
O O5 0.421995 0.143468 0.831236
O O6 0.228839 0.278768 0.709646
O O7 0.348018 0.240284 0.143730
O O8 0.223726 0.040287 0.886685
O O9 0.472832 0.860784 0.531277
O O10 0.599562 0.003181 0.873611
O O11 0.609003 0.286405 0.887563
O O12 0.731039 0.473164 0.695041
O O13 0.915339 0.646637 0.908297
O O14 0.912662 0.366070 0.981606
O O15 0.072612 0.367973 0.353526
O O16 0.082119 0.376949 0.859956
#
# Coordination Sequence:
#
# PCOD9118663 Si02
#       8
#     2   2   2   2   2   2   2   2
#     4  11  22  41  69 102 150 198 245 316 390 465
#     4  11  23  44  74 111 150 202 251 312 394 471
#     4  11  23  41  66 107 153 193 247 303 385 486
#     4  11  24  40  67 111 149 195 248 308 378 492
#     4  11  28  51  77 110 152 209 265 332 393 453
#     4  11  26  41  70 108 155 200 252 312 394 472
#     4  11  29  54  78 111 147 202 278 335 384 455
#     4  11  25  48  79 104 148 201 264 332 390 446
#
# _framework density 23.922718
#
# number of rings (size 3 to 8) (size 9 to 14) (size 15 to 20)
#    0.000    1.000    2.500    3.000    8.750    2.000 
#    4.500    0.000    0.000    0.000    0.000    0.000 
#    0.000    0.000    0.000    0.000    0.000    0.000 
#
# Total GULP energy -89147.446506 kJ/mol
# GULP energy per Si atom -5571.715407 kJ/mol
# Density = 2.386827 g / cm^3
# Si number density = 23.922718 Si / 1000 Ang^3
#
#
#
# Elastic Constant Matrix: (Units=GPa)
#
#
# Indices 1 2 3 4 5 6 
#
# 1 104.8355 51.7088 36.3566 0.0000 4.5755 0.0000
# 2 51.7088 66.2461 7.1673 0.0000 -10.4739 0.0000
# 3 36.3566 7.1673 90.7765 0.0000 -1.1007 0.0000
# 4 0.0000 0.0000 0.0000 11.0759 0.0000 8.5794
# 5 4.5755 -10.4739 -1.1007 0.0000 32.0900 0.0000
# 6 0.0000 0.0000 0.0000 8.5794 0.0000 44.4731
#
#
#
# Elastic Compliance Matrix: (Units=1/GPa)
#
#
# Indices 1 2 3 4 5 6 
#
# 1 0.020565 -0.016653 -0.007026 0.000000 -0.008609 0.000000
# 2 -0.016653 0.029532 0.004485 0.000000 0.012167 0.000000
# 3 -0.007026 0.004485 0.013511 0.000000 0.002929 0.000000
# 4 0.000000 0.000000 0.000000 0.106148 0.000000 -0.020477
# 5 -0.008609 0.012167 0.002929 0.000000 0.036461 0.000000
# 6 0.000000 0.000000 0.000000 -0.020477 0.000000 0.026436
#
#
# Mechanical properties :
#
#
# Convention : Reuss Voigt Hill
#
# Bulk Modulus (GPa) = 39.64859 50.25817 44.95338
# Shear Modulus (GPa) = 17.89243 28.63617 23.26430
#
# Velocity S-wave (km/s) = 2.73779 3.46356 3.12184
# Velocity P-wave (km/s) = 5.15787 6.08680 5.64149
#
# Compressibility (1/GPa) = 0.02522158
#
# Stress axis : x y z
#
# Youngs Moduli (GPa) = 48.62654 33.86130 74.01176
#
# Poissons Ratio (x) = 0.56389 0.52000
# Poissons Ratio (y) = 0.80978 -0.33197
# Poissons Ratio (z) = 0.34165 -0.15188
#
# Static dielectric constant tensor:
#      x y z
#    x 1.945290 0.000000 -0.060740 
#    y 0.000000 1.951240 0.000000 
#    z -0.060740 0.000000 2.048300 
# 
# From -- ./inp_files/2674.got.cif
#   From: 2010.05.17/outbox.cif.g08.bks.cpg/sg4_2_cif.got.tgz:2674.got - 2010.06.03 18:43:04.
