data_PCOD9118467
_publ_section_title
;
Structure prediction by ZEFSAII (Michael W. Deem and Ramdas Pophale) SiO2 
 PCOD9118467
Probable space group: P 21
;
_chemical_formula_sum "Si O2"
_cell_formula_units_Z 16
_cell_length_a 26.322582
_cell_length_b 4.972279
_cell_length_c 9.748329
_cell_angle_alpha 90.000000
_cell_angle_beta 40.121855
_cell_angle_gamma 90.000000
_cell_volume 822.204852
_symmetry_space_group_name_H-M "P 21"
_symmetry_group_IT_number 4
_symmetry_cell_setting 'monoclinic'
loop_
_space_group_symop_operation_xyz
x,y,z
-x,1/2+y,-z
loop_
_atom_site_type_symbol
_atom_site_label
_atom_site_fract_x
_atom_site_fract_y
_atom_site_fract_z
Si Si1 0.082534 0.972980 0.439560
Si Si2 0.089170 0.479338 0.229826
Si Si3 0.451060 0.208047 0.573108
Si Si4 0.342500 0.215896 0.552894
Si Si5 0.251979 0.731386 0.840774
Si Si6 0.754049 0.337557 0.819571
Si Si7 0.341092 0.339719 0.042733
Si Si8 0.446305 0.360222 0.086164
O O1 0.079156 0.679701 0.378668
O O2 0.158056 0.954136 0.380869
O O3 0.993853 0.011891 0.677780
O O4 0.098959 0.188667 0.282620
O O5 0.166506 0.593052 0.996572
O O6 0.515720 0.441106 0.423220
O O7 0.412724 0.123691 0.509148
O O8 0.385710 0.341954 0.805419
O O9 0.312739 0.499087 0.674147
O O10 0.378999 0.258730 0.329167
O O11 0.273944 0.994600 0.708456
O O12 0.256946 0.817800 0.991356
O O13 0.693160 0.541237 0.877020
O O14 0.731832 0.045111 0.810548
O O15 0.404181 0.406699 0.028415
O O16 0.487352 0.629416 0.057299
#
# Coordination Sequence:
#
# PCOD9118467 Si02
#       8
#     2   2   2   2   2   2   2   2
#     4   9  17  29  49  81 122 158 182 218 281 341
#     4   9  17  29  49  81 122 158 182 218 281 341
#     4  12  22  36  54  80 104 136 184 232 290 342
#     4  12  23  38  59  83 110 151 188 238 291 333
#     4  11  19  35  56  87 118 146 185 237 282 336
#     4  11  19  35  56  87 118 146 185 237 282 336
#     4  12  23  38  59  83 110 151 188 238 291 333
#     4  12  26  46  60  78 112 152 198 244 286 348
#
# _framework density 19.459869999999999
#
# number of rings (size 3 to 8) (size 9 to 14) (size 15 to 20)
#    0.000    1.000    2.500    7.500    0.000    0.000 
#    0.000    0.000    0.000    0.000    0.000    3.500 
#    0.000    2.000    0.000    0.000    0.000    0.000 
#
# Total GULP energy -89303.717793 kJ/mol
# GULP energy per Si atom -5581.482362 kJ/mol
# Density = 1.941558 g / cm^3
# Si number density = 19.459870 Si / 1000 Ang^3
#
#
#
# Elastic Constant Matrix: (Units=GPa)
#
#
# Indices 1 2 3 4 5 6 
#
# 1 44.0198 7.7165 6.3363 0.0000 -10.0290 0.0000
# 2 7.7165 83.4159 5.1554 0.0000 -7.6954 0.0000
# 3 6.3363 5.1554 31.7055 0.0000 -4.8828 0.0000
# 4 0.0000 0.0000 0.0000 25.6548 0.0000 -11.3933
# 5 -10.0290 -7.6954 -4.8828 0.0000 23.5878 0.0000
# 6 0.0000 0.0000 0.0000 -11.3933 0.0000 26.3526
#
#
#
# Elastic Compliance Matrix: (Units=1/GPa)
#
#
# Indices 1 2 3 4 5 6 
#
# 1 0.025660 -0.001259 -0.003415 0.000000 0.009792 0.000000
# 2 -0.001259 0.012485 -0.001274 0.000000 0.003274 0.000000
# 3 -0.003415 -0.001274 0.033201 0.000000 0.005005 0.000000
# 4 0.000000 0.000000 0.000000 0.048241 0.000000 0.020857
# 5 0.009792 0.003274 0.005005 0.000000 0.048663 0.000000
# 6 0.000000 0.000000 0.000000 0.020857 0.000000 0.046964
#
#
# Mechanical properties :
#
#
# Convention : Reuss Voigt Hill
#
# Bulk Modulus (GPa) = 16.82121 21.95087 19.38604
# Shear Modulus (GPa) = 20.24875 24.44790 22.34832
#
# Velocity S-wave (km/s) = 3.22924 3.54831 3.39253
# Velocity P-wave (km/s) = 4.75045 5.30018 5.03283
#
# Compressibility (1/GPa) = 0.05944876
#
# Stress axis : x y z
#
# Youngs Moduli (GPa) = 38.97051 80.09343 30.11977
#
# Poissons Ratio (x) = 0.10086 0.10287
# Poissons Ratio (y) = 0.04908 0.03838
# Poissons Ratio (z) = 0.13310 0.10206
#
# Static dielectric constant tensor:
#      x y z
#    x 1.699280 0.000000 -0.071510 
#    y 0.000000 1.693100 0.000000 
#    z -0.071510 0.000000 1.728480 
# 
# From -- ./inp_files/10006.got.cif
#   From: 2010.05.17/outbox.cif.g08.bks.cpg/sg4_6_cif.got.tgz:10006.got - 2010.06.03 18:43:04.
