data_PCOD9118544
_publ_section_title
;
Structure prediction by ZEFSAII (Michael W. Deem and Ramdas Pophale) SiO2 
 PCOD9118544
Probable space group: P 21
;
_chemical_formula_sum "Si O2"
_cell_formula_units_Z 16
_cell_length_a 11.592305
_cell_length_b 5.550219
_cell_length_c 11.907566
_cell_angle_alpha 90.000000
_cell_angle_beta 107.385246
_cell_angle_gamma 90.000000
_cell_volume 731.131868
_symmetry_space_group_name_H-M "P 21"
_symmetry_group_IT_number 4
_symmetry_cell_setting 'monoclinic'
loop_
_space_group_symop_operation_xyz
x,y,z
-x,1/2+y,-z
loop_
_atom_site_type_symbol
_atom_site_label
_atom_site_fract_x
_atom_site_fract_y
_atom_site_fract_z
Si Si1 0.458593 0.945750 0.625028
Si Si2 0.817695 0.019102 0.109987
Si Si3 0.596478 0.276313 0.161715
Si Si4 0.129447 0.645967 0.121079
Si Si5 0.345981 0.122800 0.992810
Si Si6 0.682191 0.667264 0.609533
Si Si7 0.623122 0.298075 0.786700
Si Si8 0.062809 0.158272 0.218540
O O1 0.418177 0.757789 0.709359
O O2 0.576976 0.871212 0.586298
O O3 0.352923 0.013772 0.509909
O O4 0.502096 0.171107 0.713100
O O5 0.693440 0.095062 0.135073
O O6 0.929946 0.079917 0.223947
O O7 0.864811 0.152093 0.011414
O O8 0.780111 0.763404 0.042939
O O9 0.463120 0.269906 0.066978
O O10 0.645402 0.529490 0.130856
O O11 0.269634 0.605564 0.196206
O O12 0.061693 0.414023 0.151250
O O13 0.094285 0.910887 0.157437
O O14 0.361558 0.900342 0.083870
O O15 0.651329 0.513858 0.711467
O O16 0.826172 0.703109 0.662130
#
# Coordination Sequence:
#
# PCOD9118544 Si02
#       8
#     2   2   2   2   2   2   2   2
#     4  12  23  41  68 101 132 180 231 299 354 405
#     4  12  25  41  63  95 143 184 223 281 353 429
#     4  12  25  38  66  97 138 179 226 281 353 424
#     4  11  22  41  65 103 135 185 225 289 345 425
#     4  12  23  41  63 102 138 182 223 284 353 434
#     4  11  23  42  69  97 133 175 236 297 347 406
#     4  11  21  38  68  99 137 172 227 292 354 415
#     4  11  26  42  70  98 140 183 239 283 353 422
#
# _framework density 21.883875
#
# number of rings (size 3 to 8) (size 9 to 14) (size 15 to 20)
#    0.000    0.500    6.250    3.750    1.750    0.000 
#    0.000    0.000    2.750    0.000    0.000    0.000 
#    0.000    0.000    0.000    0.000    0.000    0.000 
#
# Total GULP energy -89127.886881 kJ/mol
# GULP energy per Si atom -5570.492930 kJ/mol
# Density = 2.183407 g / cm^3
# Si number density = 21.883875 Si / 1000 Ang^3
#
#
#
# Elastic Constant Matrix: (Units=GPa)
#
#
# Indices 1 2 3 4 5 6 
#
# 1 85.9555 27.3197 37.8931 0.0000 24.0699 0.0000
# 2 27.3197 77.4827 9.2440 0.0000 5.1784 0.0000
# 3 37.8931 9.2440 76.9966 0.0000 12.9130 0.0000
# 4 0.0000 0.0000 0.0000 17.4978 0.0000 0.6308
# 5 24.0699 5.1784 12.9130 0.0000 33.2264 0.0000
# 6 0.0000 0.0000 0.0000 0.6308 0.0000 36.9864
#
#
#
# Elastic Compliance Matrix: (Units=1/GPa)
#
#
# Indices 1 2 3 4 5 6 
#
# 1 0.019394 -0.005286 -0.007159 0.000000 -0.010444 0.000000
# 2 -0.005286 0.014608 0.000628 0.000000 0.001309 0.000000
# 3 -0.007159 0.000628 0.016668 0.000000 -0.001390 0.000000
# 4 0.000000 0.000000 0.000000 0.057185 0.000000 -0.000975
# 5 -0.010444 0.001309 -0.001390 0.000000 0.037998 0.000000
# 6 0.000000 0.000000 0.000000 -0.000975 0.000000 0.027054
#
#
# Mechanical properties :
#
#
# Convention : Reuss Voigt Hill
#
# Bulk Modulus (GPa) = 36.98596 43.26093 40.12345
# Shear Modulus (GPa) = 24.32463 28.60734 26.46598
#
# Velocity S-wave (km/s) = 3.33758 3.61949 3.48139
# Velocity P-wave (km/s) = 5.63829 6.10565 5.87662
#
# Compressibility (1/GPa) = 0.02703728
#
# Stress axis : x y z
#
# Youngs Moduli (GPa) = 51.56115 68.45773 59.99412
#
# Poissons Ratio (x) = 0.36189 0.42947
# Poissons Ratio (y) = 0.27257 -0.03770
# Poissons Ratio (z) = 0.36911 -0.04302
#
# Static dielectric constant tensor:
#      x y z
#    x 1.940890 0.000000 0.041420 
#    y 0.000000 1.964270 0.000000 
#    z 0.041420 0.000000 1.820270 
# 
# From -- ./inp_files/11648.got.cif
#   From: 2010.05.17/outbox.cif.g08.bks.cpg/sg4_6_cif.got.tgz:11648.got - 2010.06.03 18:43:04.
