data_PCOD9118877
_publ_section_title
;
Structure prediction by ZEFSAII (Michael W. Deem and Ramdas Pophale) SiO2 
 PCOD9118877
Probable space group: P 21
;
_chemical_formula_sum "Si O2"
_cell_formula_units_Z 16
_cell_length_a 11.825555
_cell_length_b 8.072179
_cell_length_c 7.853015
_cell_angle_alpha 90.000000
_cell_angle_beta 56.000922
_cell_angle_gamma 90.000000
_cell_volume 621.480735
_symmetry_space_group_name_H-M "P 21"
_symmetry_group_IT_number 4
_symmetry_cell_setting 'monoclinic'
loop_
_space_group_symop_operation_xyz
x,y,z
-x,1/2+y,-z
loop_
_atom_site_type_symbol
_atom_site_label
_atom_site_fract_x
_atom_site_fract_y
_atom_site_fract_z
Si Si1 0.353873 0.898450 0.450412
Si Si2 0.646455 0.012129 0.821844
Si Si3 0.378986 0.542608 0.614403
Si Si4 0.917743 0.549648 0.428481
Si Si5 0.884587 0.535252 0.868712
Si Si6 0.190818 0.399136 0.044258
Si Si7 0.624056 0.366807 0.976272
Si Si8 0.838662 0.913796 0.400310
O O1 0.371275 0.715000 0.517748
O O2 0.373170 0.913359 0.228483
O O3 0.471486 0.004490 0.442623
O O4 0.198131 0.959083 0.587548
O O5 0.614651 0.171568 0.960082
O O6 0.695158 0.865639 0.904887
O O7 0.781207 0.039462 0.593183
O O8 0.510211 0.956744 0.842724
O O9 0.305749 0.391863 0.572157
O O10 0.266352 0.528256 0.858843
O O11 0.908936 0.529623 0.641081
O O12 0.892343 0.743285 0.426617
O O13 0.060037 0.484647 0.237321
O O14 0.850856 0.714647 0.974294
O O15 0.751323 0.420076 0.985188
O O16 0.032683 0.482042 0.812368
#
# Coordination Sequence:
#
# PCOD9118877 Si02
#       8
#     2   2   2   2   2   2   2   2
#     4  11  25  47  70 101 147 194 232 290 361 427
#     4  12  23  43  70 107 140 185 243 294 350 417
#     4  12  27  47  70 102 150 193 235 290 364 437
#     4  11  23  43  73 105 141 186 244 294 349 419
#     4  11  23  43  72 106 143 186 237 298 355 412
#     4  12  25  44  72 107 148 186 239 293 357 433
#     4  11  25  42  73 108 142 181 243 301 350 416
#     4  12  25  43  72 102 145 193 233 292 362 425
#
# _framework density 25.744965000000001
#
# number of rings (size 3 to 8) (size 9 to 14) (size 15 to 20)
#    0.000    0.500    5.000    3.000    3.500    3.000 
#    0.000    3.750    0.000    0.000    0.000    0.000 
#    0.000    0.000    0.000    0.000    0.000    0.000 
#
# Total GULP energy -89320.877493 kJ/mol
# GULP energy per Si atom -5582.554843 kJ/mol
# Density = 2.568637 g / cm^3
# Si number density = 25.744965 Si / 1000 Ang^3
#
#
#
# Elastic Constant Matrix: (Units=GPa)
#
#
# Indices 1 2 3 4 5 6 
#
# 1 137.1896 20.4690 32.0087 0.0000 -26.3373 0.0000
# 2 20.4690 100.3577 25.3695 0.0000 -17.9469 0.0000
# 3 32.0087 25.3695 75.5834 0.0000 -38.3782 0.0000
# 4 0.0000 0.0000 0.0000 22.6480 0.0000 -9.0821
# 5 -26.3373 -17.9469 -38.3782 0.0000 37.6229 0.0000
# 6 0.0000 0.0000 0.0000 -9.0821 0.0000 51.5525
#
#
#
# Elastic Compliance Matrix: (Units=1/GPa)
#
#
# Indices 1 2 3 4 5 6 
#
# 1 0.008511 -0.000650 -0.001075 0.000000 0.004551 0.000000
# 2 -0.000650 0.011108 -0.002061 0.000000 0.002741 0.000000
# 3 -0.001075 -0.002061 0.027998 0.000000 0.026824 0.000000
# 4 0.000000 0.000000 0.000000 0.047510 0.000000 0.008370
# 5 0.004551 0.002741 0.026824 0.000000 0.058435 0.000000
# 6 0.000000 0.000000 0.000000 0.008370 0.000000 0.020872
#
#
# Mechanical properties :
#
#
# Convention : Reuss Voigt Hill
#
# Bulk Modulus (GPa) = 24.97322 52.09169 38.53245
# Shear Modulus (GPa) = 25.59436 38.05026 31.82231
#
# Velocity S-wave (km/s) = 3.15644 3.84861 3.51958
# Velocity P-wave (km/s) = 4.79639 6.32667 5.61392
#
# Compressibility (1/GPa) = 0.04004290
#
# Stress axis : x y z
#
# Youngs Moduli (GPa) = 117.49895 90.02330 35.71728
#
# Poissons Ratio (x) = 0.05854 0.03840
# Poissons Ratio (y) = 0.07640 0.07363
# Poissons Ratio (z) = 0.12634 0.18557
#
# Static dielectric constant tensor:
#      x y z
#    x 2.139470 0.000000 0.158980 
#    y 0.000000 1.952890 0.000000 
#    z 0.158980 0.000000 2.196260 
# 
# From -- ./inp_files/5601.got.cif
#   From: 2010.05.17/outbox.cif.g08.bks.cpg/sg4_3_cif.got.tgz:5601.got - 2010.06.03 18:43:04.
