data_PCOD9118118
_publ_section_title
;
Structure prediction by ZEFSAII (Michael W. Deem and Ramdas Pophale) SiO2 
 PCOD9118118
Probable space group: P 21
;
_chemical_formula_sum "Si O2"
_cell_formula_units_Z 14
_cell_length_a 12.419168
_cell_length_b 9.040303
_cell_length_c 4.973860
_cell_angle_alpha 90.000000
_cell_angle_beta 101.378586
_cell_angle_gamma 90.000000
_cell_volume 547.454431
_symmetry_space_group_name_H-M "P 21"
_symmetry_group_IT_number 4
_symmetry_cell_setting 'monoclinic'
loop_
_space_group_symop_operation_xyz
x,y,z
-x,1/2+y,-z
loop_
_atom_site_type_symbol
_atom_site_label
_atom_site_fract_x
_atom_site_fract_y
_atom_site_fract_z
Si Si1 0.254334 0.067040 0.794956
Si Si2 0.465712 0.985019 0.604967
Si Si3 0.896266 0.155698 0.904642
Si Si4 0.821622 0.886685 0.230525
Si Si5 0.962482 0.428210 0.324751
Si Si6 0.683491 0.300051 0.799826
Si Si7 0.608721 0.046452 0.169131
O O1 0.216777 0.226131 0.879654
O O2 0.150762 0.985853 0.599265
O O3 0.362741 0.079196 0.666969
O O4 0.282584 0.954649 0.047908
O O5 0.409632 0.839490 0.455969
O O6 0.528813 0.053462 0.383125
O O7 0.545769 0.959433 0.896806
O O8 0.936464 0.289105 0.116957
O O9 0.848678 0.011045 0.027102
O O10 0.789111 0.225183 0.712521
O O11 0.992708 0.079584 0.788042
O O12 0.715800 0.957621 0.322703
O O13 0.935267 0.876894 0.447507
O O14 0.644069 0.194140 0.023604
#
# Coordination Sequence:
#
# PCOD9118118 Si02
#       7
#     2   2   2   2   2   2   2
#     4  11  26  45  75 113 151 201 260 319 392 461
#     4  12  27  49  76 115 154 206 255 320 380 464
#     4  10  24  45  75 111 156 200 257 320 390 465
#     4  11  26  46  72 113 146 205 251 328 381 470
#     4  11  24  47  74 112 151 204 253 324 388 465
#     4  10  26  48  76 114 157 204 261 320 390 454
#     4  11  29  48  80 112 157 208 259 315 393 455
#
# _framework density 25.572904000000001
#
# number of rings (size 3 to 8) (size 9 to 14) (size 15 to 20)
#    0.000    1.143    1.429    1.714    8.000   10.286 
#    0.000    0.000    0.000    0.000    0.000    0.000 
#    0.000    0.000    0.000    0.000    0.000    0.000 
#
# Total GULP energy -78356.226041 kJ/mol
# GULP energy per Si atom -5596.873289 kJ/mol
# Density = 2.551470 g / cm^3
# Si number density = 25.572904 Si / 1000 Ang^3
#
#
#
# Elastic Constant Matrix: (Units=GPa)
#
#
# Indices 1 2 3 4 5 6 
#
# 1 121.7278 43.9335 29.1086 0.0000 2.9502 0.0000
# 2 43.9335 154.5442 34.7077 0.0000 9.2309 0.0000
# 3 29.1086 34.7077 73.9143 0.0000 6.3073 0.0000
# 4 0.0000 0.0000 0.0000 46.8999 0.0000 9.8551
# 5 2.9502 9.2309 6.3073 0.0000 39.3289 0.0000
# 6 0.0000 0.0000 0.0000 9.8551 0.0000 52.1987
#
#
#
# Elastic Compliance Matrix: (Units=1/GPa)
#
#
# Indices 1 2 3 4 5 6 
#
# 1 0.009651 -0.002123 -0.002823 0.000000 0.000227 0.000000
# 2 -0.002123 0.007754 -0.002700 0.000000 -0.001228 0.000000
# 3 -0.002823 -0.002700 0.016056 0.000000 -0.001729 0.000000
# 4 0.000000 0.000000 0.000000 0.022203 0.000000 -0.004192
# 5 0.000227 -0.001228 -0.001729 0.000000 0.025975 0.000000
# 6 0.000000 0.000000 0.000000 -0.004192 0.000000 0.019949
#
#
# Mechanical properties :
#
#
# Convention : Reuss Voigt Hill
#
# Bulk Modulus (GPa) = 55.04005 62.85400 58.94703
# Shear Modulus (GPa) = 40.67125 43.84794 42.25959
#
# Velocity S-wave (km/s) = 3.99231 4.14530 4.06952
# Velocity P-wave (km/s) = 6.54377 6.89514 6.72175
#
# Compressibility (1/GPa) = 0.01816859
#
# Stress axis : x y z
#
# Youngs Moduli (GPa) = 103.61745 128.96718 62.28033
#
# Poissons Ratio (x) = 0.27381 0.17582
# Poissons Ratio (y) = 0.21999 0.16816
# Poissons Ratio (z) = 0.29252 0.34823
#
# Static dielectric constant tensor:
#      x y z
#    x 2.095920 0.000000 -0.011450 
#    y 0.000000 1.995430 0.000000 
#    z -0.011450 0.000000 2.052570 
# 
# From -- ./inp_files/2658.got.cif
#   From: 2010.05.17/outbox.cif.g08.bks.cpg/sg4_2_cif.got.tgz:2658.got - 2010.06.03 18:43:04.
