data_PCOD9118092
_publ_section_title
;
Structure prediction by ZEFSAII (Michael W. Deem and Ramdas Pophale) SiO2 
 PCOD9118092
Probable space group: P 21
;
_chemical_formula_sum "Si O2"
_cell_formula_units_Z 14
_cell_length_a 11.890794
_cell_length_b 7.736941
_cell_length_c 10.669310
_cell_angle_alpha 90.000000
_cell_angle_beta 37.294807
_cell_angle_gamma 90.000000
_cell_volume 594.742686
_symmetry_space_group_name_H-M "P 21"
_symmetry_group_IT_number 4
_symmetry_cell_setting 'monoclinic'
loop_
_space_group_symop_operation_xyz
x,y,z
-x,1/2+y,-z
loop_
_atom_site_type_symbol
_atom_site_label
_atom_site_fract_x
_atom_site_fract_y
_atom_site_fract_z
Si Si1 0.786614 0.635850 0.258192
Si Si2 0.881286 0.547631 0.459664
Si Si3 0.584396 0.179044 0.286170
Si Si4 0.393193 0.533725 0.366995
Si Si5 0.235077 0.375774 0.271186
Si Si6 0.493733 0.370530 0.817120
Si Si7 0.886208 0.029307 0.175624
O O1 0.879609 0.587086 0.311631
O O2 0.571645 0.601568 0.480321
O O3 0.815395 0.838194 0.206669
O O4 0.898946 0.544528 0.047731
O O5 0.838905 0.723170 0.573568
O O6 0.708826 0.421247 0.641991
O O7 0.067641 0.463001 0.344740
O O8 0.502687 0.362287 0.314502
O O9 0.592855 0.044981 0.164050
O O10 0.777179 0.168321 0.187115
O O11 0.339290 0.507132 0.270748
O O12 0.509644 0.708798 0.273841
O O13 0.197331 0.555904 0.612819
O O14 0.385129 0.316408 0.036839
#
# Coordination Sequence:
#
# PCOD9118092 Si02
#       7
#     2   2   2   2   2   2   2
#     4  10  24  45  69 102 140 181 234 293 346 419
#     4  11  24  47  70 103 146 179 237 291 342 423
#     4  10  24  48  65 104 144 177 236 292 341 416
#     4  11  25  44  72 105 138 180 237 290 344 421
#     4  12  23  48  69 104 143 185 228 290 354 409
#     4  11  24  45  73 100 138 185 233 286 350 418
#     4  11  24  45  70  98 141 183 229 294 353 402
#
# _framework density 23.539593
#
# number of rings (size 3 to 8) (size 9 to 14) (size 15 to 20)
#    0.000    1.143    4.286    2.571    8.000    0.000 
#   10.286    1.429    0.000    0.000    0.000    0.000 
#    0.000    0.000    0.000    0.000    0.000    0.000 
#
# Total GULP energy -78341.127329 kJ/mol
# GULP energy per Si atom -5595.794809 kJ/mol
# Density = 2.348602 g / cm^3
# Si number density = 23.539593 Si / 1000 Ang^3
#
#
#
# Elastic Constant Matrix: (Units=GPa)
#
#
# Indices 1 2 3 4 5 6 
#
# 1 82.5347 18.3781 11.4029 0.0000 -6.4055 0.0000
# 2 18.3781 101.7136 22.7331 0.0000 2.1857 0.0000
# 3 11.4029 22.7331 124.6675 0.0000 9.4650 0.0000
# 4 0.0000 0.0000 0.0000 30.5776 0.0000 3.8421
# 5 -6.4055 2.1857 9.4650 0.0000 35.6612 0.0000
# 6 0.0000 0.0000 0.0000 3.8421 0.0000 26.5360
#
#
#
# Elastic Compliance Matrix: (Units=1/GPa)
#
#
# Indices 1 2 3 4 5 6 
#
# 1 0.012949 -0.002176 -0.000994 0.000000 0.002723 0.000000
# 2 -0.002176 0.010616 -0.001692 0.000000 -0.000592 0.000000
# 3 -0.000994 -0.001692 0.008600 0.000000 -0.002357 0.000000
# 4 0.000000 0.000000 0.000000 0.033310 0.000000 -0.004823
# 5 0.002723 -0.000592 -0.002357 0.000000 0.029193 0.000000
# 6 0.000000 0.000000 0.000000 -0.004823 0.000000 0.038383
#
#
# Mechanical properties :
#
#
# Convention : Reuss Voigt Hill
#
# Bulk Modulus (GPa) = 44.56250 45.99377 45.27814
# Shear Modulus (GPa) = 33.27684 35.64840 34.46262
#
# Velocity S-wave (km/s) = 3.76394 3.89575 3.83041
# Velocity P-wave (km/s) = 6.15318 6.31009 6.23213
#
# Compressibility (1/GPa) = 0.02244039
#
# Stress axis : x y z
#
# Youngs Moduli (GPa) = 77.22372 94.20153 116.28237
#
# Poissons Ratio (x) = 0.20498 0.11563
# Poissons Ratio (y) = 0.16804 0.19672
# Poissons Ratio (z) = 0.07679 0.15936
#
# Static dielectric constant tensor:
#      x y z
#    x 1.906450 0.000000 0.007190 
#    y 0.000000 1.916440 0.000000 
#    z 0.007190 0.000000 1.843870 
# 
# From -- ./inp_files/12612.got.cif
#   From: 2010.05.17/outbox.cif.g08.bks.cpg/sg4_7_cif.got.tgz:12612.got - 2010.06.03 18:43:04.
