data_PCOD9118857
_publ_section_title
;
Structure prediction by ZEFSAII (Michael W. Deem and Ramdas Pophale) SiO2 
 PCOD9118857
Probable space group: P 21
;
_chemical_formula_sum "Si O2"
_cell_formula_units_Z 14
_cell_length_a 10.777876
_cell_length_b 5.184241
_cell_length_c 12.492976
_cell_angle_alpha 90.000000
_cell_angle_beta 112.447382
_cell_angle_gamma 90.000000
_cell_volume 645.155800
_symmetry_space_group_name_H-M "P 21"
_symmetry_group_IT_number 4
_symmetry_cell_setting 'monoclinic'
loop_
_space_group_symop_operation_xyz
x,y,z
-x,1/2+y,-z
loop_
_atom_site_type_symbol
_atom_site_label
_atom_site_fract_x
_atom_site_fract_y
_atom_site_fract_z
Si Si1 0.047108 0.705200 0.123847
Si Si2 0.285005 0.274722 0.678468
Si Si3 0.412894 0.166661 0.490776
Si Si4 0.811212 0.373592 0.037710
Si Si5 0.133448 0.207367 0.282926
Si Si6 0.134373 0.769019 0.700104
Si Si7 0.512436 0.290423 0.934811
O O1 0.113414 0.459274 0.203488
O O2 0.887834 0.647203 0.073618
O O3 0.089365 0.955920 0.202813
O O4 0.100027 0.727142 0.020857
O O5 0.357742 0.227268 0.590567
O O6 0.203259 0.540266 0.657938
O O7 0.400311 0.284293 0.807147
O O8 0.184427 0.040846 0.671887
O O9 0.517678 0.388369 0.492362
O O10 0.283922 0.178109 0.371776
O O11 0.816226 0.258561 0.158946
O O12 0.660199 0.378425 0.946408
O O13 0.025939 0.240851 0.343854
O O14 0.475267 0.505564 0.010862
#
# Coordination Sequence:
#
# PCOD9118857 Si02
#       7
#     2   2   2   2   2   2   2
#     4  11  25  42  71 105 143 187 231 283 350 404
#     4  12  25  46  68 103 132 187 224 291 342 406
#     4  12  29  51  73 100 141 179 239 292 349 419
#     4  11  23  43  66 104 145 180 228 280 341 422
#     4  11  26  46  71 104 135 189 237 292 343 404
#     4  11  23  43  70  99 140 169 236 285 341 407
#     4  12  25  41  67 101 144 183 221 273 356 416
#
# _framework density 21.700185000000001
#
# number of rings (size 3 to 8) (size 9 to 14) (size 15 to 20)
#    0.000    0.571    2.857    5.143    4.000    4.571 
#    0.000    0.000    0.000    0.000    0.000    0.000 
#    0.000    0.000    0.000    0.000    0.000    0.000 
#
# Total GULP energy -78402.212374 kJ/mol
# GULP energy per Si atom -5600.158027 kJ/mol
# Density = 2.165079 g / cm^3
# Si number density = 21.700185 Si / 1000 Ang^3
#
#
#
# Elastic Constant Matrix: (Units=GPa)
#
#
# Indices 1 2 3 4 5 6 
#
# 1 92.0964 5.0273 9.9598 0.0000 17.7057 0.0000
# 2 5.0273 103.6885 13.7685 0.0000 13.8310 0.0000
# 3 9.9598 13.7685 41.3206 0.0000 -3.3828 0.0000
# 4 0.0000 0.0000 0.0000 24.5802 0.0000 -8.0179
# 5 17.7057 13.8310 -3.3828 0.0000 45.7574 0.0000
# 6 0.0000 0.0000 0.0000 -8.0179 0.0000 42.6652
#
#
#
# Elastic Compliance Matrix: (Units=1/GPa)
#
#
# Indices 1 2 3 4 5 6 
#
# 1 0.012203 0.000568 -0.003553 0.000000 -0.005156 0.000000
# 2 0.000568 0.010644 -0.003989 0.000000 -0.003732 0.000000
# 3 -0.003553 -0.003989 0.026760 0.000000 0.004559 0.000000
# 4 0.000000 0.000000 0.000000 0.043340 0.000000 0.008145
# 5 -0.005156 -0.003732 0.004559 0.000000 0.025315 0.000000
# 6 0.000000 0.000000 0.000000 0.008145 0.000000 0.024969
#
#
# Mechanical properties :
#
#
# Convention : Reuss Voigt Hill
#
# Bulk Modulus (GPa) = 28.04356 32.73518 30.38937
# Shear Modulus (GPa) = 29.57455 36.49055 33.03255
#
# Velocity S-wave (km/s) = 3.69571 4.10515 3.90580
# Velocity P-wave (km/s) = 5.58232 6.13088 5.86302
#
# Compressibility (1/GPa) = 0.03565881
#
# Stress axis : x y z
#
# Youngs Moduli (GPa) = 81.94941 93.94730 37.36952
#
# Poissons Ratio (x) = -0.05335 0.13276
# Poissons Ratio (y) = -0.04654 0.14907
# Poissons Ratio (z) = 0.29114 0.37477
#
# Static dielectric constant tensor:
#      x y z
#    x 1.797450 0.000000 0.003220 
#    y 0.000000 1.779280 0.000000 
#    z 0.003220 0.000000 1.776690 
# 
# From -- ./inp_files/10668.got.cif
#   From: 2010.05.17/outbox.cif.g08.bks.cpg/sg4_6_cif.got.tgz:10668.got - 2010.06.03 18:43:04.
