data_PCOD9118044
_publ_section_title
;
Structure prediction by ZEFSAII (Michael W. Deem and Ramdas Pophale) SiO2 
 PCOD9118044
Probable space group: P 21
;
_chemical_formula_sum "Si O2"
_cell_formula_units_Z 12
_cell_length_a 12.237529
_cell_length_b 7.985392
_cell_length_c 4.868062
_cell_angle_alpha 90.000000
_cell_angle_beta 104.534128
_cell_angle_gamma 90.000000
_cell_volume 460.490509
_symmetry_space_group_name_H-M "P 21"
_symmetry_group_IT_number 4
_symmetry_cell_setting 'monoclinic'
loop_
_space_group_symop_operation_xyz
x,y,z
-x,1/2+y,-z
loop_
_atom_site_type_symbol
_atom_site_label
_atom_site_fract_x
_atom_site_fract_y
_atom_site_fract_z
Si Si1 0.457163 0.921090 0.535620
Si Si2 0.871219 0.045624 0.465460
Si Si3 0.198602 0.189806 0.811200
Si Si4 0.984860 0.184603 0.016640
Si Si5 0.206656 0.873765 0.420614
Si Si6 0.457406 0.240619 0.904312
O O1 0.325708 0.922595 0.360713
O O2 0.531676 0.888096 0.314939
O O3 0.489281 0.084690 0.730815
O O4 0.471479 0.782072 0.782546
O O5 0.932883 0.035240 0.795003
O O6 0.776925 0.189408 0.432801
O O7 0.835449 0.863226 0.357358
O O8 0.955981 0.137336 0.306945
O O9 0.331611 0.210399 0.935783
O O10 0.115549 0.190162 0.019206
O O11 0.183404 0.019414 0.626262
O O12 0.900742 0.330351 0.842149
#
# Coordination Sequence:
#
# PCOD9118044 Si02
#       6
#     2   2   2   2   2   2
#     4  11  25  45  69  98 137 175 233 275 346 394
#     4  10  25  41  68 100 130 183 213 281 330 401
#     4  11  24  47  68 104 137 177 232 271 347 404
#     4  10  24  44  68 100 137 174 218 279 336 400
#     4   9  25  45  68  99 135 177 220 287 330 403
#     4  11  27  44  71  99 134 184 220 293 327 412
#
# _framework density 26.059173000000001
#
# number of rings (size 3 to 8) (size 9 to 14) (size 15 to 20)
#    1.000    0.667    0.000    2.000    9.333    2.667 
#    6.000    0.000    0.000    0.000    0.000    0.000 
#    0.000    0.000    0.000    0.000    0.000    0.000 
#
# Total GULP energy -67124.185451 kJ/mol
# GULP energy per Si atom -5593.682121 kJ/mol
# Density = 2.599986 g / cm^3
# Si number density = 26.059173 Si / 1000 Ang^3
#
#
#
# Elastic Constant Matrix: (Units=GPa)
#
#
# Indices 1 2 3 4 5 6 
#
# 1 89.4988 24.6901 42.3445 0.0000 14.8475 0.0000
# 2 24.6901 143.5879 37.0749 0.0000 -6.4574 0.0000
# 3 42.3445 37.0749 86.6524 0.0000 1.0589 0.0000
# 4 0.0000 0.0000 0.0000 53.2683 0.0000 -4.9326
# 5 14.8475 -6.4574 1.0589 0.0000 19.7727 0.0000
# 6 0.0000 0.0000 0.0000 -4.9326 0.0000 24.9045
#
#
#
# Elastic Compliance Matrix: (Units=1/GPa)
#
#
# Indices 1 2 3 4 5 6 
#
# 1 0.017439 -0.001612 -0.007671 0.000000 -0.013211 0.000000
# 2 -0.001612 0.008129 -0.002739 0.000000 0.004012 0.000000
# 3 -0.007671 -0.002739 0.016412 0.000000 0.003986 0.000000
# 4 0.000000 0.000000 0.000000 0.019124 0.000000 0.003788
# 5 -0.013211 0.004012 0.003986 0.000000 0.061592 0.000000
# 6 0.000000 0.000000 0.000000 0.003788 0.000000 0.040904
#
#
# Mechanical properties :
#
#
# Convention : Reuss Voigt Hill
#
# Bulk Modulus (GPa) = 55.75403 58.66200 57.20801
# Shear Modulus (GPa) = 25.82345 33.96441 29.89393
#
# Velocity S-wave (km/s) = 3.15136 3.61412 3.39064
# Velocity P-wave (km/s) = 5.88923 6.32264 6.10978
#
# Compressibility (1/GPa) = 0.01793592
#
# Stress axis : x y z
#
# Youngs Moduli (GPa) = 57.34304 123.01094 60.93045
#
# Poissons Ratio (x) = 0.19831 0.46738
# Poissons Ratio (y) = 0.09245 0.16691
# Poissons Ratio (z) = 0.43986 0.33698
#
# Static dielectric constant tensor:
#      x y z
#    x 2.005700 0.000000 0.023920 
#    y 0.000000 2.175250 0.000000 
#    z 0.023920 0.000000 1.995420 
# 
# From -- ./inp_files/2540.got.cif
#   From: 2010.05.17/outbox.cif.g08.bks.cpg/sg4_2_cif.got.tgz:2540.got - 2010.06.03 18:43:04.
