data_PCOD9118944
_publ_section_title
;
Structure prediction by ZEFSAII (Michael W. Deem and Ramdas Pophale) SiO2 
 PCOD9118944
Probable space group: P 21
;
_chemical_formula_sum "Si O2"
_cell_formula_units_Z 16
_cell_length_a 6.875213
_cell_length_b 9.455538
_cell_length_c 14.694550
_cell_angle_alpha 90.000000
_cell_angle_beta 134.694412
_cell_angle_gamma 90.000000
_cell_volume 679.074936
_symmetry_space_group_name_H-M "P 21"
_symmetry_group_IT_number 4
_symmetry_cell_setting 'monoclinic'
loop_
_space_group_symop_operation_xyz
x,y,z
-x,1/2+y,-z
loop_
_atom_site_type_symbol
_atom_site_label
_atom_site_fract_x
_atom_site_fract_y
_atom_site_fract_z
Si Si1 0.264936 0.054370 0.577361
Si Si2 0.323641 0.464624 0.641696
Si Si3 0.775427 0.987477 0.070311
Si Si4 0.786827 0.967655 0.857671
Si Si5 0.492435 0.279937 0.524499
Si Si6 0.745257 0.694160 0.743995
Si Si7 0.766049 0.650757 0.096462
Si Si8 0.882860 0.753862 0.317585
O O1 0.425688 0.128315 0.548369
O O2 0.113405 0.174714 0.585502
O O3 0.484704 0.982410 0.714750
O O4 0.004641 0.967571 0.460796
O O5 0.402713 0.393493 0.571184
O O6 0.480002 0.612637 0.696568
O O7 0.364435 0.366050 0.744498
O O8 0.761816 0.820317 0.084553
O O9 0.794035 0.994608 0.966895
O O10 0.035770 0.068803 0.197555
O O11 0.511059 0.070583 0.019434
O O12 0.867104 0.808624 0.854124
O O13 0.983394 0.080454 0.873705
O O14 0.336499 0.274214 0.376550
O O15 0.814211 0.295535 0.614506
O O16 0.799682 0.637325 0.215742
#
# Coordination Sequence:
#
# PCOD9118944 Si02
#       8
#     2   2   2   2   2   2   2   2
#     4  11  24  43  74 107 147 191 237 310 371 442
#     4  11  27  43  71 117 153 193 247 308 376 459
#     4  12  29  50  75 108 147 200 255 315 367 442
#     4  12  27  50  75 106 150 195 255 314 370 443
#     4  11  25  46  71 111 155 193 246 300 385 453
#     4  12  28  47  76 111 151 203 249 311 378 456
#     4  12  27  50  78 105 145 200 252 307 378 446
#     4  11  23  45  74 103 148 197 241 305 375 439
#
# _framework density 23.561463
#
# number of rings (size 3 to 8) (size 9 to 14) (size 15 to 20)
#    0.000    0.500    3.750    3.000   10.500    4.000 
#    0.000    0.000    0.000    0.000    0.000    0.000 
#    0.000    0.000    0.000    0.000    0.000    0.000 
#
# Total GULP energy -89453.828212 kJ/mol
# GULP energy per Si atom -5590.864263 kJ/mol
# Density = 2.350784 g / cm^3
# Si number density = 23.561463 Si / 1000 Ang^3
#
#
#
# Elastic Constant Matrix: (Units=GPa)
#
#
# Indices 1 2 3 4 5 6 
#
# 1 113.1932 31.5808 13.2617 0.0000 6.3307 0.0000
# 2 31.5808 109.7308 4.8568 0.0000 17.9892 0.0000
# 3 13.2617 4.8568 57.3776 0.0000 12.1795 0.0000
# 4 0.0000 0.0000 0.0000 31.6168 0.0000 -1.4162
# 5 6.3307 17.9892 12.1795 0.0000 40.2501 0.0000
# 6 0.0000 0.0000 0.0000 -1.4162 0.0000 37.8930
#
#
#
# Elastic Compliance Matrix: (Units=1/GPa)
#
#
# Indices 1 2 3 4 5 6 
#
# 1 0.009843 -0.002795 -0.002110 0.000000 0.000340 0.000000
# 2 -0.002795 0.010628 0.000707 0.000000 -0.004524 0.000000
# 3 -0.002110 0.000707 0.019078 0.000000 -0.005757 0.000000
# 4 0.000000 0.000000 0.000000 0.031682 0.000000 0.001184
# 5 0.000340 -0.004524 -0.005757 0.000000 0.028555 0.000000
# 6 0.000000 0.000000 0.000000 0.001184 0.000000 0.026434
#
#
# Mechanical properties :
#
#
# Convention : Reuss Voigt Hill
#
# Bulk Modulus (GPa) = 32.10105 42.18892 37.14498
# Shear Modulus (GPa) = 34.48238 37.32547 35.90393
#
# Velocity S-wave (km/s) = 3.82973 3.98449 3.90788
# Velocity P-wave (km/s) = 5.76279 6.25404 6.01343
#
# Compressibility (1/GPa) = 0.03115163
#
# Stress axis : x y z
#
# Youngs Moduli (GPa) = 101.60015 94.09067 52.41535
#
# Poissons Ratio (x) = 0.26298 0.11062
# Poissons Ratio (y) = 0.28397 -0.03704
# Poissons Ratio (z) = 0.21442 -0.06650
#
# Static dielectric constant tensor:
#      x y z
#    x 1.869470 0.000000 -0.005850 
#    y 0.000000 2.108810 0.000000 
#    z -0.005850 0.000000 1.946230 
# 
# From -- ./inp_files/2621.got.cif
#   From: 2010.05.17/outbox.cif.g08.bks.cpg/sg4_2_cif.got.tgz:2621.got - 2010.06.03 18:43:04.
