data_PCOD9118901
_publ_section_title
;
Structure prediction by ZEFSAII (Michael W. Deem and Ramdas Pophale) SiO2 
 PCOD9118901
Probable space group: P 21
;
_chemical_formula_sum "Si O2"
_cell_formula_units_Z 16
_cell_length_a 15.813834
_cell_length_b 6.595579
_cell_length_c 25.003271
_cell_angle_alpha 90.000000
_cell_angle_beta 18.435020
_cell_angle_gamma 90.000000
_cell_volume 824.685861
_symmetry_space_group_name_H-M "P 21"
_symmetry_group_IT_number 4
_symmetry_cell_setting 'monoclinic'
loop_
_space_group_symop_operation_xyz
x,y,z
-x,1/2+y,-z
loop_
_atom_site_type_symbol
_atom_site_label
_atom_site_fract_x
_atom_site_fract_y
_atom_site_fract_z
Si Si1 0.689901 0.133680 0.016788
Si Si2 0.118266 0.821529 0.719988
Si Si3 0.688474 0.121496 0.143345
Si Si4 0.281911 0.870307 0.193323
Si Si5 0.709818 0.771949 0.207256
Si Si6 0.665183 0.520819 0.958778
Si Si7 0.544360 0.072215 0.397156
Si Si8 0.653324 0.884686 0.569976
O O1 0.642705 0.145494 0.108074
O O2 0.449847 0.017523 0.130831
O O3 0.719694 0.349325 0.970000
O O4 0.953612 0.998080 0.848618
O O5 0.266006 0.677704 0.673543
O O6 0.903071 0.685691 0.817589
O O7 0.331926 0.928365 0.553731
O O8 0.497900 0.269085 0.291340
O O9 0.647016 0.894687 0.190724
O O10 0.997100 0.175204 0.970839
O O11 0.968209 0.894712 0.390571
O O12 0.346013 0.924689 0.093195
O O13 0.394065 0.643308 0.134151
O O14 0.489405 0.600990 0.350333
O O15 0.702678 0.936691 0.259155
O O16 0.397022 0.249616 0.452632
#
# Coordination Sequence:
#
# PCOD9118901 Si02
#       8
#     2   2   2   2   2   2   2   2
#     4  11  25  44  68  99 136 178 233 276 339 401
#     4  11  26  39  66 105 138 175 220 278 340 413
#     4  11  24  43  70  97 132 186 222 281 336 410
#     4  11  24  43  70  97 132 186 222 281 336 410
#     4  11  23  44  70  95 138 179 223 275 347 404
#     4  11  23  44  70  95 138 179 223 275 347 404
#     4  11  26  39  66 105 138 175 220 278 340 413
#     4  11  25  44  68  99 136 178 233 276 339 401
#
# _framework density 19.401326999999998
#
# number of rings (size 3 to 8) (size 9 to 14) (size 15 to 20)
#    0.000    1.000    2.500    3.000   10.500    4.000 
#    4.500    0.000    0.000    0.000    0.000    0.000 
#    0.000    0.000    0.000    0.000    0.000    0.000 
#
# Total GULP energy -89517.672871 kJ/mol
# GULP energy per Si atom -5594.854554 kJ/mol
# Density = 1.935717 g / cm^3
# Si number density = 19.401327 Si / 1000 Ang^3
#
#
#
# Elastic Constant Matrix: (Units=GPa)
#
#
# Indices 1 2 3 4 5 6 
#
# 1 108.3878 36.2495 20.9270 0.0000 10.7455 0.0000
# 2 36.2495 114.5771 36.1866 0.0000 -0.4944 0.0000
# 3 20.9270 36.1866 107.9684 0.0000 -11.4212 0.0000
# 4 0.0000 0.0000 0.0000 22.6375 0.0000 0.0899
# 5 10.7455 -0.4944 -11.4212 0.0000 20.0628 0.0000
# 6 0.0000 0.0000 0.0000 0.0899 0.0000 22.5452
#
#
#
# Elastic Compliance Matrix: (Units=1/GPa)
#
#
# Indices 1 2 3 4 5 6 
#
# 1 0.011325 -0.002996 -0.001958 0.000000 -0.007255 0.000000
# 2 -0.002996 0.010610 -0.002956 0.000000 0.000183 0.000000
# 3 -0.001958 -0.002956 0.011423 0.000000 0.007479 0.000000
# 4 0.000000 0.000000 0.000000 0.044175 0.000000 -0.000176
# 5 -0.007255 0.000183 0.007479 0.000000 0.057991 0.000000
# 6 0.000000 0.000000 0.000000 -0.000176 0.000000 0.044356
#
#
# Mechanical properties :
#
#
# Convention : Reuss Voigt Hill
#
# Bulk Modulus (GPa) = 57.01826 57.51769 57.26798
# Shear Modulus (GPa) = 24.80800 28.88712 26.84756
#
# Velocity S-wave (km/s) = 3.57974 3.86285 3.72398
# Velocity P-wave (km/s) = 6.82193 7.04316 6.93342
#
# Compressibility (1/GPa) = 0.01753824
#
# Stress axis : x y z
#
# Youngs Moduli (GPa) = 88.29692 94.25132 87.53915
#
# Poissons Ratio (x) = 0.28236 0.17144
# Poissons Ratio (y) = 0.26452 0.25876
# Poissons Ratio (z) = 0.17293 0.27860
#
# Static dielectric constant tensor:
#      x y z
#    x 1.656820 0.000000 0.000060 
#    y 0.000000 1.688680 0.000000 
#    z 0.000060 0.000000 1.657180 
# 
# From -- ./inp_files/10711.got.cif
#   From: 2010.05.17/outbox.cif.g08.bks.cpg/sg4_6_cif.got.tgz:10711.got - 2010.06.03 18:43:04.
