data_PCOD9118054
_publ_section_title
;
Structure prediction by ZEFSAII (Michael W. Deem and Ramdas Pophale) SiO2 
 PCOD9118054
Probable space group: P 21
;
_chemical_formula_sum "Si O2"
_cell_formula_units_Z 16
_cell_length_a 10.268015
_cell_length_b 6.947301
_cell_length_c 9.643364
_cell_angle_alpha 90.000000
_cell_angle_beta 110.859210
_cell_angle_gamma 90.000000
_cell_volume 642.822475
_symmetry_space_group_name_H-M "P 21"
_symmetry_group_IT_number 4
_symmetry_cell_setting 'monoclinic'
loop_
_space_group_symop_operation_xyz
x,y,z
-x,1/2+y,-z
loop_
_atom_site_type_symbol
_atom_site_label
_atom_site_fract_x
_atom_site_fract_y
_atom_site_fract_z
Si Si1 0.393620 0.608950 0.079806
Si Si2 0.077351 0.841744 0.148651
Si Si3 0.831019 0.903741 0.846350
Si Si4 0.388749 0.744700 0.592745
Si Si5 0.381283 0.940534 0.292780
Si Si6 0.678212 0.429563 0.143758
Si Si7 0.089946 0.188330 0.687448
Si Si8 0.165632 0.413678 0.455343
O O1 0.303176 0.434673 0.107774
O O2 0.433515 0.761713 0.216422
O O3 0.529934 0.528030 0.056417
O O4 0.304429 0.738142 0.940172
O O5 0.137998 0.627324 0.179520
O O6 0.217969 0.965006 0.189405
O O7 0.990303 0.856090 0.258335
O O8 0.967619 0.843417 0.982433
O O9 0.815664 0.817011 0.687512
O O10 0.398433 0.872474 0.458387
O O11 0.528942 0.632331 0.688127
O O12 0.332701 0.867038 0.700173
O O13 0.282702 0.573460 0.519039
O O14 0.801156 0.580955 0.171822
O O15 0.167408 0.270972 0.584239
O O16 0.981260 0.025916 0.598541
#
# Coordination Sequence:
#
# PCOD9118054 Si02
#       8
#     2   2   2   2   2   2   2   2
#     4  11  25  48  65 107 140 185 246 287 364 436
#     4  10  24  44  69 107 136 184 237 290 367 417
#     4  10  24  44  70  99 139 182 237 292 350 429
#     4  12  24  47  71 103 143 189 244 300 369 431
#     4  11  24  47  71 104 143 185 243 299 353 446
#     4  12  28  44  72 103 142 197 238 304 369 429
#     4  11  25  45  73 105 149 186 241 305 368 437
#     4  11  24  47  69 110 142 192 242 301 368 433
#
# _framework density 24.890232000000001
#
# number of rings (size 3 to 8) (size 9 to 14) (size 15 to 20)
#    0.000    1.000    3.750    3.000   10.500    2.000 
#    0.000    0.000    0.000    0.000    0.000    0.000 
#    0.000    0.000    0.000    0.000    0.000    0.000 
#
# Total GULP energy -89638.149004 kJ/mol
# GULP energy per Si atom -5602.384313 kJ/mol
# Density = 2.483358 g / cm^3
# Si number density = 24.890232 Si / 1000 Ang^3
#
#
#
# Elastic Constant Matrix: (Units=GPa)
#
#
# Indices 1 2 3 4 5 6 
#
# 1 106.9040 25.2553 20.3049 0.0000 19.1033 0.0000
# 2 25.2553 35.3299 2.8608 0.0000 3.3154 0.0000
# 3 20.3049 2.8608 74.1107 0.0000 -4.0993 0.0000
# 4 0.0000 0.0000 0.0000 58.0533 0.0000 0.5217
# 5 19.1033 3.3154 -4.0993 0.0000 41.6511 0.0000
# 6 0.0000 0.0000 0.0000 0.5217 0.0000 41.8671
#
#
#
# Elastic Compliance Matrix: (Units=1/GPa)
#
#
# Indices 1 2 3 4 5 6 
#
# 1 0.013052 -0.008511 -0.003561 0.000000 -0.005659 0.000000
# 2 -0.008511 0.034180 0.001084 0.000000 0.001290 0.000000
# 3 -0.003561 0.001084 0.014592 0.000000 0.002983 0.000000
# 4 0.000000 0.000000 0.000000 0.017227 0.000000 -0.000215
# 5 -0.005659 0.001290 0.002983 0.000000 0.026796 0.000000
# 6 0.000000 0.000000 0.000000 -0.000215 0.000000 0.023888
#
#
# Mechanical properties :
#
#
# Convention : Reuss Voigt Hill
#
# Bulk Modulus (GPa) = 25.09495 34.79853 29.94674
# Shear Modulus (GPa) = 30.30412 39.50918 34.90665
#
# Velocity S-wave (km/s) = 3.49307 3.98846 3.74896
# Velocity P-wave (km/s) = 5.13545 5.93478 5.54952
#
# Compressibility (1/GPa) = 0.03984865
#
# Stress axis : x y z
#
# Youngs Moduli (GPa) = 76.61381 29.25694 68.53053
#
# Poissons Ratio (x) = 0.24901 0.24401
# Poissons Ratio (y) = 0.65206 -0.07427
# Poissons Ratio (z) = 0.27279 -0.03171
#
# Static dielectric constant tensor:
#      x y z
#    x 2.022990 0.000000 0.000160 
#    y 0.000000 1.972860 0.000000 
#    z 0.000160 0.000000 1.984090 
# 
# From -- ./inp_files/5494.got.cif
#   From: 2010.05.17/outbox.cif.g08.bks.cpg/sg4_3_cif.got.tgz:5494.got - 2010.06.03 18:43:04.
