data_PCOD9118324
_publ_section_title
;
Structure prediction by ZEFSAII (Michael W. Deem and Ramdas Pophale) SiO2 
 PCOD9118324
Probable space group: P 21
;
_chemical_formula_sum "Si O2"
_cell_formula_units_Z 16
_cell_length_a 20.445015
_cell_length_b 5.664418
_cell_length_c 10.596393
_cell_angle_alpha 90.000000
_cell_angle_beta 149.696474
_cell_angle_gamma 90.000000
_cell_volume 619.200742
_symmetry_space_group_name_H-M "P 21"
_symmetry_group_IT_number 4
_symmetry_cell_setting 'monoclinic'
loop_
_space_group_symop_operation_xyz
x,y,z
-x,1/2+y,-z
loop_
_atom_site_type_symbol
_atom_site_label
_atom_site_fract_x
_atom_site_fract_y
_atom_site_fract_z
Si Si1 0.905907 0.741540 0.698505
Si Si2 0.443402 0.431817 0.567463
Si Si3 0.511340 0.092055 0.875144
Si Si4 0.599752 0.821306 0.786335
Si Si5 0.866701 0.049456 0.182076
Si Si6 0.710230 0.358171 0.344634
Si Si7 0.812616 0.064209 0.749065
Si Si8 0.966161 0.549451 0.285578
O O1 0.814520 0.552831 0.474414
O O2 0.936650 0.969788 0.663440
O O3 0.836824 0.821494 0.712328
O O4 0.045593 0.636829 0.966503
O O5 0.441253 0.317297 0.700607
O O6 0.585552 0.552864 0.804497
O O7 0.444258 0.307600 0.432848
O O8 0.301972 0.557701 0.337749
O O9 0.512013 0.935020 0.749373
O O10 0.423925 0.985466 0.838423
O O11 0.655194 0.156584 0.160922
O O12 0.728440 0.969437 0.002412
O O13 0.907705 0.811933 0.170137
O O14 0.962679 0.058052 0.461633
O O15 0.872626 0.317512 0.138453
O O16 0.767746 0.249681 0.568228
#
# Coordination Sequence:
#
# PCOD9118324 Si02
#       8
#     2   2   2   2   2   2   2   2
#     4  12  27  45  75 109 145 207 256 322 396 474
#     4  12  26  48  74 108 150 195 260 324 393 469
#     4  12  28  47  74 113 157 200 255 324 400 477
#     4  12  27  45  75 109 145 207 256 322 396 474
#     4  10  25  46  72 108 151 198 257 322 392 471
#     4  12  28  47  74 113 157 200 255 324 400 477
#     4  12  26  48  74 108 150 195 260 324 393 469
#     4  10  25  46  72 108 151 198 257 322 392 471
#
# _framework density 25.839763000000001
#
# number of rings (size 3 to 8) (size 9 to 14) (size 15 to 20)
#    0.000    0.500    5.000    1.500    7.000    4.000 
#    0.000    0.000    0.000    0.000    0.000    0.000 
#    0.000    0.000    0.000    0.000    0.000    0.000 
#
# Total GULP energy -89356.668659 kJ/mol
# GULP energy per Si atom -5584.791791 kJ/mol
# Density = 2.578095 g / cm^3
# Si number density = 25.839763 Si / 1000 Ang^3
#
#
#
# Elastic Constant Matrix: (Units=GPa)
#
#
# Indices 1 2 3 4 5 6 
#
# 1 83.0969 20.9270 -2.7078 0.0000 3.1001 0.0000
# 2 20.9270 66.6934 37.4296 0.0000 -4.5544 0.0000
# 3 -2.7078 37.4296 73.9126 0.0000 8.8694 0.0000
# 4 0.0000 0.0000 0.0000 41.2860 0.0000 3.6534
# 5 3.1001 -4.5544 8.8694 0.0000 27.4118 0.0000
# 6 0.0000 0.0000 0.0000 3.6534 0.0000 42.1575
#
#
#
# Elastic Compliance Matrix: (Units=1/GPa)
#
#
# Indices 1 2 3 4 5 6 
#
# 1 0.014244 -0.007491 0.004846 0.000000 -0.004424 0.000000
# 2 -0.007491 0.026345 -0.014818 0.000000 0.010019 0.000000
# 3 0.004846 -0.014818 0.022443 0.000000 -0.010272 0.000000
# 4 0.000000 0.000000 0.000000 0.024408 0.000000 -0.002115
# 5 -0.004424 0.010019 -0.010272 0.000000 0.041969 0.000000
# 6 0.000000 0.000000 0.000000 -0.002115 0.000000 0.023904
#
#
# Mechanical properties :
#
#
# Convention : Reuss Voigt Hill
#
# Bulk Modulus (GPa) = 35.57923 37.22230 36.40076
# Shear Modulus (GPa) = 25.30268 33.37466 29.33867
#
# Velocity S-wave (km/s) = 3.13264 3.59778 3.37324
# Velocity P-wave (km/s) = 5.18494 5.62984 5.41196
#
# Compressibility (1/GPa) = 0.02810629
#
# Stress axis : x y z
#
# Youngs Moduli (GPa) = 70.20659 37.95825 44.55656
#
# Poissons Ratio (x) = 0.28435 -0.21593
# Poissons Ratio (y) = 0.52594 0.66023
# Poissons Ratio (z) = -0.34024 0.56246
#
# Static dielectric constant tensor:
#      x y z
#    x 2.030480 0.000000 0.013970 
#    y 0.000000 2.372260 0.000000 
#    z 0.013970 0.000000 2.009960 
# 
# From -- ./inp_files/13035.got.cif
#   From: 2010.05.17/outbox.cif.g08.bks.cpg/sg4_7_cif.got.tgz:13035.got - 2010.06.03 18:43:04.
