data_PCOD9118442
_publ_section_title
;
Structure prediction by ZEFSAII (Michael W. Deem and Ramdas Pophale) SiO2 
 PCOD9118442
Probable space group: P 21
;
_chemical_formula_sum "Si O2"
_cell_formula_units_Z 14
_cell_length_a 10.044435
_cell_length_b 5.662037
_cell_length_c 20.338140
_cell_angle_alpha 90.000000
_cell_angle_beta 31.163649
_cell_angle_gamma 90.000000
_cell_volume 598.558445
_symmetry_space_group_name_H-M "P 21"
_symmetry_group_IT_number 4
_symmetry_cell_setting 'monoclinic'
loop_
_space_group_symop_operation_xyz
x,y,z
-x,1/2+y,-z
loop_
_atom_site_type_symbol
_atom_site_label
_atom_site_fract_x
_atom_site_fract_y
_atom_site_fract_z
Si Si1 0.347444 0.398300 0.648123
Si Si2 0.287135 0.724644 0.993528
Si Si3 0.153114 0.752934 0.640321
Si Si4 0.389269 0.419705 0.781950
Si Si5 0.178638 0.657352 0.179822
Si Si6 0.246662 0.996202 0.266705
Si Si7 0.070812 0.229655 0.036653
O O1 0.255124 0.658952 0.667065
O O2 0.605271 0.367816 0.497288
O O3 0.392501 0.345174 0.704903
O O4 0.103774 0.255195 0.722897
O O5 0.350352 0.703340 0.043947
O O6 0.119550 0.482928 0.051015
O O7 0.168488 0.985116 0.030278
O O8 0.533145 0.685072 0.844201
O O9 0.037467 0.575220 0.633909
O O10 0.903057 0.899690 0.764895
O O11 0.673556 0.430391 0.693383
O O12 0.227773 0.666681 0.849307
O O13 0.222254 0.260887 0.903399
O O14 0.292781 0.786123 0.194951
#
# Coordination Sequence:
#
# PCOD9118442 Si02
#       7
#     2   2   2   2   2   2   2
#     4  11  23  47  74  97 130 187 249 285 352 418
#     4  11  25  45  72 107 144 192 230 292 355 431
#     4  11  24  47  69 100 136 183 245 302 338 431
#     4  11  23  46  68 104 143 187 230 297 359 429
#     4  11  24  44  71  99 133 187 231 296 350 418
#     4  10  27  41  64 103 148 171 229 293 366 420
#     4  11  24  44  70 106 148 181 244 281 350 433
#
# _framework density 23.389527000000001
#
# number of rings (size 3 to 8) (size 9 to 14) (size 15 to 20)
#    0.000    1.143    2.857    2.571    8.000    0.000 
#    7.714    0.000    0.000    0.000    0.000    0.000 
#    0.000    0.000    0.000    0.000    0.000    0.000 
#
# Total GULP energy -78086.160279 kJ/mol
# GULP energy per Si atom -5577.582877 kJ/mol
# Density = 2.333629 g / cm^3
# Si number density = 23.389527 Si / 1000 Ang^3
#
#
#
# Elastic Constant Matrix: (Units=GPa)
#
#
# Indices 1 2 3 4 5 6 
#
# 1 170.5909 45.7015 9.0645 0.0000 14.3497 0.0000
# 2 45.7015 89.9844 8.3873 0.0000 7.6084 0.0000
# 3 9.0645 8.3873 43.7784 0.0000 6.5504 0.0000
# 4 0.0000 0.0000 0.0000 25.6865 0.0000 -8.8148
# 5 14.3497 7.6084 6.5504 0.0000 28.7177 0.0000
# 6 0.0000 0.0000 0.0000 -8.8148 0.0000 40.9855
#
#
#
# Elastic Compliance Matrix: (Units=1/GPa)
#
#
# Indices 1 2 3 4 5 6 
#
# 1 0.006978 -0.003291 -0.000438 0.000000 -0.002515 0.000000
# 2 -0.003291 0.013056 -0.001603 0.000000 -0.001449 0.000000
# 3 -0.000438 -0.001603 0.023962 0.000000 -0.004822 0.000000
# 4 0.000000 0.000000 0.000000 0.042033 0.000000 0.009040
# 5 -0.002515 -0.001449 -0.004822 0.000000 0.037562 0.000000
# 6 0.000000 0.000000 0.000000 0.009040 0.000000 0.026343
#
#
# Mechanical properties :
#
#
# Convention : Reuss Voigt Hill
#
# Bulk Modulus (GPa) = 30.00090 47.85115 38.92602
# Shear Modulus (GPa) = 29.11887 35.15797 32.13842
#
# Velocity S-wave (km/s) = 3.53222 3.88125 3.71084
# Velocity P-wave (km/s) = 5.43046 6.37089 5.91938
#
# Compressibility (1/GPa) = 0.03333233
#
# Stress axis : x y z
#
# Youngs Moduli (GPa) = 143.29894 76.59147 41.73330
#
# Poissons Ratio (x) = 0.25204 0.01828
# Poissons Ratio (y) = 0.47156 0.06691
# Poissons Ratio (z) = 0.06278 0.12279
#
# Static dielectric constant tensor:
#      x y z
#    x 1.944160 0.000000 -0.021840 
#    y 0.000000 2.030780 0.000000 
#    z -0.021840 0.000000 1.852240 
# 
# From -- ./inp_files/14758.got.cif
#   From: 2010.05.17/outbox.cif.g08.bks.cpg/sg4_8_cif.got.tgz:14758.got - 2010.06.03 18:43:04.
