data_PCOD9118507
_publ_section_title
;
Structure prediction by ZEFSAII (Michael W. Deem and Ramdas Pophale) SiO2 
 PCOD9118507
Probable space group: P 21
;
_chemical_formula_sum "Si O2"
_cell_formula_units_Z 16
_cell_length_a 5.435252
_cell_length_b 14.230273
_cell_length_c 10.630263
_cell_angle_alpha 90.000000
_cell_angle_beta 130.164515
_cell_angle_gamma 90.000000
_cell_volume 628.320859
_symmetry_space_group_name_H-M "P 21"
_symmetry_group_IT_number 4
_symmetry_cell_setting 'monoclinic'
loop_
_space_group_symop_operation_xyz
x,y,z
-x,1/2+y,-z
loop_
_atom_site_type_symbol
_atom_site_label
_atom_site_fract_x
_atom_site_fract_y
_atom_site_fract_z
Si Si1 0.069863 0.346580 0.625058
Si Si2 0.236432 0.061572 0.306519
Si Si3 0.944180 0.882608 0.090749
Si Si4 0.647380 0.241041 0.872871
Si Si5 0.665615 0.058808 0.249452
Si Si6 0.748938 0.986590 0.661440
Si Si7 0.346993 0.890454 0.734130
Si Si8 0.801491 0.630813 0.091488
O O1 0.345274 0.270353 0.685103
O O2 0.212498 0.455009 0.666437
O O3 0.777229 0.336959 0.431972
O O4 0.999814 0.335864 0.752021
O O5 0.484638 0.113013 0.300011
O O6 0.976351 0.113721 0.303221
O O7 0.454760 0.999243 0.469862
O O8 0.029931 0.990182 0.150881
O O9 0.592321 0.858885 0.922853
O O10 0.182363 0.842659 0.062753
O O11 0.476081 0.189634 0.930902
O O12 0.945922 0.182018 0.917197
O O13 0.403177 0.054015 0.052950
O O14 0.579433 0.968209 0.740397
O O15 0.012566 0.914977 0.693811
O O16 0.961515 0.080859 0.733250
#
# Coordination Sequence:
#
# PCOD9118507 Si02
#       8
#     2   2   2   2   2   2   2   2
#     4  11  23  47  76 105 134 186 239 302 338 415
#     4  11  20  39  71  99 131 171 226 296 336 393
#     4  11  23  43  73 102 136 182 224 295 352 411
#     4  12  25  47  66  98 147 189 230 287 365 415
#     4  11  21  41  66 101 127 178 231 288 336 404
#     4  12  22  43  64 111 138 175 230 291 351 414
#     4  12  25  40  78 109 133 169 247 296 348 408
#     4  12  27  42  70  99 144 192 229 285 360 434
#
# _framework density 25.464693
#
# number of rings (size 3 to 8) (size 9 to 14) (size 15 to 20)
#    0.000    0.500    6.250    3.750    1.750    0.000 
#    0.000    3.750    2.750    0.000    0.000    0.000 
#    0.000    0.000    0.000    0.000    0.000    0.000 
#
# Total GULP energy -89222.673202 kJ/mol
# GULP energy per Si atom -5576.417075 kJ/mol
# Density = 2.540673 g / cm^3
# Si number density = 25.464693 Si / 1000 Ang^3
#
#
#
# Elastic Constant Matrix: (Units=GPa)
#
#
# Indices 1 2 3 4 5 6 
#
# 1 206.9990 22.5652 39.2577 0.0000 23.8420 0.0000
# 2 22.5652 33.3177 20.4294 0.0000 0.0480 0.0000
# 3 39.2577 20.4294 159.0329 0.0000 14.5148 0.0000
# 4 0.0000 0.0000 0.0000 26.2578 0.0000 9.1586
# 5 23.8420 0.0480 14.5148 0.0000 38.3127 0.0000
# 6 0.0000 0.0000 0.0000 9.1586 0.0000 31.8305
#
#
#
# Elastic Compliance Matrix: (Units=1/GPa)
#
#
# Indices 1 2 3 4 5 6 
#
# 1 0.005714 -0.003457 -0.000665 0.000000 -0.003299 0.000000
# 2 -0.003457 0.034767 -0.003941 0.000000 0.003601 0.000000
# 3 -0.000665 -0.003941 0.007168 0.000000 -0.002297 0.000000
# 4 0.000000 0.000000 0.000000 0.042332 0.000000 -0.012180
# 5 -0.003299 0.003601 -0.002297 0.000000 0.029020 0.000000
# 6 0.000000 0.000000 0.000000 -0.012180 0.000000 0.034921
#
#
# Mechanical properties :
#
#
# Convention : Reuss Voigt Hill
#
# Bulk Modulus (GPa) = 31.72447 62.65047 47.18747
# Shear Modulus (GPa) = 27.69199 40.42004 34.05602
#
# Velocity S-wave (km/s) = 3.30125 3.98841 3.66099
# Velocity P-wave (km/s) = 5.19772 6.77246 6.03666
#
# Compressibility (1/GPa) = 0.03152141
#
# Stress axis : x y z
#
# Youngs Moduli (GPa) = 175.00809 28.76279 139.50576
#
# Poissons Ratio (x) = 0.09944 0.09281
# Poissons Ratio (y) = 0.60505 0.54985
# Poissons Ratio (z) = 0.11643 0.11337
#
# Static dielectric constant tensor:
#      x y z
#    x 2.143830 0.000000 -0.017290 
#    y 0.000000 2.074430 0.000000 
#    z -0.017290 0.000000 2.000670 
# 
# From -- ./inp_files/10616.got.cif
#   From: 2010.05.17/outbox.cif.g08.bks.cpg/sg4_6_cif.got.tgz:10616.got - 2010.06.03 18:43:04.
