data_PCOD9118498
_publ_section_title
;
Structure prediction by ZEFSAII (Michael W. Deem and Ramdas Pophale) SiO2 
 PCOD9118498
Probable space group: P 21
;
_chemical_formula_sum "Si O2"
_cell_formula_units_Z 16
_cell_length_a 11.424998
_cell_length_b 8.513307
_cell_length_c 8.426171
_cell_angle_alpha 90.000000
_cell_angle_beta 61.909696
_cell_angle_gamma 90.000000
_cell_volume 723.027773
_symmetry_space_group_name_H-M "P 21"
_symmetry_group_IT_number 4
_symmetry_cell_setting 'monoclinic'
loop_
_space_group_symop_operation_xyz
x,y,z
-x,1/2+y,-z
loop_
_atom_site_type_symbol
_atom_site_label
_atom_site_fract_x
_atom_site_fract_y
_atom_site_fract_z
Si Si1 0.401879 0.721370 0.166747
Si Si2 0.380474 0.980414 0.951366
Si Si3 0.843304 0.182282 0.457904
Si Si4 0.752429 0.675514 0.732153
Si Si5 0.675848 0.988334 0.330133
Si Si6 0.223705 0.488879 0.078863
Si Si7 0.480715 0.250408 0.350266
Si Si8 0.020252 0.018536 0.602606
O O1 0.527786 0.627671 0.145543
O O2 0.293567 0.737457 0.371974
O O3 0.323575 0.618520 0.085177
O O4 0.441298 0.882018 0.059720
O O5 0.401002 0.864302 0.790859
O O6 0.250024 0.047775 0.121599
O O7 0.793468 0.088196 0.337243
O O8 0.929307 0.341237 0.399188
O O9 0.922360 0.057880 0.516937
O O10 0.777589 0.840524 0.801726
O O11 0.609840 0.692303 0.738526
O O12 0.853762 0.622729 0.530321
O O13 0.551549 0.104966 0.385960
O O14 0.619333 0.848870 0.475019
O O15 0.729334 0.939547 0.124097
O O16 0.074530 0.559484 0.188014
#
# Coordination Sequence:
#
# PCOD9118498 Si02
#       8
#     2   2   2   2   2   2   2   2
#     4  11  20  38  67  96 133 177 233 278 330 418
#     4  12  20  37  68 103 129 178 235 280 339 412
#     4  11  24  45  71 101 138 182 236 291 340 411
#     4  12  24  43  76 102 129 188 245 285 336 427
#     4  12  28  46  69 108 153 180 221 295 370 415
#     4  11  23  46  66 101 139 183 233 285 342 412
#     4  12  27  44  68 106 148 183 221 290 364 424
#     4  11  24  45  75  99 129 191 248 284 335 407
#
# _framework density 22.129163999999999
#
# number of rings (size 3 to 8) (size 9 to 14) (size 15 to 20)
#    0.000    0.500    7.500    0.750    3.500    1.000 
#    2.250    1.250    0.000    0.000    0.000    0.000 
#    0.000    0.000    0.000    0.000    0.000    0.000 
#
# Total GULP energy -89306.909632 kJ/mol
# GULP energy per Si atom -5581.681852 kJ/mol
# Density = 2.207880 g / cm^3
# Si number density = 22.129164 Si / 1000 Ang^3
#
#
#
# Elastic Constant Matrix: (Units=GPa)
#
#
# Indices 1 2 3 4 5 6 
#
# 1 58.4130 27.0179 18.9913 0.0000 -5.9337 0.0000
# 2 27.0179 87.4022 41.0845 0.0000 -3.1482 0.0000
# 3 18.9913 41.0845 109.4686 0.0000 -14.9126 0.0000
# 4 0.0000 0.0000 0.0000 43.0001 0.0000 -6.2326
# 5 -5.9337 -3.1482 -14.9126 0.0000 28.5252 0.0000
# 6 0.0000 0.0000 0.0000 -6.2326 0.0000 32.7032
#
#
#
# Elastic Compliance Matrix: (Units=1/GPa)
#
#
# Indices 1 2 3 4 5 6 
#
# 1 0.020404 -0.005744 -0.000961 0.000000 0.003108 0.000000
# 2 -0.005744 0.015553 -0.005135 0.000000 -0.002163 0.000000
# 3 -0.000961 -0.005135 0.011978 0.000000 0.005495 0.000000
# 4 0.000000 0.000000 0.000000 0.023916 0.000000 0.004558
# 5 0.003108 -0.002163 0.005495 0.000000 0.038337 0.000000
# 6 0.000000 0.000000 0.000000 0.004558 0.000000 0.031447
#
#
# Mechanical properties :
#
#
# Convention : Reuss Voigt Hill
#
# Bulk Modulus (GPa) = 41.22852 47.71901 44.47376
# Shear Modulus (GPa) = 28.83504 32.05837 30.44670
#
# Velocity S-wave (km/s) = 3.61367 3.81030 3.71329
# Velocity P-wave (km/s) = 6.00690 6.40066 6.20690
#
# Compressibility (1/GPa) = 0.02425506
#
# Stress axis : x y z
#
# Youngs Moduli (GPa) = 49.00931 64.29665 83.48898
#
# Poissons Ratio (x) = 0.36931 0.08021
# Poissons Ratio (y) = 0.28150 0.42874
# Poissons Ratio (z) = 0.04708 0.33018
#
# Static dielectric constant tensor:
#      x y z
#    x 1.803370 0.000000 -0.038350 
#    y 0.000000 1.847230 0.000000 
#    z -0.038350 0.000000 1.852000 
# 
# From -- ./inp_files/7784.got.cif
#   From: 2010.05.17/outbox.cif.g08.bks.cpg/sg4_4_cif.got.tgz:7784.got - 2010.06.03 18:43:04.
