data_PCOD9118392
_publ_section_title
;
Structure prediction by ZEFSAII (Michael W. Deem and Ramdas Pophale) SiO2 
 PCOD9118392
Probable space group: P 21
;
_chemical_formula_sum "Si O2"
_cell_formula_units_Z 16
_cell_length_a 8.272868
_cell_length_b 12.884374
_cell_length_c 12.083714
_cell_angle_alpha 90.000000
_cell_angle_beta 147.046524
_cell_angle_gamma 90.000000
_cell_volume 700.624161
_symmetry_space_group_name_H-M "P 21"
_symmetry_group_IT_number 4
_symmetry_cell_setting 'monoclinic'
loop_
_space_group_symop_operation_xyz
x,y,z
-x,1/2+y,-z
loop_
_atom_site_type_symbol
_atom_site_label
_atom_site_fract_x
_atom_site_fract_y
_atom_site_fract_z
Si Si1 0.594366 0.119860 0.134298
Si Si2 0.421171 0.350499 0.453101
Si Si3 0.462695 0.673403 0.646966
Si Si4 0.175383 0.237419 0.734601
Si Si5 0.855458 0.436960 0.076458
Si Si6 0.955153 0.050977 0.022478
Si Si7 0.000003 0.461631 0.726751
Si Si8 0.560279 0.254021 0.766097
O O1 0.563368 0.175389 0.234914
O O2 0.908804 0.065185 0.287660
O O3 0.460038 0.194217 0.963759
O O4 0.373539 0.020273 0.009511
O O5 0.400254 0.272339 0.336999
O O6 0.095182 0.390683 0.297715
O O7 0.546140 0.289181 0.631189
O O8 0.655004 0.437799 0.550323
O O9 0.697538 0.582186 0.759973
O O10 0.121867 0.671250 0.409416
O O11 0.113399 0.355598 0.735863
O O12 0.247519 0.231579 0.646144
O O13 0.055648 0.491807 0.098313
O O14 0.686141 0.348114 0.912079
O O15 0.858914 0.982224 0.071157
O O16 0.768335 0.155042 0.902209
#
# Coordination Sequence:
#
# PCOD9118392 Si02
#       8
#     2   2   2   2   2   2   2   2
#     4  11  25  47  72  97 142 185 233 282 360 417
#     4  11  26  44  73 102 142 181 235 292 344 416
#     4  10  26  43  67 100 136 181 226 285 348 407
#     4  11  26  45  69 102 144 185 227 298 351 408
#     4  11  25  44  69 101 137 184 228 292 348 414
#     4  11  24  43  73  97 139 184 232 284 349 418
#     4  11  24  45  68 105 139 181 237 287 342 422
#     4  12  24  47  67 104 141 183 236 286 350 416
#
# _framework density 22.836780999999998
#
# number of rings (size 3 to 8) (size 9 to 14) (size 15 to 20)
#    0.000    1.000    5.000    0.000   10.500    3.000 
#    0.000    0.000    0.000    0.000    0.000    0.000 
#    0.000    0.000    0.000    0.000    0.000    0.000 
#
# Total GULP energy -89409.786008 kJ/mol
# GULP energy per Si atom -5588.111625 kJ/mol
# Density = 2.278480 g / cm^3
# Si number density = 22.836781 Si / 1000 Ang^3
#
#
#
# Elastic Constant Matrix: (Units=GPa)
#
#
# Indices 1 2 3 4 5 6 
#
# 1 95.5918 12.5642 23.9258 0.0000 -1.1813 0.0000
# 2 12.5642 46.2718 34.8499 0.0000 1.6193 0.0000
# 3 23.9258 34.8499 74.4837 0.0000 5.6859 0.0000
# 4 0.0000 0.0000 0.0000 36.2460 0.0000 -1.5458
# 5 -1.1813 1.6193 5.6859 0.0000 23.6711 0.0000
# 6 0.0000 0.0000 0.0000 -1.5458 0.0000 35.4429
#
#
#
# Elastic Compliance Matrix: (Units=1/GPa)
#
#
# Indices 1 2 3 4 5 6 
#
# 1 0.011433 -0.000472 -0.003563 0.000000 0.001459 0.000000
# 2 -0.000472 0.033443 -0.015605 0.000000 0.001437 0.000000
# 3 -0.003563 -0.015605 0.022211 0.000000 -0.004445 0.000000
# 4 0.000000 0.000000 0.000000 0.027641 0.000000 0.001206
# 5 0.001459 0.001437 -0.004445 0.000000 0.043288 0.000000
# 6 0.000000 0.000000 0.000000 0.001206 0.000000 0.028267
#
#
# Mechanical properties :
#
#
# Convention : Reuss Voigt Hill
#
# Bulk Modulus (GPa) = 35.96351 39.89189 37.92770
# Shear Modulus (GPa) = 23.27402 28.73916 26.00659
#
# Velocity S-wave (km/s) = 3.19587 3.55133 3.37828
# Velocity P-wave (km/s) = 5.42221 5.85850 5.64457
#
# Compressibility (1/GPa) = 0.02780596
#
# Stress axis : x y z
#
# Youngs Moduli (GPa) = 87.46603 29.90200 45.02234
#
# Poissons Ratio (x) = 0.01411 0.16042
# Poissons Ratio (y) = 0.04128 0.70259
# Poissons Ratio (z) = 0.31165 0.46663
#
# Static dielectric constant tensor:
#      x y z
#    x 1.863970 0.000000 0.027510 
#    y 0.000000 1.834210 0.000000 
#    z 0.027510 0.000000 1.871940 
# 
# From -- ./inp_files/6692.got.cif
#   From: 2010.05.17/outbox.cif.g08.bks.cpg/sg4_4_cif.got.tgz:6692.got - 2010.06.03 18:43:04.
