data_PCOD9118406
_publ_section_title
;
Structure prediction by ZEFSAII (Michael W. Deem and Ramdas Pophale) SiO2 
 PCOD9118406
Probable space group: P 21
;
_chemical_formula_sum "Si O2"
_cell_formula_units_Z 14
_cell_length_a 8.473053
_cell_length_b 10.560310
_cell_length_c 9.369723
_cell_angle_alpha 90.000000
_cell_angle_beta 135.548827
_cell_angle_gamma 90.000000
_cell_volume 587.121795
_symmetry_space_group_name_H-M "P 21"
_symmetry_group_IT_number 4
_symmetry_cell_setting 'monoclinic'
loop_
_space_group_symop_operation_xyz
x,y,z
-x,1/2+y,-z
loop_
_atom_site_type_symbol
_atom_site_label
_atom_site_fract_x
_atom_site_fract_y
_atom_site_fract_z
Si Si1 0.536244 0.959590 0.849319
Si Si2 0.158522 0.072622 0.767054
Si Si3 0.632050 0.333049 0.006349
Si Si4 0.376927 0.976661 0.427112
Si Si5 0.036501 0.312627 0.874562
Si Si6 0.258613 0.422694 0.557515
Si Si7 0.935087 0.717838 0.787383
O O1 0.493300 0.963167 0.654920
O O2 0.389883 0.072829 0.826149
O O3 0.414740 0.840977 0.854206
O O4 0.796443 0.930664 0.046378
O O5 0.087416 0.200919 0.795937
O O6 0.952058 0.013403 0.542732
O O7 0.219570 0.963261 0.923050
O O8 0.796896 0.590886 0.682182
O O9 0.400952 0.361365 0.776292
O O10 0.795783 0.221852 0.064761
O O11 0.563638 0.996333 0.426999
O O12 0.223569 0.853695 0.297532
O O13 0.095122 0.265543 0.070750
O O14 0.165114 0.311589 0.396543
#
# Coordination Sequence:
#
# PCOD9118406 Si02
#       7
#     2   2   2   2   2   2   2
#     4  10  26  45  66 109 138 183 236 283 358 418
#     4   9  25  44  70  99 143 185 231 283 363 413
#     4   9  22  47  69  98 143 187 225 288 358 412
#     4  12  27  41  72 109 136 182 245 293 343 433
#     4  12  25  45  72 104 145 185 236 294 354 422
#     4  11  22  45  72  99 138 187 236 284 357 419
#     4  11  25  43  71 102 139 187 241 285 353 417
#
# _framework density 23.845137999999999
#
# number of rings (size 3 to 8) (size 9 to 14) (size 15 to 20)
#    0.857    0.571    2.857    0.857    6.000    5.714 
#    0.000    0.000    0.000    0.000    0.000    0.000 
#    0.000    0.000    0.000    0.000    0.000    0.000 
#
# Total GULP energy -78222.982253 kJ/mol
# GULP energy per Si atom -5587.355875 kJ/mol
# Density = 2.379087 g / cm^3
# Si number density = 23.845138 Si / 1000 Ang^3
#
#
#
# Elastic Constant Matrix: (Units=GPa)
#
#
# Indices 1 2 3 4 5 6 
#
# 1 85.3673 1.1051 15.3822 0.0000 26.0559 0.0000
# 2 1.1051 56.4961 16.4129 0.0000 18.1166 0.0000
# 3 15.3822 16.4129 72.2615 0.0000 16.1708 0.0000
# 4 0.0000 0.0000 0.0000 21.8879 0.0000 5.9099
# 5 26.0559 18.1166 16.1708 0.0000 46.4502 0.0000
# 6 0.0000 0.0000 0.0000 5.9099 0.0000 33.9455
#
#
#
# Elastic Compliance Matrix: (Units=1/GPa)
#
#
# Indices 1 2 3 4 5 6 
#
# 1 0.014693 0.003072 -0.001858 0.000000 -0.008793 0.000000
# 2 0.003072 0.021520 -0.003555 0.000000 -0.008879 0.000000
# 3 -0.001858 -0.003555 0.015723 0.000000 -0.003045 0.000000
# 4 0.000000 0.000000 0.000000 0.047941 0.000000 -0.008346
# 5 -0.008793 -0.008879 -0.003045 0.000000 0.030984 0.000000
# 6 0.000000 0.000000 0.000000 -0.008346 0.000000 0.030912
#
#
# Mechanical properties :
#
#
# Convention : Reuss Voigt Hill
#
# Bulk Modulus (GPa) = 21.16172 31.10281 26.13226
# Shear Modulus (GPa) = 27.44148 32.53837 29.98992
#
# Velocity S-wave (km/s) = 3.39605 3.69802 3.55025
# Velocity P-wave (km/s) = 4.92661 5.59515 5.27149
#
# Compressibility (1/GPa) = 0.04725514
#
# Stress axis : x y z
#
# Youngs Moduli (GPa) = 68.05971 46.46793 63.60128
#
# Poissons Ratio (x) = -0.14275 0.11815
# Poissons Ratio (y) = -0.20908 0.22610
# Poissons Ratio (z) = 0.12643 0.16519
#
# Static dielectric constant tensor:
#      x y z
#    x 1.929350 0.000000 0.031860 
#    y 0.000000 1.966230 0.000000 
#    z 0.031860 0.000000 1.857010 
# 
# From -- ./inp_files/6777.got.cif
#   From: 2010.05.17/outbox.cif.g08.bks.cpg/sg4_4_cif.got.tgz:6777.got - 2010.06.03 18:43:04.
