data_PCOD9118928
_publ_section_title
;
Structure prediction by ZEFSAII (Michael W. Deem and Ramdas Pophale) SiO2 
 PCOD9118928
Probable space group: P 21
;
_chemical_formula_sum "Si O2"
_cell_formula_units_Z 16
_cell_length_a 10.962110
_cell_length_b 8.311307
_cell_length_c 13.480481
_cell_angle_alpha 90.000000
_cell_angle_beta 147.415061
_cell_angle_gamma 90.000000
_cell_volume 661.445928
_symmetry_space_group_name_H-M "P 21"
_symmetry_group_IT_number 4
_symmetry_cell_setting 'monoclinic'
loop_
_space_group_symop_operation_xyz
x,y,z
-x,1/2+y,-z
loop_
_atom_site_type_symbol
_atom_site_label
_atom_site_fract_x
_atom_site_fract_y
_atom_site_fract_z
Si Si1 0.077831 0.187720 0.753604
Si Si2 0.434815 0.624648 0.583190
Si Si3 0.063708 0.672249 0.694031
Si Si4 0.844356 0.482050 0.376375
Si Si5 0.185609 0.674277 0.109421
Si Si6 0.678207 0.989891 0.982518
Si Si7 0.801902 0.525623 0.976409
Si Si8 0.363893 0.259829 0.467867
O O1 0.136690 0.134919 0.683862
O O2 0.210228 0.335469 0.891302
O O3 0.806811 0.209661 0.573895
O O4 0.155098 0.040358 0.878113
O O5 0.558715 0.589115 0.772003
O O6 0.386218 0.449879 0.501861
O O7 0.604431 0.716850 0.625542
O O8 0.285252 0.628898 0.909531
O O9 0.994575 0.525087 0.574325
O O10 0.862279 0.697216 0.635247
O O11 0.082286 0.828257 0.637448
O O12 0.581672 0.464533 0.222591
O O13 0.422756 0.679810 0.330151
O O14 0.165213 0.846684 0.042245
O O15 0.193296 0.541401 0.028978
O O16 0.989585 0.636368 0.052336
#
# Coordination Sequence:
#
# PCOD9118928 Si02
#       8
#     2   2   2   2   2   2   2   2
#     4  12  26  46  69 103 141 183 239 285 349 424
#     4  11  26  43  72 105 143 184 229 288 362 421
#     4  12  26  49  75 102 144 188 238 295 349 413
#     4  12  27  50  72 103 141 189 240 293 345 414
#     4  11  23  45  69 106 142 182 232 288 357 426
#     4  12  27  45  73 103 138 187 239 292 351 416
#     4  11  25  42  70 103 144 184 226 292 358 422
#     4  11  24  46  72 105 145 183 229 293 353 426
#
# _framework density 24.189430999999999
#
# number of rings (size 3 to 8) (size 9 to 14) (size 15 to 20)
#    0.000    0.500    3.750    3.750    5.250    4.000 
#    0.000    0.000    0.000    0.000    0.000    0.000 
#    0.000    0.000    0.000    0.000    0.000    0.000 
#
# Total GULP energy -89746.247881 kJ/mol
# GULP energy per Si atom -5609.140493 kJ/mol
# Density = 2.413437 g / cm^3
# Si number density = 24.189431 Si / 1000 Ang^3
#
#
#
# Elastic Constant Matrix: (Units=GPa)
#
#
# Indices 1 2 3 4 5 6 
#
# 1 43.1403 2.6938 0.4940 0.0000 -6.0743 0.0000
# 2 2.6938 58.6835 5.3079 0.0000 -0.1437 0.0000
# 3 0.4940 5.3079 78.7580 0.0000 -13.6562 0.0000
# 4 0.0000 0.0000 0.0000 36.7837 0.0000 -11.0931
# 5 -6.0743 -0.1437 -13.6562 0.0000 29.5068 0.0000
# 6 0.0000 0.0000 0.0000 -11.0931 0.0000 40.4586
#
#
#
# Elastic Compliance Matrix: (Units=1/GPa)
#
#
# Indices 1 2 3 4 5 6 
#
# 1 0.023993 -0.001165 0.000852 0.000000 0.005328 0.000000
# 2 -0.001165 0.017208 -0.001282 0.000000 -0.000750 0.000000
# 3 0.000852 -0.001282 0.013925 0.000000 0.006614 0.000000
# 4 0.000000 0.000000 0.000000 0.029636 0.000000 0.008126
# 5 0.005328 -0.000750 0.006614 0.000000 0.038045 0.000000
# 6 0.000000 0.000000 0.000000 0.008126 0.000000 0.026945
#
#
# Mechanical properties :
#
#
# Convention : Reuss Voigt Hill
#
# Bulk Modulus (GPa) = 19.25490 21.95256 20.60373
# Shear Modulus (GPa) = 29.36755 32.82221 31.09488
#
# Velocity S-wave (km/s) = 3.48812 3.68758 3.58924
# Velocity P-wave (km/s) = 4.91935 5.21786 5.07080
#
# Compressibility (1/GPa) = 0.05193482
#
# Stress axis : x y z
#
# Youngs Moduli (GPa) = 41.67810 58.11175 71.81313
#
# Poissons Ratio (x) = 0.06772 -0.06118
# Poissons Ratio (y) = 0.04857 0.09209
# Poissons Ratio (z) = -0.03551 0.07452
#
# Static dielectric constant tensor:
#      x y z
#    x 1.866630 0.000000 -0.015610 
#    y 0.000000 1.953030 0.000000 
#    z -0.015610 0.000000 1.904980 
# 
# From -- ./inp_files/12556.got.cif
#   From: 2010.05.17/outbox.cif.g08.bks.cpg/sg4_7_cif.got.tgz:12556.got - 2010.06.03 18:43:04.
