data_PCOD9118924
_publ_section_title
;
Structure prediction by ZEFSAII (Michael W. Deem and Ramdas Pophale) SiO2 
 PCOD9118924
Probable space group: P 21
;
_chemical_formula_sum "Si O2"
_cell_formula_units_Z 16
_cell_length_a 7.585395
_cell_length_b 9.102456
_cell_length_c 16.503167
_cell_angle_alpha 90.000000
_cell_angle_beta 145.386337
_cell_angle_gamma 90.000000
_cell_volume 647.266330
_symmetry_space_group_name_H-M "P 21"
_symmetry_group_IT_number 4
_symmetry_cell_setting 'monoclinic'
loop_
_space_group_symop_operation_xyz
x,y,z
-x,1/2+y,-z
loop_
_atom_site_type_symbol
_atom_site_label
_atom_site_fract_x
_atom_site_fract_y
_atom_site_fract_z
Si Si1 0.201098 0.105030 0.830523
Si Si2 0.787546 0.252148 0.558639
Si Si3 0.294052 0.892414 0.638238
Si Si4 0.817682 0.268937 0.114045
Si Si5 0.585308 0.950638 0.344115
Si Si6 0.747155 0.159686 0.798578
Si Si7 0.262473 0.199451 0.130633
Si Si8 0.222759 0.061378 0.363942
O O1 0.065138 0.145530 0.691120
O O2 0.950925 0.177972 0.795659
O O3 0.218300 0.934474 0.865053
O O4 0.512438 0.195215 0.962132
O O5 0.717710 0.266982 0.436700
O O6 0.482577 0.182167 0.486246
O O7 0.841485 0.422747 0.603332
O O8 0.471814 0.822838 0.783140
O O9 0.941560 0.945628 0.506016
O O10 0.528699 0.020449 0.703184
O O11 0.069264 0.258164 0.136102
O O12 0.931953 0.157651 0.227091
O O13 0.486057 0.791749 0.276300
O O14 0.465821 0.057967 0.228992
O O15 0.376187 0.989075 0.342570
O O16 0.006664 0.159536 0.967317
#
# Coordination Sequence:
#
# PCOD9118924 Si02
#       8
#     2   2   2   2   2   2   2   2
#     4  12  26  45  71 105 140 189 235 296 357 425
#     4  12  24  44  72 100 141 188 230 297 357 415
#     4  12  25  48  69 103 141 186 238 295 357 423
#     4  11  25  48  69 104 143 184 244 289 359 424
#     4  11  25  43  70 105 137 186 239 287 356 422
#     4  12  25  47  71 102 143 184 242 292 351 427
#     4  11  25  48  71  99 144 190 233 299 352 417
#     4  11  23  45  67 100 143 181 235 293 349 425
#
# _framework density 24.719346000000002
#
# number of rings (size 3 to 8) (size 9 to 14) (size 15 to 20)
#    0.000    0.500    5.000    3.750    3.500    1.000 
#    4.500    0.000    0.000    0.000    0.000    0.000 
#    0.000    0.000    0.000    0.000    0.000    0.000 
#
# Total GULP energy -89528.591121 kJ/mol
# GULP energy per Si atom -5595.536945 kJ/mol
# Density = 2.466308 g / cm^3
# Si number density = 24.719346 Si / 1000 Ang^3
#
#
#
# Elastic Constant Matrix: (Units=GPa)
#
#
# Indices 1 2 3 4 5 6 
#
# 1 56.2469 19.2991 27.1846 0.0000 6.7083 0.0000
# 2 19.2991 120.9899 79.1749 0.0000 9.0321 0.0000
# 3 27.1846 79.1749 229.2115 0.0000 23.0484 0.0000
# 4 0.0000 0.0000 0.0000 57.9338 0.0000 6.3556
# 5 6.7083 9.0321 23.0484 0.0000 39.1121 0.0000
# 6 0.0000 0.0000 0.0000 6.3556 0.0000 20.6671
#
#
#
# Elastic Compliance Matrix: (Units=1/GPa)
#
#
# Indices 1 2 3 4 5 6 
#
# 1 0.019392 -0.002029 -0.001394 0.000000 -0.002036 0.000000
# 2 -0.002029 0.010895 -0.003513 0.000000 -0.000098 0.000000
# 3 -0.001394 -0.003513 0.005991 0.000000 -0.002480 0.000000
# 4 0.000000 0.000000 0.000000 0.017864 0.000000 -0.005494
# 5 -0.002036 -0.000098 -0.002480 0.000000 0.027401 0.000000
# 6 0.000000 0.000000 0.000000 -0.005494 0.000000 0.050076
#
#
# Mechanical properties :
#
#
# Convention : Reuss Voigt Hill
#
# Bulk Modulus (GPa) = 44.63201 73.08505 58.85853
# Shear Modulus (GPa) = 32.68874 42.26191 37.47532
#
# Velocity S-wave (km/s) = 3.64042 4.13930 3.89785
# Velocity P-wave (km/s) = 5.98038 7.24398 6.64229
#
# Compressibility (1/GPa) = 0.02240544
#
# Stress axis : x y z
#
# Youngs Moduli (GPa) = 51.56885 91.78636 166.91788
#
# Poissons Ratio (x) = 0.18621 0.23275
# Poissons Ratio (y) = 0.10462 0.58636
# Poissons Ratio (z) = 0.07191 0.32244
#
# Static dielectric constant tensor:
#      x y z
#    x 1.995360 0.000000 -0.035560 
#    y 0.000000 1.990320 0.000000 
#    z -0.035560 0.000000 1.969710 
# 
# From -- ./inp_files/7951.got.cif
#   From: 2010.05.17/outbox.cif.g08.bks.cpg/sg4_4_cif.got.tgz:7951.got - 2010.06.03 18:43:04.
