data_PCOD9118832
_publ_section_title
;
Structure prediction by ZEFSAII (Michael W. Deem and Ramdas Pophale) SiO2 
 PCOD9118832
Probable space group: P 21
;
_chemical_formula_sum "Si O2"
_cell_formula_units_Z 12
_cell_length_a 8.589627
_cell_length_b 13.164575
_cell_length_c 4.731538
_cell_angle_alpha 90.000000
_cell_angle_beta 118.793665
_cell_angle_gamma 90.000000
_cell_volume 468.884631
_symmetry_space_group_name_H-M "P 21"
_symmetry_group_IT_number 4
_symmetry_cell_setting 'monoclinic'
loop_
_space_group_symop_operation_xyz
x,y,z
-x,1/2+y,-z
loop_
_atom_site_type_symbol
_atom_site_label
_atom_site_fract_x
_atom_site_fract_y
_atom_site_fract_z
Si Si1 0.676772 0.943850 0.796508
Si Si2 0.243193 0.578165 0.606478
Si Si3 0.863088 0.747513 0.711356
Si Si4 0.830842 0.614620 0.161057
Si Si5 0.341074 0.906020 0.861534
Si Si6 0.236668 0.784065 0.305711
O O1 0.796639 0.854245 0.772372
O O2 0.518171 0.894184 0.833094
O O3 0.635414 0.005962 0.478681
O O4 0.749136 0.031464 0.073006
O O5 0.302754 0.690627 0.559525
O O6 0.033814 0.573275 0.342238
O O7 0.833592 0.714075 0.365209
O O8 0.776370 0.655609 0.809456
O O9 0.068756 0.744860 0.980931
O O10 0.705963 0.523061 0.137644
O O11 0.190610 0.865161 0.509697
O O12 0.345628 0.840725 0.153043
#
# Coordination Sequence:
#
# PCOD9118832 Si02
#       6
#     2   2   2   2   2   2
#     4  12  25  41  64  97 133 169 209 269 334 390
#     4  11  23  43  67  92 125 171 222 267 318 387
#     4  11  23  42  66  93 124 168 218 266 317 381
#     4  11  23  42  66  93 124 168 218 266 317 381
#     4  12  25  41  64  97 133 169 209 269 334 390
#     4  11  23  43  67  92 125 171 222 267 318 387
#
# _framework density 25.592648000000001
#
# number of rings (size 3 to 8) (size 9 to 14) (size 15 to 20)
#    0.000    0.667    0.000   10.000    0.000    4.000 
#    0.000    0.000    0.000    0.000    0.000    0.000 
#    0.000    0.000    0.000    0.000    0.000    0.000 
#
# Total GULP energy -67096.039479 kJ/mol
# GULP energy per Si atom -5591.336623 kJ/mol
# Density = 2.553440 g / cm^3
# Si number density = 25.592648 Si / 1000 Ang^3
#
#
#
# Elastic Constant Matrix: (Units=GPa)
#
#
# Indices 1 2 3 4 5 6 
#
# 1 80.4308 55.6406 28.9907 0.0000 -20.4119 0.0000
# 2 55.6406 135.3850 28.5605 0.0000 -12.8596 0.0000
# 3 28.9907 28.5605 95.1972 0.0000 -25.6826 0.0000
# 4 0.0000 0.0000 0.0000 32.2616 0.0000 -23.6875
# 5 -20.4119 -12.8596 -25.6826 0.0000 34.7391 0.0000
# 6 0.0000 0.0000 0.0000 -23.6875 0.0000 54.0559
#
#
#
# Elastic Compliance Matrix: (Units=1/GPa)
#
#
# Indices 1 2 3 4 5 6 
#
# 1 0.019964 -0.007076 -0.001872 0.000000 0.007727 0.000000
# 2 -0.007076 0.010453 -0.001323 0.000000 -0.001266 0.000000
# 3 -0.001872 -0.001323 0.013794 0.000000 0.008608 0.000000
# 4 0.000000 0.000000 0.000000 0.045700 0.000000 0.020026
# 5 0.007727 -0.001266 0.008608 0.000000 0.039221 0.000000
# 6 0.000000 0.000000 0.000000 0.020026 0.000000 0.027275
#
#
# Mechanical properties :
#
#
# Convention : Reuss Voigt Hill
#
# Bulk Modulus (GPa) = 42.24934 59.71076 50.98005
# Shear Modulus (GPa) = 27.05059 37.39940 32.22499
#
# Velocity S-wave (km/s) = 3.25463 3.82689 3.55230
# Velocity P-wave (km/s) = 5.53784 6.55047 6.06532
#
# Compressibility (1/GPa) = 0.02366901
#
# Stress axis : x y z
#
# Youngs Moduli (GPa) = 50.09088 95.66479 72.49611
#
# Poissons Ratio (x) = 0.67691 0.13573
# Poissons Ratio (y) = 0.35443 0.09590
# Poissons Ratio (z) = 0.09378 0.12655
#
# Static dielectric constant tensor:
#      x y z
#    x 2.033470 0.000000 0.050590 
#    y 0.000000 2.052250 0.000000 
#    z 0.050590 0.000000 2.007520 
# 
# From -- ./inp_files/1278.got.cif
#   From: 2010.05.17/outbox.cif.g08.bks.cpg/sg4_1_cif.got.tgz:1278.got - 2010.06.03 18:43:04.
