data_PCOD9118811
_publ_section_title
;
Structure prediction by ZEFSAII (Michael W. Deem and Ramdas Pophale) SiO2 
 PCOD9118811
Probable space group: P 21
;
_chemical_formula_sum "Si O2"
_cell_formula_units_Z 16
_cell_length_a 8.918906
_cell_length_b 17.134004
_cell_length_c 9.616076
_cell_angle_alpha 90.000000
_cell_angle_beta 150.024827
_cell_angle_gamma 90.000000
_cell_volume 734.196369
_symmetry_space_group_name_H-M "P 21"
_symmetry_group_IT_number 4
_symmetry_cell_setting 'monoclinic'
loop_
_space_group_symop_operation_xyz
x,y,z
-x,1/2+y,-z
loop_
_atom_site_type_symbol
_atom_site_label
_atom_site_fract_x
_atom_site_fract_y
_atom_site_fract_z
Si Si1 0.245414 0.710340 0.904803
Si Si2 0.186494 0.886724 0.791337
Si Si3 0.189567 0.985609 0.292388
Si Si4 0.810692 0.985698 0.707315
Si Si5 0.244107 0.210112 0.902618
Si Si6 0.185325 0.386602 0.790586
Si Si7 0.394769 0.654148 0.563540
Si Si8 0.606576 0.654285 0.438689
O O1 0.267219 0.804001 0.927199
O O2 0.896221 0.693016 0.599184
O O3 0.500810 0.684199 0.001374
O O4 0.330094 0.666237 0.113996
O O5 0.001917 0.937645 0.751029
O O6 0.000683 0.872561 0.500447
O O7 0.500672 0.925714 0.000423
O O8 0.500165 0.943383 0.499804
O O9 0.998933 0.937410 0.249174
O O10 0.297018 0.065860 0.451036
O O11 0.999959 0.000179 0.999776
O O12 0.702642 0.065878 0.548152
O O13 0.266266 0.303763 0.926136
O O14 0.894770 0.192963 0.596890
O O15 0.329065 0.165713 0.111709
O O16 0.501190 0.689326 0.501664
#
# Coordination Sequence:
#
# PCOD9118811 Si02
#       8
#     2   2   2   2   2   2   2   2
#     4  11  23  41  63  92 127 166 211 262 315 378
#     4  11  24  43  65  96 131 168 214 268 320 382
#     4  11  24  43  65  96 131 168 214 268 320 382
#     4  11  24  43  65  96 131 168 214 268 320 382
#     4  11  23  41  63  92 127 166 211 262 315 378
#     4  11  24  43  65  96 131 168 214 268 320 382
#     4  11  23  41  63  92 127 166 211 262 315 378
#     4  11  23  41  63  92 127 166 211 262 315 378
#
# _framework density 21.792535000000001
#
# number of rings (size 3 to 8) (size 9 to 14) (size 15 to 20)
#    0.000    1.000    0.000    9.000    0.000    6.000 
#    0.000    0.000    0.000    0.000    0.000    0.000 
#    0.000    0.000    0.000    0.000    0.000    0.000 
#
# Total GULP energy -89443.391976 kJ/mol
# GULP energy per Si atom -5590.211998 kJ/mol
# Density = 2.174293 g / cm^3
# Si number density = 21.792535 Si / 1000 Ang^3
#
#
#
# Elastic Constant Matrix: (Units=GPa)
#
#
# Indices 1 2 3 4 5 6 
#
# 1 142.7327 46.2221 22.0561 0.0000 22.0859 0.0000
# 2 46.2221 61.2026 18.0836 0.0000 -7.6452 0.0000
# 3 22.0561 18.0836 117.1944 0.0000 -6.7786 0.0000
# 4 0.0000 0.0000 0.0000 22.7943 0.0000 15.4092
# 5 22.0859 -7.6452 -6.7786 0.0000 58.8538 0.0000
# 6 0.0000 0.0000 0.0000 15.4092 0.0000 35.4835
#
#
#
# Elastic Compliance Matrix: (Units=1/GPa)
#
#
# Indices 1 2 3 4 5 6 
#
# 1 0.010705 -0.008438 -0.001015 0.000000 -0.005230 0.000000
# 2 -0.008438 0.023992 -0.001762 0.000000 0.006080 0.000000
# 3 -0.001015 -0.001762 0.009065 0.000000 0.001196 0.000000
# 4 0.000000 0.000000 0.000000 0.062102 0.000000 -0.026969
# 5 -0.005230 0.006080 0.001196 0.000000 0.019882 0.000000
# 6 0.000000 0.000000 0.000000 -0.026969 0.000000 0.039894
#
#
# Mechanical properties :
#
#
# Convention : Reuss Voigt Hill
#
# Bulk Modulus (GPa) = 46.88048 54.87258 50.87653
# Shear Modulus (GPa) = 25.61739 39.07750 32.34745
#
# Velocity S-wave (km/s) = 3.43229 4.23917 3.85689
# Velocity P-wave (km/s) = 6.10462 7.01391 6.57500
#
# Compressibility (1/GPa) = 0.02133084
#
# Stress axis : x y z
#
# Youngs Moduli (GPa) = 93.41608 41.68055 110.31432
#
# Poissons Ratio (x) = 0.35170 0.11199
# Poissons Ratio (y) = 0.78824 0.19441
# Poissons Ratio (z) = 0.09483 0.07346
#
# Static dielectric constant tensor:
#      x y z
#    x 1.822760 0.000000 0.019070 
#    y 0.000000 1.772110 0.000000 
#    z 0.019070 0.000000 1.776100 
# 
# From -- ./inp_files/6894.got.cif
#   From: 2010.05.17/outbox.cif.g08.bks.cpg/sg4_4_cif.got.tgz:6894.got - 2010.06.03 18:43:04.
