data_PCOD9118915
_publ_section_title
;
Structure prediction by ZEFSAII (Michael W. Deem and Ramdas Pophale) SiO2 
 PCOD9118915
Probable space group: P 21
;
_chemical_formula_sum "Si O2"
_cell_formula_units_Z 16
_cell_length_a 14.431341
_cell_length_b 9.818391
_cell_length_c 14.626202
_cell_angle_alpha 90.000000
_cell_angle_beta 160.412862
_cell_angle_gamma 90.000000
_cell_volume 694.759542
_symmetry_space_group_name_H-M "P 21"
_symmetry_group_IT_number 4
_symmetry_cell_setting 'monoclinic'
loop_
_space_group_symop_operation_xyz
x,y,z
-x,1/2+y,-z
loop_
_atom_site_type_symbol
_atom_site_label
_atom_site_fract_x
_atom_site_fract_y
_atom_site_fract_z
Si Si1 0.281737 0.546770 0.763433
Si Si2 0.268449 0.219960 0.718225
Si Si3 0.894942 0.982212 0.880930
Si Si4 0.621134 0.603220 0.896054
Si Si5 0.713246 0.469711 0.606027
Si Si6 0.174022 0.688236 0.349384
Si Si7 0.731043 0.320885 0.896960
Si Si8 0.802243 0.686500 0.561662
O O1 0.267182 0.378637 0.754976
O O2 0.450307 0.581206 0.828245
O O3 0.985849 0.623100 0.485728
O O4 0.458857 0.630988 0.003873
O O5 0.238205 0.228424 0.580135
O O6 0.602000 0.956502 0.655985
O O7 0.829159 0.071227 0.729840
O O8 0.105364 0.049910 0.149700
O O9 0.076170 0.859253 0.008083
O O10 0.453501 0.690771 0.666659
O O11 0.660436 0.458052 0.885005
O O12 0.925584 0.663016 0.189069
O O13 0.860650 0.325813 0.736844
O O14 0.747280 0.531475 0.536602
O O15 0.436883 0.257727 0.599635
O O16 0.900886 0.228340 0.124989
#
# Coordination Sequence:
#
# PCOD9118915 Si02
#       8
#     2   2   2   2   2   2   2   2
#     4  12  27  48  79 114 146 198 248 321 364 467
#     4  12  28  48  78 115 154 191 259 304 391 443
#     4  11  25  42  67 101 136 187 235 292 348 416
#     4  11  23  46  75  97 133 186 236 284 361 425
#     4  12  27  43  66 103 144 184 232 301 358 420
#     4  11  25  44  67 103 139 180 242 296 353 436
#     4  11  23  44  73  99 131 184 242 283 336 436
#     4  12  26  45  73 102 145 188 232 295 363 433
#
# _framework density 23.029551000000001
#
# number of rings (size 3 to 8) (size 9 to 14) (size 15 to 20)
#    0.000    0.500    1.250    7.500    7.000    3.000 
#    0.000    0.000    0.000    0.000    0.000    0.000 
#    0.000    0.000    0.000    0.000    0.000    0.000 
#
# Total GULP energy -89430.398636 kJ/mol
# GULP energy per Si atom -5589.399915 kJ/mol
# Density = 2.297713 g / cm^3
# Si number density = 23.029551 Si / 1000 Ang^3
#
#
#
# Elastic Constant Matrix: (Units=GPa)
#
#
# Indices 1 2 3 4 5 6 
#
# 1 84.7842 24.9938 2.7232 0.0000 20.4274 0.0000
# 2 24.9938 89.2564 5.5009 0.0000 2.4063 0.0000
# 3 2.7232 5.5009 86.4682 0.0000 11.0283 0.0000
# 4 0.0000 0.0000 0.0000 30.2372 0.0000 -0.0705
# 5 20.4274 2.4063 11.0283 0.0000 51.6328 0.0000
# 6 0.0000 0.0000 0.0000 -0.0705 0.0000 4.5151
#
#
#
# Elastic Compliance Matrix: (Units=1/GPa)
#
#
# Indices 1 2 3 4 5 6 
#
# 1 0.014263 -0.003875 0.000508 0.000000 -0.005571 0.000000
# 2 -0.003875 0.012308 -0.000805 0.000000 0.001131 0.000000
# 3 0.000508 -0.000805 0.011946 0.000000 -0.002715 0.000000
# 4 0.000000 0.000000 0.000000 0.033073 0.000000 0.000516
# 5 -0.005571 0.001131 -0.002715 0.000000 0.022099 0.000000
# 6 0.000000 0.000000 0.000000 0.000516 0.000000 0.221486
#
#
# Mechanical properties :
#
#
# Convention : Reuss Voigt Hill
#
# Bulk Modulus (GPa) = 33.14303 36.32717 34.73510
# Shear Modulus (GPa) = 14.98903 32.42975 23.70939
#
# Velocity S-wave (km/s) = 2.55396 3.75664 3.21209
# Velocity P-wave (km/s) = 4.80830 5.88429 5.37330
#
# Compressibility (1/GPa) = 0.03017225
#
# Stress axis : x y z
#
# Youngs Moduli (GPa) = 70.11226 81.24861 83.70681
#
# Poissons Ratio (x) = 0.31484 -0.04251
# Poissons Ratio (y) = 0.27169 0.06741
# Poissons Ratio (z) = -0.03561 0.06543
#
# Static dielectric constant tensor:
#      x y z
#    x 1.864740 0.000000 -0.037940 
#    y 0.000000 1.910460 0.000000 
#    z -0.037940 0.000000 1.905500 
# 
# From -- ./inp_files/14189.got.cif
#   From: 2010.05.17/outbox.cif.g08.bks.cpg/sg4_8_cif.got.tgz:14189.got - 2010.06.03 18:43:04.
