data_PCOD9118885
_publ_section_title
;
Structure prediction by ZEFSAII (Michael W. Deem and Ramdas Pophale) SiO2 
 PCOD9118885
Probable space group: P 21
;
_chemical_formula_sum "Si O2"
_cell_formula_units_Z 16
_cell_length_a 11.424579
_cell_length_b 6.038091
_cell_length_c 11.721849
_cell_angle_alpha 90.000000
_cell_angle_beta 48.042680
_cell_angle_gamma 90.000000
_cell_volume 601.312885
_symmetry_space_group_name_H-M "P 21"
_symmetry_group_IT_number 4
_symmetry_cell_setting 'monoclinic'
loop_
_space_group_symop_operation_xyz
x,y,z
-x,1/2+y,-z
loop_
_atom_site_type_symbol
_atom_site_label
_atom_site_fract_x
_atom_site_fract_y
_atom_site_fract_z
Si Si1 0.499613 0.848150 0.946254
Si Si2 0.336860 0.073445 0.863691
Si Si3 0.380963 0.693517 0.670897
Si Si4 0.005302 0.717383 0.201217
Si Si5 0.082048 0.422831 0.967163
Si Si6 0.080949 0.574490 0.579077
Si Si7 0.390736 0.830546 0.406146
Si Si8 0.150525 0.421921 0.291673
O O1 0.359034 0.898540 0.950199
O O2 0.674384 0.872116 0.782583
O O3 0.498544 0.585571 0.982657
O O4 0.359897 0.935447 0.734671
O O5 0.189918 0.232693 0.951426
O O6 0.492204 0.229172 0.764451
O O7 0.224364 0.564242 0.815711
O O8 0.400974 0.713486 0.523220
O O9 0.536641 0.573380 0.620278
O O10 0.125037 0.618755 0.217217
O O11 0.026198 0.856687 0.069957
O O12 0.891934 0.871579 0.351061
O O13 0.973724 0.498353 0.144652
O O14 0.213913 0.765855 0.488552
O O15 0.061177 0.480418 0.465690
O O16 0.921203 0.699697 0.715453
#
# Coordination Sequence:
#
# PCOD9118885 Si02
#       8
#     2   2   2   2   2   2   2   2
#     4  12  31  53  83 116 160 217 275 339 405 487
#     4  11  26  48  75 111 159 204 274 329 404 483
#     4  11  24  43  75 113 160 203 264 330 404 487
#     4  12  29  50  76 113 168 211 269 329 414 498
#     4  11  29  45  76 118 156 221 259 334 407 494
#     4  12  27  50  78 118 162 213 271 335 408 492
#     4  11  23  43  74 118 152 205 263 332 407 487
#     4  12  29  50  81 117 161 218 271 340 403 498
#
# _framework density 26.608447000000002
#
# number of rings (size 3 to 8) (size 9 to 14) (size 15 to 20)
#    0.000    0.500    5.000    0.750   12.250    2.000 
#    0.000    0.000    0.000    0.000    0.000    0.000 
#    0.000    0.000    0.000    0.000    0.000    0.000 
#
# Total GULP energy -89216.831469 kJ/mol
# GULP energy per Si atom -5576.051967 kJ/mol
# Density = 2.654789 g / cm^3
# Si number density = 26.608447 Si / 1000 Ang^3
#
#
#
# Elastic Constant Matrix: (Units=GPa)
#
#
# Indices 1 2 3 4 5 6 
#
# 1 99.2610 38.9867 36.1936 0.0000 14.4811 0.0000
# 2 38.9867 85.0320 57.2416 0.0000 -19.5428 0.0000
# 3 36.1936 57.2416 90.5766 0.0000 21.9333 0.0000
# 4 0.0000 0.0000 0.0000 47.5166 0.0000 0.3909
# 5 14.4811 -19.5428 21.9333 0.0000 39.5196 0.0000
# 6 0.0000 0.0000 0.0000 0.3909 0.0000 31.7737
#
#
#
# Elastic Compliance Matrix: (Units=1/GPa)
#
#
# Indices 1 2 3 4 5 6 
#
# 1 0.018229 -0.024355 0.014604 0.000000 -0.026829 0.000000
# 2 -0.024355 0.094121 -0.072991 0.000000 0.095978 0.000000
# 3 0.014604 -0.072991 0.070897 0.000000 -0.080794 0.000000
# 4 0.000000 0.000000 0.000000 0.021047 0.000000 -0.000259
# 5 -0.026829 0.095978 -0.080794 0.000000 0.127437 0.000000
# 6 0.000000 0.000000 0.000000 -0.000259 0.000000 0.031476
#
#
# Mechanical properties :
#
#
# Convention : Reuss Voigt Hill
#
# Bulk Modulus (GPa) = 56.29456 59.96814 58.13135
# Shear Modulus (GPa) = 9.35255 33.25850 21.30552
#
# Velocity S-wave (km/s) = 1.87683 3.53926 2.83274
# Velocity P-wave (km/s) = 5.08913 6.26801 5.70908
#
# Compressibility (1/GPa) = 0.01776371
#
# Stress axis : x y z
#
# Youngs Moduli (GPa) = 54.85641 10.62457 14.10497
#
# Poissons Ratio (x) = 0.25877 -0.20599
# Poissons Ratio (y) = 1.33605 1.02953
# Poissons Ratio (z) = -0.80114 0.77550
#
# Static dielectric constant tensor:
#      x y z
#    x 2.035540 0.000000 -0.030170 
#    y 0.000000 2.280210 0.000000 
#    z -0.030170 0.000000 2.061470 
# 
# From -- ./inp_files/11573.got.cif
#   From: 2010.05.17/outbox.cif.g08.bks.cpg/sg4_6_cif.got.tgz:11573.got - 2010.06.03 18:43:04.
