data_PCOD9118168
_publ_section_title
;
Structure prediction by ZEFSAII (Michael W. Deem and Ramdas Pophale) SiO2 
 PCOD9118168
Probable space group: P 21
;
_chemical_formula_sum "Si O2"
_cell_formula_units_Z 16
_cell_length_a 7.768920
_cell_length_b 9.305841
_cell_length_c 11.098689
_cell_angle_alpha 90.000000
_cell_angle_beta 128.788011
_cell_angle_gamma 90.000000
_cell_volume 625.441712
_symmetry_space_group_name_H-M "P 21"
_symmetry_group_IT_number 4
_symmetry_cell_setting 'monoclinic'
loop_
_space_group_symop_operation_xyz
x,y,z
-x,1/2+y,-z
loop_
_atom_site_type_symbol
_atom_site_label
_atom_site_fract_x
_atom_site_fract_y
_atom_site_fract_z
Si Si1 0.046266 0.664850 0.335339
Si Si2 0.637264 0.404632 0.558942
Si Si3 0.842285 0.857423 0.681976
Si Si4 0.589655 0.808042 0.068289
Si Si5 0.165861 0.127275 0.522668
Si Si6 0.433605 0.549230 0.122964
Si Si7 0.993371 0.205289 0.015410
Si Si8 0.684424 0.468019 0.845909
O O1 0.843064 0.765417 0.205195
O O2 0.037739 0.643315 0.475805
O O3 0.267715 0.743961 0.391627
O O4 0.025291 0.505041 0.273706
O O5 0.405866 0.397287 0.388305
O O6 0.815930 0.498378 0.564495
O O7 0.593621 0.474667 0.670045
O O8 0.817041 0.773013 0.545320
O O9 0.953030 0.751505 0.824751
O O10 0.456853 0.659820 0.021109
O O11 0.485381 0.902277 0.132571
O O12 0.557155 0.893302 0.930636
O O13 0.370094 0.094325 0.702019
O O14 0.201785 0.589192 0.079228
O O15 0.209417 0.119162 0.067916
O O16 0.883770 0.350525 0.917157
#
# Coordination Sequence:
#
# PCOD9118168 Si02
#       8
#     2   2   2   2   2   2   2   2
#     4  11  26  46  76 105 150 195 246 313 369 453
#     4  12  25  49  72 107 146 194 249 311 373 447
#     4  12  26  47  72 110 148 195 252 301 385 444
#     4  10  24  46  75 110 146 199 246 312 375 442
#     4  11  25  48  72 109 143 199 249 305 379 443
#     4  10  24  47  73 106 152 190 251 311 370 453
#     4  11  26  44  72 109 142 200 240 310 372 444
#     4  11  26  47  76 108 151 190 251 309 373 450
#
# _framework density 25.581921000000001
#
# number of rings (size 3 to 8) (size 9 to 14) (size 15 to 20)
#    0.000    1.000    1.250    4.500   10.500    1.000 
#    0.000    0.000    0.000    0.000    0.000    0.000 
#    0.000    0.000    0.000    0.000    0.000    0.000 
#
# Total GULP energy -89618.666501 kJ/mol
# GULP energy per Si atom -5601.166656 kJ/mol
# Density = 2.552370 g / cm^3
# Si number density = 25.581921 Si / 1000 Ang^3
#
#
#
# Elastic Constant Matrix: (Units=GPa)
#
#
# Indices 1 2 3 4 5 6 
#
# 1 70.2484 28.7816 22.5208 0.0000 -3.1103 0.0000
# 2 28.7816 129.0968 42.1442 0.0000 -6.1671 0.0000
# 3 22.5208 42.1442 96.4487 0.0000 -4.8628 0.0000
# 4 0.0000 0.0000 0.0000 30.6270 0.0000 -3.4726
# 5 -3.1103 -6.1671 -4.8628 0.0000 39.6315 0.0000
# 6 0.0000 0.0000 0.0000 -3.4726 0.0000 59.8360
#
#
#
# Elastic Compliance Matrix: (Units=1/GPa)
#
#
# Indices 1 2 3 4 5 6 
#
# 1 0.016206 -0.002754 -0.002554 0.000000 0.000530 0.000000
# 2 -0.002754 0.009537 -0.003482 0.000000 0.000841 0.000000
# 3 -0.002554 -0.003482 0.012526 0.000000 0.000795 0.000000
# 4 0.000000 0.000000 0.000000 0.032867 0.000000 0.001907
# 5 0.000530 0.000841 0.000795 0.000000 0.025502 0.000000
# 6 0.000000 0.000000 0.000000 0.001907 0.000000 0.016823
#
#
# Mechanical properties :
#
#
# Convention : Reuss Voigt Hill
#
# Bulk Modulus (GPa) = 48.33425 53.63190 50.98308
# Shear Modulus (GPa) = 36.24835 39.50869 37.87852
#
# Velocity S-wave (km/s) = 3.76833 3.93415 3.85213
# Velocity P-wave (km/s) = 6.15375 6.45345 6.30538
#
# Compressibility (1/GPa) = 0.02068926
#
# Stress axis : x y z
#
# Youngs Moduli (GPa) = 61.70646 104.85563 79.83363
#
# Poissons Ratio (x) = 0.28877 0.20389
# Poissons Ratio (y) = 0.16994 0.27797
# Poissons Ratio (z) = 0.15760 0.36509
#
# Static dielectric constant tensor:
#      x y z
#    x 2.044500 0.000000 -0.022350 
#    y 0.000000 1.983450 0.000000 
#    z -0.022350 0.000000 2.025120 
# 
# From -- ./inp_files/11091.got.cif
#   From: 2010.05.17/outbox.cif.g08.bks.cpg/sg4_6_cif.got.tgz:11091.got - 2010.06.03 18:43:04.
