data_PCOD9118999
_publ_section_title
;
Structure prediction by ZEFSAII (Michael W. Deem and Ramdas Pophale) SiO2 
 PCOD9118999
Probable space group: P 21
;
_chemical_formula_sum "Si O2"
_cell_formula_units_Z 14
_cell_length_a 12.675461
_cell_length_b 7.551229
_cell_length_c 6.336496
_cell_angle_alpha 90.000000
_cell_angle_beta 108.644649
_cell_angle_gamma 90.000000
_cell_volume 574.670305
_symmetry_space_group_name_H-M "P 21"
_symmetry_group_IT_number 4
_symmetry_cell_setting 'monoclinic'
loop_
_space_group_symop_operation_xyz
x,y,z
-x,1/2+y,-z
loop_
_atom_site_type_symbol
_atom_site_label
_atom_site_fract_x
_atom_site_fract_y
_atom_site_fract_z
Si Si1 0.370004 0.587870 0.937671
Si Si2 0.878269 0.463836 0.962935
Si Si3 0.793379 0.890647 0.466208
Si Si4 0.463744 0.878107 0.725756
Si Si5 0.658629 0.625173 0.676727
Si Si6 0.042524 0.311484 0.778147
Si Si7 0.181837 0.591523 0.115725
O O1 0.297174 0.445726 0.765377
O O2 0.377548 0.755709 0.793198
O O3 0.490916 0.518989 0.075975
O O4 0.307714 0.615131 0.118430
O O5 0.751998 0.532456 0.880661
O O6 0.878107 0.259030 0.033954
O O7 0.930526 0.421671 0.762675
O O8 0.949653 0.608280 0.135722
O O9 0.734884 0.739927 0.566325
O O10 0.905784 0.831693 0.419710
O O11 0.815556 0.058047 0.633384
O O12 0.568978 0.756512 0.724481
O O13 0.410169 0.977799 0.494740
O O14 0.128371 0.414930 0.987033
#
# Coordination Sequence:
#
# PCOD9118999 Si02
#       7
#     2   2   2   2   2   2   2
#     4  11  25  43  70 102 140 196 243 302 366 440
#     4  12  25  47  76 109 148 196 240 314 366 455
#     4  11  23  48  71 107 148 190 245 314 365 454
#     4  12  26  44  71 107 149 197 252 307 369 439
#     4  12  26  44  74 107 151 195 251 308 369 442
#     4  11  25  47  75 109 145 191 244 302 385 441
#     4  11  24  47  71 105 151 183 247 305 364 449
#
# _framework density 24.361792999999999
#
# number of rings (size 3 to 8) (size 9 to 14) (size 15 to 20)
#    0.000    0.571    4.286    3.429    6.000    1.143 
#    0.000    0.000    0.000    0.000    0.000    0.000 
#    0.000    0.000    0.000    0.000    0.000    0.000 
#
# Total GULP energy -78246.842355 kJ/mol
# GULP energy per Si atom -5589.060168 kJ/mol
# Density = 2.430634 g / cm^3
# Si number density = 24.361793 Si / 1000 Ang^3
#
#
#
# Elastic Constant Matrix: (Units=GPa)
#
#
# Indices 1 2 3 4 5 6 
#
# 1 89.6539 32.9710 16.8947 0.0000 -13.0853 0.0000
# 2 32.9710 120.6862 31.0272 0.0000 -7.9325 0.0000
# 3 16.8947 31.0272 60.8888 0.0000 -4.3700 0.0000
# 4 0.0000 0.0000 0.0000 35.9891 0.0000 8.3886
# 5 -13.0853 -7.9325 -4.3700 0.0000 52.0613 0.0000
# 6 0.0000 0.0000 0.0000 8.3886 0.0000 47.9947
#
#
#
# Elastic Compliance Matrix: (Units=1/GPa)
#
#
# Indices 1 2 3 4 5 6 
#
# 1 0.012963 -0.002867 -0.001945 0.000000 0.002658 0.000000
# 2 -0.002867 0.010227 -0.004382 0.000000 0.000470 0.000000
# 3 -0.001945 -0.004382 0.019229 0.000000 0.000457 0.000000
# 4 0.000000 0.000000 0.000000 0.028966 0.000000 -0.005063
# 5 0.002658 0.000470 0.000457 0.000000 0.019986 0.000000
# 6 0.000000 0.000000 0.000000 -0.005063 0.000000 0.021721
#
#
# Mechanical properties :
#
#
# Convention : Reuss Voigt Hill
#
# Bulk Modulus (GPa) = 41.61380 48.11273 44.86326
# Shear Modulus (GPa) = 35.84510 39.89810 37.87160
#
# Velocity S-wave (km/s) = 3.84000 4.05128 3.94705
# Velocity P-wave (km/s) = 6.06461 6.45569 6.26320
#
# Compressibility (1/GPa) = 0.02403049
#
# Stress axis : x y z
#
# Youngs Moduli (GPa) = 77.14425 97.78472 52.00494
#
# Poissons Ratio (x) = 0.28030 0.10116
# Poissons Ratio (y) = 0.22114 0.22789
# Poissons Ratio (z) = 0.15007 0.42850
#
# Static dielectric constant tensor:
#      x y z
#    x 2.018690 0.000000 -0.045280 
#    y 0.000000 1.949160 0.000000 
#    z -0.045280 0.000000 1.890660 
# 
# From -- ./inp_files/2493.got.cif
#   From: 2010.05.17/outbox.cif.g08.bks.cpg/sg4_2_cif.got.tgz:2493.got - 2010.06.03 18:43:04.
