data_PCOD9118487
_publ_section_title
;
Structure prediction by ZEFSAII (Michael W. Deem and Ramdas Pophale) SiO2 
 PCOD9118487
Probable space group: P 21
;
_chemical_formula_sum "Si O2"
_cell_formula_units_Z 16
_cell_length_a 12.120098
_cell_length_b 6.699733
_cell_length_c 12.644472
_cell_angle_alpha 90.000000
_cell_angle_beta 125.843346
_cell_angle_gamma 90.000000
_cell_volume 832.304423
_symmetry_space_group_name_H-M "P 21"
_symmetry_group_IT_number 4
_symmetry_cell_setting 'monoclinic'
loop_
_space_group_symop_operation_xyz
x,y,z
-x,1/2+y,-z
loop_
_atom_site_type_symbol
_atom_site_label
_atom_site_fract_x
_atom_site_fract_y
_atom_site_fract_z
Si Si1 0.050721 0.658860 0.397373
Si Si2 0.735079 0.216906 0.991926
Si Si3 0.196995 0.997168 0.605357
Si Si4 0.570141 0.560603 0.789099
Si Si5 0.706624 0.900049 0.390373
Si Si6 0.024696 0.029432 0.870149
Si Si7 0.810041 0.836426 0.894126
Si Si8 0.640659 0.169525 0.172553
O O1 0.162121 0.485012 0.477915
O O2 0.922276 0.610751 0.399149
O O3 0.003902 0.653765 0.251025
O O4 0.124639 0.857937 0.478456
O O5 0.867562 0.352289 0.091898
O O6 0.656434 0.172114 0.056768
O O7 0.644544 0.357873 0.865547
O O8 0.775760 0.015125 0.955597
O O9 0.293245 0.163551 0.608834
O O10 0.281393 0.857076 0.732173
O O11 0.432911 0.503379 0.649756
O O12 0.673480 0.712298 0.793523
O O13 0.511681 0.659835 0.865390
O O14 0.709770 0.978162 0.269501
O O15 0.090155 0.177055 0.993394
O O16 0.888416 0.931994 0.839969
#
# Coordination Sequence:
#
# PCOD9118487 Si02
#       8
#     2   2   2   2   2   2   2   2
#     4  11  22  36  65  93 125 166 205 254 313 374
#     4  11  22  37  64  88 128 164 200 267 303 375
#     4  11  20  36  57  93 133 158 194 262 308 372
#     4   9  24  37  60  90 125 163 209 249 316 375
#     4   9  22  38  57  90 129 160 199 249 316 380
#     4  11  24  42  64  94 119 167 219 249 316 365
#     4  11  24  43  62  87 126 165 211 263 300 365
#     4   9  22  35  57  93 125 161 201 241 322 372
#
# _framework density 19.223735999999999
#
# number of rings (size 3 to 8) (size 9 to 14) (size 15 to 20)
#    0.750    1.000    3.750    0.000    5.250    1.000 
#    0.000    0.000    2.750    0.000    0.000    0.000 
#    0.000    0.000    0.000    0.000    0.000    0.000 
#
# Total GULP energy -89248.236481 kJ/mol
# GULP energy per Si atom -5578.014780 kJ/mol
# Density = 1.917998 g / cm^3
# Si number density = 19.223736 Si / 1000 Ang^3
#
#
#
# Elastic Constant Matrix: (Units=GPa)
#
#
# Indices 1 2 3 4 5 6 
#
# 1 76.7446 16.7738 -0.4745 0.0000 13.9167 0.0000
# 2 16.7738 87.9074 -2.0896 0.0000 7.0725 0.0000
# 3 -0.4745 -2.0896 17.7766 0.0000 2.7731 0.0000
# 4 0.0000 0.0000 0.0000 6.5394 0.0000 7.7606
# 5 13.9167 7.0725 2.7731 0.0000 17.3326 0.0000
# 6 0.0000 0.0000 0.0000 7.7606 0.0000 27.3862
#
#
#
# Elastic Compliance Matrix: (Units=1/GPa)
#
#
# Indices 1 2 3 4 5 6 
#
# 1 0.015669 -0.001966 0.002076 0.000000 -0.012111 0.000000
# 2 -0.001966 0.012092 0.001941 0.000000 -0.003666 0.000000
# 3 0.002076 0.001941 0.058378 0.000000 -0.011799 0.000000
# 4 0.000000 0.000000 0.000000 0.230404 0.000000 -0.065291
# 5 -0.012111 -0.003666 -0.011799 0.000000 0.070802 0.000000
# 6 0.000000 0.000000 0.000000 -0.065291 0.000000 0.055017
#
#
# Mechanical properties :
#
#
# Convention : Reuss Voigt Hill
#
# Bulk Modulus (GPa) = 11.08147 23.42755 17.25451
# Shear Modulus (GPa) = 10.67601 21.46623 16.07112
#
# Velocity S-wave (km/s) = 2.35915 3.34526 2.89451
# Velocity P-wave (km/s) = 3.63288 5.20906 4.49066
#
# Compressibility (1/GPa) = 0.09024077
#
# Stress axis : x y z
#
# Youngs Moduli (GPa) = 63.82047 82.70044 17.12976
#
# Poissons Ratio (x) = 0.16260 -0.03557
# Poissons Ratio (y) = 0.12548 -0.03324
# Poissons Ratio (z) = -0.13252 -0.16050
#
# Static dielectric constant tensor:
#      x y z
#    x 1.683390 0.000000 0.015890 
#    y 0.000000 1.666510 0.000000 
#    z 0.015890 0.000000 1.655000 
# 
# From -- ./inp_files/11789.got.cif
#   From: 2010.05.17/outbox.cif.g08.bks.cpg/sg4_6_cif.got.tgz:11789.got - 2010.06.03 18:43:04.
