data_PCOD9118561
_publ_section_title
;
Structure prediction by ZEFSAII (Michael W. Deem and Ramdas Pophale) SiO2 
 PCOD9118561
Probable space group: P 21
;
_chemical_formula_sum "Si O2"
_cell_formula_units_Z 16
_cell_length_a 5.556083
_cell_length_b 12.582438
_cell_length_c 10.355686
_cell_angle_alpha 90.000000
_cell_angle_beta 60.587643
_cell_angle_gamma 90.000000
_cell_volume 630.644131
_symmetry_space_group_name_H-M "P 21"
_symmetry_group_IT_number 4
_symmetry_cell_setting 'monoclinic'
loop_
_space_group_symop_operation_xyz
x,y,z
-x,1/2+y,-z
loop_
_atom_site_type_symbol
_atom_site_label
_atom_site_fract_x
_atom_site_fract_y
_atom_site_fract_z
Si Si1 0.663877 0.175310 0.447345
Si Si2 0.439575 0.809061 0.262708
Si Si3 0.589173 0.370748 0.331855
Si Si4 0.299856 0.686312 0.070188
Si Si5 0.241356 0.489856 0.925686
Si Si6 0.922217 0.955978 0.419093
Si Si7 0.651891 0.406263 0.037731
Si Si8 0.108272 0.064011 0.632086
O O1 0.645749 0.232562 0.594165
O O2 0.752370 0.265877 0.325419
O O3 0.350936 0.135563 0.508053
O O4 0.848147 0.070063 0.377350
O O5 0.517607 0.729842 0.122709
O O6 0.652999 0.908919 0.214980
O O7 0.168699 0.882637 0.306336
O O8 0.339467 0.380076 0.497517
O O9 0.499284 0.375896 0.209649
O O10 0.753677 0.477293 0.313543
O O11 0.088152 0.629858 0.223138
O O12 0.339994 0.610017 0.934923
O O13 0.200388 0.797318 0.040775
O O14 0.408646 0.438875 0.004354
O O15 0.908336 0.486035 0.996938
O O16 0.979755 0.998103 0.549354
#
# Coordination Sequence:
#
# PCOD9118561 Si02
#       8
#     2   2   2   2   2   2   2   2
#     4  11  24  40  70 103 135 187 223 299 363 410
#     4  11  24  46  70 105 140 185 241 295 354 436
#     4  11  24  42  67 101 141 177 236 288 352 425
#     4  11  23  46  72 100 141 196 229 297 360 416
#     4  11  26  47  72 102 141 190 243 290 351 431
#     4  11  24  44  69 103 138 182 234 294 361 427
#     4  11  26  46  71 106 139 188 242 292 348 434
#     4  11  21  41  69  96 137 181 234 281 357 429
#
# _framework density 25.370887
#
# number of rings (size 3 to 8) (size 9 to 14) (size 15 to 20)
#    0.000    1.000    3.750    2.250    1.750    4.000 
#    9.000    0.000    0.000    0.000    0.000    0.000 
#    0.000    0.000    0.000    0.000    0.000    0.000 
#
# Total GULP energy -89192.531608 kJ/mol
# GULP energy per Si atom -5574.533226 kJ/mol
# Density = 2.531314 g / cm^3
# Si number density = 25.370887 Si / 1000 Ang^3
#
#
#
# Elastic Constant Matrix: (Units=GPa)
#
#
# Indices 1 2 3 4 5 6 
#
# 1 25.9442 0.8846 5.6491 0.0000 9.0672 0.0000
# 2 0.8846 120.9821 18.2619 0.0000 7.9934 0.0000
# 3 5.6491 18.2619 49.4017 0.0000 5.3223 0.0000
# 4 0.0000 0.0000 0.0000 43.1151 0.0000 15.6780
# 5 9.0672 7.9934 5.3223 0.0000 31.7951 0.0000
# 6 0.0000 0.0000 0.0000 15.6780 0.0000 6.5887
#
#
#
# Elastic Compliance Matrix: (Units=1/GPa)
#
#
# Indices 1 2 3 4 5 6 
#
# 1 0.043600 0.001094 -0.004095 0.000000 -0.012023 0.000000
# 2 0.001094 0.008872 -0.003188 0.000000 -0.002009 0.000000
# 3 -0.004095 -0.003188 0.022075 0.000000 -0.001726 0.000000
# 4 0.000000 0.000000 0.000000 0.172141 0.000000 -0.409612
# 5 -0.012023 -0.002009 -0.001726 0.000000 0.035674 0.000000
# 6 0.000000 0.000000 0.000000 -0.409612 0.000000 1.126450
#
#
# Mechanical properties :
#
#
# Convention : Reuss Voigt Hill
#
# Bulk Modulus (GPa) = 16.08527 27.32435 21.70481
# Shear Modulus (GPa) = 3.46761 27.73529 15.60145
#
# Velocity S-wave (km/s) = 1.17036 3.30993 2.48248
# Velocity P-wave (km/s) = 2.86009 5.03993 4.09762
#
# Compressibility (1/GPa) = 0.06216867
#
# Stress axis : x y z
#
# Youngs Moduli (GPa) = 22.93553 112.71866 45.30021
#
# Poissons Ratio (x) = -0.12328 0.18549
# Poissons Ratio (y) = -0.02508 0.14442
# Poissons Ratio (z) = 0.09391 0.35937
#
# Static dielectric constant tensor:
#      x y z
#    x 2.077980 0.000000 -0.085010 
#    y 0.000000 2.058980 0.000000 
#    z -0.085010 0.000000 2.445550 
# 
# From -- ./inp_files/1346.got.cif
#   From: 2010.05.17/outbox.cif.g08.bks.cpg/sg4_1_cif.got.tgz:1346.got - 2010.06.03 18:43:04.
