data_PCOD9118146
_publ_section_title
;
Structure prediction by ZEFSAII (Michael W. Deem and Ramdas Pophale) SiO2 
 PCOD9118146
Probable space group: P 21
;
_chemical_formula_sum "Si O2"
_cell_formula_units_Z 10
_cell_length_a 12.483499
_cell_length_b 5.847575
_cell_length_c 4.955950
_cell_angle_alpha 90.000000
_cell_angle_beta 96.475073
_cell_angle_gamma 90.000000
_cell_volume 359.467652
_symmetry_space_group_name_H-M "P 21"
_symmetry_group_IT_number 4
_symmetry_cell_setting 'monoclinic'
loop_
_space_group_symop_operation_xyz
x,y,z
-x,1/2+y,-z
loop_
_atom_site_type_symbol
_atom_site_label
_atom_site_fract_x
_atom_site_fract_y
_atom_site_fract_z
Si Si1 0.233204 0.794390 0.098706
Si Si2 0.434219 0.545553 0.313899
Si Si3 0.166339 0.056330 0.574788
Si Si4 0.970669 0.056992 0.862634
Si Si5 0.366941 0.297862 0.794781
O O1 0.357331 0.748860 0.190265
O O2 0.192126 0.000297 0.275600
O O3 0.157933 0.586348 0.178965
O O4 0.208821 0.851988 0.782555
O O5 0.409956 0.500916 0.617546
O O6 0.558180 0.591925 0.287948
O O7 0.392420 0.341537 0.112148
O O8 0.040661 0.076052 0.608482
O O9 0.242109 0.259798 0.698449
O O10 0.003757 0.302161 0.015319
#
# Coordination Sequence:
#
# PCOD9118146 Si02
#       5
#     2   2   2   2   2
#     4  11  24  43  67  97 134 176 228 286 348 415
#     4  12  24  41  65  94 132 176 228 286 349 416
#     4  11  24  43  67  97 134 176 228 286 348 415
#     4  10  24  46  72 104 142 186 236 290 350 416
#     4  12  24  41  65  94 132 176 228 286 349 416
#
# _framework density 27.818916000000002
#
# number of rings (size 3 to 8) (size 9 to 14) (size 15 to 20)
#    0.000    0.800    0.000    7.200    0.000   11.200 
#    0.000    0.000    0.000    0.000    0.000    0.000 
#    0.000    0.000    0.000    0.000    0.000    0.000 
#
# Total GULP energy -56022.553235 kJ/mol
# GULP energy per Si atom -5602.255324 kJ/mol
# Density = 2.775560 g / cm^3
# Si number density = 27.818916 Si / 1000 Ang^3
#
#
#
# Elastic Constant Matrix: (Units=GPa)
#
#
# Indices 1 2 3 4 5 6 
#
# 1 85.3103 31.2072 32.9355 0.0000 -17.0045 0.0000
# 2 31.2072 108.0825 43.5039 0.0000 0.7329 0.0000
# 3 32.9355 43.5039 85.5057 0.0000 -1.5113 0.0000
# 4 0.0000 0.0000 0.0000 55.9912 0.0000 2.5970
# 5 -17.0045 0.7329 -1.5113 0.0000 39.7826 0.0000
# 6 0.0000 0.0000 0.0000 2.5970 0.0000 68.0310
#
#
#
# Elastic Compliance Matrix: (Units=1/GPa)
#
#
# Indices 1 2 3 4 5 6 
#
# 1 0.015824 -0.002776 -0.004565 0.000000 0.006641 0.000000
# 2 -0.002776 0.012130 -0.005130 0.000000 -0.001605 0.000000
# 3 -0.004565 -0.005130 0.016042 0.000000 -0.001247 0.000000
# 4 0.000000 0.000000 0.000000 0.017892 0.000000 -0.000683
# 5 0.006641 -0.001605 -0.001247 0.000000 0.027958 0.000000
# 6 0.000000 0.000000 0.000000 -0.000683 0.000000 0.014725
#
#
# Mechanical properties :
#
#
# Convention : Reuss Voigt Hill
#
# Bulk Modulus (GPa) = 52.48933 54.91021 53.69977
# Shear Modulus (GPa) = 36.80152 44.17775 40.48963
#
# Velocity S-wave (km/s) = 3.64111 3.98935 3.81920
# Velocity P-wave (km/s) = 6.04864 6.40322 6.22845
#
# Compressibility (1/GPa) = 0.01905149
#
# Stress axis : x y z
#
# Youngs Moduli (GPa) = 63.19600 82.44213 62.33744
#
# Poissons Ratio (x) = 0.22890 0.28458
# Poissons Ratio (y) = 0.17546 0.31981
# Poissons Ratio (z) = 0.28850 0.42296
#
# Static dielectric constant tensor:
#      x y z
#    x 2.117900 0.000000 0.030800 
#    y 0.000000 2.239400 0.000000 
#    z 0.030800 0.000000 2.050730 
# 
# From -- ./inp_files/2267.got.cif
#   From: 2010.05.17/outbox.cif.g08.bks.cpg/sg4_2_cif.got.tgz:2267.got - 2010.06.03 18:43:04.
