data_PCOD9118466
_publ_section_title
;
Structure prediction by ZEFSAII (Michael W. Deem and Ramdas Pophale) SiO2 
 PCOD9118466
Probable space group: P 21
;
_chemical_formula_sum "Si O2"
_cell_formula_units_Z 14
_cell_length_a 8.676440
_cell_length_b 9.909928
_cell_length_c 8.165457
_cell_angle_alpha 90.000000
_cell_angle_beta 51.347842
_cell_angle_gamma 90.000000
_cell_volume 548.298456
_symmetry_space_group_name_H-M "P 21"
_symmetry_group_IT_number 4
_symmetry_cell_setting 'monoclinic'
loop_
_space_group_symop_operation_xyz
x,y,z
-x,1/2+y,-z
loop_
_atom_site_type_symbol
_atom_site_label
_atom_site_fract_x
_atom_site_fract_y
_atom_site_fract_z
Si Si1 0.311083 0.430030 0.422608
Si Si2 0.811062 0.294043 0.356618
Si Si3 0.358285 0.554918 0.716927
Si Si4 0.556098 0.665548 0.851942
Si Si5 0.813947 0.595097 0.294026
Si Si6 0.023280 0.111276 0.476470
Si Si7 0.441538 0.199383 0.784673
O O1 0.283024 0.441748 0.638785
O O2 0.398809 0.292937 0.296714
O O3 0.464800 0.549429 0.282926
O O4 0.116405 0.484012 0.461798
O O5 0.778418 0.181436 0.240844
O O6 0.873198 0.437512 0.243644
O O7 0.591929 0.296200 0.586787
O O8 0.944317 0.229410 0.410876
O O9 0.383813 0.569104 0.895369
O O10 0.586471 0.583468 0.511792
O O11 0.755817 0.578183 0.726525
O O12 0.539605 0.733169 0.039055
O O13 0.950077 0.651559 0.350153
O O14 0.772773 0.677951 0.155486
#
# Coordination Sequence:
#
# PCOD9118466 Si02
#       7
#     2   2   2   2   2   2   2
#     4   9  19  37  54  79 115 147 179 223 277 338
#     4   9  17  35  55  75 106 147 179 217 272 335
#     4   8  17  30  52  78 102 140 187 210 259 341
#     4  11  19  34  59  84 113 142 180 243 277 304
#     4   9  16  32  54  74 109 144 176 219 268 329
#     4   9  19  32  54  80 104 146 188 209 264 351
#     4   9  21  34  54  88 109 136 193 233 271 324
#
# _framework density 25.533539999999999
#
# number of rings (size 3 to 8) (size 9 to 14) (size 15 to 20)
#    0.000    3.429    0.000    2.571    0.000    2.286 
#    0.000    5.714    0.000   17.143    0.000    0.000 
#    0.000    0.000    0.000    0.000    0.000    0.000 
#
# Total GULP energy -78042.278026 kJ/mol
# GULP energy per Si atom -5574.448430 kJ/mol
# Density = 2.547542 g / cm^3
# Si number density = 25.533540 Si / 1000 Ang^3
#
#
#
# Elastic Constant Matrix: (Units=GPa)
#
#
# Indices 1 2 3 4 5 6 
#
# 1 189.3844 30.6675 26.6813 0.0000 43.0312 0.0000
# 2 30.6675 106.0463 10.7569 0.0000 25.1547 0.0000
# 3 26.6813 10.7569 37.6191 0.0000 13.6919 0.0000
# 4 0.0000 0.0000 0.0000 12.4827 0.0000 4.4886
# 5 43.0312 25.1547 13.6919 0.0000 42.2470 0.0000
# 6 0.0000 0.0000 0.0000 4.4886 0.0000 43.5576
#
#
#
# Elastic Compliance Matrix: (Units=1/GPa)
#
#
# Indices 1 2 3 4 5 6 
#
# 1 0.007118 -0.000317 -0.002707 0.000000 -0.006184 0.000000
# 2 -0.000317 0.011020 -0.000743 0.000000 -0.005997 0.000000
# 3 -0.002707 -0.000743 0.031234 0.000000 -0.006923 0.000000
# 4 0.000000 0.000000 0.000000 0.083193 0.000000 -0.008573
# 5 -0.006184 -0.005997 -0.006923 0.000000 0.035784 0.000000
# 6 0.000000 0.000000 0.000000 -0.008573 0.000000 0.023842
#
#
# Mechanical properties :
#
#
# Convention : Reuss Voigt Hill
#
# Bulk Modulus (GPa) = 23.90202 52.14014 38.02108
# Shear Modulus (GPa) = 23.40039 37.32040 30.36040
#
# Velocity S-wave (km/s) = 3.03059 3.82726 3.45199
# Velocity P-wave (km/s) = 4.65052 6.32418 5.55079
#
# Compressibility (1/GPa) = 0.04183746
#
# Stress axis : x y z
#
# Youngs Moduli (GPa) = 140.48648 90.74790 32.01592
#
# Poissons Ratio (x) = 0.02877 0.08667
# Poissons Ratio (y) = 0.04453 0.02380
# Poissons Ratio (z) = 0.38031 0.06745
#
# Static dielectric constant tensor:
#      x y z
#    x 2.118510 0.000000 0.103930 
#    y 0.000000 2.042710 0.000000 
#    z 0.103930 0.000000 2.219220 
# 
# From -- ./inp_files/6208.got.cif
#   From: 2010.05.17/outbox.cif.g08.bks.cpg/sg4_4_cif.got.tgz:6208.got - 2010.06.03 18:43:04.
