data_PCOD9118608
_publ_section_title
;
Structure prediction by ZEFSAII (Michael W. Deem and Ramdas Pophale) SiO2 
 PCOD9118608
Probable space group: P 21
;
_chemical_formula_sum "Si O2"
_cell_formula_units_Z 14
_cell_length_a 5.240150
_cell_length_b 9.097085
_cell_length_c 11.485750
_cell_angle_alpha 90.000000
_cell_angle_beta 85.109676
_cell_angle_gamma 90.000000
_cell_volume 545.533578
_symmetry_space_group_name_H-M "P 21"
_symmetry_group_IT_number 4
_symmetry_cell_setting 'monoclinic'
loop_
_space_group_symop_operation_xyz
x,y,z
-x,1/2+y,-z
loop_
_atom_site_type_symbol
_atom_site_label
_atom_site_fract_x
_atom_site_fract_y
_atom_site_fract_z
Si Si1 0.211888 0.882950 0.063869
Si Si2 0.303334 0.075387 0.273457
Si Si3 0.959560 0.675439 0.502433
Si Si4 0.493455 0.611937 0.363906
Si Si5 0.890291 0.843185 0.879067
Si Si6 0.709203 0.302626 0.324749
Si Si7 0.502834 0.606056 0.103383
O O1 0.390995 0.743356 0.038377
O O2 0.255673 0.934388 0.194425
O O3 0.943845 0.835557 0.015849
O O4 0.296760 0.021294 0.983559
O O5 0.571602 0.143862 0.312071
O O6 0.125832 0.059109 0.393847
O O7 0.227205 0.207973 0.188264
O O8 0.202741 0.644136 0.411531
O O9 0.069594 0.798204 0.586363
O O10 0.701358 0.691339 0.438489
O O11 0.527294 0.435244 0.369245
O O12 0.573539 0.653935 0.230065
O O13 0.163292 0.848421 0.801923
O O14 0.726677 0.988812 0.867012
#
# Coordination Sequence:
#
# PCOD9118608 Si02
#       7
#     2   2   2   2   2   2   2
#     4  12  26  46  73 111 157 194 269 320 387 473
#     4  11  24  49  76 113 152 208 252 322 399 457
#     4  11  27  47  77 112 154 201 260 319 387 464
#     4  12  25  48  77 115 150 206 261 316 387 468
#     4  11  21  45  75 105 147 207 251 313 400 456
#     4  11  23  48  78 104 158 206 256 316 401 453
#     4  12  26  45  74 114 150 206 259 326 391 463
#
# _framework density 25.662948
#
# number of rings (size 3 to 8) (size 9 to 14) (size 15 to 20)
#    0.000    0.571    4.286    3.429    2.000    2.286 
#    2.571    0.000    0.000    0.000    0.000    0.000 
#    0.000    0.000    0.000    0.000    0.000    0.000 
#
# Total GULP energy -78241.954718 kJ/mol
# GULP energy per Si atom -5588.711051 kJ/mol
# Density = 2.560454 g / cm^3
# Si number density = 25.662948 Si / 1000 Ang^3
#
#
#
# Elastic Constant Matrix: (Units=GPa)
#
#
# Indices 1 2 3 4 5 6 
#
# 1 96.9853 -0.3802 21.0778 0.0000 12.2712 0.0000
# 2 -0.3802 58.3109 9.7111 0.0000 20.4617 0.0000
# 3 21.0778 9.7111 139.2478 0.0000 12.7733 0.0000
# 4 0.0000 0.0000 0.0000 41.4553 0.0000 3.6222
# 5 12.2712 20.4617 12.7733 0.0000 53.6598 0.0000
# 6 0.0000 0.0000 0.0000 3.6222 0.0000 29.0707
#
#
#
# Elastic Compliance Matrix: (Units=1/GPa)
#
#
# Indices 1 2 3 4 5 6 
#
# 1 0.010975 0.001244 -0.001507 0.000000 -0.002625 0.000000
# 2 0.001244 0.020007 -0.000877 0.000000 -0.007705 0.000000
# 3 -0.001507 -0.000877 0.007574 0.000000 -0.001124 0.000000
# 4 0.000000 0.000000 0.000000 0.024388 0.000000 -0.003039
# 5 -0.002625 -0.007705 -0.001124 0.000000 0.022442 0.000000
# 6 0.000000 0.000000 0.000000 -0.003039 0.000000 0.034778
#
#
# Mechanical properties :
#
#
# Convention : Reuss Voigt Hill
#
# Bulk Modulus (GPa) = 27.56626 39.48461 33.52544
# Shear Modulus (GPa) = 37.16466 42.44618 39.80542
#
# Velocity S-wave (km/s) = 3.80963 4.07134 3.94265
# Velocity P-wave (km/s) = 5.48781 6.12538 5.81534
#
# Compressibility (1/GPa) = 0.03627622
#
# Stress axis : x y z
#
# Youngs Moduli (GPa) = 91.11214 49.98177 132.03353
#
# Poissons Ratio (x) = -0.06217 0.19901
# Poissons Ratio (y) = -0.11333 0.11577
# Poissons Ratio (z) = 0.13733 0.04382
#
# Static dielectric constant tensor:
#      x y z
#    x 2.067620 0.000000 0.029600 
#    y 0.000000 2.032540 0.000000 
#    z 0.029600 0.000000 2.021040 
# 
# From -- ./inp_files/10292.got.cif
#   From: 2010.05.17/outbox.cif.g08.bks.cpg/sg4_6_cif.got.tgz:10292.got - 2010.06.03 18:43:04.
