data_PCOD9118968
_publ_section_title
;
Structure prediction by ZEFSAII (Michael W. Deem and Ramdas Pophale) SiO2 
 PCOD9118968
Probable space group: P 21
;
_chemical_formula_sum "Si O2"
_cell_formula_units_Z 16
_cell_length_a 10.668529
_cell_length_b 5.818205
_cell_length_c 19.707402
_cell_angle_alpha 90.000000
_cell_angle_beta 145.978327
_cell_angle_gamma 90.000000
_cell_volume 684.428431
_symmetry_space_group_name_H-M "P 21"
_symmetry_group_IT_number 4
_symmetry_cell_setting 'monoclinic'
loop_
_space_group_symop_operation_xyz
x,y,z
-x,1/2+y,-z
loop_
_atom_site_type_symbol
_atom_site_label
_atom_site_fract_x
_atom_site_fract_y
_atom_site_fract_z
Si Si1 0.493339 0.156010 0.390175
Si Si2 0.774767 0.657800 0.161377
Si Si3 0.783610 0.454795 0.622089
Si Si4 0.835060 0.769773 0.521669
Si Si5 0.670631 0.304444 0.234588
Si Si6 0.635285 0.424128 0.973324
Si Si7 0.119712 0.770218 0.046472
Si Si8 0.469809 0.522664 0.274131
O O1 0.601904 0.306416 0.499437
O O2 0.386596 0.320190 0.285728
O O3 0.309980 0.001256 0.345321
O O4 0.704767 0.010499 0.457178
O O5 0.748598 0.470081 0.208700
O O6 0.979514 0.825387 0.269776
O O7 0.534156 0.782532 0.055278
O O8 0.801667 0.552368 0.099006
O O9 0.809961 0.683032 0.588224
O O10 0.697787 0.602910 0.411323
O O11 0.096301 0.748192 0.623744
O O12 0.528875 0.095390 0.141150
O O13 0.517897 0.427405 0.221338
O O14 0.767763 0.280178 0.977280
O O15 0.305230 0.735318 0.188658
O O16 0.988123 0.524959 0.993009
#
# Coordination Sequence:
#
# PCOD9118968 Si02
#       8
#     2   2   2   2   2   2   2   2
#     4  11  24  45  73 111 159 205 258 324 406 482
#     4  12  25  47  80 114 148 212 267 334 408 472
#     4  11  23  46  73 111 156 203 258 329 401 484
#     4  11  25  42  74 113 151 203 258 326 410 479
#     4  12  25  47  76 112 158 202 264 337 404 484
#     4  12  27  50  80 111 157 205 273 339 396 488
#     4  12  30  58  84 116 163 220 273 336 407 485
#     4  11  29  47  76 112 156 210 263 335 400 496
#
# _framework density 23.377168999999999
#
# number of rings (size 3 to 8) (size 9 to 14) (size 15 to 20)
#    0.000    0.500    6.250    0.750    5.250    1.000 
#    6.750    0.000    0.000    0.000    0.000    0.000 
#    0.000    0.000    0.000    0.000    0.000    0.000 
#
# Total GULP energy -89535.442669 kJ/mol
# GULP energy per Si atom -5595.965167 kJ/mol
# Density = 2.332396 g / cm^3
# Si number density = 23.377169 Si / 1000 Ang^3
#
#
#
# Elastic Constant Matrix: (Units=GPa)
#
#
# Indices 1 2 3 4 5 6 
#
# 1 101.0322 34.6831 28.5682 0.0000 -10.4665 0.0000
# 2 34.6831 78.9020 26.4859 0.0000 -8.1296 0.0000
# 3 28.5682 26.4859 82.1021 0.0000 -8.6182 0.0000
# 4 0.0000 0.0000 0.0000 41.7821 0.0000 -10.5552
# 5 -10.4665 -8.1296 -8.6182 0.0000 29.4203 0.0000
# 6 0.0000 0.0000 0.0000 -10.5552 0.0000 36.4096
#
#
#
# Elastic Compliance Matrix: (Units=1/GPa)
#
#
# Indices 1 2 3 4 5 6 
#
# 1 0.012379 -0.004295 -0.002666 0.000000 0.002436 0.000000
# 2 -0.004295 0.015909 -0.003442 0.000000 0.001860 0.000000
# 3 -0.002666 -0.003442 0.014463 0.000000 0.002337 0.000000
# 4 0.000000 0.000000 0.000000 0.025825 0.000000 0.007487
# 5 0.002436 0.001860 0.002337 0.000000 0.036055 0.000000
# 6 0.000000 0.000000 0.000000 0.007487 0.000000 0.029636
#
#
# Mechanical properties :
#
#
# Convention : Reuss Voigt Hill
#
# Bulk Modulus (GPa) = 45.57091 49.05674 47.31383
# Shear Modulus (GPa) = 30.79021 33.00901 31.89961
#
# Velocity S-wave (km/s) = 3.63313 3.76176 3.69801
# Velocity P-wave (km/s) = 6.09390 6.31651 6.20620
#
# Compressibility (1/GPa) = 0.02194382
#
# Stress axis : x y z
#
# Youngs Moduli (GPa) = 80.78484 62.85647 69.13991
#
# Poissons Ratio (x) = 0.26999 0.18432
# Poissons Ratio (y) = 0.34700 0.23801
# Poissons Ratio (z) = 0.21536 0.21638
#
# Static dielectric constant tensor:
#      x y z
#    x 1.846070 0.000000 0.043210 
#    y 0.000000 1.933510 0.000000 
#    z 0.043210 0.000000 1.890690 
# 
# From -- ./inp_files/11669.got.cif
#   From: 2010.05.17/outbox.cif.g08.bks.cpg/sg4_6_cif.got.tgz:11669.got - 2010.06.03 18:43:04.
