data_PCOD9118190
_publ_section_title
;
Structure prediction by ZEFSAII (Michael W. Deem and Ramdas Pophale) SiO2 
 PCOD9118190
Probable space group: P 21
;
_chemical_formula_sum "Si O2"
_cell_formula_units_Z 14
_cell_length_a 23.549247
_cell_length_b 5.976893
_cell_length_c 5.100646
_cell_angle_alpha 90.000000
_cell_angle_beta 50.300201
_cell_angle_gamma 90.000000
_cell_volume 552.371019
_symmetry_space_group_name_H-M "P 21"
_symmetry_group_IT_number 4
_symmetry_cell_setting 'monoclinic'
loop_
_space_group_symop_operation_xyz
x,y,z
-x,1/2+y,-z
loop_
_atom_site_type_symbol
_atom_site_label
_atom_site_fract_x
_atom_site_fract_y
_atom_site_fract_z
Si Si1 0.830122 0.247470 0.853662
Si Si2 0.465384 0.737628 0.346588
Si Si3 0.746166 0.582939 0.749801
Si Si4 0.384551 0.375253 0.861546
Si Si5 0.144291 0.450029 0.708685
Si Si6 0.010227 0.925621 0.599016
Si Si7 0.377365 0.827654 0.106096
O O1 0.767700 0.402736 0.906215
O O2 0.903892 0.395971 0.593844
O O3 0.838016 0.043650 0.628778
O O4 0.830653 0.130158 0.139817
O O5 0.431461 0.493081 0.494605
O O6 0.551484 0.766717 0.146867
O O7 0.434302 0.833672 0.172428
O O8 0.578367 0.369209 0.295150
O O9 0.812884 0.714113 0.414030
O O10 0.695185 0.473314 0.674876
O O11 0.685601 0.751753 0.045507
O O12 0.352308 0.571747 0.139564
O O13 0.056031 0.424304 0.995464
O O14 0.996022 0.680641 0.498935
#
# Coordination Sequence:
#
# PCOD9118190 Si02
#       7
#     2   2   2   2   2   2   2
#     4  11  29  51  79 118 161 210 271 331 412 491
#     4  10  24  47  73 101 150 193 257 323 383 483
#     4  12  27  50  79 113 160 211 256 344 409 479
#     4  10  25  47  73 111 147 201 261 325 397 481
#     4  11  29  51  79 118 163 208 271 335 407 493
#     4  10  26  52  86 122 161 217 277 336 402 494
#     4  10  26  46  69 111 144 200 255 322 390 481
#
# _framework density 25.345283999999999
#
# number of rings (size 3 to 8) (size 9 to 14) (size 15 to 20)
#    0.857    0.571    0.000    1.714   14.000    4.571 
#    5.143    0.000    0.000    0.000    0.000    0.000 
#    0.000    0.000    0.000    0.000    0.000    0.000 
#
# Total GULP energy -78141.666936 kJ/mol
# GULP energy per Si atom -5581.547638 kJ/mol
# Density = 2.528760 g / cm^3
# Si number density = 25.345284 Si / 1000 Ang^3
#
#
#
# Elastic Constant Matrix: (Units=GPa)
#
#
# Indices 1 2 3 4 5 6 
#
# 1 71.5896 -0.7446 11.8177 0.0000 11.1238 0.0000
# 2 -0.7446 72.7232 -4.0472 0.0000 2.2432 0.0000
# 3 11.8177 -4.0472 55.9883 0.0000 6.4853 0.0000
# 4 0.0000 0.0000 0.0000 39.3032 0.0000 -22.3996
# 5 11.1238 2.2432 6.4853 0.0000 32.5957 0.0000
# 6 0.0000 0.0000 0.0000 -22.3996 0.0000 50.0963
#
#
#
# Elastic Compliance Matrix: (Units=1/GPa)
#
#
# Indices 1 2 3 4 5 6 
#
# 1 0.015129 0.000151 -0.002644 0.000000 -0.004647 0.000000
# 2 0.000151 0.013852 0.001111 0.000000 -0.001226 0.000000
# 3 -0.002644 0.001111 0.018838 0.000000 -0.002922 0.000000
# 4 0.000000 0.000000 0.000000 0.034144 0.000000 0.015267
# 5 -0.004647 -0.001226 -0.002922 0.000000 0.032931 0.000000
# 6 0.000000 0.000000 0.000000 0.015267 0.000000 0.026788
#
#
# Mechanical properties :
#
#
# Convention : Reuss Voigt Hill
#
# Bulk Modulus (GPa) = 22.19488 23.81698 23.00593
# Shear Modulus (GPa) = 31.35536 37.28406 34.31971
#
# Velocity S-wave (km/s) = 3.52110 3.83958 3.68378
# Velocity P-wave (km/s) = 5.03059 5.39202 5.21444
#
# Compressibility (1/GPa) = 0.04505544
#
# Stress axis : x y z
#
# Youngs Moduli (GPa) = 66.09979 72.19177 53.08481
#
# Poissons Ratio (x) = -0.01091 0.14036
# Poissons Ratio (y) = -0.00999 -0.05900
# Poissons Ratio (z) = 0.17477 -0.08024
#
# Static dielectric constant tensor:
#      x y z
#    x 1.975620 0.000000 -0.008180 
#    y 0.000000 2.221680 0.000000 
#    z -0.008180 0.000000 1.986550 
# 
# From -- ./inp_files/4370.got.cif
#   From: 2010.05.17/outbox.cif.g08.bks.cpg/sg4_3_cif.got.tgz:4370.got - 2010.06.03 18:43:04.
