data_PCOD9118933
_publ_section_title
;
Structure prediction by ZEFSAII (Michael W. Deem and Ramdas Pophale) SiO2 
 PCOD9118933
Probable space group: P 21
;
_chemical_formula_sum "Si O2"
_cell_formula_units_Z 12
_cell_length_a 12.002902
_cell_length_b 8.609747
_cell_length_c 8.183856
_cell_angle_alpha 90.000000
_cell_angle_beta 35.139339
_cell_angle_gamma 90.000000
_cell_volume 486.777398
_symmetry_space_group_name_H-M "P 21"
_symmetry_group_IT_number 4
_symmetry_cell_setting 'monoclinic'
loop_
_space_group_symop_operation_xyz
x,y,z
-x,1/2+y,-z
loop_
_atom_site_type_symbol
_atom_site_label
_atom_site_fract_x
_atom_site_fract_y
_atom_site_fract_z
Si Si1 0.731903 0.357040 0.901242
Si Si2 0.112912 0.577321 0.755370
Si Si3 0.685758 0.818869 0.710645
Si Si4 0.568014 0.272762 0.450610
Si Si5 0.716565 0.572291 0.398984
Si Si6 0.058704 0.186442 0.345989
O O1 0.849189 0.516376 0.750988
O O2 0.873412 0.218161 0.681724
O O3 0.539451 0.360145 0.022879
O O4 0.661258 0.332407 0.169841
O O5 0.024848 0.703829 0.735256
O O6 0.194512 0.441282 0.542109
O O7 0.292212 0.644630 0.639258
O O8 0.934520 0.530191 0.084667
O O9 0.708932 0.658381 0.581044
O O10 0.777631 0.799278 0.778165
O O11 0.578868 0.422554 0.552987
O O12 0.369444 0.193731 0.632454
#
# Coordination Sequence:
#
# PCOD9118933 Si02
#       6
#     2   2   2   2   2   2
#     4  11  26  49  69 102 142 187 236 288 349 421
#     4  12  25  44  74  99 143 184 231 298 343 420
#     4  11  27  47  72 103 144 187 237 288 350 424
#     4  11  24  46  70 103 140 182 238 289 352 410
#     4  11  23  45  71 103 138 185 235 293 346 416
#     4  12  25  47  70 102 145 183 235 292 350 423
#
# _framework density 24.651924999999999
#
# number of rings (size 3 to 8) (size 9 to 14) (size 15 to 20)
#    0.000    0.667    3.333    4.000    4.667    0.000 
#    9.000    0.000    0.000    0.000    0.000    0.000 
#    0.000    0.000    0.000    0.000    0.000    0.000 
#
# Total GULP energy -67241.976181 kJ/mol
# GULP energy per Si atom -5603.498015 kJ/mol
# Density = 2.459582 g / cm^3
# Si number density = 24.651925 Si / 1000 Ang^3
#
#
#
# Elastic Constant Matrix: (Units=GPa)
#
#
# Indices 1 2 3 4 5 6 
#
# 1 118.3965 0.2151 21.8399 0.0000 -13.8462 0.0000
# 2 0.2151 75.8123 39.0595 0.0000 2.2231 0.0000
# 3 21.8399 39.0595 90.5695 0.0000 -17.7695 0.0000
# 4 0.0000 0.0000 0.0000 29.9611 0.0000 7.3668
# 5 -13.8462 2.2231 -17.7695 0.0000 26.9739 0.0000
# 6 0.0000 0.0000 0.0000 7.3668 0.0000 41.1083
#
#
#
# Elastic Compliance Matrix: (Units=1/GPa)
#
#
# Indices 1 2 3 4 5 6 
#
# 1 0.009196 0.000869 -0.001930 0.000000 0.003378 0.000000
# 2 0.000869 0.018328 -0.009558 0.000000 -0.007361 0.000000
# 3 -0.001930 -0.009558 0.017903 0.000000 0.011591 0.000000
# 4 0.000000 0.000000 0.000000 0.034915 0.000000 -0.006257
# 5 0.003378 -0.007361 0.011591 0.000000 0.047049 0.000000
# 6 0.000000 0.000000 0.000000 -0.006257 0.000000 0.025447
#
#
# Mechanical properties :
#
#
# Convention : Reuss Voigt Hill
#
# Bulk Modulus (GPa) = 41.34065 45.22303 43.28184
# Shear Modulus (GPa) = 27.45167 34.51959 30.98563
#
# Velocity S-wave (km/s) = 3.34064 3.74609 3.54916
# Velocity P-wave (km/s) = 5.62903 6.09060 5.86436
#
# Compressibility (1/GPa) = 0.02418926
#
# Stress axis : x y z
#
# Youngs Moduli (GPa) = 108.74841 54.56038 55.85748
#
# Poissons Ratio (x) = -0.04741 0.10778
# Poissons Ratio (y) = -0.09450 0.53389
# Poissons Ratio (z) = 0.20983 0.52149
#
# Static dielectric constant tensor:
#      x y z
#    x 1.947930 0.000000 0.008860 
#    y 0.000000 1.977420 0.000000 
#    z 0.008860 0.000000 1.917060 
# 
# From -- ./inp_files/7904.got.cif
#   From: 2010.05.17/outbox.cif.g08.bks.cpg/sg4_4_cif.got.tgz:7904.got - 2010.06.03 18:43:04.
