data_PCOD9118779
_publ_section_title
;
Structure prediction by ZEFSAII (Michael W. Deem and Ramdas Pophale) SiO2 
 PCOD9118779
Probable space group: P 21
;
_chemical_formula_sum "Si O2"
_cell_formula_units_Z 16
_cell_length_a 6.792028
_cell_length_b 10.110410
_cell_length_c 11.498305
_cell_angle_alpha 90.000000
_cell_angle_beta 120.395399
_cell_angle_gamma 90.000000
_cell_volume 681.064910
_symmetry_space_group_name_H-M "P 21"
_symmetry_group_IT_number 4
_symmetry_cell_setting 'monoclinic'
loop_
_space_group_symop_operation_xyz
x,y,z
-x,1/2+y,-z
loop_
_atom_site_type_symbol
_atom_site_label
_atom_site_fract_x
_atom_site_fract_y
_atom_site_fract_z
Si Si1 0.455878 0.765370 0.063727
Si Si2 0.101887 0.989386 0.012882
Si Si3 0.882818 0.053878 0.400526
Si Si4 0.831331 0.814846 0.536906
Si Si5 0.474300 0.182661 0.164118
Si Si6 0.396483 0.686151 0.301629
Si Si7 0.974689 0.861658 0.220015
Si Si8 0.314986 0.410138 0.268397
O O1 0.308834 0.898351 0.028726
O O2 0.392042 0.684585 0.159746
O O3 0.722879 0.799971 0.147493
O O4 0.410619 0.694082 0.927955
O O5 0.016099 0.933205 0.109647
O O6 0.216191 0.131342 0.068121
O O7 0.902389 0.973793 0.860835
O O8 0.619602 0.083503 0.287207
O O9 0.995990 0.197562 0.442337
O O10 0.908266 0.960361 0.519773
O O11 0.989309 0.967741 0.327622
O O12 0.600938 0.781605 0.398932
O O13 0.772793 0.817192 0.655129
O O14 0.459389 0.324363 0.221289
O O15 0.166869 0.748641 0.284748
O O16 0.444773 0.537427 0.357852
#
# Coordination Sequence:
#
# PCOD9118779 Si02
#       8
#     2   2   2   2   2   2   2   2
#     4  11  23  46  75 111 145 194 244 314 385 459
#     4  11  24  45  72 112 146 188 248 311 393 449
#     4  12  28  50  79 111 150 210 258 316 384 456
#     4  12  30  50  76 110 156 208 263 314 373 464
#     4  12  26  46  79 110 153 198 254 319 396 456
#     4  11  28  47  77 111 151 199 258 311 381 452
#     4  11  22  49  76 106 147 193 246 315 386 441
#     4  12  29  45  74 115 154 202 251 324 382 459
#
# _framework density 23.492623999999999
#
# number of rings (size 3 to 8) (size 9 to 14) (size 15 to 20)
#    0.000    0.500    3.750    3.000   12.250    1.000 
#    0.000    0.000    0.000    0.000    0.000    0.000 
#    0.000    0.000    0.000    0.000    0.000    0.000 
#
# Total GULP energy -89655.721891 kJ/mol
# GULP energy per Si atom -5603.482618 kJ/mol
# Density = 2.343915 g / cm^3
# Si number density = 23.492624 Si / 1000 Ang^3
#
#
#
# Elastic Constant Matrix: (Units=GPa)
#
#
# Indices 1 2 3 4 5 6 
#
# 1 85.6268 23.6817 18.0703 0.0000 0.5143 0.0000
# 2 23.6817 96.9891 8.9251 0.0000 6.0069 0.0000
# 3 18.0703 8.9251 52.1676 0.0000 -5.4719 0.0000
# 4 0.0000 0.0000 0.0000 35.8585 0.0000 1.3923
# 5 0.5143 6.0069 -5.4719 0.0000 21.7822 0.0000
# 6 0.0000 0.0000 0.0000 1.3923 0.0000 41.7271
#
#
#
# Elastic Compliance Matrix: (Units=1/GPa)
#
#
# Indices 1 2 3 4 5 6 
#
# 1 0.013354 -0.002837 -0.004202 0.000000 -0.000588 0.000000
# 2 -0.002837 0.011334 -0.001312 0.000000 -0.003388 0.000000
# 3 -0.004202 -0.001312 0.021463 0.000000 0.005853 0.000000
# 4 0.000000 0.000000 0.000000 0.027924 0.000000 -0.000932
# 5 -0.000588 -0.003388 0.005853 0.000000 0.048327 0.000000
# 6 0.000000 0.000000 0.000000 -0.000932 0.000000 0.023996
#
#
# Mechanical properties :
#
#
# Convention : Reuss Voigt Hill
#
# Bulk Modulus (GPa) = 33.95759 37.34862 35.65311
# Shear Modulus (GPa) = 28.91591 32.14732 30.53161
#
# Velocity S-wave (km/s) = 3.51215 3.70320 3.60894
# Velocity P-wave (km/s) = 5.56174 5.84957 5.70747
#
# Compressibility (1/GPa) = 0.02944850
#
# Stress axis : x y z
#
# Youngs Moduli (GPa) = 74.88612 88.23187 46.59239
#
# Poissons Ratio (x) = 0.25035 0.19577
# Poissons Ratio (y) = 0.21248 0.06111
# Poissons Ratio (z) = 0.31466 0.11572
#
# Static dielectric constant tensor:
#      x y z
#    x 1.846740 0.000000 0.012120 
#    y 0.000000 1.897110 0.000000 
#    z 0.012120 0.000000 1.894600 
# 
# From -- ./inp_files/10551.got.cif
#   From: 2010.05.17/outbox.cif.g08.bks.cpg/sg4_6_cif.got.tgz:10551.got - 2010.06.03 18:43:04.
