data_PCOD9118002
_publ_section_title
;
Structure prediction by ZEFSAII (Michael W. Deem and Ramdas Pophale) SiO2 
 PCOD9118002
Probable space group: P 21
;
_chemical_formula_sum "Si O2"
_cell_formula_units_Z 14
_cell_length_a 14.761405
_cell_length_b 6.119831
_cell_length_c 13.594578
_cell_angle_alpha 90.000000
_cell_angle_beta 150.838307
_cell_angle_gamma 90.000000
_cell_volume 598.422362
_symmetry_space_group_name_H-M "P 21"
_symmetry_group_IT_number 4
_symmetry_cell_setting 'monoclinic'
loop_
_space_group_symop_operation_xyz
x,y,z
-x,1/2+y,-z
loop_
_atom_site_type_symbol
_atom_site_label
_atom_site_fract_x
_atom_site_fract_y
_atom_site_fract_z
Si Si1 0.971481 0.757100 0.926289
Si Si2 0.542782 0.958715 0.214844
Si Si3 0.145646 0.040497 0.771159
Si Si4 0.838435 0.285047 0.584025
Si Si5 0.348373 0.727720 0.210506
Si Si6 0.348064 0.985189 0.413295
Si Si7 0.120028 0.179985 0.526777
O O1 0.759898 0.716884 0.693734
O O2 0.008007 0.515815 0.019623
O O3 0.127007 0.723591 0.989909
O O4 0.448795 0.811450 0.209590
O O5 0.694335 0.827247 0.296339
O O6 0.669726 0.134509 0.389112
O O7 0.366327 0.051511 0.989439
O O8 0.081999 0.123967 0.603653
O O9 0.035816 0.168654 0.752350
O O10 0.060163 0.799084 0.688227
O O11 0.790527 0.345416 0.649928
O O12 0.837025 0.486379 0.507567
O O13 0.456133 0.510569 0.346341
O O14 0.370786 0.883917 0.327625
#
# Coordination Sequence:
#
# PCOD9118002 Si02
#       7
#     2   2   2   2   2   2   2
#     4  10  24  43  67 102 137 193 254 299 354 431
#     4  11  27  42  70 106 138 176 246 289 352 443
#     4  11  26  45  74  98 140 179 229 304 363 429
#     4  11  25  45  67 104 136 182 237 286 355 430
#     4  11  23  42  67 103 138 187 234 283 363 416
#     4  11  23  42  70  96 147 184 230 293 346 428
#     4  11  24  47  67 101 132 179 230 288 367 433
#
# _framework density 23.394846000000001
#
# number of rings (size 3 to 8) (size 9 to 14) (size 15 to 20)
#    0.000    1.143    2.857    1.714    4.000    9.143 
#    0.000    0.000    0.000    0.000    0.000    0.000 
#    0.000    0.000    0.000    0.000    0.000    0.000 
#
# Total GULP energy -78135.821694 kJ/mol
# GULP energy per Si atom -5581.130121 kJ/mol
# Density = 2.334160 g / cm^3
# Si number density = 23.394846 Si / 1000 Ang^3
#
#
#
# Elastic Constant Matrix: (Units=GPa)
#
#
# Indices 1 2 3 4 5 6 
#
# 1 77.3817 10.0866 1.2359 0.0000 5.1252 0.0000
# 2 10.0866 52.9125 13.0067 0.0000 3.7784 0.0000
# 3 1.2359 13.0067 73.0029 0.0000 19.0421 0.0000
# 4 0.0000 0.0000 0.0000 16.4172 0.0000 6.2442
# 5 5.1252 3.7784 19.0421 0.0000 33.6950 0.0000
# 6 0.0000 0.0000 0.0000 6.2442 0.0000 42.9461
#
#
#
# Elastic Compliance Matrix: (Units=1/GPa)
#
#
# Indices 1 2 3 4 5 6 
#
# 1 0.013394 -0.002595 0.000811 0.000000 -0.002204 0.000000
# 2 -0.002595 0.020270 -0.003610 0.000000 0.000162 0.000000
# 3 0.000811 -0.003610 0.016719 0.000000 -0.009167 0.000000
# 4 0.000000 0.000000 0.000000 0.064477 0.000000 -0.009375
# 5 -0.002204 0.000162 -0.009167 0.000000 0.035176 0.000000
# 6 0.000000 0.000000 0.000000 -0.009375 0.000000 0.024648
#
#
# Mechanical properties :
#
#
# Convention : Reuss Voigt Hill
#
# Bulk Modulus (GPa) = 25.25631 27.99507 26.62569
# Shear Modulus (GPa) = 25.16741 30.54285 27.85513
#
# Velocity S-wave (km/s) = 3.28345 3.61714 3.45433
# Velocity P-wave (km/s) = 5.01934 5.42561 5.22643
#
# Compressibility (1/GPa) = 0.03959406
#
# Stress axis : x y z
#
# Youngs Moduli (GPa) = 74.65870 49.33500 59.81392
#
# Poissons Ratio (x) = 0.12803 -0.04849
# Poissons Ratio (y) = 0.19375 0.21590
# Poissons Ratio (z) = -0.06052 0.17808
#
# Static dielectric constant tensor:
#      x y z
#    x 1.881190 0.000000 -0.014330 
#    y 0.000000 1.967320 0.000000 
#    z -0.014330 0.000000 1.911390 
# 
# From -- ./inp_files/14052.got.cif
#   From: 2010.05.17/outbox.cif.g08.bks.cpg/sg4_8_cif.got.tgz:14052.got - 2010.06.03 18:43:04.
