data_PCOD9118484
_publ_section_title
;
Structure prediction by ZEFSAII (Michael W. Deem and Ramdas Pophale) SiO2 
 PCOD9118484
Probable space group: P 21
;
_chemical_formula_sum "Si O2"
_cell_formula_units_Z 16
_cell_length_a 16.190814
_cell_length_b 5.930843
_cell_length_c 9.843285
_cell_angle_alpha 90.000000
_cell_angle_beta 138.077713
_cell_angle_gamma 90.000000
_cell_volume 631.511061
_symmetry_space_group_name_H-M "P 21"
_symmetry_group_IT_number 4
_symmetry_cell_setting 'monoclinic'
loop_
_space_group_symop_operation_xyz
x,y,z
-x,1/2+y,-z
loop_
_atom_site_type_symbol
_atom_site_label
_atom_site_fract_x
_atom_site_fract_y
_atom_site_fract_z
Si Si1 0.814891 0.586150 0.158686
Si Si2 0.621505 0.919354 0.852346
Si Si3 0.326221 0.938650 0.776868
Si Si4 0.027363 0.684760 0.219190
Si Si5 0.058487 0.188508 0.186655
Si Si6 0.767677 0.257849 0.864091
Si Si7 0.374935 0.688185 0.559473
Si Si8 0.551532 0.789120 0.226175
O O1 0.789374 0.436707 0.261746
O O2 0.947921 0.653070 0.260460
O O3 0.729987 0.805611 0.071410
O O4 0.752706 0.447176 0.959199
O O5 0.513396 0.749731 0.683003
O O6 0.689099 0.043437 0.813938
O O7 0.541245 0.098489 0.836491
O O8 0.340965 0.759531 0.673066
O O9 0.336998 0.178798 0.718343
O O10 0.455217 0.933849 0.020050
O O11 0.937635 0.683454 0.973983
O O12 0.099581 0.442616 0.286476
O O13 0.087927 0.938016 0.285558
O O14 0.911261 0.200037 0.036877
O O15 0.716263 0.310884 0.653823
O O16 0.383953 0.420630 0.573750
#
# Coordination Sequence:
#
# PCOD9118484 Si02
#       8
#     2   2   2   2   2   2   2   2
#     4  11  21  36  58  85 108 140 193 241 284 333
#     4  11  21  32  54  76 113 142 187 229 279 328
#     4  11  20  35  55  73 105 151 190 231 267 330
#     4   9  18  34  59  89 112 145 185 242 293 344
#     4   9  18  36  57  84 120 145 183 235 302 347
#     4  11  23  36  54  83 113 148 180 239 290 345
#     4  11  25  35  52  77 115 153 188 226 282 340
#     4  11  20  36  51  73 104 154 188 229 265 323
#
# _framework density 25.336055000000002
#
# number of rings (size 3 to 8) (size 9 to 14) (size 15 to 20)
#    0.000    1.500    5.000    0.750    3.500    1.000 
#    0.000    0.000    0.000    0.000    3.250    0.000 
#    0.000    0.000    0.000    0.000    0.000    0.000 
#
# Total GULP energy -89283.913528 kJ/mol
# GULP energy per Si atom -5580.244595 kJ/mol
# Density = 2.527839 g / cm^3
# Si number density = 25.336055 Si / 1000 Ang^3
#
#
#
# Elastic Constant Matrix: (Units=GPa)
#
#
# Indices 1 2 3 4 5 6 
#
# 1 118.9586 19.0480 7.3032 0.0000 -15.1688 0.0000
# 2 19.0480 113.1912 9.7216 0.0000 -2.5062 0.0000
# 3 7.3032 9.7216 43.5162 0.0000 -8.9178 0.0000
# 4 0.0000 0.0000 0.0000 13.4411 0.0000 -3.4661
# 5 -15.1688 -2.5062 -8.9178 0.0000 33.4146 0.0000
# 6 0.0000 0.0000 0.0000 -3.4661 0.0000 34.5752
#
#
#
# Elastic Compliance Matrix: (Units=1/GPa)
#
#
# Indices 1 2 3 4 5 6 
#
# 1 0.009162 -0.001419 -0.000413 0.000000 0.003942 0.000000
# 2 -0.001419 0.009228 -0.001918 0.000000 -0.000464 0.000000
# 3 -0.000413 -0.001918 0.024764 0.000000 0.006278 0.000000
# 4 0.000000 0.000000 0.000000 0.076373 0.000000 0.007656
# 5 0.003942 -0.000464 0.006278 0.000000 0.033357 0.000000
# 6 0.000000 0.000000 0.000000 0.007656 0.000000 0.029690
#
#
# Mechanical properties :
#
#
# Convention : Reuss Voigt Hill
#
# Bulk Modulus (GPa) = 28.04771 38.64574 33.34673
# Shear Modulus (GPa) = 24.75755 32.25908 28.50832
#
# Velocity S-wave (km/s) = 3.12936 3.57213 3.35805
# Velocity P-wave (km/s) = 4.91442 5.68330 5.31278
#
# Compressibility (1/GPa) = 0.03565353
#
# Stress axis : x y z
#
# Youngs Moduli (GPa) = 109.15194 108.36711 40.38069
#
# Poissons Ratio (x) = 0.15377 0.01666
# Poissons Ratio (y) = 0.15489 0.07747
# Poissons Ratio (z) = 0.04504 0.20790
#
# Static dielectric constant tensor:
#      x y z
#    x 1.980120 0.000000 -0.033180 
#    y 0.000000 2.197230 0.000000 
#    z -0.033180 0.000000 2.084650 
# 
# From -- ./inp_files/8618.got.cif
#   From: 2010.05.17/outbox.cif.g08.bks.cpg/sg4_5_cif.got.tgz:8618.got - 2010.06.03 18:43:04.
