data_PCOD9118151
_publ_section_title
;
Structure prediction by ZEFSAII (Michael W. Deem and Ramdas Pophale) SiO2 
 PCOD9118151
Probable space group: P 21
;
_chemical_formula_sum "Si O2"
_cell_formula_units_Z 14
_cell_length_a 8.015395
_cell_length_b 6.052056
_cell_length_c 17.850993
_cell_angle_alpha 90.000000
_cell_angle_beta 39.237570
_cell_angle_gamma 90.000000
_cell_volume 547.742446
_symmetry_space_group_name_H-M "P 21"
_symmetry_group_IT_number 4
_symmetry_cell_setting 'monoclinic'
loop_
_space_group_symop_operation_xyz
x,y,z
-x,1/2+y,-z
loop_
_atom_site_type_symbol
_atom_site_label
_atom_site_fract_x
_atom_site_fract_y
_atom_site_fract_z
Si Si1 0.570761 0.799950 0.946117
Si Si2 0.756671 0.764691 0.110915
Si Si3 0.361321 0.117793 0.230654
Si Si4 0.775080 0.045269 0.660363
Si Si5 0.934617 0.399279 0.144734
Si Si6 0.500317 0.070148 0.612526
Si Si7 0.139115 0.327883 0.629206
O O1 0.509662 0.746446 0.882771
O O2 0.876877 0.842192 0.853258
O O3 0.526231 0.551876 0.998850
O O4 0.490549 0.615933 0.200781
O O5 0.925227 0.652912 0.117426
O O6 0.607505 0.991089 0.181245
O O7 0.927617 0.784396 0.975862
O O8 0.221419 0.282464 0.335622
O O9 0.134190 0.966677 0.271293
O O10 0.713975 0.148699 0.600231
O O11 0.034036 0.132163 0.611684
O O12 0.652062 0.387646 0.283357
O O13 0.281747 0.236316 0.653901
O O14 0.649848 0.969306 0.490163
#
# Coordination Sequence:
#
# PCOD9118151 Si02
#       7
#     2   2   2   2   2   2   2
#     4  12  27  47  80 118 161 215 272 330 416 490
#     4  10  24  46  72 117 150 195 254 324 399 487
#     4  11  25  49  80 103 158 206 262 329 401 487
#     4  10  25  52  78 106 150 207 263 322 409 478
#     4  11  25  47  75 113 161 199 261 329 412 481
#     4  11  28  49  73 113 153 205 263 330 402 477
#     4  11  28  50  74 112 155 201 271 332 391 486
#
# _framework density 25.559456999999998
#
# number of rings (size 3 to 8) (size 9 to 14) (size 15 to 20)
#    0.000    1.143    1.429    1.714   14.000    1.143 
#    7.714    0.000    0.000    0.000    0.000    0.000 
#    0.000    0.000    0.000    0.000    0.000    0.000 
#
# Total GULP energy -77959.040195 kJ/mol
# GULP energy per Si atom -5568.502871 kJ/mol
# Density = 2.550128 g / cm^3
# Si number density = 25.559457 Si / 1000 Ang^3
#
#
#
# Elastic Constant Matrix: (Units=GPa)
#
#
# Indices 1 2 3 4 5 6 
#
# 1 96.4902 46.0513 9.4706 0.0000 6.6959 0.0000
# 2 46.0513 107.1331 17.1524 0.0000 -6.1694 0.0000
# 3 9.4706 17.1524 106.4017 0.0000 -2.6067 0.0000
# 4 0.0000 0.0000 0.0000 32.4218 0.0000 -8.0199
# 5 6.6959 -6.1694 -2.6067 0.0000 34.5021 0.0000
# 6 0.0000 0.0000 0.0000 -8.0199 0.0000 43.4726
#
#
#
# Elastic Compliance Matrix: (Units=1/GPa)
#
#
# Indices 1 2 3 4 5 6 
#
# 1 0.013500 -0.005964 -0.000331 0.000000 -0.003711 0.000000
# 2 -0.005964 0.012305 -0.001373 0.000000 0.003254 0.000000
# 3 -0.000331 -0.001373 0.009663 0.000000 0.000549 0.000000
# 4 0.000000 0.000000 0.000000 0.032318 0.000000 0.005962
# 5 -0.003711 0.003254 0.000549 0.000000 0.030327 0.000000
# 6 0.000000 0.000000 0.000000 0.005962 0.000000 0.024103
#
#
# Mechanical properties :
#
#
# Convention : Reuss Voigt Hill
#
# Bulk Modulus (GPa) = 49.67294 50.59706 50.13500
# Shear Modulus (GPa) = 34.65907 37.90271 36.28089
#
# Velocity S-wave (km/s) = 3.68641 3.85505 3.77167
# Velocity P-wave (km/s) = 6.13155 6.29714 6.21490
#
# Compressibility (1/GPa) = 0.02013169
#
# Stress axis : x y z
#
# Youngs Moduli (GPa) = 74.07367 81.26834 103.49172
#
# Poissons Ratio (x) = 0.48466 0.03427
# Poissons Ratio (y) = 0.44176 0.14210
# Poissons Ratio (z) = 0.02453 0.11159
#
# Static dielectric constant tensor:
#      x y z
#    x 2.012320 0.000000 0.004840 
#    y 0.000000 2.193790 0.000000 
#    z 0.004840 0.000000 1.990450 
# 
# From -- ./inp_files/15545.got.cif
#   From: 2010.05.17/outbox.cif.g08.bks.cpg/sg4_8_cif.got.tgz:15545.got - 2010.06.03 18:43:04.
