data_PCOD9118350
_publ_section_title
;
Structure prediction by ZEFSAII (Michael W. Deem and Ramdas Pophale) SiO2 
 PCOD9118350
Probable space group: P 21
;
_chemical_formula_sum "Si O2"
_cell_formula_units_Z 16
_cell_length_a 8.127780
_cell_length_b 9.183130
_cell_length_c 13.697694
_cell_angle_alpha 90.000000
_cell_angle_beta 142.058372
_cell_angle_gamma 90.000000
_cell_volume 628.615670
_symmetry_space_group_name_H-M "P 21"
_symmetry_group_IT_number 4
_symmetry_cell_setting 'monoclinic'
loop_
_space_group_symop_operation_xyz
x,y,z
-x,1/2+y,-z
loop_
_atom_site_type_symbol
_atom_site_label
_atom_site_fract_x
_atom_site_fract_y
_atom_site_fract_z
Si Si1 0.811246 0.084210 0.116732
Si Si2 0.840363 0.363435 0.036730
Si Si3 0.407876 0.370234 0.251150
Si Si4 0.628965 0.765830 0.973485
Si Si5 0.847728 0.611038 0.413079
Si Si6 0.984048 0.074708 0.734290
Si Si7 0.411497 0.102541 0.394654
Si Si8 0.361968 0.432988 0.678955
O O1 0.600615 0.176168 0.080065
O O2 0.115861 0.075218 0.298113
O O3 0.844284 0.188783 0.037536
O O4 0.681276 0.930901 0.031290
O O5 0.563394 0.414976 0.863024
O O6 0.905170 0.421170 0.175696
O O7 0.099852 0.420442 0.101825
O O8 0.436014 0.268232 0.170135
O O9 0.615546 0.500192 0.336227
O O10 0.436629 0.264357 0.358451
O O11 0.902144 0.607012 0.320653
O O12 0.100495 0.185953 0.867279
O O13 0.121613 0.545474 0.583724
O O14 0.226700 0.275837 0.594998
O O15 0.664371 0.081232 0.582942
O O16 0.468123 0.988428 0.333823
#
# Coordination Sequence:
#
# PCOD9118350 Si02
#       8
#     2   2   2   2   2   2   2   2
#     4  11  25  44  70 102 140 182 234 293 354 417
#     4  11  24  46  72 101 139 185 236 289 348 416
#     4  11  24  44  72 105 140 183 235 290 348 417
#     4  12  24  43  71 102 136 181 235 292 347 416
#     4  11  24  45  71 106 145 185 235 289 349 417
#     4  11  25  45  70 103 142 183 233 287 351 423
#     4  10  25  48  69 101 144 185 232 288 354 421
#     4  11  23  43  71 102 142 188 236 290 345 415
#
# _framework density 25.452753000000001
#
# number of rings (size 3 to 8) (size 9 to 14) (size 15 to 20)
#    0.000    1.000    0.000    6.750    0.000    7.000 
#    0.000   18.750    0.000    0.000    0.000    0.000 
#    0.000    0.000    0.000    0.000    0.000    0.000 
#
# Total GULP energy -89711.149101 kJ/mol
# GULP energy per Si atom -5606.946819 kJ/mol
# Density = 2.539482 g / cm^3
# Si number density = 25.452753 Si / 1000 Ang^3
#
#
#
# Elastic Constant Matrix: (Units=GPa)
#
#
# Indices 1 2 3 4 5 6 
#
# 1 49.0361 33.7650 36.2924 0.0000 18.3946 0.0000
# 2 33.7650 162.0607 80.9075 0.0000 4.8639 0.0000
# 3 36.2924 80.9075 215.0915 0.0000 15.2043 0.0000
# 4 0.0000 0.0000 0.0000 42.7891 0.0000 5.4928
# 5 18.3946 4.8639 15.2043 0.0000 33.5470 0.0000
# 6 0.0000 0.0000 0.0000 5.4928 0.0000 31.3535
#
#
#
# Elastic Compliance Matrix: (Units=1/GPa)
#
#
# Indices 1 2 3 4 5 6 
#
# 1 0.031256 -0.004876 -0.002354 0.000000 -0.015365 0.000000
# 2 -0.004876 0.008359 -0.002505 0.000000 0.002597 0.000000
# 3 -0.002354 -0.002505 0.006066 0.000000 -0.001096 0.000000
# 4 0.000000 0.000000 0.000000 0.023908 0.000000 -0.004188
# 5 -0.015365 0.002597 -0.001096 0.000000 0.038354 0.000000
# 6 0.000000 0.000000 0.000000 -0.004188 0.000000 0.032628
#
#
# Mechanical properties :
#
#
# Convention : Reuss Voigt Hill
#
# Bulk Modulus (GPa) = 38.15058 80.90199 59.52628
# Shear Modulus (GPa) = 29.62459 39.88613 34.75536
#
# Velocity S-wave (km/s) = 3.41531 3.96291 3.69926
# Velocity P-wave (km/s) = 5.52935 7.26593 6.45629
#
# Compressibility (1/GPa) = 0.02621192
#
# Stress axis : x y z
#
# Youngs Moduli (GPa) = 31.99353 119.62893 164.85080
#
# Poissons Ratio (x) = 0.58331 0.38800
# Poissons Ratio (y) = 0.15600 0.41298
# Poissons Ratio (z) = 0.07530 0.29969
#
# Static dielectric constant tensor:
#      x y z
#    x 2.077740 0.000000 0.005470 
#    y 0.000000 2.009450 0.000000 
#    z 0.005470 0.000000 1.998310 
# 
# From -- ./inp_files/15641.got.cif
#   From: 2010.05.17/outbox.cif.g08.bks.cpg/sg4_8_cif.got.tgz:15641.got - 2010.06.03 18:43:04.
