data_PCOD9118071
_publ_section_title
;
Structure prediction by ZEFSAII (Michael W. Deem and Ramdas Pophale) SiO2 
 PCOD9118071
Probable space group: P 21
;
_chemical_formula_sum "Si O2"
_cell_formula_units_Z 16
_cell_length_a 9.089091
_cell_length_b 7.558186
_cell_length_c 12.647805
_cell_angle_alpha 90.000000
_cell_angle_beta 127.600110
_cell_angle_gamma 90.000000
_cell_volume 688.393126
_symmetry_space_group_name_H-M "P 21"
_symmetry_group_IT_number 4
_symmetry_cell_setting 'monoclinic'
loop_
_space_group_symop_operation_xyz
x,y,z
-x,1/2+y,-z
loop_
_atom_site_type_symbol
_atom_site_label
_atom_site_fract_x
_atom_site_fract_y
_atom_site_fract_z
Si Si1 0.877082 0.738410 0.256319
Si Si2 0.733869 0.015860 0.358433
Si Si3 0.904313 0.929806 0.060881
Si Si4 0.314004 0.885532 0.736605
Si Si5 0.688139 0.409306 0.827498
Si Si6 0.148935 0.463224 0.363900
Si Si7 0.782117 0.297163 0.096065
Si Si8 0.332657 0.493299 0.235366
O O1 0.850908 0.776509 0.119989
O O2 0.775319 0.574920 0.271243
O O3 0.088411 0.669527 0.347069
O O4 0.816044 0.907869 0.295547
O O5 0.791506 0.220360 0.364227
O O6 0.804435 0.920234 0.495773
O O7 0.509492 0.004895 0.270050
O O8 0.124554 0.969365 0.149963
O O9 0.804670 0.101310 0.063568
O O10 0.830310 0.908578 0.909121
O O11 0.368041 0.811604 0.876469
O O12 0.480358 0.925519 0.732701
O O13 0.670779 0.204658 0.783023
O O14 0.731641 0.409277 0.971616
O O15 0.307098 0.446419 0.346204
O O16 0.973209 0.359783 0.236372
#
# Coordination Sequence:
#
# PCOD9118071 Si02
#       8
#     2   2   2   2   2   2   2   2
#     4  11  25  48  71 102 147 186 242 303 356 430
#     4  12  28  48  73 108 146 194 241 299 369 430
#     4  11  23  44  77 105 144 194 248 301 365 429
#     4  11  26  44  71 109 140 189 239 302 358 432
#     4  11  24  45  71 110 146 190 243 304 365 424
#     4  11  26  47  71 104 149 192 241 293 362 445
#     4  10  24  44  73 106 143 193 244 296 365 433
#     4  11  24  44  71 110 147 194 240 300 370 431
#
# _framework density 23.242533000000002
#
# number of rings (size 3 to 8) (size 9 to 14) (size 15 to 20)
#    0.000    1.000    5.000    0.000    7.000    3.000 
#    0.000    0.000    0.000    0.000    0.000    0.000 
#    0.000    0.000    0.000    0.000    0.000    0.000 
#
# Total GULP energy -89304.640773 kJ/mol
# GULP energy per Si atom -5581.540048 kJ/mol
# Density = 2.318963 g / cm^3
# Si number density = 23.242533 Si / 1000 Ang^3
#
#
#
# Elastic Constant Matrix: (Units=GPa)
#
#
# Indices 1 2 3 4 5 6 
#
# 1 127.9990 18.2032 10.0712 0.0000 -20.1871 0.0000
# 2 18.2032 75.4397 10.6823 0.0000 -3.9747 0.0000
# 3 10.0712 10.6823 79.4280 0.0000 -16.0688 0.0000
# 4 0.0000 0.0000 0.0000 18.7563 0.0000 0.3167
# 5 -20.1871 -3.9747 -16.0688 0.0000 25.1327 0.0000
# 6 0.0000 0.0000 0.0000 0.3167 0.0000 30.3228
#
#
#
# Elastic Compliance Matrix: (Units=1/GPa)
#
#
# Indices 1 2 3 4 5 6 
#
# 1 0.009218 -0.001915 0.000603 0.000000 0.007487 0.000000
# 2 -0.001915 0.013938 -0.001719 0.000000 -0.000433 0.000000
# 3 0.000603 -0.001719 0.014688 0.000000 0.009603 0.000000
# 4 0.000000 0.000000 0.000000 0.053325 0.000000 -0.000557
# 5 0.007487 -0.000433 0.009603 0.000000 0.051874 0.000000
# 6 0.000000 0.000000 0.000000 -0.000557 0.000000 0.032984
#
#
# Mechanical properties :
#
#
# Convention : Reuss Voigt Hill
#
# Bulk Modulus (GPa) = 31.46457 40.08667 35.77562
# Shear Modulus (GPa) = 25.94926 31.10305 28.52615
#
# Velocity S-wave (km/s) = 3.34497 3.66210 3.50712
# Velocity P-wave (km/s) = 5.33716 5.93008 5.64142
#
# Compressibility (1/GPa) = 0.03178178
#
# Stress axis : x y z
#
# Youngs Moduli (GPa) = 108.47988 71.74424 68.08481
#
# Poissons Ratio (x) = 0.13741 -0.04109
# Poissons Ratio (y) = 0.20777 0.11707
# Poissons Ratio (z) = -0.06546 0.12336
#
# Static dielectric constant tensor:
#      x y z
#    x 1.918290 0.000000 0.031890 
#    y 0.000000 1.899150 0.000000 
#    z 0.031890 0.000000 1.919000 
# 
# From -- ./inp_files/11058.got.cif
#   From: 2010.05.17/outbox.cif.g08.bks.cpg/sg4_6_cif.got.tgz:11058.got - 2010.06.03 18:43:04.
