data_PCOD9118772
_publ_section_title
;
Structure prediction by ZEFSAII (Michael W. Deem and Ramdas Pophale) SiO2 
 PCOD9118772
Probable space group: P 21
;
_chemical_formula_sum "Si O2"
_cell_formula_units_Z 14
_cell_length_a 11.555461
_cell_length_b 8.080670
_cell_length_c 5.874175
_cell_angle_alpha 90.000000
_cell_angle_beta 90.662735
_cell_angle_gamma 90.000000
_cell_volume 548.469491
_symmetry_space_group_name_H-M "P 21"
_symmetry_group_IT_number 4
_symmetry_cell_setting 'monoclinic'
loop_
_space_group_symop_operation_xyz
x,y,z
-x,1/2+y,-z
loop_
_atom_site_type_symbol
_atom_site_label
_atom_site_fract_x
_atom_site_fract_y
_atom_site_fract_z
Si Si1 0.910700 0.275510 0.022838
Si Si2 0.407759 0.480733 0.007288
Si Si3 0.122685 0.546458 0.364333
Si Si4 0.923687 0.562654 0.683603
Si Si5 0.520323 0.269248 0.657587
Si Si6 0.286197 0.750534 0.686230
Si Si7 0.707605 0.750212 0.646221
O O1 0.872886 0.106843 0.893423
O O2 0.950542 0.402460 0.834040
O O3 0.796209 0.348080 0.142005
O O4 0.014935 0.217152 0.185817
O O5 0.440400 0.599875 0.218668
O O6 0.342968 0.323485 0.118235
O O7 0.510708 0.405023 0.857125
O O8 0.338853 0.596856 0.830119
O O9 0.192092 0.684757 0.505943
O O10 0.196190 0.385184 0.422879
O O11 0.991808 0.543742 0.449516
O O12 0.786763 0.588606 0.664981
O O13 0.396099 0.245211 0.535643
O O14 0.391505 0.818716 0.540533
#
# Coordination Sequence:
#
# PCOD9118772 Si02
#       7
#     2   2   2   2   2   2   2
#     4  11  24  48  77 112 155 202 249 317 383 453
#     4  12  25  50  77 109 153 201 253 318 387 451
#     4  11  22  47  80 103 157 195 254 313 380 442
#     4  11  27  45  79 114 149 201 257 310 384 456
#     4  12  26  50  79 110 150 206 255 321 385 462
#     4  11  23  49  76 108 151 198 250 311 383 451
#     4  12  25  49  78 112 153 203 252 320 382 457
#
# _framework density 25.525577999999999
#
# number of rings (size 3 to 8) (size 9 to 14) (size 15 to 20)
#    0.000    0.571    4.286    2.571    2.000    2.286 
#   25.714    0.000    0.000    0.000    0.000    0.000 
#    0.000    0.000    0.000    0.000    0.000    0.000 
#
# Total GULP energy -78427.998614 kJ/mol
# GULP energy per Si atom -5601.999901 kJ/mol
# Density = 2.546748 g / cm^3
# Si number density = 25.525578 Si / 1000 Ang^3
#
#
#
# Elastic Constant Matrix: (Units=GPa)
#
#
# Indices 1 2 3 4 5 6 
#
# 1 143.6846 26.7883 59.4533 0.0000 -6.6514 0.0000
# 2 26.7883 58.0636 15.5803 0.0000 -1.4999 0.0000
# 3 59.4533 15.5803 92.7261 0.0000 -11.0067 0.0000
# 4 0.0000 0.0000 0.0000 44.8188 0.0000 0.9735
# 5 -6.6514 -1.4999 -11.0067 0.0000 55.9450 0.0000
# 6 0.0000 0.0000 0.0000 0.9735 0.0000 43.6745
#
#
#
# Elastic Compliance Matrix: (Units=1/GPa)
#
#
# Indices 1 2 3 4 5 6 
#
# 1 0.009953 -0.003015 -0.005881 0.000000 -0.000055 0.000000
# 2 -0.003015 0.018950 -0.001263 0.000000 -0.000099 0.000000
# 3 -0.005881 -0.001263 0.015032 0.000000 0.002224 0.000000
# 4 0.000000 0.000000 0.000000 0.022323 0.000000 -0.000498
# 5 -0.000055 -0.000099 0.002224 0.000000 0.018303 0.000000
# 6 0.000000 0.000000 0.000000 -0.000498 0.000000 0.022908
#
#
# Mechanical properties :
#
#
# Convention : Reuss Voigt Hill
#
# Bulk Modulus (GPa) = 42.34393 55.34646 48.84520
# Shear Modulus (GPa) = 36.85736 41.73114 39.29425
#
# Velocity S-wave (km/s) = 3.80404 4.04775 3.92778
# Velocity P-wave (km/s) = 5.99326 6.60117 6.30455
#
# Compressibility (1/GPa) = 0.02361614
#
# Stress axis : x y z
#
# Youngs Moduli (GPa) = 100.47368 52.77107 66.52667
#
# Poissons Ratio (x) = 0.15911 0.39127
# Poissons Ratio (y) = 0.30294 0.08399
# Poissons Ratio (z) = 0.59092 0.06663
#
# Static dielectric constant tensor:
#      x y z
#    x 1.980860 0.000000 -0.003400 
#    y 0.000000 2.099010 0.000000 
#    z -0.003400 0.000000 1.989720 
# 
# From -- ./inp_files/2458.got.cif
#   From: 2010.05.17/outbox.cif.g08.bks.cpg/sg4_2_cif.got.tgz:2458.got - 2010.06.03 18:43:04.
