data_PCOD9118648
_publ_section_title
;
Structure prediction by ZEFSAII (Michael W. Deem and Ramdas Pophale) SiO2 
 PCOD9118648
Probable space group: P 21
;
_chemical_formula_sum "Si O2"
_cell_formula_units_Z 16
_cell_length_a 15.634322
_cell_length_b 6.847171
_cell_length_c 13.723773
_cell_angle_alpha 90.000000
_cell_angle_beta 151.180489
_cell_angle_gamma 90.000000
_cell_volume 708.202885
_symmetry_space_group_name_H-M "P 21"
_symmetry_group_IT_number 4
_symmetry_cell_setting 'monoclinic'
loop_
_space_group_symop_operation_xyz
x,y,z
-x,1/2+y,-z
loop_
_atom_site_type_symbol
_atom_site_label
_atom_site_fract_x
_atom_site_fract_y
_atom_site_fract_z
Si Si1 0.341142 0.934960 0.429344
Si Si2 0.675063 0.314135 0.970159
Si Si3 0.859741 0.821723 0.834932
Si Si4 0.055610 0.137520 0.712718
Si Si5 0.371074 0.574617 0.741271
Si Si6 0.353858 0.413003 0.940670
Si Si7 0.075745 0.666529 0.221575
Si Si8 0.337463 0.660798 0.244073
O O1 0.254292 0.785348 0.418138
O O2 0.395545 0.807944 0.388452
O O3 0.227195 0.116419 0.275887
O O4 0.497452 0.048413 0.637016
O O5 0.488781 0.435500 0.786957
O O6 0.740006 0.277300 0.923875
O O7 0.826777 0.441925 0.175424
O O8 0.655672 0.110094 0.006205
O O9 0.896540 0.940423 0.773288
O O10 0.761032 0.980426 0.803143
O O11 0.023563 0.762483 0.066005
O O12 0.842795 0.105182 0.486855
O O13 0.165313 0.297450 0.761816
O O14 0.065023 0.203219 0.835847
O O15 0.386415 0.469792 0.861547
O O16 0.486196 0.773111 0.864158
#
# Coordination Sequence:
#
# PCOD9118648 Si02
#       8
#     2   2   2   2   2   2   2   2
#     4  11  23  39  62  92 131 183 225 276 331 392
#     4  11  26  46  72 103 140 179 228 290 336 409
#     4  11  22  40  63  87 133 181 220 280 327 392
#     4  11  28  44  72 107 137 177 233 280 336 421
#     4  11  26  48  74 104 140 173 225 283 348 418
#     4  11  25  49  73 103 137 180 217 283 356 407
#     4  11  24  41  62  96 132 176 229 276 333 393
#     4  11  24  41  64  94 134 177 231 276 333 396
#
# _framework density 22.592395
#
# number of rings (size 3 to 8) (size 9 to 14) (size 15 to 20)
#    0.000    1.000    3.750    1.500    7.000    3.000 
#    0.000    0.000    0.000    0.000    0.000    0.000 
#    0.000    0.000    0.000    0.000    0.000    0.000 
#
# Total GULP energy -89274.920571 kJ/mol
# GULP energy per Si atom -5579.682536 kJ/mol
# Density = 2.254097 g / cm^3
# Si number density = 22.592395 Si / 1000 Ang^3
#
#
#
# Elastic Constant Matrix: (Units=GPa)
#
#
# Indices 1 2 3 4 5 6 
#
# 1 76.9830 33.8051 0.0913 0.0000 14.1956 0.0000
# 2 33.8051 148.0240 48.6302 0.0000 22.4106 0.0000
# 3 0.0913 48.6302 108.4194 0.0000 28.6209 0.0000
# 4 0.0000 0.0000 0.0000 29.3382 0.0000 -0.6796
# 5 14.1956 22.4106 28.6209 0.0000 29.0875 0.0000
# 6 0.0000 0.0000 0.0000 -0.6796 0.0000 7.9860
#
#
#
# Elastic Compliance Matrix: (Units=1/GPa)
#
#
# Indices 1 2 3 4 5 6 
#
# 1 0.016268 -0.003663 0.004026 0.000000 -0.009078 0.000000
# 2 -0.003663 0.009025 -0.003622 0.000000 -0.001601 0.000000
# 3 0.004026 -0.003622 0.014355 0.000000 -0.013299 0.000000
# 4 0.000000 0.000000 0.000000 0.034153 0.000000 0.002906
# 5 -0.009078 -0.001601 -0.013299 0.000000 0.053129 0.000000
# 6 0.000000 0.000000 0.000000 0.002906 0.000000 0.125467
#
#
# Mechanical properties :
#
#
# Convention : Reuss Voigt Hill
#
# Bulk Modulus (GPa) = 30.18529 55.38661 42.78595
# Shear Modulus (GPa) = 18.52138 30.00901 24.26519
#
# Velocity S-wave (km/s) = 2.86633 3.64851 3.28081
# Velocity P-wave (km/s) = 4.93399 6.50520 5.77330
#
# Compressibility (1/GPa) = 0.03312872
#
# Stress axis : x y z
#
# Youngs Moduli (GPa) = 61.47129 110.80711 69.65972
#
# Poissons Ratio (x) = 0.40593 -0.28044
# Poissons Ratio (y) = 0.22519 0.25232
# Poissons Ratio (z) = -0.24748 0.40136
#
# Static dielectric constant tensor:
#      x y z
#    x 1.870130 0.000000 -0.009350 
#    y 0.000000 1.805370 0.000000 
#    z -0.009350 0.000000 2.151200 
# 
# From -- ./inp_files/14115.got.cif
#   From: 2010.05.17/outbox.cif.g08.bks.cpg/sg4_8_cif.got.tgz:14115.got - 2010.06.03 18:43:04.
