data_PCOD9118960
_publ_section_title
;
Structure prediction by ZEFSAII (Michael W. Deem and Ramdas Pophale) SiO2 
 PCOD9118960
Probable space group: P 21
;
_chemical_formula_sum "Si O2"
_cell_formula_units_Z 12
_cell_length_a 9.322184
_cell_length_b 8.168012
_cell_length_c 14.207454
_cell_angle_alpha 90.000000
_cell_angle_beta 29.308027
_cell_angle_gamma 90.000000
_cell_volume 529.550147
_symmetry_space_group_name_H-M "P 21"
_symmetry_group_IT_number 4
_symmetry_cell_setting 'monoclinic'
loop_
_space_group_symop_operation_xyz
x,y,z
-x,1/2+y,-z
loop_
_atom_site_type_symbol
_atom_site_label
_atom_site_fract_x
_atom_site_fract_y
_atom_site_fract_z
Si Si1 0.572370 0.007080 0.118260
Si Si2 0.323845 0.343845 0.281939
Si Si3 0.312385 0.806582 0.436501
Si Si4 0.762547 0.525893 0.891983
Si Si5 0.665803 0.944340 0.519190
Si Si6 0.879158 0.358124 0.266316
O O1 0.505729 0.182433 0.198910
O O2 0.400892 0.008958 0.115618
O O3 0.481610 0.873819 0.249133
O O4 0.908958 0.989079 0.900571
O O5 0.229807 0.416228 0.434625
O O6 0.025116 0.290618 0.402803
O O7 0.528649 0.462620 0.102300
O O8 0.420565 0.637303 0.422019
O O9 0.272054 0.921165 0.550877
O O10 0.061526 0.423108 0.707191
O O11 0.898857 0.704725 0.840307
O O12 0.392361 0.833638 0.647641
#
# Coordination Sequence:
#
# PCOD9118960 Si02
#       6
#     2   2   2   2   2   2
#     4  12  23  41  73 104 135 186 239 286 345 416
#     4  12  23  41  73 104 135 186 239 286 345 416
#     4  11  23  46  71 100 138 189 235 284 348 418
#     4  11  23  46  71 100 138 189 235 284 348 418
#     4  11  26  45  68 104 146 182 231 292 354 415
#     4  11  26  45  68 104 146 182 231 292 354 415
#
# _framework density 22.660744999999999
#
# number of rings (size 3 to 8) (size 9 to 14) (size 15 to 20)
#    0.000    0.667    6.667    1.000    0.000   10.667 
#    0.000    0.000    0.000    0.000    0.000    0.000 
#    0.000    0.000    0.000    0.000    0.000    0.000 
#
# Total GULP energy -66933.201588 kJ/mol
# GULP energy per Si atom -5577.766799 kJ/mol
# Density = 2.260917 g / cm^3
# Si number density = 22.660745 Si / 1000 Ang^3
#
#
#
# Elastic Constant Matrix: (Units=GPa)
#
#
# Indices 1 2 3 4 5 6 
#
# 1 72.4413 0.0424 35.3300 0.0000 4.9362 0.0000
# 2 0.0424 29.0365 6.3042 0.0000 3.8305 0.0000
# 3 35.3300 6.3042 55.5795 0.0000 -6.0943 0.0000
# 4 0.0000 0.0000 0.0000 24.1864 0.0000 2.5936
# 5 4.9362 3.8305 -6.0943 0.0000 32.2316 0.0000
# 6 0.0000 0.0000 0.0000 2.5936 0.0000 27.5200
#
#
#
# Elastic Compliance Matrix: (Units=1/GPa)
#
#
# Indices 1 2 3 4 5 6 
#
# 1 0.021488 0.004059 -0.014841 0.000000 -0.006579 0.000000
# 2 0.004059 0.036902 -0.007470 0.000000 -0.006420 0.000000
# 3 -0.014841 -0.007470 0.029226 0.000000 0.008687 0.000000
# 4 0.000000 0.000000 0.000000 0.041768 0.000000 -0.003936
# 5 -0.006579 -0.006420 0.008687 0.000000 0.034438 0.000000
# 6 0.000000 0.000000 0.000000 -0.003936 0.000000 0.036708
#
#
# Mechanical properties :
#
#
# Convention : Reuss Voigt Hill
#
# Bulk Modulus (GPa) = 19.56471 26.71227 23.13849
# Shear Modulus (GPa) = 19.67941 24.47964 22.07953
#
# Velocity S-wave (km/s) = 2.95012 3.29031 3.12485
# Velocity P-wave (km/s) = 4.50075 5.12331 4.82209
#
# Compressibility (1/GPa) = 0.05111245
#
# Stress axis : x y z
#
# Youngs Moduli (GPa) = 46.53667 27.09870 34.21597
#
# Poissons Ratio (x) = -0.10999 0.50781
# Poissons Ratio (y) = -0.18888 0.25558
# Poissons Ratio (z) = 0.69066 0.20242
#
# Static dielectric constant tensor:
#      x y z
#    x 1.879600 0.000000 0.016450 
#    y 0.000000 1.918850 0.000000 
#    z 0.016450 0.000000 1.818240 
# 
# From -- ./inp_files/13632.got.cif
#   From: 2010.05.17/outbox.cif.g08.bks.cpg/sg4_7_cif.got.tgz:13632.got - 2010.06.03 18:43:04.
