data_PCOD9118579
_publ_section_title
;
Structure prediction by ZEFSAII (Michael W. Deem and Ramdas Pophale) SiO2 
 PCOD9118579
Probable space group: P 21
;
_chemical_formula_sum "Si O2"
_cell_formula_units_Z 16
_cell_length_a 10.485352
_cell_length_b 13.007032
_cell_length_c 10.655342
_cell_angle_alpha 90.000000
_cell_angle_beta 26.524592
_cell_angle_gamma 90.000000
_cell_volume 648.977623
_symmetry_space_group_name_H-M "P 21"
_symmetry_group_IT_number 4
_symmetry_cell_setting 'monoclinic'
loop_
_space_group_symop_operation_xyz
x,y,z
-x,1/2+y,-z
loop_
_atom_site_type_symbol
_atom_site_label
_atom_site_fract_x
_atom_site_fract_y
_atom_site_fract_z
Si Si1 0.329267 0.500000 0.944604
Si Si2 0.795424 0.581383 0.102816
Si Si3 0.897717 0.593948 0.507748
Si Si4 0.351514 0.666915 0.295217
Si Si5 0.914800 0.835753 0.445097
Si Si6 0.834761 0.804915 0.791682
Si Si7 0.625234 0.146357 0.328081
Si Si8 0.666500 0.361967 0.147893
O O1 0.270389 0.379415 0.005551
O O2 0.051341 0.547443 0.252368
O O3 0.604006 0.533657 0.785115
O O4 0.372298 0.554124 0.774664
O O5 0.580312 0.611790 0.181099
O O6 0.666451 0.636954 0.338631
O O7 0.797654 0.457867 0.106807
O O8 0.113958 0.622176 0.808282
O O9 0.851070 0.713592 0.513519
O O10 0.124983 0.596539 0.420852
O O11 0.131825 0.746660 0.554156
O O12 0.562254 0.729270 0.015083
O O13 0.901637 0.865827 0.603231
O O14 0.190265 0.851001 0.116076
O O15 0.662723 0.886298 0.588835
O O16 0.675149 0.254632 0.215068
#
# Coordination Sequence:
#
# PCOD9118579 Si02
#       8
#     2   2   2   2   2   2   2   2
#     4  12  24  43  73 111 139 193 241 300 364 436
#     4  12  29  48  74 107 143 202 248 297 369 430
#     4  11  21  42  71 103 146 182 231 307 368 427
#     4  11  25  48  67 106 155 190 237 306 371 434
#     4  11  21  44  70 106 146 183 237 298 372 433
#     4  11  25  43  72 113 151 194 233 304 381 446
#     4  12  26  49  72 105 146 193 252 304 355 432
#     4  12  25  47  75 105 140 193 247 308 352 442
#
# _framework density 24.654161999999999
#
# number of rings (size 3 to 8) (size 9 to 14) (size 15 to 20)
#    0.000    0.500    2.500    6.750    1.750    3.000 
#    2.250    0.000    0.000    0.000    0.000    0.000 
#    0.000    0.000    0.000    0.000    0.000    0.000 
#
# Total GULP energy -89573.938483 kJ/mol
# GULP energy per Si atom -5598.371155 kJ/mol
# Density = 2.459805 g / cm^3
# Si number density = 24.654162 Si / 1000 Ang^3
#
#
#
# Elastic Constant Matrix: (Units=GPa)
#
#
# Indices 1 2 3 4 5 6 
#
# 1 77.0491 25.4332 0.5733 0.0000 -12.6528 0.0000
# 2 25.4332 71.3955 29.3348 0.0000 -0.6773 0.0000
# 3 0.5733 29.3348 107.8214 0.0000 -1.9350 0.0000
# 4 0.0000 0.0000 0.0000 34.2844 0.0000 -3.2457
# 5 -12.6528 -0.6773 -1.9350 0.0000 42.0293 0.0000
# 6 0.0000 0.0000 0.0000 -3.2457 0.0000 32.7951
#
#
#
# Elastic Compliance Matrix: (Units=1/GPa)
#
#
# Indices 1 2 3 4 5 6 
#
# 1 0.015823 -0.006296 0.001714 0.000000 0.004741 0.000000
# 2 -0.006296 0.018274 -0.004971 0.000000 -0.001830 0.000000
# 3 0.001714 -0.004971 0.010635 0.000000 0.000925 0.000000
# 4 0.000000 0.000000 0.000000 0.029444 0.000000 0.002914
# 5 0.004741 -0.001830 0.000925 0.000000 0.025233 0.000000
# 6 0.000000 0.000000 0.000000 0.002914 0.000000 0.030781
#
#
# Mechanical properties :
#
#
# Convention : Reuss Voigt Hill
#
# Bulk Modulus (GPa) = 39.02376 40.77207 39.89792
# Shear Modulus (GPa) = 31.67816 35.21672 33.44744
#
# Velocity S-wave (km/s) = 3.58844 3.78356 3.68729
# Velocity P-wave (km/s) = 5.74735 5.97165 5.86057
#
# Compressibility (1/GPa) = 0.02562541
#
# Stress axis : x y z
#
# Youngs Moduli (GPa) = 63.20053 54.72136 94.03254
#
# Poissons Ratio (x) = 0.34451 -0.16115
# Poissons Ratio (y) = 0.39789 0.46746
# Poissons Ratio (z) = -0.10831 0.27203
#
# Static dielectric constant tensor:
#      x y z
#    x 1.987450 0.000000 0.008030 
#    y 0.000000 2.030910 0.000000 
#    z 0.008030 0.000000 1.873960 
# 
# From -- ./inp_files/12353.got.cif
#   From: 2010.05.17/outbox.cif.g08.bks.cpg/sg4_7_cif.got.tgz:12353.got - 2010.06.03 18:43:04.
