data_PCOD9118207
_publ_section_title
;
Structure prediction by ZEFSAII (Michael W. Deem and Ramdas Pophale) SiO2 
 PCOD9118207
Probable space group: P 21
;
_chemical_formula_sum "Si O2"
_cell_formula_units_Z 14
_cell_length_a 10.267007
_cell_length_b 10.378316
_cell_length_c 5.124391
_cell_angle_alpha 90.000000
_cell_angle_beta 93.511720
_cell_angle_gamma 90.000000
_cell_volume 545.000326
_symmetry_space_group_name_H-M "P 21"
_symmetry_group_IT_number 4
_symmetry_cell_setting 'monoclinic'
loop_
_space_group_symop_operation_xyz
x,y,z
-x,1/2+y,-z
loop_
_atom_site_type_symbol
_atom_site_label
_atom_site_fract_x
_atom_site_fract_y
_atom_site_fract_z
Si Si1 0.250000 0.950210 0.499998
Si Si2 0.647285 0.686826 0.181262
Si Si3 0.038220 0.391854 0.516778
Si Si4 0.102888 0.560437 0.026261
Si Si5 0.397109 0.560433 0.973748
Si Si6 0.852714 0.686831 0.818735
Si Si7 0.538221 0.891850 0.516768
O O1 0.382369 0.873059 0.467007
O O2 0.117631 0.873056 0.532979
O O3 0.290815 0.049586 0.733150
O O4 0.209182 0.049591 0.266856
O O5 0.509258 0.666455 0.021724
O O6 0.611975 0.763408 0.439054
O O7 0.749999 0.751383 0.000001
O O8 0.071368 0.455360 0.796752
O O9 0.111980 0.263418 0.439056
O O10 0.083785 0.494733 0.303567
O O11 0.990742 0.666462 0.978270
O O12 0.249999 0.607265 0.000008
O O13 0.428631 0.455357 0.203260
O O14 0.416206 0.494724 0.696444
#
# Coordination Sequence:
#
# PCOD9118207 Si02
#       7
#     2   2   2   2   2   2   2
#     4  10  24  48  66 110 140 186 238 300 334 444
#     4  11  24  46  74 101 144 191 235 289 363 415
#     4  11  25  44  75 101 144 186 237 292 356 416
#     4  11  25  46  69 108 142 179 245 293 343 433
#     4  11  25  46  69 108 142 179 245 293 343 433
#     4  11  24  46  74 101 144 191 235 289 363 415
#     4  11  25  44  75 101 144 186 237 292 356 416
#
# _framework density 25.688058999999999
#
# number of rings (size 3 to 8) (size 9 to 14) (size 15 to 20)
#    0.000    1.143    2.857    1.714    8.000    0.000 
#   20.571    0.000    0.000    0.000    0.000    0.000 
#    0.000    0.000    0.000    0.000    0.000    0.000 
#
# Total GULP energy -78512.452535 kJ/mol
# GULP energy per Si atom -5608.032324 kJ/mol
# Density = 2.562959 g / cm^3
# Si number density = 25.688059 Si / 1000 Ang^3
#
#
#
# Elastic Constant Matrix: (Units=GPa)
#
#
# Indices 1 2 3 4 5 6 
#
# 1 268.0285 41.3893 21.5260 0.0000 -9.8768 0.0000
# 2 41.3893 50.7249 31.4472 0.0000 -10.7917 0.0000
# 3 21.5260 31.4472 74.6720 0.0000 -11.5410 0.0000
# 4 0.0000 0.0000 0.0000 30.5083 0.0000 1.9644
# 5 -9.8768 -10.7917 -11.5410 0.0000 41.2084 0.0000
# 6 0.0000 0.0000 0.0000 1.9644 0.0000 39.4818
#
#
#
# Elastic Compliance Matrix: (Units=1/GPa)
#
#
# Indices 1 2 3 4 5 6 
#
# 1 0.004275 -0.003662 0.000334 0.000000 0.000159 0.000000
# 2 -0.003662 0.030467 -0.011161 0.000000 0.003975 0.000000
# 3 0.000334 -0.011161 0.018351 0.000000 0.002297 0.000000
# 4 0.000000 0.000000 0.000000 0.032883 0.000000 -0.001636
# 5 0.000159 0.003975 0.002297 0.000000 0.025989 0.000000
# 6 0.000000 0.000000 0.000000 -0.001636 0.000000 0.025410
#
#
# Mechanical properties :
#
#
# Convention : Reuss Voigt Hill
#
# Bulk Modulus (GPa) = 41.46548 64.68339 53.07444
# Shear Modulus (GPa) = 28.67116 42.17722 35.42419
#
# Velocity S-wave (km/s) = 3.34447 4.05643 3.71754
# Velocity P-wave (km/s) = 5.57593 6.86837 6.25562
#
# Compressibility (1/GPa) = 0.02411644
#
# Stress axis : x y z
#
# Youngs Moduli (GPa) = 233.89358 32.82225 54.49367
#
# Poissons Ratio (x) = 0.12019 -0.01822
# Poissons Ratio (y) = 0.85650 0.60819
# Poissons Ratio (z) = -0.07819 0.36632
#
# Static dielectric constant tensor:
#      x y z
#    x 2.008320 0.000000 0.033710 
#    y 0.000000 2.012870 0.000000 
#    z 0.033710 0.000000 1.986920 
# 
# From -- ./inp_files/1318.got.cif
#   From: 2010.05.17/outbox.cif.g08.bks.cpg/sg4_1_cif.got.tgz:1318.got - 2010.06.03 18:43:04.
