data_PCOD9118545
_publ_section_title
;
Structure prediction by ZEFSAII (Michael W. Deem and Ramdas Pophale) SiO2 
 PCOD9118545
Probable space group: P 21
;
_chemical_formula_sum "Si O2"
_cell_formula_units_Z 10
_cell_length_a 14.084476
_cell_length_b 5.077426
_cell_length_c 20.452709
_cell_angle_alpha 90.000000
_cell_angle_beta 164.805346
_cell_angle_gamma 90.000000
_cell_volume 383.354641
_symmetry_space_group_name_H-M "P 21"
_symmetry_group_IT_number 4
_symmetry_cell_setting 'monoclinic'
loop_
_space_group_symop_operation_xyz
x,y,z
-x,1/2+y,-z
loop_
_atom_site_type_symbol
_atom_site_label
_atom_site_fract_x
_atom_site_fract_y
_atom_site_fract_z
Si Si1 0.229506 0.914240 0.896075
Si Si2 0.336141 0.447728 0.594499
Si Si3 0.301946 0.194012 0.352823
Si Si4 0.357295 0.923839 0.792339
Si Si5 0.291111 0.450159 0.117854
O O1 0.996132 0.862557 0.806212
O O2 0.441400 0.640953 0.029003
O O3 0.936204 0.986021 0.646547
O O4 0.517129 0.141235 0.099086
O O5 0.510549 0.162100 0.705604
O O6 0.069044 0.457166 0.480316
O O7 0.644123 0.663061 0.810791
O O8 0.584077 0.433492 0.529160
O O9 0.111693 0.053184 0.165199
O O10 0.503213 0.955638 0.815911
#
# Coordination Sequence:
#
# PCOD9118545 Si02
#       5
#     2   2   2   2   2
#     4  11  23  39  63  92 122 163 207 242 298 369
#     4  12  22  38  61  97 131 153 191 257 304 356
#     4  11  23  44  67  84 114 166 216 258 302 361
#     4  11  21  39  61  91 130 170 193 227 300 386
#     4  11  23  38  62  92 121 160 205 246 302 364
#
# _framework density 26.085507
#
# number of rings (size 3 to 8) (size 9 to 14) (size 15 to 20)
#    0.000    0.800    0.000   10.800    0.000    0.000 
#    0.000    4.000    0.000    2.400    0.000    0.000 
#    0.000    0.000    0.000    0.000    0.000    0.000 
#
# Total GULP energy -56047.231863 kJ/mol
# GULP energy per Si atom -5604.723186 kJ/mol
# Density = 2.602614 g / cm^3
# Si number density = 26.085507 Si / 1000 Ang^3
#
#
#
# Elastic Constant Matrix: (Units=GPa)
#
#
# Indices 1 2 3 4 5 6 
#
# 1 73.3870 13.5699 10.1321 0.0000 -9.8899 0.0000
# 2 13.5699 136.4633 26.5714 0.0000 -1.4568 0.0000
# 3 10.1321 26.5714 87.2831 0.0000 -6.9639 0.0000
# 4 0.0000 0.0000 0.0000 59.5192 0.0000 -0.5227
# 5 -9.8899 -1.4568 -6.9639 0.0000 33.2030 0.0000
# 6 0.0000 0.0000 0.0000 -0.5227 0.0000 5.5475
#
#
#
# Elastic Compliance Matrix: (Units=1/GPa)
#
#
# Indices 1 2 3 4 5 6 
#
# 1 0.014535 -0.001208 -0.000995 0.000000 0.004068 0.000000
# 2 -0.001208 0.007891 -0.002302 0.000000 -0.000496 0.000000
# 3 -0.000995 -0.002302 0.012450 0.000000 0.002214 0.000000
# 4 0.000000 0.000000 0.000000 0.016815 0.000000 0.001584
# 5 0.004068 -0.000496 0.002214 0.000000 0.031772 0.000000
# 6 0.000000 0.000000 0.000000 0.001584 0.000000 0.180411
#
#
# Mechanical properties :
#
#
# Convention : Reuss Voigt Hill
#
# Bulk Modulus (GPa) = 38.65991 44.18668 41.42330
# Shear Modulus (GPa) = 17.76160 36.11126 26.93643
#
# Velocity S-wave (km/s) = 2.61224 3.72471 3.21693
# Velocity P-wave (km/s) = 4.89398 5.95600 5.45091
#
# Compressibility (1/GPa) = 0.02586659
#
# Stress axis : x y z
#
# Youngs Moduli (GPa) = 68.79776 126.72700 80.32277
#
# Poissons Ratio (x) = 0.15312 0.07992
# Poissons Ratio (y) = 0.08312 0.18487
# Poissons Ratio (z) = 0.06845 0.29167
#
# Static dielectric constant tensor:
#      x y z
#    x 2.116130 0.000000 0.022480 
#    y 0.000000 1.965300 0.000000 
#    z 0.022480 0.000000 2.037970 
# 
# From -- ./inp_files/9988.got.cif
#   From: 2010.05.17/outbox.cif.g08.bks.cpg/sg4_5_cif.got.tgz:9988.got - 2010.06.03 18:43:04.
