data_PCOD9118112
_publ_section_title
;
Structure prediction by ZEFSAII (Michael W. Deem and Ramdas Pophale) SiO2 
 PCOD9118112
Probable space group: P 21
;
_chemical_formula_sum "Si O2"
_cell_formula_units_Z 16
_cell_length_a 9.433334
_cell_length_b 9.736753
_cell_length_c 9.306825
_cell_angle_alpha 90.000000
_cell_angle_beta 122.821148
_cell_angle_gamma 90.000000
_cell_volume 718.372495
_symmetry_space_group_name_H-M "P 21"
_symmetry_group_IT_number 4
_symmetry_cell_setting 'monoclinic'
loop_
_space_group_symop_operation_xyz
x,y,z
-x,1/2+y,-z
loop_
_atom_site_type_symbol
_atom_site_label
_atom_site_fract_x
_atom_site_fract_y
_atom_site_fract_z
Si Si1 0.491979 0.863870 0.366428
Si Si2 0.155614 0.895296 0.998052
Si Si3 0.914459 0.708092 0.339916
Si Si4 0.524238 0.829393 0.719211
Si Si5 0.301925 0.714928 0.834664
Si Si6 0.550886 0.615000 0.208822
Si Si7 0.828209 0.991174 0.417188
Si Si8 0.120736 0.211580 0.002284
O O1 0.320694 0.902009 0.190374
O O2 0.484958 0.866075 0.533539
O O3 0.521582 0.707879 0.332038
O O4 0.649212 0.950703 0.390405
O O5 0.021236 0.788344 0.985699
O O6 0.208014 0.834479 0.871307
O O7 0.087785 0.049458 0.966550
O O8 0.749606 0.620045 0.292448
O O9 0.920837 0.844950 0.441841
O O10 0.886452 0.763574 0.164790
O O11 0.066731 0.601307 0.434009
O O12 0.370858 0.756425 0.716729
O O13 0.536190 0.970716 0.813620
O O14 0.696276 0.743991 0.829805
O O15 0.201229 0.574573 0.748372
O O16 0.463242 0.683426 0.023059
#
# Coordination Sequence:
#
# PCOD9118112 Si02
#       8
#     2   2   2   2   2   2   2   2
#     4  10  27  48  71 111 148 193 250 307 374 451
#     4  11  29  49  76 111 153 193 252 312 377 452
#     4  11  26  47  71 112 148 193 249 311 379 443
#     4  12  26  45  81 102 146 199 245 309 380 440
#     4  11  25  47  78 103 145 199 246 301 377 454
#     4  10  24  45  73 105 145 190 250 302 372 453
#     4  11  27  46  76 108 153 190 250 315 375 452
#     4  12  28  47  76 108 152 191 256 311 376 447
#
# _framework density 22.272568
#
# number of rings (size 3 to 8) (size 9 to 14) (size 15 to 20)
#    0.000    1.000    1.250    2.250   19.250    1.000 
#    0.000    0.000    0.000    0.000    0.000    0.000 
#    0.000    0.000    0.000    0.000    0.000    0.000 
#
# Total GULP energy -89468.696756 kJ/mol
# GULP energy per Si atom -5591.793547 kJ/mol
# Density = 2.222187 g / cm^3
# Si number density = 22.272568 Si / 1000 Ang^3
#
#
#
# Elastic Constant Matrix: (Units=GPa)
#
#
# Indices 1 2 3 4 5 6 
#
# 1 62.2679 52.6799 17.4080 0.0000 7.9167 0.0000
# 2 52.6799 154.0458 22.1574 0.0000 4.2567 0.0000
# 3 17.4080 22.1574 79.8688 0.0000 -5.6086 0.0000
# 4 0.0000 0.0000 0.0000 32.4135 0.0000 1.6153
# 5 7.9167 4.2567 -5.6086 0.0000 26.8367 0.0000
# 6 0.0000 0.0000 0.0000 1.6153 0.0000 33.7796
#
#
#
# Elastic Compliance Matrix: (Units=1/GPa)
#
#
# Indices 1 2 3 4 5 6 
#
# 1 0.024401 -0.007629 -0.003676 0.000000 -0.006756 0.000000
# 2 -0.007629 0.009206 -0.000848 0.000000 0.000613 0.000000
# 3 -0.003676 -0.000848 0.013846 0.000000 0.004113 0.000000
# 4 0.000000 0.000000 0.000000 0.030925 0.000000 -0.001479
# 5 -0.006756 0.000613 0.004113 0.000000 0.040018 0.000000
# 6 0.000000 0.000000 0.000000 -0.001479 0.000000 0.029674
#
#
# Mechanical properties :
#
#
# Convention : Reuss Voigt Hill
#
# Bulk Modulus (GPa) = 43.20481 53.40813 48.30647
# Shear Modulus (GPa) = 27.76373 32.20175 29.98274
#
# Velocity S-wave (km/s) = 3.53447 3.80650 3.67300
# Velocity P-wave (km/s) = 6.00808 6.58412 6.30268
#
# Compressibility (1/GPa) = 0.02314557
#
# Stress axis : x y z
#
# Youngs Moduli (GPa) = 40.98245 108.63049 72.22368
#
# Poissons Ratio (x) = 0.82874 0.26552
# Poissons Ratio (y) = 0.31265 0.06124
# Poissons Ratio (z) = 0.15066 0.09212
#
# Static dielectric constant tensor:
#      x y z
#    x 1.810620 0.000000 0.011800 
#    y 0.000000 1.859860 0.000000 
#    z 0.011800 0.000000 1.821420 
# 
# From -- ./inp_files/5507.got.cif
#   From: 2010.05.17/outbox.cif.g08.bks.cpg/sg4_3_cif.got.tgz:5507.got - 2010.06.03 18:43:04.
