data_PCOD9118693
_publ_section_title
;
Structure prediction by ZEFSAII (Michael W. Deem and Ramdas Pophale) SiO2 
 PCOD9118693
Probable space group: P 21
;
_chemical_formula_sum "Si O2"
_cell_formula_units_Z 16
_cell_length_a 11.559336
_cell_length_b 8.200558
_cell_length_c 14.062935
_cell_angle_alpha 90.000000
_cell_angle_beta 32.918945
_cell_angle_gamma 90.000000
_cell_volume 724.458458
_symmetry_space_group_name_H-M "P 21"
_symmetry_group_IT_number 4
_symmetry_cell_setting 'monoclinic'
loop_
_space_group_symop_operation_xyz
x,y,z
-x,1/2+y,-z
loop_
_atom_site_type_symbol
_atom_site_label
_atom_site_fract_x
_atom_site_fract_y
_atom_site_fract_z
Si Si1 0.854183 0.166310 0.642027
Si Si2 0.840878 0.176000 0.114387
Si Si3 0.609102 0.811195 0.539155
Si Si4 0.947243 0.736602 0.829065
Si Si5 0.481865 0.275969 0.796148
Si Si6 0.261333 0.311887 0.765078
Si Si7 0.173088 0.981785 0.542106
Si Si8 0.009312 0.495916 0.632411
O O1 0.612051 0.154621 0.774658
O O2 0.901355 0.337616 0.660754
O O3 0.978354 0.134357 0.457166
O O4 0.954379 0.032957 0.642208
O O5 0.631638 0.289009 0.257932
O O6 0.949862 0.194245 0.141823
O O7 0.774516 0.987069 0.159407
O O8 0.029902 0.227857 0.912636
O O9 0.624874 0.837734 0.414408
O O10 0.723782 0.638050 0.479598
O O11 0.756277 0.939754 0.493497
O O12 0.115884 0.844282 0.656563
O O13 0.903284 0.575173 0.797763
O O14 0.726643 0.826919 0.002322
O O15 0.399485 0.216027 0.749094
O O16 0.654458 0.413819 0.651426
#
# Coordination Sequence:
#
# PCOD9118693 Si02
#       8
#     2   2   2   2   2   2   2   2
#     4  11  23  43  70  93 133 172 224 281 331 390
#     4  11  25  42  65 102 138 178 218 278 333 405
#     4  11  25  40  69  97 130 180 225 271 338 398
#     4  11  24  41  68  97 134 174 221 275 335 401
#     4  11  23  42  67  94 133 174 215 273 339 387
#     4  11  25  43  65 101 139 173 228 274 333 404
#     4  11  23  44  67  94 130 176 226 276 331 396
#     4  11  22  43  67 100 129 173 227 278 330 401
#
# _framework density 22.085460999999999
#
# number of rings (size 3 to 8) (size 9 to 14) (size 15 to 20)
#    0.000    1.000    5.000    0.750    3.500    3.000 
#    0.000    0.000    0.000    0.000    0.000    0.000 
#    0.000    0.000    0.000    0.000    0.000    0.000 
#
# Total GULP energy -89350.535645 kJ/mol
# GULP energy per Si atom -5584.408478 kJ/mol
# Density = 2.203519 g / cm^3
# Si number density = 22.085461 Si / 1000 Ang^3
#
#
#
# Elastic Constant Matrix: (Units=GPa)
#
#
# Indices 1 2 3 4 5 6 
#
# 1 98.7661 10.2742 24.8996 0.0000 -14.5974 0.0000
# 2 10.2742 73.0495 26.7326 0.0000 -1.1155 0.0000
# 3 24.8996 26.7326 86.5732 0.0000 -18.1284 0.0000
# 4 0.0000 0.0000 0.0000 25.9757 0.0000 -6.3317
# 5 -14.5974 -1.1155 -18.1284 0.0000 25.9819 0.0000
# 6 0.0000 0.0000 0.0000 -6.3317 0.0000 26.7214
#
#
#
# Elastic Compliance Matrix: (Units=1/GPa)
#
#
# Indices 1 2 3 4 5 6 
#
# 1 0.011452 -0.000803 -0.001997 0.000000 0.005006 0.000000
# 2 -0.000803 0.015708 -0.005355 0.000000 -0.003513 0.000000
# 3 -0.001997 -0.005355 0.015805 0.000000 0.009676 0.000000
# 4 0.000000 0.000000 0.000000 0.040857 0.000000 0.009681
# 5 0.005006 -0.003513 0.009676 0.000000 0.047901 0.000000
# 6 0.000000 0.000000 0.000000 0.009681 0.000000 0.039717
#
#
# Mechanical properties :
#
#
# Convention : Reuss Voigt Hill
#
# Bulk Modulus (GPa) = 37.51845 42.46685 39.99265
# Shear Modulus (GPa) = 25.42753 28.83462 27.13107
#
# Velocity S-wave (km/s) = 3.39680 3.61722 3.50874
# Velocity P-wave (km/s) = 5.69289 6.05936 5.87898
#
# Compressibility (1/GPa) = 0.02665355
#
# Stress axis : x y z
#
# Youngs Moduli (GPa) = 87.32157 63.66015 63.27081
#
# Poissons Ratio (x) = 0.05114 0.12638
# Poissons Ratio (y) = 0.07014 0.33883
# Poissons Ratio (z) = 0.17442 0.34091
#
# Static dielectric constant tensor:
#      x y z
#    x 1.837120 0.000000 -0.025020 
#    y 0.000000 1.843600 0.000000 
#    z -0.025020 0.000000 1.806610 
# 
# From -- ./inp_files/12035.got.cif
#   From: 2010.05.17/outbox.cif.g08.bks.cpg/sg4_7_cif.got.tgz:12035.got - 2010.06.03 18:43:04.
