data_PCOD9118343
_publ_section_title
;
Structure prediction by ZEFSAII (Michael W. Deem and Ramdas Pophale) SiO2 
 PCOD9118343
Probable space group: P 21
;
_chemical_formula_sum "Si O2"
_cell_formula_units_Z 16
_cell_length_a 12.049138
_cell_length_b 5.774293
_cell_length_c 11.239523
_cell_angle_alpha 90.000000
_cell_angle_beta 62.479885
_cell_angle_gamma 90.000000
_cell_volume 693.509150
_symmetry_space_group_name_H-M "P 21"
_symmetry_group_IT_number 4
_symmetry_cell_setting 'monoclinic'
loop_
_space_group_symop_operation_xyz
x,y,z
-x,1/2+y,-z
loop_
_atom_site_type_symbol
_atom_site_label
_atom_site_fract_x
_atom_site_fract_y
_atom_site_fract_z
Si Si1 0.874631 0.172740 0.958108
Si Si2 0.416836 0.535021 0.289327
Si Si3 0.686108 0.426974 0.209795
Si Si4 0.246409 0.660896 0.584867
Si Si5 0.845819 0.823318 0.190594
Si Si6 0.986766 0.281822 0.439441
Si Si7 0.775421 0.878127 0.813041
Si Si8 0.466493 0.294325 0.959900
O O1 0.793246 0.373253 0.059638
O O2 0.857303 0.977838 0.067313
O O3 0.022714 0.192302 0.870138
O O4 0.817248 0.111534 0.859003
O O5 0.546697 0.394576 0.230894
O O6 0.358582 0.582045 0.445614
O O7 0.309966 0.419347 0.260831
O O8 0.463054 0.768304 0.199813
O O9 0.705714 0.279448 0.318981
O O10 0.718207 0.683161 0.237387
O O11 0.165231 0.452605 0.678824
O O12 0.148490 0.807479 0.555571
O O13 0.098351 0.252553 0.287878
O O14 0.014399 0.534190 0.488265
O O15 0.682711 0.763666 0.955097
O O16 0.487735 0.556412 0.996672
#
# Coordination Sequence:
#
# PCOD9118343 Si02
#       8
#     2   2   2   2   2   2   2   2
#     4  11  24  45  77 113 144 199 253 328 383 459
#     4  11  26  49  71 115 149 204 252 320 383 468
#     4  11  26  47  77 105 155 200 258 317 388 461
#     4  11  28  48  74 109 153 204 260 314 383 473
#     4  11  24  47  73 111 147 196 260 316 387 457
#     4  12  29  52  79 119 158 207 258 323 393 459
#     4  11  26  45  79 109 157 197 259 321 386 463
#     4  10  25  47  74 109 151 199 248 313 381 452
#
# _framework density 23.071072000000001
#
# number of rings (size 3 to 8) (size 9 to 14) (size 15 to 20)
#    0.000    1.000    2.500    1.500   15.750    1.000 
#    2.250    0.000    0.000    0.000    0.000    0.000 
#    0.000    0.000    0.000    0.000    0.000    0.000 
#
# Total GULP energy -89285.770301 kJ/mol
# GULP energy per Si atom -5580.360644 kJ/mol
# Density = 2.301856 g / cm^3
# Si number density = 23.071072 Si / 1000 Ang^3
#
#
#
# Elastic Constant Matrix: (Units=GPa)
#
#
# Indices 1 2 3 4 5 6 
#
# 1 109.5106 18.5730 9.8722 0.0000 3.0702 0.0000
# 2 18.5730 64.7543 19.7508 0.0000 7.9030 0.0000
# 3 9.8722 19.7508 114.7380 0.0000 -14.2417 0.0000
# 4 0.0000 0.0000 0.0000 21.9615 0.0000 4.9464
# 5 3.0702 7.9030 -14.2417 0.0000 39.5012 0.0000
# 6 0.0000 0.0000 0.0000 4.9464 0.0000 28.5454
#
#
#
# Elastic Compliance Matrix: (Units=1/GPa)
#
#
# Indices 1 2 3 4 5 6 
#
# 1 0.009619 -0.002580 -0.000432 0.000000 -0.000387 0.000000
# 2 -0.002580 0.017782 -0.003408 0.000000 -0.004586 0.000000
# 3 -0.000432 -0.003408 0.009870 0.000000 0.004274 0.000000
# 4 0.000000 0.000000 0.000000 0.047384 0.000000 -0.008211
# 5 -0.000387 -0.004586 0.004274 0.000000 0.027804 0.000000
# 6 0.000000 0.000000 0.000000 -0.008211 0.000000 0.036455
#
#
# Mechanical properties :
#
#
# Convention : Reuss Voigt Hill
#
# Bulk Modulus (GPa) = 40.93114 42.82166 41.87640
# Shear Modulus (GPa) = 29.42963 34.05541 31.74252
#
# Velocity S-wave (km/s) = 3.57544 3.84618 3.71328
# Velocity P-wave (km/s) = 5.90126 6.19074 6.04773
#
# Compressibility (1/GPa) = 0.02443128
#
# Stress axis : x y z
#
# Youngs Moduli (GPa) = 103.96237 56.23588 101.31905
#
# Poissons Ratio (x) = 0.14509 0.04372
# Poissons Ratio (y) = 0.26823 0.34532
# Poissons Ratio (z) = 0.04486 0.19167
#
# Static dielectric constant tensor:
#      x y z
#    x 1.889110 0.000000 0.014570 
#    y 0.000000 1.949070 0.000000 
#    z 0.014570 0.000000 1.851970 
# 
# From -- ./inp_files/11748.got.cif
#   From: 2010.05.17/outbox.cif.g08.bks.cpg/sg4_6_cif.got.tgz:11748.got - 2010.06.03 18:43:04.
