data_PCOD9118580
_publ_section_title
;
Structure prediction by ZEFSAII (Michael W. Deem and Ramdas Pophale) SiO2 
 PCOD9118580
Probable space group: P 21
;
_chemical_formula_sum "Si O2"
_cell_formula_units_Z 16
_cell_length_a 14.049276
_cell_length_b 10.508485
_cell_length_c 5.248265
_cell_angle_alpha 90.000000
_cell_angle_beta 123.606068
_cell_angle_gamma 90.000000
_cell_volume 645.331975
_symmetry_space_group_name_H-M "P 21"
_symmetry_group_IT_number 4
_symmetry_cell_setting 'monoclinic'
loop_
_space_group_symop_operation_xyz
x,y,z
-x,1/2+y,-z
loop_
_atom_site_type_symbol
_atom_site_label
_atom_site_fract_x
_atom_site_fract_y
_atom_site_fract_z
Si Si1 0.510040 0.382890 0.737560
Si Si2 0.082940 0.998990 0.114711
Si Si3 0.529894 0.117240 0.652478
Si Si4 0.679748 0.523292 0.301727
Si Si5 0.289831 0.295648 0.662319
Si Si6 0.121904 0.353839 0.009523
Si Si7 0.982274 0.649474 0.474015
Si Si8 0.224552 0.553782 0.835153
O O1 0.512069 0.263814 0.547783
O O2 0.461073 0.512900 0.552923
O O3 0.421299 0.331831 0.814143
O O4 0.630374 0.420872 0.034590
O O5 0.992497 0.884474 0.003716
O O6 0.212962 0.970995 0.383070
O O7 0.042695 0.098022 0.279567
O O8 0.070587 0.053798 0.814429
O O9 0.424831 0.065649 0.668265
O O10 0.651631 0.115638 0.974286
O O11 0.712432 0.657205 0.210661
O O12 0.236899 0.425894 0.686875
O O13 0.218445 0.272960 0.295989
O O14 0.073344 0.282639 0.688166
O O15 0.185618 0.485885 0.040871
O O16 0.118224 0.644418 0.618965
#
# Coordination Sequence:
#
# PCOD9118580 Si02
#       8
#     2   2   2   2   2   2   2   2
#     4  11  26  42  68 104 141 186 243 298 363 435
#     4  11  25  42  65 102 138 181 235 294 353 432
#     4  11  26  45  70 103 138 191 241 302 365 435
#     4  11  25  42  68  99 142 184 237 297 365 436
#     4  11  21  42  71  95 133 186 239 293 367 436
#     4  11  23  42  69  98 136 184 235 294 369 430
#     4  11  25  43  70 101 138 184 240 293 359 430
#     4  11  23  44  69 100 136 180 240 303 361 436
#
# _framework density 24.793441000000001
#
# number of rings (size 3 to 8) (size 9 to 14) (size 15 to 20)
#    0.000    1.000    5.000    0.750    5.250    0.000 
#    0.000    2.500    0.000    0.000    0.000    0.000 
#    0.000    0.000    0.000    0.000    0.000    0.000 
#
# Total GULP energy -89413.470159 kJ/mol
# GULP energy per Si atom -5588.341885 kJ/mol
# Density = 2.473701 g / cm^3
# Si number density = 24.793441 Si / 1000 Ang^3
#
#
#
# Elastic Constant Matrix: (Units=GPa)
#
#
# Indices 1 2 3 4 5 6 
#
# 1 76.0278 14.0686 23.9680 0.0000 26.7486 0.0000
# 2 14.0686 77.0903 30.8083 0.0000 5.2460 0.0000
# 3 23.9680 30.8083 85.9955 0.0000 28.5433 0.0000
# 4 0.0000 0.0000 0.0000 39.7924 0.0000 3.0966
# 5 26.7486 5.2460 28.5433 0.0000 47.5182 0.0000
# 6 0.0000 0.0000 0.0000 3.0966 0.0000 39.8674
#
#
#
# Elastic Compliance Matrix: (Units=1/GPa)
#
#
# Indices 1 2 3 4 5 6 
#
# 1 0.016921 -0.002055 -0.001116 0.000000 -0.008627 0.000000
# 2 -0.002055 0.015540 -0.006007 0.000000 0.003049 0.000000
# 3 -0.001116 -0.006007 0.017065 0.000000 -0.008959 0.000000
# 4 0.000000 0.000000 0.000000 0.025283 0.000000 -0.001964
# 5 -0.008627 0.003049 -0.008959 0.000000 0.030946 0.000000
# 6 0.000000 0.000000 0.000000 -0.001964 0.000000 0.025236
#
#
# Mechanical properties :
#
#
# Convention : Reuss Voigt Hill
#
# Bulk Modulus (GPa) = 32.08164 41.86704 36.97434
# Shear Modulus (GPa) = 31.30169 36.78684 34.04427
#
# Velocity S-wave (km/s) = 3.55702 3.85610 3.70958
# Velocity P-wave (km/s) = 5.46237 6.06210 5.77003
#
# Compressibility (1/GPa) = 0.03117047
#
# Stress axis : x y z
#
# Youngs Moduli (GPa) = 59.09970 64.35118 58.59866
#
# Poissons Ratio (x) = 0.13222 0.06541
# Poissons Ratio (y) = 0.12143 0.35198
# Poissons Ratio (z) = 0.06597 0.38653
#
# Static dielectric constant tensor:
#      x y z
#    x 2.046440 0.000000 -0.055210 
#    y 0.000000 2.029570 0.000000 
#    z -0.055210 0.000000 1.985230 
# 
# From -- ./inp_files/2717.got.cif
#   From: 2010.05.17/outbox.cif.g08.bks.cpg/sg4_2_cif.got.tgz:2717.got - 2010.06.03 18:43:04.
