data_PCOD9118224
_publ_section_title
;
Structure prediction by ZEFSAII (Michael W. Deem and Ramdas Pophale) SiO2 
 PCOD9118224
Probable space group: P 21
;
_chemical_formula_sum "Si O2"
_cell_formula_units_Z 16
_cell_length_a 8.797950
_cell_length_b 7.697353
_cell_length_c 9.836919
_cell_angle_alpha 90.000000
_cell_angle_beta 103.724396
_cell_angle_gamma 90.000000
_cell_volume 647.145047
_symmetry_space_group_name_H-M "P 21"
_symmetry_group_IT_number 4
_symmetry_cell_setting 'monoclinic'
loop_
_space_group_symop_operation_xyz
x,y,z
-x,1/2+y,-z
loop_
_atom_site_type_symbol
_atom_site_label
_atom_site_fract_x
_atom_site_fract_y
_atom_site_fract_z
Si Si1 0.570761 0.978840 0.263867
Si Si2 0.090938 0.141724 0.422401
Si Si3 0.107000 0.171890 0.995136
Si Si4 0.951197 0.239654 0.670066
Si Si5 0.851549 0.101889 0.167957
Si Si6 0.357141 0.872004 0.016740
Si Si7 0.683311 0.953012 0.587099
Si Si8 0.408067 0.348305 0.159918
O O1 0.592903 0.968428 0.427767
O O2 0.740433 0.964174 0.225123
O O3 0.488551 0.162144 0.209097
O O4 0.444962 0.846514 0.176825
O O5 0.227163 0.266493 0.398292
O O6 0.070312 0.172687 0.578229
O O7 0.931016 0.202650 0.312311
O O8 0.095617 0.938902 0.378405
O O9 0.226706 0.319224 0.077120
O O10 0.994345 0.101205 0.090137
O O11 0.017141 0.226543 0.838290
O O12 0.223599 0.015558 0.987558
O O13 0.807761 0.107563 0.624870
O O14 0.726179 0.204101 0.054663
O O15 0.491788 0.925222 0.940392
O O16 0.580970 0.953422 0.699695
#
# Coordination Sequence:
#
# PCOD9118224 Si02
#       8
#     2   2   2   2   2   2   2   2
#     4  10  24  49  71 110 156 204 248 323 388 466
#     4  12  25  46  74 115 159 191 264 335 371 462
#     4  11  26  44  77 113 145 204 261 318 386 453
#     4  12  27  43  78 118 150 204 261 321 399 441
#     4  11  23  46  75 103 154 191 256 328 366 457
#     4  10  25  47  74 106 150 205 252 316 401 450
#     4  12  25  51  77 109 159 208 256 314 398 464
#     4  10  25  48  72 108 157 199 260 321 379 483
#
# _framework density 24.723979
#
# number of rings (size 3 to 8) (size 9 to 14) (size 15 to 20)
#    0.000    1.000    3.750    0.750    7.000    0.000 
#    6.750    0.000    0.000    0.000    0.000    0.000 
#    0.000    0.000    0.000    0.000    0.000    0.000 
#
# Total GULP energy -89536.773398 kJ/mol
# GULP energy per Si atom -5596.048337 kJ/mol
# Density = 2.466771 g / cm^3
# Si number density = 24.723979 Si / 1000 Ang^3
#
#
#
# Elastic Constant Matrix: (Units=GPa)
#
#
# Indices 1 2 3 4 5 6 
#
# 1 75.5900 31.3172 50.1916 0.0000 -9.4029 0.0000
# 2 31.3172 96.2368 44.3868 0.0000 -7.7293 0.0000
# 3 50.1916 44.3868 207.3549 0.0000 3.6970 0.0000
# 4 0.0000 0.0000 0.0000 39.3002 0.0000 -2.3595
# 5 -9.4029 -7.7293 3.6970 0.0000 39.4503 0.0000
# 6 0.0000 0.0000 0.0000 -2.3595 0.0000 32.7221
#
#
#
# Elastic Compliance Matrix: (Units=1/GPa)
#
#
# Indices 1 2 3 4 5 6 
#
# 1 0.017611 -0.003806 -0.003516 0.000000 0.003781 0.000000
# 2 -0.003806 0.012602 -0.001807 0.000000 0.001731 0.000000
# 3 -0.003516 -0.001807 0.006092 0.000000 -0.001763 0.000000
# 4 0.000000 0.000000 0.000000 0.025556 0.000000 0.001843
# 5 0.003781 0.001731 -0.001763 0.000000 0.026754 0.000000
# 6 0.000000 0.000000 0.000000 0.001843 0.000000 0.030693
#
#
# Mechanical properties :
#
#
# Convention : Reuss Voigt Hill
#
# Bulk Modulus (GPa) = 55.40898 70.10811 62.75854
# Shear Modulus (GPa) = 34.82363 39.18026 37.00194
#
# Velocity S-wave (km/s) = 3.75707 3.98516 3.87279
# Velocity P-wave (km/s) = 6.42498 7.04224 6.74068
#
# Compressibility (1/GPa) = 0.01804762
#
# Stress axis : x y z
#
# Youngs Moduli (GPa) = 56.78388 79.35185 164.15195
#
# Poissons Ratio (x) = 0.30199 0.57708
# Poissons Ratio (y) = 0.21610 0.29667
# Poissons Ratio (z) = 0.19963 0.14341
#
# Static dielectric constant tensor:
#      x y z
#    x 1.954250 0.000000 0.002600 
#    y 0.000000 2.073830 0.000000 
#    z 0.002600 0.000000 1.935970 
# 
# From -- ./inp_files/5500.got.cif
#   From: 2010.05.17/outbox.cif.g08.bks.cpg/sg4_3_cif.got.tgz:5500.got - 2010.06.03 18:43:04.
