data_PCOD9118521
_publ_section_title
;
Structure prediction by ZEFSAII (Michael W. Deem and Ramdas Pophale) SiO2 
 PCOD9118521
Probable space group: P 21
;
_chemical_formula_sum "Si O2"
_cell_formula_units_Z 12
_cell_length_a 9.281162
_cell_length_b 8.528241
_cell_length_c 12.303741
_cell_angle_alpha 90.000000
_cell_angle_beta 36.330445
_cell_angle_gamma 90.000000
_cell_volume 576.958203
_symmetry_space_group_name_H-M "P 21"
_symmetry_group_IT_number 4
_symmetry_cell_setting 'monoclinic'
loop_
_space_group_symop_operation_xyz
x,y,z
-x,1/2+y,-z
loop_
_atom_site_type_symbol
_atom_site_label
_atom_site_fract_x
_atom_site_fract_y
_atom_site_fract_z
Si Si1 0.709010 0.319730 0.446138
Si Si2 0.364207 0.968066 0.955664
Si Si3 0.425737 0.023964 0.661110
Si Si4 0.982769 0.249066 0.926456
Si Si5 0.660329 0.968223 0.162660
Si Si6 0.716477 0.815936 0.905650
O O1 0.651727 0.137106 0.500378
O O2 0.591017 0.373029 0.403957
O O3 0.563521 0.420906 0.625022
O O4 0.995840 0.344887 0.275996
O O5 0.578101 0.871264 0.882352
O O6 0.409006 0.996233 0.799945
O O7 0.122413 0.860542 0.102767
O O8 0.329292 0.135172 0.034323
O O9 0.191610 0.127622 0.767006
O O10 0.115242 0.358072 0.934164
O O11 0.761922 0.143911 0.105985
O O12 0.612518 0.920357 0.068040
#
# Coordination Sequence:
#
# PCOD9118521 Si02
#       6
#     2   2   2   2   2   2
#     4  11  26  44  72 106 141 180 239 293 346 409
#     4  12  26  47  73 101 143 190 233 283 360 419
#     4  11  25  43  73 109 134 181 245 286 350 407
#     4  11  20  42  72 101 137 176 236 295 333 415
#     4  11  22  43  71 104 139 182 235 285 350 410
#     4  12  25  49  67 101 150 185 230 284 355 426
#
# _framework density 20.798736000000002
#
# number of rings (size 3 to 8) (size 9 to 14) (size 15 to 20)
#    0.000    0.667    6.667    1.000    9.333    0.000 
#    6.000    0.000    0.000    0.000    0.000    0.000 
#    0.000    0.000    0.000    0.000    0.000    0.000 
#
# Total GULP energy -67085.889060 kJ/mol
# GULP energy per Si atom -5590.490755 kJ/mol
# Density = 2.075140 g / cm^3
# Si number density = 20.798736 Si / 1000 Ang^3
#
#
#
# Elastic Constant Matrix: (Units=GPa)
#
#
# Indices 1 2 3 4 5 6 
#
# 1 121.2524 37.1554 48.7643 0.0000 4.4703 0.0000
# 2 37.1554 100.4304 32.2151 0.0000 11.4843 0.0000
# 3 48.7643 32.2151 96.0909 0.0000 9.4700 0.0000
# 4 0.0000 0.0000 0.0000 24.3045 0.0000 -1.8217
# 5 4.4703 11.4843 9.4700 0.0000 11.0127 0.0000
# 6 0.0000 0.0000 0.0000 -1.8217 0.0000 38.2437
#
#
#
# Elastic Compliance Matrix: (Units=1/GPa)
#
#
# Indices 1 2 3 4 5 6 
#
# 1 0.010974 -0.002795 -0.004895 0.000000 0.002669 0.000000
# 2 -0.002795 0.012792 -0.001822 0.000000 -0.010639 0.000000
# 3 -0.004895 -0.001822 0.014333 0.000000 -0.008439 0.000000
# 4 0.000000 0.000000 0.000000 0.041292 0.000000 0.001967
# 5 0.002669 -0.010639 -0.008439 0.000000 0.108072 0.000000
# 6 0.000000 0.000000 0.000000 0.001967 0.000000 0.026242
#
#
# Mechanical properties :
#
#
# Convention : Reuss Voigt Hill
#
# Bulk Modulus (GPa) = 52.42262 61.56036 56.99149
# Shear Modulus (GPa) = 20.91286 28.02143 24.46714
#
# Velocity S-wave (km/s) = 3.17438 3.67449 3.43356
# Velocity P-wave (km/s) = 6.22053 6.90398 6.57115
#
# Compressibility (1/GPa) = 0.01907573
#
# Stress axis : x y z
#
# Youngs Moduli (GPa) = 91.12454 78.17322 69.76713
#
# Poissons Ratio (x) = 0.21849 0.34152
# Poissons Ratio (y) = 0.25469 0.12710
# Poissons Ratio (z) = 0.44607 0.14241
#
# Static dielectric constant tensor:
#      x y z
#    x 1.716420 0.000000 0.001860 
#    y 0.000000 1.800620 0.000000 
#    z 0.001860 0.000000 1.750750 
# 
# From -- ./inp_files/7441.got.cif
#   From: 2010.05.17/outbox.cif.g08.bks.cpg/sg4_4_cif.got.tgz:7441.got - 2010.06.03 18:43:04.
