data_PCOD9118017
_publ_section_title
;
Structure prediction by ZEFSAII (Michael W. Deem and Ramdas Pophale) SiO2 
 PCOD9118017
Probable space group: P 21
;
_chemical_formula_sum "Si O2"
_cell_formula_units_Z 16
_cell_length_a 8.432950
_cell_length_b 14.529709
_cell_length_c 5.472055
_cell_angle_alpha 90.000000
_cell_angle_beta 83.270929
_cell_angle_gamma 90.000000
_cell_volume 665.862918
_symmetry_space_group_name_H-M "P 21"
_symmetry_group_IT_number 4
_symmetry_cell_setting 'monoclinic'
loop_
_space_group_symop_operation_xyz
x,y,z
-x,1/2+y,-z
loop_
_atom_site_type_symbol
_atom_site_label
_atom_site_fract_x
_atom_site_fract_y
_atom_site_fract_z
Si Si1 0.664689 0.505840 0.865336
Si Si2 0.563355 0.041778 0.694265
Si Si3 0.625248 0.685380 0.557100
Si Si4 0.825549 0.884289 0.073213
Si Si5 0.059561 0.304617 0.458594
Si Si6 0.485236 0.368560 0.614725
Si Si7 0.007650 0.560072 0.928612
Si Si8 0.106935 0.644281 0.394825
O O1 0.629136 0.609256 0.771166
O O2 0.644710 0.420150 0.680694
O O3 0.836639 0.509464 0.960267
O O4 0.514543 0.490766 0.065838
O O5 0.426077 0.115057 0.645036
O O6 0.718756 0.103672 0.674434
O O7 0.595143 0.956446 0.506981
O O8 0.799515 0.729591 0.525912
O O9 0.512035 0.776431 0.552262
O O10 0.919034 0.868767 0.311256
O O11 0.648282 0.844885 0.153508
O O12 0.906453 0.843327 0.815571
O O13 0.845816 0.992685 0.035249
O O14 0.896564 0.249777 0.521322
O O15 0.032369 0.594362 0.647210
O O16 0.015624 0.631957 0.151659
#
# Coordination Sequence:
#
# PCOD9118017 Si02
#       8
#     2   2   2   2   2   2   2   2
#     4  11  25  43  73 107 142 197 244 301 371 439
#     4  11  25  45  71 109 143 192 246 297 371 434
#     4  10  24  43  70  99 145 187 244 297 364 433
#     4  11  24  44  70 104 136 191 241 294 362 436
#     4  11  24  44  70 101 140 187 243 292 364 434
#     4  10  24  44  71 102 142 192 241 305 361 439
#     4  12  25  45  74 102 146 189 241 301 362 434
#     4  12  25  46  71 104 144 189 238 303 361 433
#
# _framework density 24.028970000000001
#
# number of rings (size 3 to 8) (size 9 to 14) (size 15 to 20)
#    0.000    1.000    2.500    3.000   12.250    1.000 
#    2.250    0.000    0.000    0.000    0.000    0.000 
#    0.000    0.000    0.000    0.000    0.000    0.000 
#
# Total GULP energy -89184.263046 kJ/mol
# GULP energy per Si atom -5574.016440 kJ/mol
# Density = 2.397428 g / cm^3
# Si number density = 24.028970 Si / 1000 Ang^3
#
#
#
# Elastic Constant Matrix: (Units=GPa)
#
#
# Indices 1 2 3 4 5 6 
#
# 1 59.4910 2.2755 32.0240 0.0000 2.2149 0.0000
# 2 2.2755 83.8409 9.9941 0.0000 3.1684 0.0000
# 3 32.0240 9.9941 103.7114 0.0000 -6.1884 0.0000
# 4 0.0000 0.0000 0.0000 38.3815 0.0000 -1.9247
# 5 2.2149 3.1684 -6.1884 0.0000 19.1448 0.0000
# 6 0.0000 0.0000 0.0000 -1.9247 0.0000 46.8521
#
#
#
# Elastic Compliance Matrix: (Units=1/GPa)
#
#
# Indices 1 2 3 4 5 6 
#
# 1 0.020549 0.000410 -0.006659 0.000000 -0.004598 0.000000
# 2 0.000410 0.012185 -0.001452 0.000000 -0.002533 0.000000
# 3 -0.006659 -0.001452 0.012133 0.000000 0.004932 0.000000
# 4 0.000000 0.000000 0.000000 0.026108 0.000000 0.001073
# 5 -0.004598 -0.002533 0.004932 0.000000 0.054779 0.000000
# 6 0.000000 0.000000 0.000000 0.001073 0.000000 0.021388
#
#
# Mechanical properties :
#
#
# Convention : Reuss Voigt Hill
#
# Bulk Modulus (GPa) = 33.93904 37.29229 35.61567
# Shear Modulus (GPa) = 29.00812 34.39234 31.70023
#
# Velocity S-wave (km/s) = 3.47827 3.78734 3.63609
# Velocity P-wave (km/s) = 5.50327 5.88886 5.69933
#
# Compressibility (1/GPa) = 0.02946459
#
# Stress axis : x y z
#
# Youngs Moduli (GPa) = 48.66341 82.06790 82.42293
#
# Poissons Ratio (x) = -0.03363 0.54886
# Poissons Ratio (y) = -0.01994 0.11967
# Poissons Ratio (z) = 0.32405 0.11915
#
# Static dielectric constant tensor:
#      x y z
#    x 1.995520 0.000000 0.033320 
#    y 0.000000 1.929180 0.000000 
#    z 0.033320 0.000000 2.024400 
# 
# From -- ./inp_files/1926.got.cif
#   From: 2010.05.17/outbox.cif.g08.bks.cpg/sg4_1_cif.got.tgz:1926.got - 2010.06.03 18:43:04.
