data_PCOD9118523
_publ_section_title
;
Structure prediction by ZEFSAII (Michael W. Deem and Ramdas Pophale) SiO2 
 PCOD9118523
Probable space group: P 21
;
_chemical_formula_sum "Si O2"
_cell_formula_units_Z 16
_cell_length_a 11.096740
_cell_length_b 9.618333
_cell_length_c 11.316732
_cell_angle_alpha 90.000000
_cell_angle_beta 142.158027
_cell_angle_gamma 90.000000
_cell_volume 741.004280
_symmetry_space_group_name_H-M "P 21"
_symmetry_group_IT_number 4
_symmetry_cell_setting 'monoclinic'
loop_
_space_group_symop_operation_xyz
x,y,z
-x,1/2+y,-z
loop_
_atom_site_type_symbol
_atom_site_label
_atom_site_fract_x
_atom_site_fract_y
_atom_site_fract_z
Si Si1 0.983471 0.179240 0.244791
Si Si2 0.206457 0.292601 0.194353
Si Si3 0.620569 0.555397 0.811378
Si Si4 0.840007 0.472744 0.209458
Si Si5 0.191976 0.685377 0.438743
Si Si6 0.375727 0.793968 0.349045
Si Si7 0.312188 0.536868 0.132088
Si Si8 0.256483 0.970338 0.597560
O O1 0.052463 0.239404 0.170764
O O2 0.916321 0.314236 0.264249
O O3 0.150341 0.089135 0.437835
O O4 0.803073 0.078252 0.074545
O O5 0.241103 0.183892 0.116388
O O6 0.411869 0.299760 0.424850
O O7 0.177871 0.442047 0.113058
O O8 0.396064 0.607283 0.629350
O O9 0.657488 0.440412 0.739106
O O10 0.677689 0.494428 0.982205
O O11 0.763010 0.505195 0.280148
O O12 0.018926 0.575313 0.316212
O O13 0.223696 0.749584 0.332645
O O14 0.163017 0.820119 0.498217
O O15 0.371669 0.675363 0.247612
O O16 0.515535 0.459323 0.262582
#
# Coordination Sequence:
#
# PCOD9118523 Si02
#       8
#     2   2   2   2   2   2   2   2
#     4  12  27  45  73 106 140 181 239 292 353 420
#     4  11  23  43  70 106 140 170 230 286 362 417
#     4  11  24  44  69 106 136 180 227 291 358 418
#     4  12  28  46  69 101 140 192 243 287 338 418
#     4  11  26  46  73 101 142 183 234 295 353 416
#     4  11  20  44  72  99 141 172 223 293 358 410
#     4  12  25  45  70 106 140 186 223 293 355 421
#     4  12  27  49  68  99 143 192 241 283 347 416
#
# _framework density 21.592316
#
# number of rings (size 3 to 8) (size 9 to 14) (size 15 to 20)
#    0.000    0.500    5.000    4.500    5.250    2.000 
#    0.000    0.000    0.000    0.000    0.000    0.000 
#    0.000    0.000    0.000    0.000    0.000    0.000 
#
# Total GULP energy -89595.228862 kJ/mol
# GULP energy per Si atom -5599.701804 kJ/mol
# Density = 2.154317 g / cm^3
# Si number density = 21.592316 Si / 1000 Ang^3
#
#
#
# Elastic Constant Matrix: (Units=GPa)
#
#
# Indices 1 2 3 4 5 6 
#
# 1 52.5575 10.9699 34.8480 0.0000 -13.2050 0.0000
# 2 10.9699 104.1296 40.1309 0.0000 0.5212 0.0000
# 3 34.8480 40.1309 88.8132 0.0000 -5.7686 0.0000
# 4 0.0000 0.0000 0.0000 20.7796 0.0000 -2.8045
# 5 -13.2050 0.5212 -5.7686 0.0000 19.9573 0.0000
# 6 0.0000 0.0000 0.0000 -2.8045 0.0000 28.6644
#
#
#
# Elastic Compliance Matrix: (Units=1/GPa)
#
#
# Indices 1 2 3 4 5 6 
#
# 1 0.030615 0.001085 -0.011403 0.000000 0.016933 0.000000
# 2 0.001085 0.011735 -0.005810 0.000000 -0.001268 0.000000
# 3 -0.011403 -0.005810 0.018221 0.000000 -0.002126 0.000000
# 4 0.000000 0.000000 0.000000 0.048768 0.000000 0.004772
# 5 0.016933 -0.001268 -0.002126 0.000000 0.060729 0.000000
# 6 0.000000 0.000000 0.000000 0.004772 0.000000 0.035353
#
#
# Mechanical properties :
#
#
# Convention : Reuss Voigt Hill
#
# Bulk Modulus (GPa) = 35.31839 46.37755 40.84797
# Shear Modulus (GPa) = 20.23329 24.51702 22.37516
#
# Velocity S-wave (km/s) = 3.06446 3.37330 3.22258
# Velocity P-wave (km/s) = 5.37714 6.05785 5.72762
#
# Compressibility (1/GPa) = 0.02831387
#
# Stress axis : x y z
#
# Youngs Moduli (GPa) = 32.66329 85.21658 54.88122
#
# Poissons Ratio (x) = -0.09242 0.62581
# Poissons Ratio (y) = -0.03543 0.31888
# Poissons Ratio (z) = 0.37246 0.49514
#
# Static dielectric constant tensor:
#      x y z
#    x 1.760080 0.000000 0.018740 
#    y 0.000000 1.767330 0.000000 
#    z 0.018740 0.000000 1.786090 
# 
# From -- ./inp_files/12140.got.cif
#   From: 2010.05.17/outbox.cif.g08.bks.cpg/sg4_7_cif.got.tgz:12140.got - 2010.06.03 18:43:04.
