data_PCOD9118656
_publ_section_title
;
Structure prediction by ZEFSAII (Michael W. Deem and Ramdas Pophale) SiO2 
 PCOD9118656
Probable space group: P 21
;
_chemical_formula_sum "Si O2"
_cell_formula_units_Z 16
_cell_length_a 9.901110
_cell_length_b 8.170270
_cell_length_c 8.736094
_cell_angle_alpha 90.000000
_cell_angle_beta 59.121064
_cell_angle_gamma 90.000000
_cell_volume 606.531344
_symmetry_space_group_name_H-M "P 21"
_symmetry_group_IT_number 4
_symmetry_cell_setting 'monoclinic'
loop_
_space_group_symop_operation_xyz
x,y,z
-x,1/2+y,-z
loop_
_atom_site_type_symbol
_atom_site_label
_atom_site_fract_x
_atom_site_fract_y
_atom_site_fract_z
Si Si1 0.187348 0.603360 0.737989
Si Si2 0.842355 0.435301 0.537141
Si Si3 0.412747 0.300972 0.129595
Si Si4 0.735882 0.421371 0.923499
Si Si5 0.324619 0.212407 0.858426
Si Si6 0.827794 0.044859 0.587131
Si Si7 0.518317 0.526220 0.656453
Si Si8 0.993453 0.826955 0.018170
O O1 0.155414 0.503876 0.602516
O O2 0.375399 0.611658 0.646935
O O3 0.090451 0.771467 0.811418
O O4 0.101482 0.498941 0.921914
O O5 0.823387 0.241352 0.578486
O O6 0.701569 0.498158 0.509993
O O7 0.020017 0.489484 0.406229
O O8 0.808967 0.504253 0.730261
O O9 0.582762 0.329565 0.953347
O O10 0.324525 0.448153 0.266624
O O11 0.459155 0.150402 0.213521
O O12 0.303192 0.275123 0.045295
O O13 0.652852 0.523965 0.110500
O O14 0.875543 0.327611 0.925975
O O15 0.445690 0.342215 0.718091
O O16 0.158677 0.213971 0.870188
#
# Coordination Sequence:
#
# PCOD9118656 Si02
#       8
#     2   2   2   2   2   2   2   2
#     4  11  25  47  66 107 141 180 233 296 349 431
#     4  12  25  47  69 100 139 192 232 289 351 425
#     4  12  24  43  72 105 137 187 229 294 349 416
#     4  12  23  44  72 103 138 180 242 286 340 431
#     4  11  22  40  70 103 139 172 236 293 333 410
#     4  12  29  46  69 101 151 181 234 297 362 410
#     4  11  24  42  73 100 134 184 241 277 354 416
#     4  11  22  41  71  97 139 180 227 288 344 413
#
# _framework density 26.37951
#
# number of rings (size 3 to 8) (size 9 to 14) (size 15 to 20)
#    0.000    0.500    6.250    1.500    3.500    1.000 
#    0.000    0.000    0.000    0.000    0.000    0.000 
#    0.000    0.000    0.000    0.000    0.000    0.000 
#
# Total GULP energy -89180.013024 kJ/mol
# GULP energy per Si atom -5573.750814 kJ/mol
# Density = 2.631947 g / cm^3
# Si number density = 26.379510 Si / 1000 Ang^3
#
#
#
# Elastic Constant Matrix: (Units=GPa)
#
#
# Indices 1 2 3 4 5 6 
#
# 1 189.1543 21.4128 39.9021 0.0000 -49.0796 0.0000
# 2 21.4128 47.4570 16.3169 0.0000 -14.8834 0.0000
# 3 39.9021 16.3169 58.7560 0.0000 -23.9836 0.0000
# 4 0.0000 0.0000 0.0000 42.7860 0.0000 -10.2793
# 5 -49.0796 -14.8834 -23.9836 0.0000 37.2718 0.0000
# 6 0.0000 0.0000 0.0000 -10.2793 0.0000 42.2767
#
#
#
# Elastic Compliance Matrix: (Units=1/GPa)
#
#
# Indices 1 2 3 4 5 6 
#
# 1 0.008135 -0.000105 -0.001546 0.000000 0.009676 0.000000
# 2 -0.000105 0.024714 -0.003825 0.000000 0.007270 0.000000
# 3 -0.001546 -0.003825 0.023974 0.000000 0.011864 0.000000
# 4 0.000000 0.000000 0.000000 0.024822 0.000000 0.006035
# 5 0.009676 0.007270 0.011864 0.000000 0.050108 0.000000
# 6 0.000000 0.000000 0.000000 0.006035 0.000000 0.025121
#
#
# Mechanical properties :
#
#
# Convention : Reuss Voigt Hill
#
# Bulk Modulus (GPa) = 21.79941 50.07008 35.93474
# Shear Modulus (GPa) = 27.30500 38.98261 33.14381
#
# Velocity S-wave (km/s) = 3.22076 3.84834 3.54845
# Velocity P-wave (km/s) = 4.70242 6.22641 5.51729
#
# Compressibility (1/GPa) = 0.04587280
#
# Stress axis : x y z
#
# Youngs Moduli (GPa) = 122.92150 40.46302 41.71128
#
# Poissons Ratio (x) = 0.00423 0.06449
# Poissons Ratio (y) = 0.01285 0.15953
# Poissons Ratio (z) = 0.19006 0.15476
#
# Static dielectric constant tensor:
#      x y z
#    x 2.017500 0.000000 0.038090 
#    y 0.000000 2.400720 0.000000 
#    z 0.038090 0.000000 2.096770 
# 
# From -- ./inp_files/5781.got.cif
#   From: 2010.05.17/outbox.cif.g08.bks.cpg/sg4_3_cif.got.tgz:5781.got - 2010.06.03 18:43:04.
