data_PCOD9118903
_publ_section_title
;
Structure prediction by ZEFSAII (Michael W. Deem and Ramdas Pophale) SiO2 
 PCOD9118903
Probable space group: P 21
;
_chemical_formula_sum "Si O2"
_cell_formula_units_Z 16
_cell_length_a 9.837933
_cell_length_b 8.045022
_cell_length_c 18.865194
_cell_angle_alpha 90.000000
_cell_angle_beta 27.506221
_cell_angle_gamma 90.000000
_cell_volume 689.586170
_symmetry_space_group_name_H-M "P 21"
_symmetry_group_IT_number 4
_symmetry_cell_setting 'monoclinic'
loop_
_space_group_symop_operation_xyz
x,y,z
-x,1/2+y,-z
loop_
_atom_site_type_symbol
_atom_site_label
_atom_site_fract_x
_atom_site_fract_y
_atom_site_fract_z
Si Si1 0.809468 0.019470 0.048408
Si Si2 0.711909 0.297279 0.211502
Si Si3 0.113366 0.133195 0.513905
Si Si4 0.446413 0.967376 0.074832
Si Si5 0.418865 0.278986 0.601017
Si Si6 0.872327 0.140090 0.281356
Si Si7 0.116103 0.617401 0.226231
Si Si8 0.407636 0.803403 0.322815
O O1 0.759127 0.175277 0.122738
O O2 0.612680 0.029150 0.068437
O O3 0.687930 0.860055 0.148277
O O4 0.146133 0.973383 0.874329
O O5 0.369535 0.274486 0.392195
O O6 0.894839 0.229401 0.194906
O O7 0.038573 0.080549 0.628213
O O8 0.811935 0.190270 0.618801
O O9 0.238179 0.977275 0.414329
O O10 0.313087 0.783848 0.146008
O O11 0.173761 0.084632 0.178894
O O12 0.677627 0.978696 0.903316
O O13 0.672978 0.248147 0.426212
O O14 0.302306 0.467803 0.652723
O O15 0.525874 0.239213 0.629828
O O16 0.141848 0.165745 0.708461
#
# Coordination Sequence:
#
# PCOD9118903 Si02
#       8
#     2   2   2   2   2   2   2   2
#     4  11  25  46  67  98 142 173 229 274 342 405
#     4  11  25  47  68 100 136 181 222 283 336 409
#     4  11  24  48  68 100 137 175 227 279 334 406
#     4  11  26  44  69 101 138 179 226 279 341 401
#     4  11  23  44  70  99 139 176 228 277 336 402
#     4  11  24  44  72 100 138 176 229 281 336 405
#     4  11  24  47  69 101 138 175 229 280 336 405
#     4  11  25  44  67 101 136 177 222 279 335 405
#
# _framework density 23.202321999999999
#
# number of rings (size 3 to 8) (size 9 to 14) (size 15 to 20)
#    0.000    1.000    5.000    0.750    5.250    5.000 
#    0.000    0.000    0.000    0.000    0.000    0.000 
#    0.000    0.000    0.000    0.000    0.000    0.000 
#
# Total GULP energy -89631.751331 kJ/mol
# GULP energy per Si atom -5601.984458 kJ/mol
# Density = 2.314951 g / cm^3
# Si number density = 23.202322 Si / 1000 Ang^3
#
#
#
# Elastic Constant Matrix: (Units=GPa)
#
#
# Indices 1 2 3 4 5 6 
#
# 1 121.2277 -2.4524 10.0023 0.0000 -4.4963 0.0000
# 2 -2.4524 35.9174 6.7361 0.0000 1.3712 0.0000
# 3 10.0023 6.7361 94.7238 0.0000 8.3721 0.0000
# 4 0.0000 0.0000 0.0000 45.6722 0.0000 2.0070
# 5 -4.4963 1.3712 8.3721 0.0000 27.8340 0.0000
# 6 0.0000 0.0000 0.0000 2.0070 0.0000 19.6645
#
#
#
# Elastic Compliance Matrix: (Units=1/GPa)
#
#
# Indices 1 2 3 4 5 6 
#
# 1 0.008414 0.000715 -0.001085 0.000000 0.001650 0.000000
# 2 0.000715 0.028296 -0.002029 0.000000 -0.000668 0.000000
# 3 -0.001085 -0.002029 0.011118 0.000000 -0.003420 0.000000
# 4 0.000000 0.000000 0.000000 0.021994 0.000000 -0.002245
# 5 0.001650 -0.000668 -0.003420 0.000000 0.037255 0.000000
# 6 0.000000 0.000000 0.000000 -0.002245 0.000000 0.051082
#
#
# Mechanical properties :
#
#
# Convention : Reuss Voigt Hill
#
# Bulk Modulus (GPa) = 23.23908 31.16010 27.19959
# Shear Modulus (GPa) = 28.20057 34.47299 31.33678
#
# Velocity S-wave (km/s) = 3.49007 3.85873 3.67902
# Velocity P-wave (km/s) = 5.12624 5.77165 5.45850
#
# Compressibility (1/GPa) = 0.04303096
#
# Stress axis : x y z
#
# Youngs Moduli (GPa) = 118.84737 35.34015 89.94341
#
# Poissons Ratio (x) = -0.02527 0.09761
# Poissons Ratio (y) = -0.08498 0.18247
# Poissons Ratio (z) = 0.12897 0.07169
#
# Static dielectric constant tensor:
#      x y z
#    x 1.818380 0.000000 -0.021720 
#    y 0.000000 1.891160 0.000000 
#    z -0.021720 0.000000 1.877690 
# 
# From -- ./inp_files/9204.got.cif
#   From: 2010.05.17/outbox.cif.g08.bks.cpg/sg4_5_cif.got.tgz:9204.got - 2010.06.03 18:43:04.
