data_PCOD9118754
_publ_section_title
;
Structure prediction by ZEFSAII (Michael W. Deem and Ramdas Pophale) SiO2 
 PCOD9118754
Probable space group: P 21
;
_chemical_formula_sum "Si O2"
_cell_formula_units_Z 14
_cell_length_a 6.254767
_cell_length_b 7.865395
_cell_length_c 12.148481
_cell_angle_alpha 90.000000
_cell_angle_beta 101.167625
_cell_angle_gamma 90.000000
_cell_volume 586.342433
_symmetry_space_group_name_H-M "P 21"
_symmetry_group_IT_number 4
_symmetry_cell_setting 'monoclinic'
loop_
_space_group_symop_operation_xyz
x,y,z
-x,1/2+y,-z
loop_
_atom_site_type_symbol
_atom_site_label
_atom_site_fract_x
_atom_site_fract_y
_atom_site_fract_z
Si Si1 0.264994 0.180840 0.571922
Si Si2 0.476787 0.115497 0.918735
Si Si3 0.167550 0.849800 0.959558
Si Si4 0.685836 0.072017 0.719929
Si Si5 0.939575 0.382620 0.306768
Si Si6 0.063069 0.329549 0.842539
Si Si7 0.958163 0.030457 0.373209
O O1 0.520577 0.173546 0.624621
O O2 0.159720 0.368551 0.581163
O O3 0.184689 0.082087 0.454578
O O4 0.160904 0.052050 0.651777
O O5 0.559760 0.016906 0.818432
O O6 0.309295 0.260328 0.859598
O O7 0.332788 0.006944 0.986907
O O8 0.684625 0.188334 0.000558
O O9 0.098778 0.859213 0.826828
O O10 0.986715 0.864537 0.034855
O O11 0.878611 0.193377 0.785527
O O12 0.800324 0.920020 0.665746
O O13 0.849493 0.217775 0.361238
O O14 0.026052 0.479870 0.752850
#
# Coordination Sequence:
#
# PCOD9118754 Si02
#       7
#     2   2   2   2   2   2   2
#     4  12  25  51  74 103 151 192 246 314 368 438
#     4  11  24  43  68 101 152 192 235 303 372 442
#     4  11  26  40  72 106 143 194 242 304 368 443
#     4  11  22  46  72  98 147 196 233 312 366 433
#     4  12  26  46  74 108 145 195 250 302 372 442
#     4  11  25  44  70 104 149 186 244 306 363 444
#     4  12  26  48  76 106 147 195 246 309 371 442
#
# _framework density 23.876833999999999
#
# number of rings (size 3 to 8) (size 9 to 14) (size 15 to 20)
#    0.000    0.571    7.143    0.000    6.000    1.143 
#    2.571    0.000    0.000    0.000    0.000    0.000 
#    0.000    0.000    0.000    0.000    0.000    0.000 
#
# Total GULP energy -78171.432742 kJ/mol
# GULP energy per Si atom -5583.673767 kJ/mol
# Density = 2.382249 g / cm^3
# Si number density = 23.876834 Si / 1000 Ang^3
#
#
#
# Elastic Constant Matrix: (Units=GPa)
#
#
# Indices 1 2 3 4 5 6 
#
# 1 72.1575 39.5270 19.5946 0.0000 12.9006 0.0000
# 2 39.5270 137.6838 33.6830 0.0000 0.5584 0.0000
# 3 19.5946 33.6830 77.2145 0.0000 7.1265 0.0000
# 4 0.0000 0.0000 0.0000 43.1754 0.0000 -1.8906
# 5 12.9006 0.5584 7.1265 0.0000 36.5473 0.0000
# 6 0.0000 0.0000 0.0000 -1.8906 0.0000 28.9184
#
#
#
# Elastic Compliance Matrix: (Units=1/GPa)
#
#
# Indices 1 2 3 4 5 6 
#
# 1 0.018005 -0.004657 -0.001993 0.000000 -0.005896 0.000000
# 2 -0.004657 0.009347 -0.003090 0.000000 0.002104 0.000000
# 3 -0.001993 -0.003090 0.015005 0.000000 -0.002175 0.000000
# 4 0.000000 0.000000 0.000000 0.023228 0.000000 0.001519
# 5 -0.005896 0.002104 -0.002175 0.000000 0.029835 0.000000
# 6 0.000000 0.000000 0.000000 0.001519 0.000000 0.034679
#
#
# Mechanical properties :
#
#
# Convention : Reuss Voigt Hill
#
# Bulk Modulus (GPa) = 43.71235 52.51834 48.11535
# Shear Modulus (GPa) = 31.80518 34.67830 33.24174
#
# Velocity S-wave (km/s) = 3.65369 3.81515 3.73529
# Velocity P-wave (km/s) = 6.01219 6.43820 6.22884
#
# Compressibility (1/GPa) = 0.02287683
#
# Stress axis : x y z
#
# Youngs Moduli (GPa) = 55.53944 106.98071 66.64262
#
# Poissons Ratio (x) = 0.49826 0.13284
# Poissons Ratio (y) = 0.25867 0.20592
# Poissons Ratio (z) = 0.11071 0.33056
#
# Static dielectric constant tensor:
#      x y z
#    x 1.927580 0.000000 0.039590 
#    y 0.000000 1.999540 0.000000 
#    z 0.039590 0.000000 1.964290 
# 
# From -- ./inp_files/10266.got.cif
#   From: 2010.05.17/outbox.cif.g08.bks.cpg/sg4_6_cif.got.tgz:10266.got - 2010.06.03 18:43:04.
