data_PCOD9118606
_publ_section_title
;
Structure prediction by ZEFSAII (Michael W. Deem and Ramdas Pophale) SiO2 
 PCOD9118606
Probable space group: P 21
;
_chemical_formula_sum "Si O2"
_cell_formula_units_Z 14
_cell_length_a 7.821687
_cell_length_b 9.351959
_cell_length_c 12.163864
_cell_angle_alpha 90.000000
_cell_angle_beta 139.078007
_cell_angle_gamma 90.000000
_cell_volume 582.822582
_symmetry_space_group_name_H-M "P 21"
_symmetry_group_IT_number 4
_symmetry_cell_setting 'monoclinic'
loop_
_space_group_symop_operation_xyz
x,y,z
-x,1/2+y,-z
loop_
_atom_site_type_symbol
_atom_site_label
_atom_site_fract_x
_atom_site_fract_y
_atom_site_fract_z
Si Si1 0.779626 0.297450 0.835662
Si Si2 0.286703 0.458275 0.160404
Si Si3 0.395066 0.894824 0.488550
Si Si4 0.026953 0.141846 0.377915
Si Si5 0.580672 0.918425 0.152677
Si Si6 0.968043 0.697197 0.375805
Si Si7 0.751499 0.423587 0.212700
O O1 0.643254 0.335411 0.652784
O O2 0.613547 0.377946 0.846637
O O3 0.779841 0.127498 0.862202
O O4 0.066621 0.367500 0.989813
O O5 0.340410 0.408828 0.312631
O O6 0.554955 0.433835 0.221467
O O7 0.227233 0.782636 0.478774
O O8 0.249465 0.050085 0.426026
O O9 0.877922 0.271194 0.247746
O O10 0.117547 0.204014 0.538797
O O11 0.800239 0.028884 0.295729
O O12 0.742527 0.776980 0.198313
O O13 0.420545 0.973663 0.972441
O O14 0.981190 0.534449 0.347643
#
# Coordination Sequence:
#
# PCOD9118606 Si02
#       7
#     2   2   2   2   2   2   2
#     4  12  30  48  71 107 160 199 241 296 384 454
#     4  12  27  51  72 109 150 201 246 304 368 454
#     4  11  26  50  73 109 149 189 244 306 372 444
#     4  11  22  43  76 103 135 183 249 310 354 427
#     4  11  25  43  68 105 140 191 235 304 363 431
#     4  11  21  45  73 104 134 185 250 301 363 421
#     4  12  23  44  75 103 138 182 253 305 356 423
#
# _framework density 24.021034
#
# number of rings (size 3 to 8) (size 9 to 14) (size 15 to 20)
#    0.000    0.571    4.286    3.429    6.000    2.286 
#    2.571    0.000    0.000    0.000    0.000    0.000 
#    0.000    0.000    0.000    0.000    0.000    0.000 
#
# Total GULP energy -78347.231064 kJ/mol
# GULP energy per Si atom -5596.230790 kJ/mol
# Density = 2.396636 g / cm^3
# Si number density = 24.021034 Si / 1000 Ang^3
#
#
#
# Elastic Constant Matrix: (Units=GPa)
#
#
# Indices 1 2 3 4 5 6 
#
# 1 62.6296 32.3120 17.7575 0.0000 -18.2179 0.0000
# 2 32.3120 109.6625 19.7275 0.0000 2.2141 0.0000
# 3 17.7575 19.7275 120.0552 0.0000 -19.9898 0.0000
# 4 0.0000 0.0000 0.0000 41.8881 0.0000 0.6517
# 5 -18.2179 2.2141 -19.9898 0.0000 25.4511 0.0000
# 6 0.0000 0.0000 0.0000 0.6517 0.0000 22.4944
#
#
#
# Elastic Compliance Matrix: (Units=1/GPa)
#
#
# Indices 1 2 3 4 5 6 
#
# 1 0.025647 -0.008102 0.000819 0.000000 0.019706 0.000000
# 2 -0.008102 0.012078 -0.002217 0.000000 -0.008591 0.000000
# 3 0.000819 -0.002217 0.010012 0.000000 0.008642 0.000000
# 4 0.000000 0.000000 0.000000 0.023884 0.000000 -0.000692
# 5 0.019706 -0.008591 0.008642 0.000000 0.060932 0.000000
# 6 0.000000 0.000000 0.000000 -0.000692 0.000000 0.044476
#
#
# Mechanical properties :
#
#
# Convention : Reuss Voigt Hill
#
# Bulk Modulus (GPa) = 34.79810 47.99349 41.39579
# Shear Modulus (GPa) = 24.31823 32.80340 28.56081
#
# Velocity S-wave (km/s) = 3.18523 3.69943 3.45192
# Velocity P-wave (km/s) = 5.29581 6.18634 5.75832
#
# Compressibility (1/GPa) = 0.02873720
#
# Stress axis : x y z
#
# Youngs Moduli (GPa) = 38.99113 82.79240 99.88370
#
# Poissons Ratio (x) = 0.67079 -0.08181
# Poissons Ratio (y) = 0.31591 0.22143
# Poissons Ratio (z) = -0.03193 0.18354
#
# Static dielectric constant tensor:
#      x y z
#    x 1.958760 0.000000 0.017550 
#    y 0.000000 1.952400 0.000000 
#    z 0.017550 0.000000 1.892900 
# 
# From -- ./inp_files/7474.got.cif
#   From: 2010.05.17/outbox.cif.g08.bks.cpg/sg4_4_cif.got.tgz:7474.got - 2010.06.03 18:43:04.
