data_PCOD9118546
_publ_section_title
;
Structure prediction by ZEFSAII (Michael W. Deem and Ramdas Pophale) SiO2 
 PCOD9118546
Probable space group: P 21
;
_chemical_formula_sum "Si O2"
_cell_formula_units_Z 16
_cell_length_a 7.408588
_cell_length_b 8.477659
_cell_length_c 18.274948
_cell_angle_alpha 90.000000
_cell_angle_beta 143.704757
_cell_angle_gamma 90.000000
_cell_volume 679.437983
_symmetry_space_group_name_H-M "P 21"
_symmetry_group_IT_number 4
_symmetry_cell_setting 'monoclinic'
loop_
_space_group_symop_operation_xyz
x,y,z
-x,1/2+y,-z
loop_
_atom_site_type_symbol
_atom_site_label
_atom_site_fract_x
_atom_site_fract_y
_atom_site_fract_z
Si Si1 0.410522 0.373880 0.115737
Si Si2 0.771472 0.510096 0.367060
Si Si3 0.271411 0.159302 0.950504
Si Si4 0.244367 0.817353 0.925442
Si Si5 0.361789 0.363339 0.357735
Si Si6 0.384844 0.806373 0.277032
Si Si7 0.847904 0.580600 0.884060
Si Si8 0.535277 0.011345 0.452648
O O1 0.642563 0.452476 0.246411
O O2 0.300409 0.208943 0.112934
O O3 0.502475 0.299423 0.065205
O O4 0.117947 0.482959 0.010191
O O5 0.610231 0.399913 0.375477
O O6 0.649542 0.683473 0.347799
O O7 0.132580 0.508430 0.477562
O O8 0.934604 0.220398 0.845699
O O9 0.318278 0.983408 0.991507
O O10 0.459108 0.200998 0.940383
O O11 0.974372 0.905035 0.782038
O O12 0.997221 0.683536 0.868784
O O13 0.387510 0.182154 0.392294
O O14 0.434999 0.469246 0.452671
O O15 0.391514 0.958136 0.226990
O O16 0.363136 0.873467 0.351865
#
# Coordination Sequence:
#
# PCOD9118546 Si02
#       8
#     2   2   2   2   2   2   2   2
#     4  11  21  39  63 103 132 183 224 283 350 424
#     4  12  24  47  73 103 146 188 242 297 358 426
#     4  11  24  39  71 100 142 182 231 289 365 430
#     4  12  23  45  67 102 141 185 229 301 361 426
#     4  12  26  49  72 105 145 184 245 309 345 434
#     4  11  22  44  70 102 141 183 235 299 349 427
#     4  11  21  39  67  96 141 177 227 285 357 419
#     4  12  27  46  75 103 138 196 245 291 371 416
#
# _framework density 23.548877000000001
#
# number of rings (size 3 to 8) (size 9 to 14) (size 15 to 20)
#    0.000    0.500    3.750    6.000    0.000    0.000 
#    0.000    3.750    0.000    0.000    0.000    0.000 
#    0.000    0.000    0.000    0.000    0.000    0.000 
#
# Total GULP energy -89292.995991 kJ/mol
# GULP energy per Si atom -5580.812249 kJ/mol
# Density = 2.349528 g / cm^3
# Si number density = 23.548877 Si / 1000 Ang^3
#
#
#
# Elastic Constant Matrix: (Units=GPa)
#
#
# Indices 1 2 3 4 5 6 
#
# 1 64.5274 -6.1966 2.4766 0.0000 -3.6134 0.0000
# 2 -6.1966 111.5588 -2.2344 0.0000 -10.0479 0.0000
# 3 2.4766 -2.2344 39.2327 0.0000 -2.9784 0.0000
# 4 0.0000 0.0000 0.0000 37.0196 0.0000 -9.8886
# 5 -3.6134 -10.0479 -2.9784 0.0000 28.4677 0.0000
# 6 0.0000 0.0000 0.0000 -9.8886 0.0000 42.8197
#
#
#
# Elastic Compliance Matrix: (Units=1/GPa)
#
#
# Indices 1 2 3 4 5 6 
#
# 1 0.015758 0.001067 -0.000760 0.000000 0.002297 0.000000
# 2 0.001067 0.009354 0.000732 0.000000 0.003514 0.000000
# 3 -0.000760 0.000732 0.025796 0.000000 0.002861 0.000000
# 4 0.000000 0.000000 0.000000 0.028789 0.000000 0.006648
# 5 0.002297 0.003514 0.002861 0.000000 0.036959 0.000000
# 6 0.000000 0.000000 0.000000 0.006648 0.000000 0.024889
#
#
# Mechanical properties :
#
#
# Convention : Reuss Voigt Hill
#
# Bulk Modulus (GPa) = 18.87267 22.60113 20.73690
# Shear Modulus (GPa) = 31.82139 36.41295 34.11717
#
# Velocity S-wave (km/s) = 3.67998 3.93653 3.81042
# Velocity P-wave (km/s) = 5.10764 5.50273 5.30886
#
# Compressibility (1/GPa) = 0.05298667
#
# Stress axis : x y z
#
# Youngs Moduli (GPa) = 63.46165 106.90291 38.76607
#
# Poissons Ratio (x) = -0.11406 0.02944
# Poissons Ratio (y) = -0.06771 -0.02838
# Poissons Ratio (z) = 0.04820 -0.07827
#
# Static dielectric constant tensor:
#      x y z
#    x 2.017640 0.000000 -0.119060 
#    y 0.000000 1.956940 0.000000 
#    z -0.119060 0.000000 1.976020 
# 
# From -- ./inp_files/15630.got.cif
#   From: 2010.05.17/outbox.cif.g08.bks.cpg/sg4_8_cif.got.tgz:15630.got - 2010.06.03 18:43:04.
