data_PCOD9118124
_publ_section_title
;
Structure prediction by ZEFSAII (Michael W. Deem and Ramdas Pophale) SiO2 
 PCOD9118124
Probable space group: P 21
;
_chemical_formula_sum "Si O2"
_cell_formula_units_Z 16
_cell_length_a 8.426389
_cell_length_b 9.368688
_cell_length_c 16.666220
_cell_angle_alpha 90.000000
_cell_angle_beta 32.001783
_cell_angle_gamma 90.000000
_cell_volume 697.250326
_symmetry_space_group_name_H-M "P 21"
_symmetry_group_IT_number 4
_symmetry_cell_setting 'monoclinic'
loop_
_space_group_symop_operation_xyz
x,y,z
-x,1/2+y,-z
loop_
_atom_site_type_symbol
_atom_site_label
_atom_site_fract_x
_atom_site_fract_y
_atom_site_fract_z
Si Si1 0.676269 0.989290 0.563630
Si Si2 0.517469 0.700466 0.087141
Si Si3 0.789545 0.873146 0.181678
Si Si4 0.771436 0.273389 0.209479
Si Si5 0.815097 0.261897 0.608897
Si Si6 0.566837 0.500835 0.930677
Si Si7 0.145862 0.606079 0.970748
Si Si8 0.784617 0.058369 0.338990
O O1 0.353330 0.932489 0.732459
O O2 0.897105 0.855780 0.490043
O O3 0.813036 0.130433 0.547062
O O4 0.632901 0.019165 0.487387
O O5 0.334028 0.698346 0.246967
O O6 0.391548 0.832091 0.089566
O O7 0.475397 0.555999 0.056662
O O8 0.869608 0.741457 0.947405
O O9 0.437508 0.871898 0.313689
O O10 0.950400 0.979297 0.049132
O O11 0.813906 0.931383 0.261056
O O12 0.916453 0.717087 0.109003
O O13 0.659245 0.200659 0.175809
O O14 0.669294 0.189263 0.334028
O O15 0.339720 0.540202 0.958217
O O16 0.872787 0.584580 0.781999
#
# Coordination Sequence:
#
# PCOD9118124 Si02
#       8
#     2   2   2   2   2   2   2   2
#     4  12  29  48  71 105 145 196 241 291 368 432
#     4  11  23  47  69 106 136 180 243 292 354 412
#     4  11  24  43  75 103 141 184 234 299 352 427
#     4  10  25  44  72 104 142 186 238 294 353 427
#     4  12  28  49  72 101 145 190 243 296 358 431
#     4  11  22  41  70 101 142 178 225 299 345 418
#     4  11  21  40  74 102 143 176 235 289 359 407
#     4  10  24  46  67 100 150 186 233 288 359 426
#
# _framework density 22.947281
#
# number of rings (size 3 to 8) (size 9 to 14) (size 15 to 20)
#    0.000    1.000    3.750    0.750   10.500    1.000 
#    4.500    0.000    0.000    0.000    0.000    0.000 
#    0.000    0.000    0.000    0.000    0.000    0.000 
#
# Total GULP energy -89346.981031 kJ/mol
# GULP energy per Si atom -5584.186314 kJ/mol
# Density = 2.289505 g / cm^3
# Si number density = 22.947281 Si / 1000 Ang^3
#
#
#
# Elastic Constant Matrix: (Units=GPa)
#
#
# Indices 1 2 3 4 5 6 
#
# 1 97.2259 30.0289 28.8465 0.0000 19.5942 0.0000
# 2 30.0289 103.6661 17.8092 0.0000 16.3778 0.0000
# 3 28.8465 17.8092 58.4372 0.0000 19.0644 0.0000
# 4 0.0000 0.0000 0.0000 35.5962 0.0000 5.1182
# 5 19.5942 16.3778 19.0644 0.0000 39.4621 0.0000
# 6 0.0000 0.0000 0.0000 5.1182 0.0000 41.0828
#
#
#
# Elastic Compliance Matrix: (Units=1/GPa)
#
#
# Indices 1 2 3 4 5 6 
#
# 1 0.013080 -0.002482 -0.004651 0.000000 -0.003218 0.000000
# 2 -0.002482 0.011011 -0.001237 0.000000 -0.002740 0.000000
# 3 -0.004651 -0.001237 0.022394 0.000000 -0.007996 0.000000
# 4 0.000000 0.000000 0.000000 0.028605 0.000000 -0.003564
# 5 -0.003218 -0.002740 -0.007996 0.000000 0.031939 0.000000
# 6 0.000000 0.000000 0.000000 -0.003564 0.000000 0.024785
#
#
# Mechanical properties :
#
#
# Convention : Reuss Voigt Hill
#
# Bulk Modulus (GPa) = 33.61740 45.85537 39.73638
# Shear Modulus (GPa) = 31.55239 35.40454 33.47846
#
# Velocity S-wave (km/s) = 3.71211 3.93219 3.82374
# Velocity P-wave (km/s) = 5.74932 6.37515 6.07030
#
# Compressibility (1/GPa) = 0.02974650
#
# Stress axis : x y z
#
# Youngs Moduli (GPa) = 76.45182 90.82216 44.65564
#
# Poissons Ratio (x) = 0.22538 0.20768
# Poissons Ratio (y) = 0.18972 0.05522
# Poissons Ratio (z) = 0.35555 0.11232
#
# Static dielectric constant tensor:
#      x y z
#    x 1.895900 0.000000 -0.006740 
#    y 0.000000 1.902870 0.000000 
#    z -0.006740 0.000000 1.916930 
# 
# From -- ./inp_files/14959.got.cif
#   From: 2010.05.17/outbox.cif.g08.bks.cpg/sg4_8_cif.got.tgz:14959.got - 2010.06.03 18:43:04.
