data_PCOD9118365
_publ_section_title
;
Structure prediction by ZEFSAII (Michael W. Deem and Ramdas Pophale) SiO2 
 PCOD9118365
Probable space group: P 21
;
_chemical_formula_sum "Si O2"
_cell_formula_units_Z 14
_cell_length_a 14.919233
_cell_length_b 8.475857
_cell_length_c 8.923224
_cell_angle_alpha 90.000000
_cell_angle_beta 29.423300
_cell_angle_gamma 90.000000
_cell_volume 554.321279
_symmetry_space_group_name_H-M "P 21"
_symmetry_group_IT_number 4
_symmetry_cell_setting 'monoclinic'
loop_
_space_group_symop_operation_xyz
x,y,z
-x,1/2+y,-z
loop_
_atom_site_type_symbol
_atom_site_label
_atom_site_fract_x
_atom_site_fract_y
_atom_site_fract_z
Si Si1 0.556687 0.953990 0.253410
Si Si2 0.323970 0.769000 0.026952
Si Si3 0.846747 0.552718 0.631139
Si Si4 0.494772 0.731422 0.060131
Si Si5 0.107693 0.635256 0.721107
Si Si6 0.878809 0.956403 0.996527
Si Si7 0.768469 0.508791 0.071828
O O1 0.500201 0.833981 0.204815
O O2 0.382436 0.042375 0.581615
O O3 0.670949 0.085737 0.999376
O O4 0.693867 0.899623 0.184624
O O5 0.320896 0.850861 0.869348
O O6 0.485285 0.811587 0.909247
O O7 0.153929 0.862274 0.344886
O O8 0.013289 0.569325 0.278204
O O9 0.670117 0.620702 0.806160
O O10 0.813545 0.605288 0.851648
O O11 0.297567 0.649303 0.357699
O O12 0.158043 0.570258 0.810684
O O13 0.999748 0.804005 0.871320
O O14 0.965016 0.509010 0.861460
#
# Coordination Sequence:
#
# PCOD9118365 Si02
#       7
#     2   2   2   2   2   2   2
#     4  12  28  48  78 113 151 199 254 313 380 455
#     4  10  26  45  76 107 151 198 246 314 375 451
#     4  10  25  49  71 112 151 196 255 307 381 445
#     4  12  25  50  78 109 151 203 251 313 382 446
#     4  12  27  49  75 113 152 201 252 314 376 461
#     4  12  29  48  75 113 153 199 254 315 379 452
#     4  10  26  45  75 105 155 192 254 304 379 444
#
# _framework density 25.256112999999999
#
# number of rings (size 3 to 8) (size 9 to 14) (size 15 to 20)
#    0.857    0.000    1.429    3.429   12.000    1.143 
#    2.571    0.000    0.000    0.000    0.000    0.000 
#    0.000    0.000    0.000    0.000    0.000    0.000 
#
# Total GULP energy -78045.224875 kJ/mol
# GULP energy per Si atom -5574.658920 kJ/mol
# Density = 2.519863 g / cm^3
# Si number density = 25.256113 Si / 1000 Ang^3
#
#
#
# Elastic Constant Matrix: (Units=GPa)
#
#
# Indices 1 2 3 4 5 6 
#
# 1 153.2062 47.9303 50.9914 0.0000 -8.2943 0.0000
# 2 47.9303 58.2193 39.6443 0.0000 3.3594 0.0000
# 3 50.9914 39.6443 108.6148 0.0000 -10.1712 0.0000
# 4 0.0000 0.0000 0.0000 29.3288 0.0000 -1.5130
# 5 -8.2943 3.3594 -10.1712 0.0000 38.1280 0.0000
# 6 0.0000 0.0000 0.0000 -1.5130 0.0000 53.6437
#
#
#
# Elastic Compliance Matrix: (Units=1/GPa)
#
#
# Indices 1 2 3 4 5 6 
#
# 1 0.009283 -0.006565 -0.001763 0.000000 0.002128 0.000000
# 2 -0.006565 0.028225 -0.007781 0.000000 -0.005991 0.000000
# 3 -0.001763 -0.007781 0.013233 0.000000 0.003832 0.000000
# 4 0.000000 0.000000 0.000000 0.034146 0.000000 0.000963
# 5 0.002128 -0.005991 0.003832 0.000000 0.028240 0.000000
# 6 0.000000 0.000000 0.000000 0.000963 0.000000 0.018669
#
#
# Mechanical properties :
#
#
# Convention : Reuss Voigt Hill
#
# Bulk Modulus (GPa) = 53.98342 66.35249 60.16796
# Shear Modulus (GPa) = 29.37918 36.31837 32.84877
#
# Velocity S-wave (km/s) = 3.41435 3.79622 3.61033
# Velocity P-wave (km/s) = 6.07984 6.74862 6.42294
#
# Compressibility (1/GPa) = 0.01852420
#
# Stress axis : x y z
#
# Youngs Moduli (GPa) = 107.72659 35.42909 75.56641
#
# Poissons Ratio (x) = 0.23258 0.13319
# Poissons Ratio (y) = 0.70720 0.58800
# Poissons Ratio (z) = 0.18988 0.27568
#
# Static dielectric constant tensor:
#      x y z
#    x 2.067950 0.000000 0.017110 
#    y 0.000000 2.076760 0.000000 
#    z 0.017110 0.000000 1.908580 
# 
# From -- ./inp_files/9109.got.cif
#   From: 2010.05.17/outbox.cif.g08.bks.cpg/sg4_5_cif.got.tgz:9109.got - 2010.06.03 18:43:04.
