data_PCOD9118829
_publ_section_title
;
Structure prediction by ZEFSAII (Michael W. Deem and Ramdas Pophale) SiO2 
 PCOD9118829
Probable space group: P 21
;
_chemical_formula_sum "Si O2"
_cell_formula_units_Z 16
_cell_length_a 8.094051
_cell_length_b 16.998623
_cell_length_c 7.512182
_cell_angle_alpha 90.000000
_cell_angle_beta 143.656447
_cell_angle_gamma 90.000000
_cell_volume 612.528371
_symmetry_space_group_name_H-M "P 21"
_symmetry_group_IT_number 4
_symmetry_cell_setting 'monoclinic'
loop_
_space_group_symop_operation_xyz
x,y,z
-x,1/2+y,-z
loop_
_atom_site_type_symbol
_atom_site_label
_atom_site_fract_x
_atom_site_fract_y
_atom_site_fract_z
Si Si1 0.146597 0.679170 0.457504
Si Si2 0.783368 0.025729 0.894138
Si Si3 0.643667 0.583433 0.041381
Si Si4 0.279166 0.122948 0.474705
Si Si5 0.544131 0.424835 0.097643
Si Si6 0.052076 0.331589 0.529573
Si Si7 0.960807 0.375100 0.039402
Si Si8 0.536193 0.779194 0.536256
O O1 0.020306 0.743443 0.481917
O O2 0.337375 0.729864 0.492334
O O3 0.891754 0.628845 0.155196
O O4 0.349890 0.618723 0.731252
O O5 0.954627 0.964404 0.925015
O O6 0.518849 0.071228 0.583480
O O7 0.646233 0.972021 0.929460
O O8 0.984309 0.091898 0.150364
O O9 0.698170 0.603196 0.296922
O O10 0.630358 0.489442 0.025164
O O11 0.347576 0.213417 0.497899
O O12 0.358824 0.355846 0.855233
O O13 0.822072 0.388599 0.424010
O O14 0.005956 0.351907 0.283657
O O15 0.195134 0.320557 0.143612
O O16 0.657097 0.346996 0.715493
#
# Coordination Sequence:
#
# PCOD9118829 Si02
#       8
#     2   2   2   2   2   2   2   2
#     4  12  24  41  66  95 127 167 213 264 314 375
#     4  11  23  42  65  92 127 169 209 258 319 382
#     4  11  23  42  65  93 126 165 209 260 317 376
#     4  11  23  42  65  92 127 169 209 258 319 382
#     4  11  23  42  65  93 126 165 209 260 317 376
#     4  12  24  41  66  95 127 167 213 264 314 375
#     4  12  25  43  65  94 130 169 212 262 315 377
#     4  12  25  43  65  94 130 169 212 262 315 377
#
# _framework density 26.121238999999999
#
# number of rings (size 3 to 8) (size 9 to 14) (size 15 to 20)
#    0.000    0.500    0.000   10.500    0.000    3.000 
#    0.000    0.000    0.000    0.000    0.000    0.000 
#    0.000    0.000    0.000    0.000    0.000    0.000 
#
# Total GULP energy -89818.425826 kJ/mol
# GULP energy per Si atom -5613.651614 kJ/mol
# Density = 2.606179 g / cm^3
# Si number density = 26.121239 Si / 1000 Ang^3
#
#
#
# Elastic Constant Matrix: (Units=GPa)
#
#
# Indices 1 2 3 4 5 6 
#
# 1 98.4333 12.5156 -1.6943 0.0000 12.1642 0.0000
# 2 12.5156 110.1486 28.5073 0.0000 19.7932 0.0000
# 3 -1.6943 28.5073 101.4204 0.0000 41.0883 0.0000
# 4 0.0000 0.0000 0.0000 62.1717 0.0000 22.6979
# 5 12.1642 19.7932 41.0883 0.0000 37.1920 0.0000
# 6 0.0000 0.0000 0.0000 22.6979 0.0000 36.3158
#
#
#
# Elastic Compliance Matrix: (Units=1/GPa)
#
#
# Indices 1 2 3 4 5 6 
#
# 1 0.011143 -0.000883 0.003114 0.000000 -0.006615 0.000000
# 2 -0.000883 0.010189 -0.001446 0.000000 -0.003536 0.000000
# 3 0.003114 -0.001446 0.018861 0.000000 -0.021086 0.000000
# 4 0.000000 0.000000 0.000000 0.020840 0.000000 -0.013025
# 5 -0.006615 -0.003536 -0.021086 0.000000 0.054227 0.000000
# 6 0.000000 0.000000 0.000000 -0.013025 0.000000 0.035677
#
#
# Mechanical properties :
#
#
# Convention : Reuss Voigt Hill
#
# Bulk Modulus (GPa) = 23.94555 43.18440 33.56497
# Shear Modulus (GPa) = 30.62082 45.18081 37.90081
#
# Velocity S-wave (km/s) = 3.42754 4.16343 3.81328
# Velocity P-wave (km/s) = 4.98508 6.29923 5.68029
#
# Compressibility (1/GPa) = 0.04176141
#
# Stress axis : x y z
#
# Youngs Moduli (GPa) = 89.74627 98.14838 53.01966
#
# Poissons Ratio (x) = 0.08671 -0.16512
# Poissons Ratio (y) = 0.07928 0.07668
# Poissons Ratio (z) = -0.27949 0.14194
#
# Static dielectric constant tensor:
#      x y z
#    x 2.236900 0.000000 0.047530 
#    y 0.000000 2.026550 0.000000 
#    z 0.047530 0.000000 1.939220 
# 
# From -- ./inp_files/6914.got.cif
#   From: 2010.05.17/outbox.cif.g08.bks.cpg/sg4_4_cif.got.tgz:6914.got - 2010.06.03 18:43:04.
