data_PCOD9118034
_publ_section_title
;
Structure prediction by ZEFSAII (Michael W. Deem and Ramdas Pophale) SiO2 
 PCOD9118034
Probable space group: P 21
;
_chemical_formula_sum "Si O2"
_cell_formula_units_Z 10
_cell_length_a 9.487707
_cell_length_b 8.561449
_cell_length_c 9.400963
_cell_angle_alpha 90.000000
_cell_angle_beta 150.424285
_cell_angle_gamma 90.000000
_cell_volume 376.905544
_symmetry_space_group_name_H-M "P 21"
_symmetry_group_IT_number 4
_symmetry_cell_setting 'monoclinic'
loop_
_space_group_symop_operation_xyz
x,y,z
-x,1/2+y,-z
loop_
_atom_site_type_symbol
_atom_site_label
_atom_site_fract_x
_atom_site_fract_y
_atom_site_fract_z
Si Si1 0.130684 0.273860 0.561611
Si Si2 0.263086 0.853623 0.520153
Si Si3 0.701456 0.120748 0.983721
Si Si4 0.241122 0.883639 0.195118
Si Si5 0.804699 0.018145 0.619120
O O1 0.458544 0.222065 0.856802
O O2 0.129384 0.433048 0.470419
O O3 0.964920 0.308601 0.559594
O O4 0.971399 0.142577 0.325178
O O5 0.123239 0.913094 0.249306
O O6 0.345986 0.681631 0.537162
O O7 0.523395 0.962397 0.798653
O O8 0.775337 0.219237 0.904911
O O9 0.578223 0.911731 0.502694
O O10 0.093051 0.008164 0.961167
#
# Coordination Sequence:
#
# PCOD9118034 Si02
#       5
#     2   2   2   2   2
#     4  10  24  44  65  95 136 172 218 278 338 396
#     4  12  24  42  74 100 128 182 234 274 336 408
#     4  10  24  44  64  95 134 173 219 278 334 398
#     4  10  24  44  65  95 136 172 218 278 338 396
#     4  10  24  44  64  95 134 173 219 278 334 398
#
# _framework density 26.531842999999999
#
# number of rings (size 3 to 8) (size 9 to 14) (size 15 to 20)
#    0.000    1.600    0.000    2.400    0.000   19.200 
#    0.000    0.000    0.000    0.000    0.000    0.000 
#    0.000    0.000    0.000    0.000    0.000    0.000 
#
# Total GULP energy -55975.504832 kJ/mol
# GULP energy per Si atom -5597.550483 kJ/mol
# Density = 2.647145 g / cm^3
# Si number density = 26.531843 Si / 1000 Ang^3
#
#
#
# Elastic Constant Matrix: (Units=GPa)
#
#
# Indices 1 2 3 4 5 6 
#
# 1 132.2344 2.9988 -0.6700 0.0000 -10.3605 0.0000
# 2 2.9988 129.7035 6.7433 0.0000 -10.7413 0.0000
# 3 -0.6700 6.7433 83.5081 0.0000 21.8363 0.0000
# 4 0.0000 0.0000 0.0000 40.4621 0.0000 3.8472
# 5 -10.3605 -10.7413 21.8363 0.0000 28.2174 0.0000
# 6 0.0000 0.0000 0.0000 3.8472 0.0000 37.6361
#
#
#
# Elastic Compliance Matrix: (Units=1/GPa)
#
#
# Indices 1 2 3 4 5 6 
#
# 1 0.007839 0.000167 -0.000903 0.000000 0.003640 0.000000
# 2 0.000167 0.008186 -0.001869 0.000000 0.004624 0.000000
# 3 -0.000903 -0.001869 0.015535 0.000000 -0.013064 0.000000
# 4 0.000000 0.000000 0.000000 0.024957 0.000000 -0.002551
# 5 0.003640 0.004624 -0.013064 0.000000 0.048646 0.000000
# 6 0.000000 0.000000 0.000000 -0.002551 0.000000 0.026831
#
#
# Mechanical properties :
#
#
# Convention : Reuss Voigt Hill
#
# Bulk Modulus (GPa) = 37.94796 40.39891 39.17343
# Shear Modulus (GPa) = 34.24987 43.68806 38.96896
#
# Velocity S-wave (km/s) = 3.59680 4.06227 3.83660
# Velocity P-wave (km/s) = 5.61989 6.10429 5.86709
#
# Compressibility (1/GPa) = 0.02635188
#
# Stress axis : x y z
#
# Youngs Moduli (GPa) = 127.56423 122.15858 64.37185
#
# Poissons Ratio (x) = -0.02042 0.05810
# Poissons Ratio (y) = -0.02132 0.12029
# Poissons Ratio (z) = 0.11513 0.22828
#
# Static dielectric constant tensor:
#      x y z
#    x 2.045370 0.000000 -0.031550 
#    y 0.000000 2.218660 0.000000 
#    z -0.031550 0.000000 1.978120 
# 
# From -- ./inp_files/917.got.cif
#   From: 2010.05.17/outbox.cif.g08.bks.cpg/sg4_1_cif.got.tgz:917.got - 2010.06.03 18:43:04.
