data_PCOD9118870
_publ_section_title
;
Structure prediction by ZEFSAII (Michael W. Deem and Ramdas Pophale) SiO2 
 PCOD9118870
Probable space group: P 21
;
_chemical_formula_sum "Si O2"
_cell_formula_units_Z 14
_cell_length_a 13.248563
_cell_length_b 9.407828
_cell_length_c 4.962689
_cell_angle_alpha 90.000000
_cell_angle_beta 123.211919
_cell_angle_gamma 90.000000
_cell_volume 517.510565
_symmetry_space_group_name_H-M "P 21"
_symmetry_group_IT_number 4
_symmetry_cell_setting 'monoclinic'
loop_
_space_group_symop_operation_xyz
x,y,z
-x,1/2+y,-z
loop_
_atom_site_type_symbol
_atom_site_label
_atom_site_fract_x
_atom_site_fract_y
_atom_site_fract_z
Si Si1 0.070970 0.766860 0.626163
Si Si2 0.504802 0.428608 0.513293
Si Si3 0.848150 0.106562 0.761765
Si Si4 0.767287 0.525276 0.948417
Si Si5 0.619183 0.742138 0.026066
Si Si6 0.841096 0.786185 0.655277
Si Si7 0.591802 0.094042 0.126316
O O1 0.071274 0.706038 0.322113
O O2 0.939363 0.756518 0.567805
O O3 0.149247 0.664047 0.932671
O O4 0.130827 0.920473 0.781021
O O5 0.648913 0.437774 0.664075
O O6 0.477041 0.500655 0.752548
O O7 0.432853 0.284316 0.341584
O O8 0.428404 0.522752 0.187757
O O9 0.720436 0.129328 0.431453
O O10 0.881226 0.939522 0.836529
O O11 0.813755 0.649968 0.810213
O O12 0.705221 0.607561 0.104515
O O13 0.716425 0.834085 0.327476
O O14 0.495794 0.729468 0.007473
#
# Coordination Sequence:
#
# PCOD9118870 Si02
#       7
#     2   2   2   2   2   2   2
#     4  12  31  49  77 110 160 205 260 318 384 451
#     4  11  23  43  70 111 147 188 246 311 384 451
#     4  12  28  52  76 113 154 202 258 325 381 461
#     4  11  27  50  76 114 154 207 253 323 380 474
#     4  11  25  43  78 109 149 194 252 311 388 455
#     4  12  27  48  80 108 154 206 268 310 384 461
#     4  11  23  43  71 105 144 188 241 312 381 451
#
# _framework density 27.052586000000002
#
# number of rings (size 3 to 8) (size 9 to 14) (size 15 to 20)
#    0.000    0.571    2.857    3.429    8.000    3.429 
#    0.000    0.000    0.000    0.000    0.000    0.000 
#    0.000    0.000    0.000    0.000    0.000    0.000 
#
# Total GULP energy -78256.109020 kJ/mol
# GULP energy per Si atom -5589.722073 kJ/mol
# Density = 2.699101 g / cm^3
# Si number density = 27.052586 Si / 1000 Ang^3
#
#
#
# Elastic Constant Matrix: (Units=GPa)
#
#
# Indices 1 2 3 4 5 6 
#
# 1 108.6783 31.7007 8.8792 0.0000 27.3975 0.0000
# 2 31.7007 97.3622 27.3245 0.0000 -5.6869 0.0000
# 3 8.8792 27.3245 82.4564 0.0000 8.5117 0.0000
# 4 0.0000 0.0000 0.0000 49.8907 0.0000 1.3177
# 5 27.3975 -5.6869 8.5117 0.0000 63.0687 0.0000
# 6 0.0000 0.0000 0.0000 1.3177 0.0000 46.3753
#
#
#
# Elastic Compliance Matrix: (Units=1/GPa)
#
#
# Indices 1 2 3 4 5 6 
#
# 1 0.011846 -0.004402 0.000766 0.000000 -0.005646 0.000000
# 2 -0.004402 0.013111 -0.004249 0.000000 0.003668 0.000000
# 3 0.000766 -0.004249 0.013718 0.000000 -0.002567 0.000000
# 4 0.000000 0.000000 0.000000 0.020059 0.000000 -0.000570
# 5 -0.005646 0.003668 -0.002567 0.000000 0.018986 0.000000
# 6 0.000000 0.000000 0.000000 -0.000570 0.000000 0.021579
#
#
# Mechanical properties :
#
#
# Convention : Reuss Voigt Hill
#
# Bulk Modulus (GPa) = 43.65862 47.14507 45.40184
# Shear Modulus (GPa) = 40.74806 46.57312 43.66059
#
# Velocity S-wave (km/s) = 3.88526 4.15369 4.02172
# Velocity P-wave (km/s) = 6.02499 6.36154 6.19555
#
# Compressibility (1/GPa) = 0.02290499
#
# Stress axis : x y z
#
# Youngs Moduli (GPa) = 84.41433 76.27206 72.89532
#
# Poissons Ratio (x) = 0.33574 -0.05583
# Poissons Ratio (y) = 0.37158 0.30976
# Poissons Ratio (z) = -0.06465 0.32411
#
# Static dielectric constant tensor:
#      x y z
#    x 2.133090 0.000000 0.044170 
#    y 0.000000 2.506310 0.000000 
#    z 0.044170 0.000000 2.079990 
# 
# From -- ./inp_files/3522.got.cif
#   From: 2010.05.17/outbox.cif.g08.bks.cpg/sg4_2_cif.got.tgz:3522.got - 2010.06.03 18:43:04.
