data_PCOD9118735
_publ_section_title
;
Structure prediction by ZEFSAII (Michael W. Deem and Ramdas Pophale) SiO2 
 PCOD9118735
Probable space group: P 21
;
_chemical_formula_sum "Si O2"
_cell_formula_units_Z 16
_cell_length_a 7.871935
_cell_length_b 15.098172
_cell_length_c 5.967444
_cell_angle_alpha 90.000000
_cell_angle_beta 67.799072
_cell_angle_gamma 90.000000
_cell_volume 656.661624
_symmetry_space_group_name_H-M "P 21"
_symmetry_group_IT_number 4
_symmetry_cell_setting 'monoclinic'
loop_
_space_group_symop_operation_xyz
x,y,z
-x,1/2+y,-z
loop_
_atom_site_type_symbol
_atom_site_label
_atom_site_fract_x
_atom_site_fract_y
_atom_site_fract_z
Si Si1 0.511444 0.542590 0.531797
Si Si2 0.273553 0.336889 0.961795
Si Si3 0.628129 0.505939 0.969090
Si Si4 0.674719 0.324376 0.012948
Si Si5 0.898292 0.655112 0.831778
Si Si6 0.836696 0.034157 0.041457
Si Si7 0.801993 0.168655 0.692357
Si Si8 0.490619 0.236256 0.518363
O O1 0.564427 0.492064 0.737645
O O2 0.293899 0.547585 0.679752
O O3 0.592988 0.642087 0.512563
O O4 0.543896 0.504725 0.267056
O O5 0.169204 0.430498 0.012421
O O6 0.344027 0.305567 0.682690
O O7 0.465617 0.336485 0.010491
O O8 0.143480 0.257355 0.105155
O O9 0.708001 0.603774 0.909483
O O10 0.760371 0.421150 0.938276
O O11 0.621493 0.284617 0.278152
O O12 0.817716 0.254150 0.842983
O O13 0.990756 0.595226 0.982330
O O14 0.025040 0.650032 0.549235
O O15 0.751350 0.084993 0.870909
O O16 0.625991 0.201076 0.642726
#
# Coordination Sequence:
#
# PCOD9118735 Si02
#       8
#     2   2   2   2   2   2   2   2
#     4  12  23  49  77 109 149 202 261 310 379 453
#     4  11  26  46  72 109 143 203 264 317 385 460
#     4  12  28  46  80 113 150 202 256 320 377 457
#     4  11  24  44  76 109 143 200 264 317 369 466
#     4  12  28  45  70 110 156 203 245 323 392 459
#     4  12  26  46  75 105 157 200 258 319 395 460
#     4  11  25  44  68 107 151 207 241 320 383 459
#     4  11  22  44  78 102 149 193 265 316 378 450
#
# _framework density 24.365670999999999
#
# number of rings (size 3 to 8) (size 9 to 14) (size 15 to 20)
#    0.000    0.500    5.000    2.250    3.500    5.000 
#    0.000    0.000    0.000    0.000    0.000    0.000 
#    0.000    0.000    0.000    0.000    0.000    0.000 
#
# Total GULP energy -89192.431976 kJ/mol
# GULP energy per Si atom -5574.526998 kJ/mol
# Density = 2.431021 g / cm^3
# Si number density = 24.365671 Si / 1000 Ang^3
#
#
#
# Elastic Constant Matrix: (Units=GPa)
#
#
# Indices 1 2 3 4 5 6 
#
# 1 42.0164 -9.2173 14.0578 0.0000 10.3984 0.0000
# 2 -9.2173 163.4903 31.8321 0.0000 1.8952 0.0000
# 3 14.0578 31.8321 144.7490 0.0000 -1.5890 0.0000
# 4 0.0000 0.0000 0.0000 33.1197 0.0000 0.8303
# 5 10.3984 1.8952 -1.5890 0.0000 29.5742 0.0000
# 6 0.0000 0.0000 0.0000 0.8303 0.0000 25.3792
#
#
#
# Elastic Compliance Matrix: (Units=1/GPa)
#
#
# Indices 1 2 3 4 5 6 
#
# 1 0.027945 0.002344 -0.003341 0.000000 -0.010155 0.000000
# 2 0.002344 0.006594 -0.001692 0.000000 -0.001338 0.000000
# 3 -0.003341 -0.001692 0.007624 0.000000 0.001693 0.000000
# 4 0.000000 0.000000 0.000000 0.030218 0.000000 -0.000989
# 5 -0.010155 -0.001338 0.001693 0.000000 0.037561 0.000000
# 6 0.000000 0.000000 0.000000 -0.000989 0.000000 0.039435
#
#
# Mechanical properties :
#
#
# Convention : Reuss Voigt Hill
#
# Bulk Modulus (GPa) = 27.18583 47.06677 37.12630
# Shear Modulus (GPa) = 29.93709 38.52016 34.22862
#
# Velocity S-wave (km/s) = 3.50903 3.98039 3.75212
# Velocity P-wave (km/s) = 5.25351 6.36266 5.83450
#
# Compressibility (1/GPa) = 0.03678386
#
# Stress axis : x y z
#
# Youngs Moduli (GPa) = 35.78396 151.65952 131.16949
#
# Poissons Ratio (x) = -0.35545 0.43823
# Poissons Ratio (y) = -0.08387 0.22198
# Poissons Ratio (z) = 0.11955 0.25666
#
# Static dielectric constant tensor:
#      x y z
#    x 2.131440 0.000000 0.093330 
#    y 0.000000 2.033260 0.000000 
#    z 0.093330 0.000000 1.938690 
# 
# From -- ./inp_files/1923.got.cif
#   From: 2010.05.17/outbox.cif.g08.bks.cpg/sg4_1_cif.got.tgz:1923.got - 2010.06.03 18:43:04.
