data_PCOD9118943
_publ_section_title
;
Structure prediction by ZEFSAII (Michael W. Deem and Ramdas Pophale) SiO2 
 PCOD9118943
Probable space group: P 21
;
_chemical_formula_sum "Si O2"
_cell_formula_units_Z 16
_cell_length_a 9.250828
_cell_length_b 10.976960
_cell_length_c 15.103665
_cell_angle_alpha 90.000000
_cell_angle_beta 153.391613
_cell_angle_gamma 90.000000
_cell_volume 686.936146
_symmetry_space_group_name_H-M "P 21"
_symmetry_group_IT_number 4
_symmetry_cell_setting 'monoclinic'
loop_
_space_group_symop_operation_xyz
x,y,z
-x,1/2+y,-z
loop_
_atom_site_type_symbol
_atom_site_label
_atom_site_fract_x
_atom_site_fract_y
_atom_site_fract_z
Si Si1 0.302772 0.826860 0.969478
Si Si2 0.205918 0.213793 0.647541
Si Si3 0.656693 0.077804 0.410294
Si Si4 0.856830 0.572052 0.033787
Si Si5 0.824651 0.389073 0.369090
Si Si6 0.216196 0.336558 0.929183
Si Si7 0.167621 0.090183 0.305364
Si Si8 0.553528 0.531057 0.354846
O O1 0.526657 0.808097 0.178030
O O2 0.545821 0.808914 0.021804
O O3 0.203719 0.968876 0.923679
O O4 0.047606 0.713915 0.826486
O O5 0.398864 0.105165 0.709780
O O6 0.947347 0.175432 0.578856
O O7 0.967809 0.254786 0.439711
O O8 0.423571 0.085208 0.195261
O O9 0.433493 0.084350 0.373407
O O10 0.894168 0.963596 0.524712
O O11 0.921172 0.707390 0.109524
O O12 0.174612 0.516486 0.161001
O O13 0.785683 0.420147 0.452514
O O14 0.466887 0.385335 0.138900
O O15 0.000472 0.455701 0.791216
O O16 0.320407 0.092754 0.486877
#
# Coordination Sequence:
#
# PCOD9118943 Si02
#       8
#     2   2   2   2   2   2   2   2
#     4  12  27  47  78 109 150 192 244 305 369 435
#     4  11  23  45  74 100 146 193 242 292 373 434
#     4  11  25  44  73 107 147 190 246 302 366 430
#     4  12  27  46  73 108 148 191 247 304 365 435
#     4  11  23  45  74 100 146 193 242 292 373 434
#     4  12  27  47  78 109 150 192 244 305 369 435
#     4  12  28  47  74 111 149 192 251 299 363 433
#     4  11  28  45  70 108 148 193 246 303 358 436
#
# _framework density 23.291831999999999
#
# number of rings (size 3 to 8) (size 9 to 14) (size 15 to 20)
#    0.000    0.500    2.500    5.250   10.500    3.000 
#    0.000    0.000    0.000    0.000    0.000    0.000 
#    0.000    0.000    0.000    0.000    0.000    0.000 
#
# Total GULP energy -89102.050303 kJ/mol
# GULP energy per Si atom -5568.878144 kJ/mol
# Density = 2.323882 g / cm^3
# Si number density = 23.291832 Si / 1000 Ang^3
#
#
#
# Elastic Constant Matrix: (Units=GPa)
#
#
# Indices 1 2 3 4 5 6 
#
# 1 97.6148 18.6257 -9.2288 0.0000 9.0217 0.0000
# 2 18.6257 106.2090 14.8677 0.0000 -0.0488 0.0000
# 3 -9.2288 14.8677 49.3258 0.0000 -2.8197 0.0000
# 4 0.0000 0.0000 0.0000 18.2832 0.0000 -26.8154
# 5 9.0217 -0.0488 -2.8197 0.0000 27.3631 0.0000
# 6 0.0000 0.0000 0.0000 -26.8154 0.0000 -106.8473
#
#
#
# Elastic Compliance Matrix: (Units=1/GPa)
#
#
# Indices 1 2 3 4 5 6 
#
# 1 0.011257 -0.002342 0.002615 0.000000 -0.003446 0.000000
# 2 -0.002342 0.010320 -0.003524 0.000000 0.000427 0.000000
# 3 0.002615 -0.003524 0.021904 0.000000 0.001389 0.000000
# 4 0.000000 0.000000 0.000000 0.039979 0.000000 -0.010034
# 5 -0.003446 0.000427 0.001389 0.000000 0.037826 0.000000
# 6 0.000000 0.000000 0.000000 -0.010034 0.000000 -0.006841
#
#
# Mechanical properties :
#
#
# Convention : Reuss Voigt Hill
#
# Bulk Modulus (GPa) = 27.04248 33.51985 30.28117
# Shear Modulus (GPa) = 37.51698 3.01878 20.26788
#
# Velocity S-wave (km/s) = 4.01775 1.13969 2.95307
# Velocity P-wave (km/s) = 5.75835 4.01925 4.96553
#
# Compressibility (1/GPa) = 0.03697886
#
# Stress axis : x y z
#
# Youngs Moduli (GPa) = 88.83435 96.90294 45.65313
#
# Poissons Ratio (x) = 0.22692 -0.11938
# Poissons Ratio (y) = 0.20803 0.16089
# Poissons Ratio (z) = -0.23230 0.34151
#
# Static dielectric constant tensor:
#      x y z
#    x 1.908140 0.000000 0.011120 
#    y 0.000000 2.152980 0.000000 
#    z 0.011120 0.000000 2.056220 
# 
# From -- ./inp_files/13766.got.cif
#   From: 2010.05.17/outbox.cif.g08.bks.cpg/sg4_7_cif.got.tgz:13766.got - 2010.06.03 18:43:04.
