data_PCOD9118644
_publ_section_title
;
Structure prediction by ZEFSAII (Michael W. Deem and Ramdas Pophale) SiO2 
 PCOD9118644
Probable space group: P 21
;
_chemical_formula_sum "Si O2"
_cell_formula_units_Z 16
_cell_length_a 12.341254
_cell_length_b 5.125424
_cell_length_c 14.097872
_cell_angle_alpha 90.000000
_cell_angle_beta 127.820168
_cell_angle_gamma 90.000000
_cell_volume 704.427545
_symmetry_space_group_name_H-M "P 21"
_symmetry_group_IT_number 4
_symmetry_cell_setting 'monoclinic'
loop_
_space_group_symop_operation_xyz
x,y,z
-x,1/2+y,-z
loop_
_atom_site_type_symbol
_atom_site_label
_atom_site_fract_x
_atom_site_fract_y
_atom_site_fract_z
Si Si1 0.426424 0.688990 0.003156
Si Si2 0.529684 0.139416 0.749222
Si Si3 0.686773 0.643694 0.773996
Si Si4 0.005737 0.716980 0.623326
Si Si5 0.938492 0.732172 0.800706
Si Si6 0.799747 0.853541 0.194269
Si Si7 0.228828 0.075742 0.640748
Si Si8 0.097988 0.206002 0.939911
O O1 0.277209 0.610342 0.883289
O O2 0.521367 0.466598 0.005013
O O3 0.425716 0.653662 0.115816
O O4 0.575864 0.416328 0.730386
O O5 0.371615 0.042798 0.662973
O O6 0.614153 0.920151 0.740790
O O7 0.784485 0.633219 0.734927
O O8 0.797262 0.650318 0.919684
O O9 0.964564 0.813507 0.705662
O O10 0.876587 0.720010 0.485349
O O11 0.055303 0.426540 0.679766
O O12 0.134203 0.849199 0.637327
O O13 0.035443 0.495753 0.890635
O O14 0.977982 0.991819 0.880111
O O15 0.721574 0.737473 0.241075
O O16 0.817855 0.673850 0.113212
#
# Coordination Sequence:
#
# PCOD9118644 Si02
#       8
#     2   2   2   2   2   2   2   2
#     4  12  24  39  62  96 139 181 213 262 334 419
#     4  12  27  41  67  99 142 183 217 269 344 415
#     4  12  25  45  64 100 140 181 224 272 333 412
#     4  11  25  43  70  97 126 176 229 291 329 388
#     4  11  24  44  70  98 133 177 234 279 331 389
#     4  11  23  37  65  97 133 165 216 274 337 392
#     4  12  24  44  67  99 134 174 225 283 338 401
#     4  11  22  39  69 102 131 177 222 282 334 392
#
# _framework density 22.713479
#
# number of rings (size 3 to 8) (size 9 to 14) (size 15 to 20)
#    0.000    0.500    5.000    3.750    3.500    0.000 
#    0.000    1.250    0.000    0.000    0.000    0.000 
#    0.000    0.000    0.000    0.000    0.000    0.000 
#
# Total GULP energy -89381.565038 kJ/mol
# GULP energy per Si atom -5586.347815 kJ/mol
# Density = 2.266178 g / cm^3
# Si number density = 22.713479 Si / 1000 Ang^3
#
#
#
# Elastic Constant Matrix: (Units=GPa)
#
#
# Indices 1 2 3 4 5 6 
#
# 1 109.0873 15.0247 19.9314 0.0000 10.7103 0.0000
# 2 15.0247 83.3267 15.4807 0.0000 0.6267 0.0000
# 3 19.9314 15.4807 75.0625 0.0000 8.9468 0.0000
# 4 0.0000 0.0000 0.0000 24.0399 0.0000 11.0894
# 5 10.7103 0.6267 8.9468 0.0000 25.8906 0.0000
# 6 0.0000 0.0000 0.0000 11.0894 0.0000 40.6678
#
#
#
# Elastic Compliance Matrix: (Units=1/GPa)
#
#
# Indices 1 2 3 4 5 6 
#
# 1 0.010061 -0.001423 -0.001967 0.000000 -0.003448 0.000000
# 2 -0.001423 0.012690 -0.002370 0.000000 0.001101 0.000000
# 3 -0.001967 -0.002370 0.014841 0.000000 -0.004257 0.000000
# 4 0.000000 0.000000 0.000000 0.047583 0.000000 -0.012975
# 5 -0.003448 0.001101 -0.004257 0.000000 0.041495 0.000000
# 6 0.000000 0.000000 0.000000 -0.012975 0.000000 0.028128
#
#
# Mechanical properties :
#
#
# Convention : Reuss Voigt Hill
#
# Bulk Modulus (GPa) = 38.35716 40.92779 39.64248
# Shear Modulus (GPa) = 28.57024 32.58897 30.57960
#
# Velocity S-wave (km/s) = 3.55047 3.79197 3.67320
# Velocity P-wave (km/s) = 5.80791 6.10166 5.95660
#
# Compressibility (1/GPa) = 0.02607075
#
# Stress axis : x y z
#
# Youngs Moduli (GPa) = 99.39540 78.80476 67.38149
#
# Poissons Ratio (x) = 0.11211 0.13255
# Poissons Ratio (y) = 0.14141 0.15973
# Poissons Ratio (z) = 0.19552 0.18680
#
# Static dielectric constant tensor:
#      x y z
#    x 1.912770 0.000000 0.018240 
#    y 0.000000 1.869880 0.000000 
#    z 0.018240 0.000000 1.824870 
# 
# From -- ./inp_files/11494.got.cif
#   From: 2010.05.17/outbox.cif.g08.bks.cpg/sg4_6_cif.got.tgz:11494.got - 2010.06.03 18:43:04.
