data_PCOD9118874
_publ_section_title
;
Structure prediction by ZEFSAII (Michael W. Deem and Ramdas Pophale) SiO2 
 PCOD9118874
Probable space group: P 21
;
_chemical_formula_sum "Si O2"
_cell_formula_units_Z 16
_cell_length_a 11.367427
_cell_length_b 10.054990
_cell_length_c 6.485752
_cell_angle_alpha 90.000000
_cell_angle_beta 112.105545
_cell_angle_gamma 90.000000
_cell_volume 686.824740
_symmetry_space_group_name_H-M "P 21"
_symmetry_group_IT_number 4
_symmetry_cell_setting 'monoclinic'
loop_
_space_group_symop_operation_xyz
x,y,z
-x,1/2+y,-z
loop_
_atom_site_type_symbol
_atom_site_label
_atom_site_fract_x
_atom_site_fract_y
_atom_site_fract_z
Si Si1 0.483438 0.881880 0.593098
Si Si2 0.599632 0.591334 0.757284
Si Si3 0.145216 0.190001 0.155362
Si Si4 0.973782 0.845660 0.587058
Si Si5 0.250295 0.760726 0.642737
Si Si6 0.576965 0.058617 0.016168
Si Si7 0.800988 0.921260 0.104640
Si Si8 0.889353 0.093483 0.801443
O O1 0.542164 0.731855 0.629525
O O2 0.343828 0.865012 0.599133
O O3 0.469967 0.959573 0.372030
O O4 0.553617 0.992580 0.779876
O O5 0.747795 0.578699 0.799245
O O6 0.557845 0.587196 0.967494
O O7 0.106990 0.225260 0.363902
O O8 0.213857 0.306028 0.071268
O O9 0.012460 0.174971 0.950670
O O10 0.916474 0.889984 0.331523
O O11 0.121168 0.812694 0.659201
O O12 0.946916 0.964292 0.727401
O O13 0.340862 0.688204 0.869503
O O14 0.201740 0.664798 0.423296
O O15 0.677432 0.946143 0.162799
O O16 0.827252 0.047477 0.975104
#
# Coordination Sequence:
#
# PCOD9118874 Si02
#       8
#     2   2   2   2   2   2   2   2
#     4  11  28  47  73 103 150 194 255 305 371 447
#     4  11  28  47  72 108 140 197 249 310 370 447
#     4  11  25  43  69 105 141 182 243 307 368 441
#     4  11  25  44  71 104 142 192 240 307 377 441
#     4  11  25  47  70 109 147 198 249 307 382 446
#     4  11  25  47  69 100 144 201 242 300 368 444
#     4  11  23  43  71  99 145 190 241 300 376 438
#     4  11  25  42  71 108 143 186 243 312 376 438
#
# _framework density 23.295608999999999
#
# number of rings (size 3 to 8) (size 9 to 14) (size 15 to 20)
#    0.000    1.000    3.750    0.750    8.750    3.000 
#    0.000    0.000    0.000    0.000    0.000    0.000 
#    0.000    0.000    0.000    0.000    0.000    0.000 
#
# Total GULP energy -89208.204971 kJ/mol
# GULP energy per Si atom -5575.512811 kJ/mol
# Density = 2.324259 g / cm^3
# Si number density = 23.295609 Si / 1000 Ang^3
#
#
#
# Elastic Constant Matrix: (Units=GPa)
#
#
# Indices 1 2 3 4 5 6 
#
# 1 144.3592 16.2636 29.5307 0.0000 0.3613 0.0000
# 2 16.2636 33.2444 11.8663 0.0000 -6.7397 0.0000
# 3 29.5307 11.8663 38.8352 0.0000 -10.0086 0.0000
# 4 0.0000 0.0000 0.0000 31.2859 0.0000 -8.7894
# 5 0.3613 -6.7397 -10.0086 0.0000 23.5777 0.0000
# 6 0.0000 0.0000 0.0000 -8.7894 0.0000 33.4430
#
#
#
# Elastic Compliance Matrix: (Units=1/GPa)
#
#
# Indices 1 2 3 4 5 6 
#
# 1 0.008598 -0.002563 -0.006712 0.000000 -0.003714 0.000000
# 2 -0.002563 0.035279 -0.006986 0.000000 0.007158 0.000000
# 3 -0.006712 -0.006986 0.036492 0.000000 0.013597 0.000000
# 4 0.000000 0.000000 0.000000 0.034511 0.000000 0.009070
# 5 -0.003714 0.007158 0.013597 0.000000 0.050288 0.000000
# 6 0.000000 0.000000 0.000000 0.009070 0.000000 0.032285
#
#
# Mechanical properties :
#
#
# Convention : Reuss Voigt Hill
#
# Bulk Modulus (GPa) = 20.89970 36.86223 28.88096
# Shear Modulus (GPa) = 20.33135 28.24655 24.28895
#
# Velocity S-wave (km/s) = 2.95745 3.48591 3.23250
# Velocity P-wave (km/s) = 4.54456 5.66217 5.13386
#
# Compressibility (1/GPa) = 0.04784758
#
# Stress axis : x y z
#
# Youngs Moduli (GPa) = 116.30190 28.34549 27.40295
#
# Poissons Ratio (x) = 0.07266 0.18393
# Poissons Ratio (y) = 0.29814 0.19142
# Poissons Ratio (z) = 0.78063 0.19801
#
# Static dielectric constant tensor:
#      x y z
#    x 1.947920 0.000000 0.029310 
#    y 0.000000 1.957230 0.000000 
#    z 0.029310 0.000000 1.897340 
# 
# From -- ./inp_files/2895.got.cif
#   From: 2010.05.17/outbox.cif.g08.bks.cpg/sg4_2_cif.got.tgz:2895.got - 2010.06.03 18:43:04.
