data_PCOD9118940
_publ_section_title
;
Structure prediction by ZEFSAII (Michael W. Deem and Ramdas Pophale) SiO2 
 PCOD9118940
Probable space group: P 21
;
_chemical_formula_sum "Si O2"
_cell_formula_units_Z 14
_cell_length_a 8.525300
_cell_length_b 8.887722
_cell_length_c 11.310863
_cell_angle_alpha 90.000000
_cell_angle_beta 139.189114
_cell_angle_gamma 90.000000
_cell_volume 560.124120
_symmetry_space_group_name_H-M "P 21"
_symmetry_group_IT_number 4
_symmetry_cell_setting 'monoclinic'
loop_
_space_group_symop_operation_xyz
x,y,z
-x,1/2+y,-z
loop_
_atom_site_type_symbol
_atom_site_label
_atom_site_fract_x
_atom_site_fract_y
_atom_site_fract_z
Si Si1 0.832284 0.074460 0.150625
Si Si2 0.935228 0.608777 0.357709
Si Si3 0.840654 0.178772 0.759125
Si Si4 0.584893 0.987083 0.324162
Si Si5 0.689063 0.679490 0.457332
Si Si6 0.416862 0.880103 0.975258
Si Si7 0.903956 0.508084 0.913389
O O1 0.655908 0.208766 0.086756
O O2 0.091872 0.092458 0.358083
O O3 0.899561 0.092749 0.052907
O O4 0.679596 0.923409 0.077116
O O5 0.750601 0.670747 0.351317
O O6 0.780180 0.477697 0.207411
O O7 0.072888 0.693458 0.327924
O O8 0.169981 0.566150 0.569520
O O9 0.567017 0.133151 0.635232
O O10 0.888677 0.338097 0.854108
O O11 0.000110 0.044184 0.902802
O O12 0.677379 0.859855 0.467360
O O13 0.363506 0.076871 0.253659
O O14 0.451077 0.918754 0.133258
#
# Coordination Sequence:
#
# PCOD9118940 Si02
#       7
#     2   2   2   2   2   2   2
#     4  12  26  46  77 107 150 203 248 315 380 445
#     4  12  24  45  77 110 147 197 251 310 377 449
#     4  11  26  47  76 111 151 199 254 310 378 452
#     4  11  23  45  73 106 147 194 244 308 372 445
#     4  11  25  48  71 107 155 194 248 317 369 447
#     4  12  25  46  75 104 150 196 250 309 377 442
#     4  11  25  47  75 107 154 197 253 311 377 450
#
# _framework density 24.994457000000001
#
# number of rings (size 3 to 8) (size 9 to 14) (size 15 to 20)
#    0.000    0.571    4.286    4.286    4.000    0.000 
#    0.000    1.429    0.000    0.000    0.000    0.000 
#    0.000    0.000    0.000    0.000    0.000    0.000 
#
# Total GULP energy -78123.197617 kJ/mol
# GULP energy per Si atom -5580.228401 kJ/mol
# Density = 2.493757 g / cm^3
# Si number density = 24.994457 Si / 1000 Ang^3
#
#
#
# Elastic Constant Matrix: (Units=GPa)
#
#
# Indices 1 2 3 4 5 6 
#
# 1 134.3901 27.4876 53.2836 0.0000 35.2004 0.0000
# 2 27.4876 43.1747 42.1077 0.0000 23.1131 0.0000
# 3 53.2836 42.1077 138.7804 0.0000 33.0686 0.0000
# 4 0.0000 0.0000 0.0000 31.3533 0.0000 11.2021
# 5 35.2004 23.1131 33.0686 0.0000 57.6246 0.0000
# 6 0.0000 0.0000 0.0000 11.2021 0.0000 34.0781
#
#
#
# Elastic Compliance Matrix: (Units=1/GPa)
#
#
# Indices 1 2 3 4 5 6 
#
# 1 0.009740 -0.001952 -0.002220 0.000000 -0.003893 0.000000
# 2 -0.001952 0.037484 -0.008486 0.000000 -0.008973 0.000000
# 3 -0.002220 -0.008486 0.011003 0.000000 -0.001555 0.000000
# 4 0.000000 0.000000 0.000000 0.036139 0.000000 -0.011880
# 5 -0.003893 -0.008973 -0.001555 0.000000 0.024223 0.000000
# 6 0.000000 0.000000 0.000000 -0.011880 0.000000 0.033249
#
#
# Mechanical properties :
#
#
# Convention : Reuss Voigt Hill
#
# Bulk Modulus (GPa) = 30.38410 62.45586 46.41998
# Shear Modulus (GPa) = 26.57829 37.50897 32.04363
#
# Velocity S-wave (km/s) = 3.26447 3.87808 3.58443
# Velocity P-wave (km/s) = 5.13729 6.71527 5.97857
#
# Compressibility (1/GPa) = 0.03291195
#
# Stress axis : x y z
#
# Youngs Moduli (GPa) = 102.66869 26.67819 90.88497
#
# Poissons Ratio (x) = 0.05208 0.20173
# Poissons Ratio (y) = 0.20043 0.77121
# Poissons Ratio (z) = 0.22789 0.22638
#
# Static dielectric constant tensor:
#      x y z
#    x 2.111080 0.000000 -0.045010 
#    y 0.000000 2.006450 0.000000 
#    z -0.045010 0.000000 1.962260 
# 
# From -- ./inp_files/7484.got.cif
#   From: 2010.05.17/outbox.cif.g08.bks.cpg/sg4_4_cif.got.tgz:7484.got - 2010.06.03 18:43:04.
