data_PCOD9118550
_publ_section_title
;
Structure prediction by ZEFSAII (Michael W. Deem and Ramdas Pophale) SiO2 
 PCOD9118550
Probable space group: P 21
;
_chemical_formula_sum "Si O2"
_cell_formula_units_Z 14
_cell_length_a 14.669381
_cell_length_b 4.769225
_cell_length_c 16.479620
_cell_angle_alpha 90.000000
_cell_angle_beta 149.557201
_cell_angle_gamma 90.000000
_cell_volume 584.169342
_symmetry_space_group_name_H-M "P 21"
_symmetry_group_IT_number 4
_symmetry_cell_setting 'monoclinic'
loop_
_space_group_symop_operation_xyz
x,y,z
-x,1/2+y,-z
loop_
_atom_site_type_symbol
_atom_site_label
_atom_site_fract_x
_atom_site_fract_y
_atom_site_fract_z
Si Si1 0.909844 0.841450 0.467583
Si Si2 0.866947 0.143426 0.113480
Si Si3 0.057082 0.640075 0.334377
Si Si4 0.016597 0.916981 0.068308
Si Si5 0.405607 0.130858 0.391520
Si Si6 0.547037 0.375268 0.340334
Si Si7 0.512146 0.878233 0.202916
O O1 0.694877 0.837651 0.293106
O O2 0.990365 0.533645 0.521559
O O3 0.950737 0.982037 0.585606
O O4 0.008919 0.397170 0.233178
O O5 0.671121 0.274474 0.977206
O O6 0.917872 0.891491 0.212479
O O7 0.880455 0.013831 0.033487
O O8 0.252810 0.782739 0.479554
O O9 0.212332 0.992309 0.253075
O O10 0.008146 0.599034 0.032467
O O11 0.454627 0.374762 0.492325
O O12 0.420123 0.283157 0.316057
O O13 0.500930 0.196170 0.224669
O O14 0.539640 0.694855 0.306446
#
# Coordination Sequence:
#
# PCOD9118550 Si02
#       7
#     2   2   2   2   2   2   2
#     4  11  23  44  70  95 121 157 203 251 310 387
#     4  12  23  41  62  96 129 163 211 257 305 365
#     4  11  23  40  66  92 124 164 203 258 312 363
#     4  12  24  40  60  89 130 175 211 258 309 352
#     4  12  23  37  58  88 122 164 214 267 304 344
#     4  11  21  40  60  88 121 168 216 248 298 373
#     4  11  23  40  66  90 121 163 202 249 306 376
#
# _framework density 23.965654000000001
#
# number of rings (size 3 to 8) (size 9 to 14) (size 15 to 20)
#    0.000    0.571    0.000   11.143    0.000    0.000 
#    0.000    2.857    0.000    1.714    0.000    0.000 
#    0.000    0.000    0.000    0.000    0.000    0.000 
#
# Total GULP energy -78489.534357 kJ/mol
# GULP energy per Si atom -5606.395311 kJ/mol
# Density = 2.391111 g / cm^3
# Si number density = 23.965654 Si / 1000 Ang^3
#
#
#
# Elastic Constant Matrix: (Units=GPa)
#
#
# Indices 1 2 3 4 5 6 
#
# 1 42.1656 -16.0632 9.6279 0.0000 13.1875 0.0000
# 2 -16.0632 76.5071 20.5465 0.0000 -5.1987 0.0000
# 3 9.6279 20.5465 96.2820 0.0000 12.0281 0.0000
# 4 0.0000 0.0000 0.0000 48.7096 0.0000 -11.3650
# 5 13.1875 -5.1987 12.0281 0.0000 32.1548 0.0000
# 6 0.0000 0.0000 0.0000 -11.3650 0.0000 42.2827
#
#
#
# Elastic Compliance Matrix: (Units=1/GPa)
#
#
# Indices 1 2 3 4 5 6 
#
# 1 0.030053 0.006461 -0.003120 0.000000 -0.010114 0.000000
# 2 0.006461 0.015643 -0.004164 0.000000 0.001437 0.000000
# 3 -0.003120 -0.004164 0.012075 0.000000 -0.003910 0.000000
# 4 0.000000 0.000000 0.000000 0.021903 0.000000 0.005887
# 5 -0.010114 0.001437 -0.003910 0.000000 0.036943 0.000000
# 6 0.000000 0.000000 0.000000 0.005887 0.000000 0.025233
#
#
# Mechanical properties :
#
#
# Convention : Reuss Voigt Hill
#
# Bulk Modulus (GPa) = 17.81775 27.01967 22.41871
# Shear Modulus (GPa) = 30.82520 38.01898 34.42209
#
# Velocity S-wave (km/s) = 3.59029 3.98728 3.79398
# Velocity P-wave (km/s) = 4.96364 5.70058 5.34483
#
# Compressibility (1/GPa) = 0.05612381
#
# Stress axis : x y z
#
# Youngs Moduli (GPa) = 33.27478 63.92646 82.81410
#
# Poissons Ratio (x) = -0.41300 0.25841
# Poissons Ratio (y) = -0.21497 0.34482
# Poissons Ratio (z) = 0.10383 0.26617
#
# Static dielectric constant tensor:
#      x y z
#    x 1.886220 0.000000 -0.002430 
#    y 0.000000 1.851900 0.000000 
#    z -0.002430 0.000000 1.936700 
# 
# From -- ./inp_files/14100.got.cif
#   From: 2010.05.17/outbox.cif.g08.bks.cpg/sg4_8_cif.got.tgz:14100.got - 2010.06.03 18:43:04.
