data_PCOD9118650
_publ_section_title
;
Structure prediction by ZEFSAII (Michael W. Deem and Ramdas Pophale) SiO2 
 PCOD9118650
Probable space group: P 21
;
_chemical_formula_sum "Si O2"
_cell_formula_units_Z 14
_cell_length_a 21.335610
_cell_length_b 6.675224
_cell_length_c 15.437295
_cell_angle_alpha 90.000000
_cell_angle_beta 16.562972
_cell_angle_gamma 90.000000
_cell_volume 626.746729
_symmetry_space_group_name_H-M "P 21"
_symmetry_group_IT_number 4
_symmetry_cell_setting 'monoclinic'
loop_
_space_group_symop_operation_xyz
x,y,z
-x,1/2+y,-z
loop_
_atom_site_type_symbol
_atom_site_label
_atom_site_fract_x
_atom_site_fract_y
_atom_site_fract_z
Si Si1 0.759955 0.276760 0.150319
Si Si2 0.703794 0.571937 0.934037
Si Si3 0.814944 0.907563 0.646032
Si Si4 0.123996 0.005619 0.705180
Si Si5 0.458378 0.230918 0.149819
Si Si6 0.485733 0.508009 0.396485
Si Si7 0.110366 0.168357 0.914193
O O1 0.691122 0.376500 0.153013
O O2 0.835648 0.464506 0.107960
O O3 0.565215 0.174278 0.463504
O O4 0.929702 0.100570 0.906069
O O5 0.756004 0.764894 0.806089
O O6 0.934381 0.479128 0.665751
O O7 0.568514 0.418133 0.052479
O O8 0.544271 0.605467 0.227921
O O9 0.726747 0.789913 0.676463
O O10 0.660835 0.104131 0.844300
O O11 0.344591 0.086982 0.372055
O O12 0.071747 0.106073 0.867078
O O13 0.087236 0.773187 0.771813
O O14 0.293677 0.341696 0.659668
#
# Coordination Sequence:
#
# PCOD9118650 Si02
#       7
#     2   2   2   2   2   2   2
#     4  11  23  43  62 102 139 177 225 279 336 438
#     4  12  26  47  75 106 138 192 242 301 362 427
#     4  12  27  50  72 105 142 184 252 306 357 425
#     4  11  24  40  68  96 136 178 220 279 347 424
#     4  12  26  48  75 104 141 187 238 309 365 420
#     4  11  24  42  69  95 141 179 222 285 351 412
#     4  11  22  40  63  98 137 171 221 269 336 426
#
# _framework density 22.337572999999999
#
# number of rings (size 3 to 8) (size 9 to 14) (size 15 to 20)
#    0.000    0.571    7.143    0.857    2.000    1.143 
#    5.143    0.000    0.000    0.000    0.000    0.000 
#    0.000    0.000    0.000    0.000    0.000    0.000 
#
# Total GULP energy -78117.458725 kJ/mol
# GULP energy per Si atom -5579.818480 kJ/mol
# Density = 2.228673 g / cm^3
# Si number density = 22.337573 Si / 1000 Ang^3
#
#
#
# Elastic Constant Matrix: (Units=GPa)
#
#
# Indices 1 2 3 4 5 6 
#
# 1 80.9500 6.8899 19.2735 0.0000 -20.1309 0.0000
# 2 6.8899 34.9305 5.9387 0.0000 -7.0391 0.0000
# 3 19.2735 5.9387 61.8211 0.0000 -10.7244 0.0000
# 4 0.0000 0.0000 0.0000 41.8019 0.0000 -6.0394
# 5 -20.1309 -7.0391 -10.7244 0.0000 29.0003 0.0000
# 6 0.0000 0.0000 0.0000 -6.0394 0.0000 50.2645
#
#
#
# Elastic Compliance Matrix: (Units=1/GPa)
#
#
# Indices 1 2 3 4 5 6 
#
# 1 0.015503 -0.000620 -0.003134 0.000000 0.009452 0.000000
# 2 -0.000620 0.030301 -0.001620 0.000000 0.006325 0.000000
# 3 -0.003134 -0.001620 0.018019 0.000000 0.004095 0.000000
# 4 0.000000 0.000000 0.000000 0.024345 0.000000 0.002925
# 5 0.009452 0.006325 0.004095 0.000000 0.044093 0.000000
# 6 0.000000 0.000000 0.000000 0.002925 0.000000 0.020246
#
#
# Mechanical properties :
#
#
# Convention : Reuss Voigt Hill
#
# Bulk Modulus (GPa) = 18.84182 26.87841 22.86012
# Shear Modulus (GPa) = 27.63249 33.91997 30.77623
#
# Velocity S-wave (km/s) = 3.52097 3.90104 3.71587
# Velocity P-wave (km/s) = 4.99830 5.68769 5.35410
#
# Compressibility (1/GPa) = 0.05307343
#
# Stress axis : x y z
#
# Youngs Moduli (GPa) = 64.50440 33.00252 55.49788
#
# Poissons Ratio (x) = 0.02047 0.17393
# Poissons Ratio (y) = 0.04001 0.08992
# Poissons Ratio (z) = 0.20215 0.05347
#
# Static dielectric constant tensor:
#      x y z
#    x 1.092890 0.000000 0.372300 
#    y 0.000000 1.804930 0.000000 
#    z 0.372300 0.000000 1.646590 
# 
# From -- ./inp_files/8998.got.cif
#   From: 2010.05.17/outbox.cif.g08.bks.cpg/sg4_5_cif.got.tgz:8998.got - 2010.06.03 18:43:04.
