data_PCOD9118493
_publ_section_title
;
Structure prediction by ZEFSAII (Michael W. Deem and Ramdas Pophale) SiO2 
 PCOD9118493
Probable space group: P 21
;
_chemical_formula_sum "Si O2"
_cell_formula_units_Z 14
_cell_length_a 8.209901
_cell_length_b 9.297154
_cell_length_c 11.573242
_cell_angle_alpha 90.000000
_cell_angle_beta 37.791017
_cell_angle_gamma 90.000000
_cell_volume 541.314678
_symmetry_space_group_name_H-M "P 21"
_symmetry_group_IT_number 4
_symmetry_cell_setting 'monoclinic'
loop_
_space_group_symop_operation_xyz
x,y,z
-x,1/2+y,-z
loop_
_atom_site_type_symbol
_atom_site_label
_atom_site_fract_x
_atom_site_fract_y
_atom_site_fract_z
Si Si1 0.244586 0.451370 0.163816
Si Si2 0.044979 0.154840 0.274920
Si Si3 0.290651 0.266610 0.350088
Si Si4 0.363849 0.264480 0.910188
Si Si5 0.967312 0.749060 0.269822
Si Si6 0.516697 0.614538 0.369461
Si Si7 0.826377 0.351236 0.078825
O O1 0.321314 0.407299 0.250410
O O2 0.900066 0.347818 0.901757
O O3 0.004570 0.330956 0.283411
O O4 0.151196 0.609021 0.188381
O O5 0.766963 0.077249 0.416837
O O6 0.170223 0.147612 0.332112
O O7 0.271199 0.138775 0.050730
O O8 0.105763 0.298805 0.561370
O O9 0.590109 0.233433 0.222242
O O10 0.443841 0.389735 0.954162
O O11 0.097473 0.309909 0.990754
O O12 0.553439 0.214056 0.702533
O O13 0.695191 0.694942 0.362807
O O14 0.701028 0.489556 0.212501
#
# Coordination Sequence:
#
# PCOD9118493 Si02
#       7
#     2   2   2   2   2   2   2
#     4   8  20  44  57  84 128 156 206 258 302 372
#     4   8  20  38  59  86 121 162 204 251 310 364
#     4   9  23  39  60  90 124 163 211 249 317 376
#     4   8  19  39  58  92 117 159 210 251 315 360
#     4  11  22  41  63  92 126 164 208 268 308 370
#     4  11  20  37  68  86 127 162 208 261 307 374
#     4  11  22  38  61  96 121 164 211 258 315 376
#
# _framework density 25.862962
#
# number of rings (size 3 to 8) (size 9 to 14) (size 15 to 20)
#    1.714    0.571    1.429    0.857    2.000    3.429 
#    5.143    1.429    0.000    0.000    0.000    0.000 
#    0.000    0.000    0.000    0.000    0.000    0.000 
#
# Total GULP energy -78115.067466 kJ/mol
# GULP energy per Si atom -5579.647676 kJ/mol
# Density = 2.580410 g / cm^3
# Si number density = 25.862962 Si / 1000 Ang^3
#
#
#
# Elastic Constant Matrix: (Units=GPa)
#
#
# Indices 1 2 3 4 5 6 
#
# 1 93.8581 23.9106 37.1553 0.0000 30.8800 0.0000
# 2 23.9106 69.1145 12.4880 0.0000 4.7558 0.0000
# 3 37.1553 12.4880 139.5132 0.0000 24.5172 0.0000
# 4 0.0000 0.0000 0.0000 24.5057 0.0000 -3.6308
# 5 30.8800 4.7558 24.5172 0.0000 46.0486 0.0000
# 6 0.0000 0.0000 0.0000 -3.6308 0.0000 22.6439
#
#
#
# Elastic Compliance Matrix: (Units=1/GPa)
#
#
# Indices 1 2 3 4 5 6 
#
# 1 0.015532 -0.004371 -0.002200 0.000000 -0.008793 0.000000
# 2 -0.004371 0.015971 -0.000541 0.000000 0.001570 0.000000
# 3 -0.002200 -0.000541 0.008311 0.000000 -0.002894 0.000000
# 4 0.000000 0.000000 0.000000 0.041800 0.000000 0.006702
# 5 -0.008793 0.001570 -0.002894 0.000000 0.028991 0.000000
# 6 0.000000 0.000000 0.000000 0.006702 0.000000 0.045237
#
#
# Mechanical properties :
#
#
# Convention : Reuss Voigt Hill
#
# Bulk Modulus (GPa) = 39.07987 49.95487 44.51737
# Shear Modulus (GPa) = 27.99645 33.90177 30.94911
#
# Velocity S-wave (km/s) = 3.29369 3.62446 3.46303
# Velocity P-wave (km/s) = 5.44130 6.07229 5.76543
#
# Compressibility (1/GPa) = 0.02558862
#
# Stress axis : x y z
#
# Youngs Moduli (GPa) = 64.38488 62.61492 120.32769
#
# Poissons Ratio (x) = 0.27367 0.26472
# Poissons Ratio (y) = 0.28141 0.06515
# Poissons Ratio (z) = 0.14165 0.03390
#
# Static dielectric constant tensor:
#      x y z
#    x 2.063990 0.000000 0.007220 
#    y 0.000000 2.110400 0.000000 
#    z 0.007220 0.000000 1.992940 
# 
# From -- ./inp_files/11127.got.cif
#   From: 2010.05.17/outbox.cif.g08.bks.cpg/sg4_6_cif.got.tgz:11127.got - 2010.06.03 18:43:04.
