data_PCOD9118205
_publ_section_title
;
Structure prediction by ZEFSAII (Michael W. Deem and Ramdas Pophale) SiO2 
 PCOD9118205
Probable space group: P 21
;
_chemical_formula_sum "Si O2"
_cell_formula_units_Z 10
_cell_length_a 4.965000
_cell_length_b 8.758958
_cell_length_c 10.420119
_cell_angle_alpha 90.000000
_cell_angle_beta 121.835184
_cell_angle_gamma 90.000000
_cell_volume 384.984285
_symmetry_space_group_name_H-M "P 21"
_symmetry_group_IT_number 4
_symmetry_cell_setting 'monoclinic'
loop_
_space_group_symop_operation_xyz
x,y,z
-x,1/2+y,-z
loop_
_atom_site_type_symbol
_atom_site_label
_atom_site_fract_x
_atom_site_fract_y
_atom_site_fract_z
Si Si1 0.828962 0.486510 0.347338
Si Si2 0.592039 0.402396 0.868785
Si Si3 0.342244 0.725098 0.849626
Si Si4 0.068256 0.766943 0.293553
Si Si5 0.280567 0.223502 0.452812
O O1 0.929545 0.596111 0.254919
O O2 0.137656 0.387164 0.455910
O O3 0.580477 0.362799 0.231300
O O4 0.731112 0.596467 0.438107
O O5 0.578305 0.583330 0.892152
O O6 0.797044 0.337630 0.803077
O O7 0.229174 0.366192 0.743833
O O8 0.658245 0.301656 0.011543
O O9 0.977362 0.679855 0.719925
O O10 0.346848 0.753532 0.470150
#
# Coordination Sequence:
#
# PCOD9118205 Si02
#       5
#     2   2   2   2   2
#     4  10  24  47  81 113 157 201 268 314 400 446
#     4  12  27  53  74 116 157 210 262 315 404 456
#     4  10  27  50  79 116 157 213 253 333 381 481
#     4  12  26  49  80 110 159 205 260 327 380 480
#     4  10  24  47  80 113 152 203 263 319 385 461
#
# _framework density 25.975089000000001
#
# number of rings (size 3 to 8) (size 9 to 14) (size 15 to 20)
#    1.200    0.000    2.000    2.400    2.800    3.200 
#    7.200    0.000    0.000    0.000    0.000    0.000 
#    0.000    0.000    0.000    0.000    0.000    0.000 
#
# Total GULP energy -55914.241293 kJ/mol
# GULP energy per Si atom -5591.424129 kJ/mol
# Density = 2.591597 g / cm^3
# Si number density = 25.975089 Si / 1000 Ang^3
#
#
#
# Elastic Constant Matrix: (Units=GPa)
#
#
# Indices 1 2 3 4 5 6 
#
# 1 85.8260 48.2926 22.1428 0.0000 -20.0801 0.0000
# 2 48.2926 202.4093 50.8244 0.0000 -26.9732 0.0000
# 3 22.1428 50.8244 133.9864 0.0000 -23.6902 0.0000
# 4 0.0000 0.0000 0.0000 54.6129 0.0000 -6.5131
# 5 -20.0801 -26.9732 -23.6902 0.0000 33.6099 0.0000
# 6 0.0000 0.0000 0.0000 -6.5131 0.0000 30.7080
#
#
#
# Elastic Compliance Matrix: (Units=1/GPa)
#
#
# Indices 1 2 3 4 5 6 
#
# 1 0.014694 -0.002562 -0.000306 0.000000 0.006507 0.000000
# 2 -0.002562 0.006256 -0.001522 0.000000 0.002417 0.000000
# 3 -0.000306 -0.001522 0.008960 0.000000 0.004911 0.000000
# 4 0.000000 0.000000 0.000000 0.018786 0.000000 0.003984
# 5 0.006507 0.002417 0.004911 0.000000 0.039042 0.000000
# 6 0.000000 0.000000 0.000000 0.003984 0.000000 0.033410
#
#
# Mechanical properties :
#
#
# Convention : Reuss Voigt Hill
#
# Bulk Modulus (GPa) = 47.32670 73.86017 60.59343
# Shear Modulus (GPa) = 36.50377 43.85029 40.17703
#
# Velocity S-wave (km/s) = 3.75285 4.11319 3.93714
# Velocity P-wave (km/s) = 6.08589 7.14524 6.63674
#
# Compressibility (1/GPa) = 0.02112972
#
# Stress axis : x y z
#
# Youngs Moduli (GPa) = 68.05281 159.84434 111.61008
#
# Poissons Ratio (x) = 0.40951 0.03416
# Poissons Ratio (y) = 0.17435 0.16991
# Poissons Ratio (z) = 0.02083 0.24334
#
# Static dielectric constant tensor:
#      x y z
#    x 2.022390 0.000000 -0.007860 
#    y 0.000000 2.133330 0.000000 
#    z -0.007860 0.000000 2.076140 
# 
# From -- ./inp_files/10278.got.cif
#   From: 2010.05.17/outbox.cif.g08.bks.cpg/sg4_6_cif.got.tgz:10278.got - 2010.06.03 18:43:04.
