data_PCOD9118128
_publ_section_title
;
Structure prediction by ZEFSAII (Michael W. Deem and Ramdas Pophale) SiO2 
 PCOD9118128
Probable space group: P 21
;
_chemical_formula_sum "Si O2"
_cell_formula_units_Z 14
_cell_length_a 9.991269
_cell_length_b 7.779232
_cell_length_c 9.616259
_cell_angle_alpha 90.000000
_cell_angle_beta 138.256149
_cell_angle_gamma 90.000000
_cell_volume 497.632068
_symmetry_space_group_name_H-M "P 21"
_symmetry_group_IT_number 4
_symmetry_cell_setting 'monoclinic'
loop_
_space_group_symop_operation_xyz
x,y,z
-x,1/2+y,-z
loop_
_atom_site_type_symbol
_atom_site_label
_atom_site_fract_x
_atom_site_fract_y
_atom_site_fract_z
Si Si1 0.816399 0.339360 0.716178
Si Si2 0.384340 0.805230 0.172874
Si Si3 0.163524 0.942677 0.567795
Si Si4 0.381842 0.514495 0.970926
Si Si5 0.195758 0.233407 0.190115
Si Si6 0.391581 0.173959 0.084674
Si Si7 0.856522 0.813613 0.552454
O O1 0.646054 0.266828 0.688407
O O2 0.820304 0.316970 0.553768
O O3 0.799705 0.542729 0.741426
O O4 0.015251 0.264789 0.942700
O O5 0.298276 0.647397 0.018652
O O6 0.621124 0.822483 0.331016
O O7 0.298889 0.986332 0.049479
O O8 0.386904 0.975261 0.801457
O O9 0.009558 0.911864 0.572909
O O10 0.087321 0.117601 0.438429
O O11 0.290936 0.323446 0.911191
O O12 0.412356 0.618218 0.852340
O O13 0.386723 0.257239 0.235512
O O14 0.152581 0.352316 0.289903
#
# Coordination Sequence:
#
# PCOD9118128 Si02
#       7
#     2   2   2   2   2   2   2
#     4  10  24  46  68  99 137 179 226 285 342 409
#     4  10  24  46  70  98 140 178 224 288 340 406
#     4  10  25  43  68  99 136 175 235 276 348 410
#     4  11  24  43  69 103 137 179 230 283 346 409
#     4  10  25  43  68  99 136 175 235 276 348 410
#     4  11  24  43  69 103 137 179 230 283 346 409
#     4  10  24  46  68  99 137 179 226 285 342 409
#
# _framework density 28.133237000000001
#
# number of rings (size 3 to 8) (size 9 to 14) (size 15 to 20)
#    0.000    1.714    1.429    0.000   14.000    0.000 
#    0.000    0.000    0.000    0.000    0.000    0.000 
#    0.000    0.000    0.000    0.000    0.000    0.000 
#
# Total GULP energy -78286.771945 kJ/mol
# GULP energy per Si atom -5591.912282 kJ/mol
# Density = 2.806920 g / cm^3
# Si number density = 28.133237 Si / 1000 Ang^3
#
#
#
# Elastic Constant Matrix: (Units=GPa)
#
#
# Indices 1 2 3 4 5 6 
#
# 1 225.4414 40.0377 74.2586 0.0000 -50.1058 0.0000
# 2 40.0377 112.0236 18.6738 0.0000 -20.5993 0.0000
# 3 74.2586 18.6738 122.4374 0.0000 -34.0386 0.0000
# 4 0.0000 0.0000 0.0000 26.5561 0.0000 -11.2642
# 5 -50.1058 -20.5993 -34.0386 0.0000 65.9823 0.0000
# 6 0.0000 0.0000 0.0000 -11.2642 0.0000 42.5625
#
#
#
# Elastic Compliance Matrix: (Units=1/GPa)
#
#
# Indices 1 2 3 4 5 6 
#
# 1 0.006212 -0.001224 -0.002774 0.000000 0.002905 0.000000
# 2 -0.001224 0.009767 -0.000185 0.000000 0.002025 0.000000
# 3 -0.002774 -0.000185 0.010829 0.000000 0.003423 0.000000
# 4 0.000000 0.000000 0.000000 0.042418 0.000000 0.011226
# 5 0.002905 0.002025 0.003423 0.000000 0.019759 0.000000
# 6 0.000000 0.000000 0.000000 0.011226 0.000000 0.026466
#
#
# Mechanical properties :
#
#
# Convention : Reuss Voigt Hill
#
# Bulk Modulus (GPa) = 54.21568 80.64919 67.43244
# Shear Modulus (GPa) = 38.47229 48.81566 43.64397
#
# Velocity S-wave (km/s) = 3.70199 4.17004 3.94297
# Velocity P-wave (km/s) = 6.13073 7.20519 6.68957
#
# Compressibility (1/GPa) = 0.01844485
#
# Stress axis : x y z
#
# Youngs Moduli (GPa) = 160.97231 102.38381 92.34184
#
# Poissons Ratio (x) = 0.12530 0.25612
# Poissons Ratio (y) = 0.19700 0.01704
# Poissons Ratio (z) = 0.44647 0.01889
#
# Static dielectric constant tensor:
#      x y z
#    x 2.274290 0.000000 0.035370 
#    y 0.000000 2.254230 0.000000 
#    z 0.035370 0.000000 2.265570 
# 
# From -- ./inp_files/5231.got.cif
#   From: 2010.05.17/outbox.cif.g08.bks.cpg/sg4_3_cif.got.tgz:5231.got - 2010.06.03 18:43:04.
