data_PCOD9118199
_publ_section_title
;
Structure prediction by ZEFSAII (Michael W. Deem and Ramdas Pophale) SiO2 
 PCOD9118199
Probable space group: P 21
;
_chemical_formula_sum "Si O2"
_cell_formula_units_Z 16
_cell_length_a 9.227553
_cell_length_b 6.069059
_cell_length_c 11.451492
_cell_angle_alpha 90.000000
_cell_angle_beta 97.407014
_cell_angle_gamma 90.000000
_cell_volume 635.961402
_symmetry_space_group_name_H-M "P 21"
_symmetry_group_IT_number 4
_symmetry_cell_setting 'monoclinic'
loop_
_space_group_symop_operation_xyz
x,y,z
-x,1/2+y,-z
loop_
_atom_site_type_symbol
_atom_site_label
_atom_site_fract_x
_atom_site_fract_y
_atom_site_fract_z
Si Si1 0.177118 0.917260 0.932083
Si Si2 0.123523 0.585621 0.465298
Si Si3 0.137459 0.227136 0.132866
Si Si4 0.359759 0.949045 0.531152
Si Si5 0.668686 0.781698 0.647382
Si Si6 0.973388 0.927038 0.302541
Si Si7 0.547108 0.214400 0.957164
Si Si8 0.691453 0.694400 0.248314
O O1 0.005529 0.871170 0.905040
O O2 0.241184 0.984548 0.813593
O O3 0.278417 0.732955 0.003732
O O4 0.190540 0.127291 0.017585
O O5 0.200897 0.378748 0.415938
O O6 0.029667 0.542828 0.570870
O O7 0.036024 0.692394 0.348970
O O8 0.251581 0.745681 0.522787
O O9 0.278349 0.315981 0.215971
O O10 0.071167 0.041634 0.215042
O O11 0.356036 0.032729 0.397947
O O12 0.311306 0.136556 0.616595
O O13 0.519864 0.894052 0.593196
O O14 0.807198 0.891947 0.242958
O O15 0.467357 0.231748 0.823419
O O16 0.497925 0.462610 0.004635
#
# Coordination Sequence:
#
# PCOD9118199 Si02
#       8
#     2   2   2   2   2   2   2   2
#     4  11  26  47  72 107 151 195 258 308 379 449
#     4  12  24  43  71 100 152 183 242 299 367 452
#     4  12  26  45  72 104 150 198 243 311 375 445
#     4  12  25  46  71 107 146 189 239 303 372 454
#     4  12  26  47  72 105 147 192 241 306 378 443
#     4  12  23  41  70 102 144 188 242 292 370 441
#     4  10  24  47  76 107 149 198 259 319 378 449
#     4  11  24  44  74 108 143 195 244 310 375 451
#
# _framework density 25.158759
#
# number of rings (size 3 to 8) (size 9 to 14) (size 15 to 20)
#    0.000    0.500    3.750    4.500    0.000   10.000 
#    0.000    0.000    0.000    0.000    0.000    0.000 
#    0.000    0.000    0.000    0.000    0.000    0.000 
#
# Total GULP energy -89460.558716 kJ/mol
# GULP energy per Si atom -5591.284920 kJ/mol
# Density = 2.510150 g / cm^3
# Si number density = 25.158759 Si / 1000 Ang^3
#
#
#
# Elastic Constant Matrix: (Units=GPa)
#
#
# Indices 1 2 3 4 5 6 
#
# 1 90.5140 19.5087 16.4657 0.0000 32.7665 0.0000
# 2 19.5087 59.7254 20.0299 0.0000 12.6334 0.0000
# 3 16.4657 20.0299 102.5957 0.0000 34.7861 0.0000
# 4 0.0000 0.0000 0.0000 44.4050 0.0000 10.5500
# 5 32.7665 12.6334 34.7861 0.0000 46.9904 0.0000
# 6 0.0000 0.0000 0.0000 10.5500 0.0000 52.8591
#
#
#
# Elastic Compliance Matrix: (Units=1/GPa)
#
#
# Indices 1 2 3 4 5 6 
#
# 1 0.015541 -0.003339 0.002040 0.000000 -0.011449 0.000000
# 2 -0.003339 0.018950 -0.002972 0.000000 -0.000567 0.000000
# 3 0.002040 -0.002972 0.013633 0.000000 -0.010716 0.000000
# 4 0.000000 0.000000 0.000000 0.023641 0.000000 -0.004718
# 5 -0.011449 -0.000567 -0.010716 0.000000 0.037349 0.000000
# 6 0.000000 0.000000 0.000000 -0.004718 0.000000 0.019860
#
#
# Mechanical properties :
#
#
# Convention : Reuss Voigt Hill
#
# Bulk Modulus (GPa) = 25.26326 40.53817 32.90071
# Shear Modulus (GPa) = 33.17613 41.97296 37.57455
#
# Velocity S-wave (km/s) = 3.63529 4.08894 3.86877
# Velocity P-wave (km/s) = 5.26154 6.20004 5.74997
#
# Compressibility (1/GPa) = 0.03958318
#
# Stress axis : x y z
#
# Youngs Moduli (GPa) = 64.34497 52.76950 73.35125
#
# Poissons Ratio (x) = 0.17618 -0.14960
# Poissons Ratio (y) = 0.21482 0.21798
# Poissons Ratio (z) = -0.13123 0.15681
#
# Static dielectric constant tensor:
#      x y z
#    x 2.037170 0.000000 0.023640 
#    y 0.000000 2.077710 0.000000 
#    z 0.023640 0.000000 1.931030 
# 
# From -- ./inp_files/9002.got.cif
#   From: 2010.05.17/outbox.cif.g08.bks.cpg/sg4_5_cif.got.tgz:9002.got - 2010.06.03 18:43:04.
