data_PCOD9118995
_publ_section_title
;
Structure prediction by ZEFSAII (Michael W. Deem and Ramdas Pophale) SiO2 
 PCOD9118995
Probable space group: P 21
;
_chemical_formula_sum "Si O2"
_cell_formula_units_Z 10
_cell_length_a 11.032721
_cell_length_b 5.766154
_cell_length_c 11.605475
_cell_angle_alpha 90.000000
_cell_angle_beta 144.318673
_cell_angle_gamma 90.000000
_cell_volume 430.631987
_symmetry_space_group_name_H-M "P 21"
_symmetry_group_IT_number 4
_symmetry_cell_setting 'monoclinic'
loop_
_space_group_symop_operation_xyz
x,y,z
-x,1/2+y,-z
loop_
_atom_site_type_symbol
_atom_site_label
_atom_site_fract_x
_atom_site_fract_y
_atom_site_fract_z
Si Si1 0.094023 0.318090 0.720432
Si Si2 0.122791 0.018705 0.093452
Si Si3 0.794511 0.954668 0.445665
Si Si4 0.584123 0.755405 0.846159
Si Si5 0.690525 0.562242 0.514757
O O1 0.145875 0.329532 0.625890
O O2 0.901974 0.476130 0.613275
O O3 0.288685 0.368218 0.951794
O O4 0.999154 0.061799 0.660477
O O5 0.264013 0.065179 0.091513
O O6 0.264456 0.025179 0.317442
O O7 0.985723 0.262243 0.993951
O O8 0.677739 0.820343 0.456885
O O9 0.631468 0.148417 0.277940
O O10 0.509204 0.927241 0.687223
#
# Coordination Sequence:
#
# PCOD9118995 Si02
#       5
#     2   2   2   2   2
#     4  11  23  48  66 105 141 186 236 296 373 426
#     4  12  28  51  78 105 149 196 243 306 368 431
#     4  11  25  42  73 100 145 185 236 304 357 445
#     4  11  28  43  72 107 138 188 247 298 364 434
#     4  11  26  46  73 101 141 187 242 298 364 434
#
# _framework density 23.221685999999998
#
# number of rings (size 3 to 8) (size 9 to 14) (size 15 to 20)
#    0.000    0.800    4.000    1.200   11.200    1.600 
#    0.000    0.000    0.000    0.000    0.000    0.000 
#    0.000    0.000    0.000    0.000    0.000    0.000 
#
# Total GULP energy -55828.025983 kJ/mol
# GULP energy per Si atom -5582.802598 kJ/mol
# Density = 2.316883 g / cm^3
# Si number density = 23.221686 Si / 1000 Ang^3
#
#
#
# Elastic Constant Matrix: (Units=GPa)
#
#
# Indices 1 2 3 4 5 6 
#
# 1 47.3019 -6.9884 7.2119 0.0000 -11.0990 0.0000
# 2 -6.9884 65.9595 33.6568 0.0000 3.4967 0.0000
# 3 7.2119 33.6568 165.0914 0.0000 -19.6373 0.0000
# 4 0.0000 0.0000 0.0000 31.2149 0.0000 4.8095
# 5 -11.0990 3.4967 -19.6373 0.0000 30.7515 0.0000
# 6 0.0000 0.0000 0.0000 4.8095 0.0000 35.4354
#
#
#
# Elastic Compliance Matrix: (Units=1/GPa)
#
#
# Indices 1 2 3 4 5 6 
#
# 1 0.023410 0.002359 -0.000574 0.000000 0.007815 0.000000
# 2 0.002359 0.017745 -0.004177 0.000000 -0.003834 0.000000
# 3 -0.000574 -0.004177 0.007538 0.000000 0.005082 0.000000
# 4 0.000000 0.000000 0.000000 0.032720 0.000000 -0.004441
# 5 0.007815 -0.003834 0.005082 0.000000 0.039020 0.000000
# 6 0.000000 0.000000 0.000000 -0.004441 0.000000 0.028823
#
#
# Mechanical properties :
#
#
# Convention : Reuss Voigt Hill
#
# Bulk Modulus (GPa) = 22.77366 38.45706 30.61536
# Shear Modulus (GPa) = 29.64230 35.77852 32.71041
#
# Velocity S-wave (km/s) = 3.57668 3.92948 3.75722
# Velocity P-wave (km/s) = 5.18509 6.09791 5.65994
#
# Compressibility (1/GPa) = 0.04391037
#
# Stress axis : x y z
#
# Youngs Moduli (GPa) = 42.71590 56.35324 132.65644
#
# Poissons Ratio (x) = -0.13294 0.07615
# Poissons Ratio (y) = -0.10077 0.55407
# Poissons Ratio (z) = 0.02452 0.23537
#
# Static dielectric constant tensor:
#      x y z
#    x 1.827210 0.000000 0.005800 
#    y 0.000000 2.007270 0.000000 
#    z 0.005800 0.000000 1.821420 
# 
# From -- ./inp_files/883.got.cif
#   From: 2010.05.17/outbox.cif.g08.bks.cpg/sg4_1_cif.got.tgz:883.got - 2010.06.03 18:43:04.
