data_PCOD9118755
_publ_section_title
;
Structure prediction by ZEFSAII (Michael W. Deem and Ramdas Pophale) SiO2 
 PCOD9118755
Probable space group: P 21
;
_chemical_formula_sum "Si O2"
_cell_formula_units_Z 16
_cell_length_a 5.682761
_cell_length_b 8.871330
_cell_length_c 13.312286
_cell_angle_alpha 90.000000
_cell_angle_beta 93.244310
_cell_angle_gamma 90.000000
_cell_volume 670.045294
_symmetry_space_group_name_H-M "P 21"
_symmetry_group_IT_number 4
_symmetry_cell_setting 'monoclinic'
loop_
_space_group_symop_operation_xyz
x,y,z
-x,1/2+y,-z
loop_
_atom_site_type_symbol
_atom_site_label
_atom_site_fract_x
_atom_site_fract_y
_atom_site_fract_z
Si Si1 0.396272 0.294140 0.556441
Si Si2 0.569235 0.659506 0.104045
Si Si3 0.888849 0.626379 0.800999
Si Si4 0.225171 0.690784 0.282495
Si Si5 0.732425 0.452962 0.428145
Si Si6 0.016399 0.449351 0.632739
Si Si7 0.918553 0.435671 0.224879
Si Si8 0.601308 0.012746 0.104318
O O1 0.620184 0.233358 0.620551
O O2 0.490586 0.376318 0.460821
O O3 0.291909 0.428800 0.622727
O O4 0.255535 0.136229 0.557957
O O5 0.382402 0.672940 0.189179
O O6 0.777511 0.546111 0.145702
O O7 0.632010 0.833884 0.088572
O O8 0.448779 0.591785 0.003055
O O9 0.641833 0.558172 0.838586
O O10 0.905146 0.595438 0.680847
O O11 0.929402 0.803999 0.820862
O O12 0.145110 0.566801 0.847242
O O13 0.040683 0.826112 0.282023
O O14 0.096637 0.536470 0.292218
O O15 0.751698 0.392980 0.314508
O O16 0.924322 0.409298 0.518531
#
# Coordination Sequence:
#
# PCOD9118755 Si02
#       8
#     2   2   2   2   2   2   2   2
#     4  11  25  44  67 105 145 199 253 316 384 460
#     4  12  27  51  81 113 155 207 257 333 401 479
#     4  12  30  50  77 121 155 207 263 332 391 480
#     4  11  22  46  73 100 146 201 248 314 395 463
#     4  11  27  41  71 106 147 200 255 315 389 472
#     4  11  25  46  71 104 151 203 254 316 395 468
#     4  12  28  46  77 112 157 201 263 327 397 474
#     4  12  30  52  83 115 158 206 267 327 404 474
#
# _framework density 23.878979999999999
#
# number of rings (size 3 to 8) (size 9 to 14) (size 15 to 20)
#    0.000    0.500    3.750    2.250   12.250    0.000 
#    0.000    0.000    0.000    0.000    0.000    0.000 
#    0.000    0.000    0.000    0.000    0.000    0.000 
#
# Total GULP energy -89176.181275 kJ/mol
# GULP energy per Si atom -5573.511330 kJ/mol
# Density = 2.382463 g / cm^3
# Si number density = 23.878980 Si / 1000 Ang^3
#
#
#
# Elastic Constant Matrix: (Units=GPa)
#
#
# Indices 1 2 3 4 5 6 
#
# 1 374.8180 -173.8705 318.1461 0.0000 -200.6673 0.0000
# 2 -173.8705 200.9756 -176.4416 0.0000 128.3815 0.0000
# 3 318.1461 -176.4416 339.6512 0.0000 -185.6837 0.0000
# 4 0.0000 0.0000 0.0000 43.1764 0.0000 1.2573
# 5 -200.6673 128.3815 -185.6837 0.0000 170.4186 0.0000
# 6 0.0000 0.0000 0.0000 1.2573 0.0000 25.3305
#
#
#
# Elastic Compliance Matrix: (Units=1/GPa)
#
#
# Indices 1 2 3 4 5 6 
#
# 1 0.015086 -0.000604 -0.011091 0.000000 0.006134 0.000000
# 2 -0.000604 0.010603 0.003261 0.000000 -0.005147 0.000000
# 3 -0.011091 0.003261 0.016185 0.000000 0.002119 0.000000
# 4 0.000000 0.000000 0.000000 0.023194 0.000000 -0.001151
# 5 0.006134 -0.005147 0.002119 0.000000 0.019277 0.000000
# 6 0.000000 0.000000 0.000000 -0.001151 0.000000 0.039535
#
#
# Mechanical properties :
#
#
# Convention : Reuss Voigt Hill
#
# Bulk Modulus (GPa) = 39.99323 94.56810 67.28067
# Shear Modulus (GPa) = 33.53769 110.95915 72.24842
#
# Velocity S-wave (km/s) = 3.75171 6.82409 5.50652
# Velocity P-wave (km/s) = 5.96253 10.08860 8.28649
#
# Compressibility (1/GPa) = 0.02500423
#
# Stress axis : x y z
#
# Youngs Moduli (GPa) = 66.28676 94.31311 61.78375
#
# Poissons Ratio (x) = 0.05701 0.68526
# Poissons Ratio (y) = 0.04007 -0.20145
# Poissons Ratio (z) = 0.73520 -0.30752
#
# Static dielectric constant tensor:
#      x y z
#    x 1.977800 0.000000 0.005960 
#    y 0.000000 1.671270 0.000000 
#    z 0.005960 0.000000 1.911850 
# 
# From -- ./inp_files/13210.got.cif
#   From: 2010.05.17/outbox.cif.g08.bks.cpg/sg4_7_cif.got.tgz:13210.got - 2010.06.03 18:43:04.
