data_PCOD9118763
_publ_section_title
;
Structure prediction by ZEFSAII (Michael W. Deem and Ramdas Pophale) SiO2 
 PCOD9118763
Probable space group: P 21
;
_chemical_formula_sum "Si O2"
_cell_formula_units_Z 16
_cell_length_a 12.102128
_cell_length_b 10.963351
_cell_length_c 6.600272
_cell_angle_alpha 90.000000
_cell_angle_beta 53.152511
_cell_angle_gamma 90.000000
_cell_volume 700.784068
_symmetry_space_group_name_H-M "P 21"
_symmetry_group_IT_number 4
_symmetry_cell_setting 'monoclinic'
loop_
_space_group_symop_operation_xyz
x,y,z
-x,1/2+y,-z
loop_
_atom_site_type_symbol
_atom_site_label
_atom_site_fract_x
_atom_site_fract_y
_atom_site_fract_z
Si Si1 0.610015 0.906950 0.323032
Si Si2 0.846695 0.843340 0.741993
Si Si3 0.118530 0.711640 0.956666
Si Si4 0.314995 0.718336 0.127176
Si Si5 0.216141 0.516739 0.531242
Si Si6 0.860339 0.379749 0.413964
Si Si7 0.535873 0.669955 0.576501
Si Si8 0.169370 0.159329 0.572547
O O1 0.689215 0.922772 0.450110
O O2 0.521500 0.781768 0.432417
O O3 0.530470 0.036249 0.388095
O O4 0.727624 0.889620 0.023331
O O5 0.870034 0.945086 0.541949
O O6 0.799032 0.723405 0.674915
O O7 0.993488 0.819451 0.684836
O O8 0.136627 0.596080 0.786884
O O9 0.171432 0.828097 0.773401
O O10 0.207996 0.693247 0.060108
O O11 0.959697 0.728473 0.187261
O O12 0.305507 0.612344 0.303707
O O13 0.259158 0.837521 0.302002
O O14 0.462217 0.720137 0.860019
O O15 0.880602 0.522207 0.401539
O O16 0.697590 0.653404 0.433086
#
# Coordination Sequence:
#
# PCOD9118763 Si02
#       8
#     2   2   2   2   2   2   2   2
#     4  12  27  49  74 107 154 205 252 314 387 462
#     4  12  25  48  74 108 150 200 247 315 391 449
#     4  11  24  48  73 108 148 197 243 308 393 445
#     4  11  24  47  74 104 147 197 242 304 385 456
#     4  11  22  46  80  98 143 198 245 299 385 454
#     4  11  27  43  77 109 146 192 257 320 368 463
#     4  12  28  48  74 110 151 203 253 311 386 460
#     4  12  27  45  72 114 145 190 259 317 369 457
#
# _framework density 22.831569999999999
#
# number of rings (size 3 to 8) (size 9 to 14) (size 15 to 20)
#    0.000    0.500    5.000    2.250    5.250    4.000 
#    0.000    0.000    0.000    0.000    0.000    0.000 
#    0.000    0.000    0.000    0.000    0.000    0.000 
#
# Total GULP energy -89515.515799 kJ/mol
# GULP energy per Si atom -5594.719737 kJ/mol
# Density = 2.277960 g / cm^3
# Si number density = 22.831570 Si / 1000 Ang^3
#
#
#
# Elastic Constant Matrix: (Units=GPa)
#
#
# Indices 1 2 3 4 5 6 
#
# 1 68.1443 5.0017 20.0221 0.0000 -0.3421 0.0000
# 2 5.0017 95.6170 29.1313 0.0000 10.5601 0.0000
# 3 20.0221 29.1313 116.5653 0.0000 5.1101 0.0000
# 4 0.0000 0.0000 0.0000 23.2009 0.0000 -6.1031
# 5 -0.3421 10.5601 5.1101 0.0000 34.4346 0.0000
# 6 0.0000 0.0000 0.0000 -6.1031 0.0000 29.4997
#
#
#
# Elastic Compliance Matrix: (Units=1/GPa)
#
#
# Indices 1 2 3 4 5 6 
#
# 1 0.015465 -0.000059 -0.002667 0.000000 0.000568 0.000000
# 2 -0.000059 0.011653 -0.002763 0.000000 -0.003164 0.000000
# 3 -0.002667 -0.002763 0.009755 0.000000 -0.000627 0.000000
# 4 0.000000 0.000000 0.000000 0.045582 0.000000 0.009430
# 5 0.000568 -0.003164 -0.000627 0.000000 0.030110 0.000000
# 6 0.000000 0.000000 0.000000 0.009430 0.000000 0.035850
#
#
# Mechanical properties :
#
#
# Convention : Reuss Voigt Hill
#
# Bulk Modulus (GPa) = 38.61752 43.18189 40.89970
# Shear Modulus (GPa) = 29.75753 32.50514 31.13134
#
# Velocity S-wave (km/s) = 3.61411 3.77728 3.69660
# Velocity P-wave (km/s) = 5.86230 6.16264 6.01434
#
# Compressibility (1/GPa) = 0.02589498
#
# Stress axis : x y z
#
# Youngs Moduli (GPa) = 64.66042 85.81609 102.51190
#
# Poissons Ratio (x) = 0.00509 0.27335
# Poissons Ratio (y) = 0.00383 0.28327
# Poissons Ratio (z) = 0.17242 0.23714
#
# Static dielectric constant tensor:
#      x y z
#    x 1.831200 0.000000 0.008740 
#    y 0.000000 1.887100 0.000000 
#    z 0.008740 0.000000 1.822870 
# 
# From -- ./inp_files/2812.got.cif
#   From: 2010.05.17/outbox.cif.g08.bks.cpg/sg4_2_cif.got.tgz:2812.got - 2010.06.03 18:43:04.
