data_PCOD9118892
_publ_section_title
;
Structure prediction by ZEFSAII (Michael W. Deem and Ramdas Pophale) SiO2 
 PCOD9118892
Probable space group: P 21
;
_chemical_formula_sum "Si O2"
_cell_formula_units_Z 14
_cell_length_a 20.975886
_cell_length_b 5.173144
_cell_length_c 23.559547
_cell_angle_alpha 90.000000
_cell_angle_beta 11.524075
_cell_angle_gamma 90.000000
_cell_volume 510.732045
_symmetry_space_group_name_H-M "P 21"
_symmetry_group_IT_number 4
_symmetry_cell_setting 'monoclinic'
loop_
_space_group_symop_operation_xyz
x,y,z
-x,1/2+y,-z
loop_
_atom_site_type_symbol
_atom_site_label
_atom_site_fract_x
_atom_site_fract_y
_atom_site_fract_z
Si Si1 0.667571 0.709020 0.847127
Si Si2 0.878740 0.296965 0.078685
Si Si3 0.720442 0.067045 0.620352
Si Si4 0.944215 0.657913 0.293632
Si Si5 0.357484 0.341804 0.843111
Si Si6 0.506115 0.565814 0.866000
Si Si7 0.849551 0.956239 0.270643
O O1 0.698220 0.612400 0.756001
O O2 0.925946 0.639759 0.668842
O O3 0.378407 0.515551 0.115491
O O4 0.530817 0.424270 0.395188
O O5 0.885718 0.014406 0.100645
O O6 0.005468 0.265035 0.903325
O O7 0.597408 0.137015 0.664985
O O8 0.532425 0.268035 0.825638
O O9 0.651467 0.773323 0.695707
O O10 0.599900 0.528007 0.598809
O O11 0.929548 0.911583 0.267654
O O12 0.172064 0.488577 0.054539
O O13 0.133877 0.653965 0.187495
O O14 0.067862 0.201414 0.063882
#
# Coordination Sequence:
#
# PCOD9118892 Si02
#       7
#     2   2   2   2   2   2   2
#     4  12  24  40  64  98 138 200 256 326 394 464
#     4  12  30  52  82 116 160 204 260 316 390 482
#     4  11  23  44  66 100 144 199 259 322 392 464
#     4  11  25  45  74 113 156 204 261 325 392 467
#     4  11  25  45  74 113 156 204 261 325 392 467
#     4  11  23  44  66 100 144 199 259 322 392 464
#     4  12  26  50  80 116 156 210 256 324 396 466
#
# _framework density 27.411633999999999
#
# number of rings (size 3 to 8) (size 9 to 14) (size 15 to 20)
#    0.000    0.571    1.429    6.000    6.000    2.286 
#    2.571    0.000    0.000    0.000    0.000    0.000 
#    0.000    0.000    0.000    0.000    0.000    0.000 
#
# Total GULP energy -78297.461285 kJ/mol
# GULP energy per Si atom -5592.675806 kJ/mol
# Density = 2.734924 g / cm^3
# Si number density = 27.411634 Si / 1000 Ang^3
#
#
#
# Elastic Constant Matrix: (Units=GPa)
#
#
# Indices 1 2 3 4 5 6 
#
# 1 90.3172 37.5048 33.9442 0.0000 23.7654 0.0000
# 2 37.5048 86.9904 32.1033 0.0000 2.9783 0.0000
# 3 33.9442 32.1033 179.3599 0.0000 10.7787 0.0000
# 4 0.0000 0.0000 0.0000 36.2887 0.0000 -4.3802
# 5 23.7654 2.9783 10.7787 0.0000 41.9018 0.0000
# 6 0.0000 0.0000 0.0000 -4.3802 0.0000 49.8800
#
#
#
# Elastic Compliance Matrix: (Units=1/GPa)
#
#
# Indices 1 2 3 4 5 6 
#
# 1 0.016471 -0.006262 -0.001485 0.000000 -0.008515 0.000000
# 2 -0.006262 0.014693 -0.001621 0.000000 0.002924 0.000000
# 3 -0.001485 -0.001621 0.006184 0.000000 -0.000634 0.000000
# 4 0.000000 0.000000 0.000000 0.027852 0.000000 0.002446
# 5 -0.008515 0.002924 -0.000634 0.000000 0.028650 0.000000
# 6 0.000000 0.000000 0.000000 0.002446 0.000000 0.020263
#
#
# Mechanical properties :
#
#
# Convention : Reuss Voigt Hill
#
# Bulk Modulus (GPa) = 53.72153 62.64132 58.18142
# Shear Modulus (GPa) = 35.95777 42.48843 39.22310
#
# Velocity S-wave (km/s) = 3.62577 3.94129 3.78682
# Velocity P-wave (km/s) = 6.09663 6.60405 6.35540
#
# Compressibility (1/GPa) = 0.01861451
#
# Stress axis : x y z
#
# Youngs Moduli (GPa) = 60.71345 68.05890 161.69462
#
# Poissons Ratio (x) = 0.42617 0.24006
# Poissons Ratio (y) = 0.38017 0.26204
# Poissons Ratio (z) = 0.09014 0.11029
#
# Static dielectric constant tensor:
#      x y z
#    x 2.404030 0.000000 -0.046920 
#    y 0.000000 2.151840 0.000000 
#    z -0.046920 0.000000 2.181880 
# 
# From -- ./inp_files/15917.got.cif
#   From: 2010.05.17/outbox.cif.g08.bks.cpg/sg4_8_cif.got.tgz:15917.got - 2010.06.03 18:43:04.
