data_PCOD9118155
_publ_section_title
;
Structure prediction by ZEFSAII (Michael W. Deem and Ramdas Pophale) SiO2 
 PCOD9118155
Probable space group: P 21
;
_chemical_formula_sum "Si O2"
_cell_formula_units_Z 14
_cell_length_a 9.447684
_cell_length_b 5.499658
_cell_length_c 14.539079
_cell_angle_alpha 90.000000
_cell_angle_beta 132.999571
_cell_angle_gamma 90.000000
_cell_volume 552.495105
_symmetry_space_group_name_H-M "P 21"
_symmetry_group_IT_number 4
_symmetry_cell_setting 'monoclinic'
loop_
_space_group_symop_operation_xyz
x,y,z
-x,1/2+y,-z
loop_
_atom_site_type_symbol
_atom_site_label
_atom_site_fract_x
_atom_site_fract_y
_atom_site_fract_z
Si Si1 0.767012 0.097170 0.933679
Si Si2 0.468246 0.749883 0.861045
Si Si3 0.005539 0.311079 0.622841
Si Si4 0.206702 0.054911 0.858002
Si Si5 0.892009 0.790155 0.818980
Si Si6 0.426513 0.986966 0.272999
Si Si7 0.809707 0.805775 0.498958
O O1 0.726922 0.334369 0.855282
O O2 0.567189 0.012859 0.888550
O O3 0.836207 0.892571 0.894386
O O4 0.926152 0.116937 0.082271
O O5 0.454631 0.636888 0.752905
O O6 0.275120 0.822558 0.828347
O O7 0.625757 0.606725 0.992946
O O8 0.889480 0.561989 0.581625
O O9 0.171788 0.274272 0.772250
O O10 0.101584 0.302171 0.564640
O O11 0.875415 0.065579 0.569160
O O12 0.998244 0.002290 0.811277
O O13 0.695016 0.650124 0.709055
O O14 0.578385 0.810332 0.388199
#
# Coordination Sequence:
#
# PCOD9118155 Si02
#       7
#     2   2   2   2   2   2   2
#     4  11  20  42  63 100 140 194 236 282 366 451
#     4  11  26  39  68 109 151 183 238 302 383 451
#     4  10  25  45  74 104 145 188 249 313 369 427
#     4  12  25  43  67 114 151 189 230 316 387 444
#     4  11  22  39  66 102 148 191 235 292 379 450
#     4  11  24  42  73 102 139 194 246 298 351 462
#     4  10  24  46  73 105 134 197 258 305 353 433
#
# _framework density 25.339593000000001
#
# number of rings (size 3 to 8) (size 9 to 14) (size 15 to 20)
#    0.000    1.143    2.857    2.571   12.000    1.143 
#    0.000    0.000    3.143    0.000    0.000    0.000 
#    0.000    0.000    0.000    0.000    0.000    0.000 
#
# Total GULP energy -78326.681697 kJ/mol
# GULP energy per Si atom -5594.762978 kJ/mol
# Density = 2.528192 g / cm^3
# Si number density = 25.339593 Si / 1000 Ang^3
#
#
#
# Elastic Constant Matrix: (Units=GPa)
#
#
# Indices 1 2 3 4 5 6 
#
# 1 78.9852 24.5605 25.1984 0.0000 7.8906 0.0000
# 2 24.5605 121.0941 36.4348 0.0000 13.0109 0.0000
# 3 25.1984 36.4348 92.5154 0.0000 11.2968 0.0000
# 4 0.0000 0.0000 0.0000 41.1270 0.0000 17.3798
# 5 7.8906 13.0109 11.2968 0.0000 22.9148 0.0000
# 6 0.0000 0.0000 0.0000 17.3798 0.0000 25.4871
#
#
#
# Elastic Compliance Matrix: (Units=1/GPa)
#
#
# Indices 1 2 3 4 5 6 
#
# 1 0.014393 -0.001772 -0.002915 0.000000 -0.002513 0.000000
# 2 -0.001772 0.009895 -0.002982 0.000000 -0.003538 0.000000
# 3 -0.002915 -0.002982 0.013246 0.000000 -0.003833 0.000000
# 4 0.000000 0.000000 0.000000 0.034158 0.000000 -0.023293
# 5 -0.002513 -0.003538 -0.003833 0.000000 0.048403 0.000000
# 6 0.000000 0.000000 0.000000 -0.023293 0.000000 0.055119
#
#
# Mechanical properties :
#
#
# Convention : Reuss Voigt Hill
#
# Bulk Modulus (GPa) = 45.05756 51.66467 48.36112
# Shear Modulus (GPa) = 25.25880 31.66585 28.46232
#
# Velocity S-wave (km/s) = 3.16066 3.53889 3.35511
# Velocity P-wave (km/s) = 5.58030 6.09356 5.84257
#
# Compressibility (1/GPa) = 0.02219383
#
# Stress axis : x y z
#
# Youngs Moduli (GPa) = 69.47954 101.06267 75.49692
#
# Poissons Ratio (x) = 0.17908 0.22011
# Poissons Ratio (y) = 0.12312 0.22515
# Poissons Ratio (z) = 0.20257 0.30139
#
# Static dielectric constant tensor:
#      x y z
#    x 1.958830 0.000000 -0.009520 
#    y 0.000000 2.048410 0.000000 
#    z -0.009520 0.000000 2.017670 
# 
# From -- ./inp_files/8753.got.cif
#   From: 2010.05.17/outbox.cif.g08.bks.cpg/sg4_5_cif.got.tgz:8753.got - 2010.06.03 18:43:04.
