data_PCOD9118838
_publ_section_title
;
Structure prediction by ZEFSAII (Michael W. Deem and Ramdas Pophale) SiO2 
 PCOD9118838
Probable space group: P 21
;
_chemical_formula_sum "Si O2"
_cell_formula_units_Z 16
_cell_length_a 18.599801
_cell_length_b 8.051442
_cell_length_c 8.942641
_cell_angle_alpha 90.000000
_cell_angle_beta 149.336897
_cell_angle_gamma 90.000000
_cell_volume 682.981041
_symmetry_space_group_name_H-M "P 21"
_symmetry_group_IT_number 4
_symmetry_cell_setting 'monoclinic'
loop_
_space_group_symop_operation_xyz
x,y,z
-x,1/2+y,-z
loop_
_atom_site_type_symbol
_atom_site_label
_atom_site_fract_x
_atom_site_fract_y
_atom_site_fract_z
Si Si1 0.633660 0.772480 0.914779
Si Si2 0.638760 0.658447 0.431969
Si Si3 0.079098 0.105728 0.495558
Si Si4 0.538549 0.337143 0.101660
Si Si5 0.552081 0.101891 0.630286
Si Si6 0.812033 0.130067 0.546288
Si Si7 0.922717 0.766993 0.833529
Si Si8 0.174206 0.738551 0.760355
O O1 0.577862 0.825941 0.976837
O O2 0.521773 0.637527 0.657073
O O3 0.622590 0.923470 0.778231
O O4 0.790232 0.708460 0.204794
O O5 0.613613 0.512355 0.264833
O O6 0.571701 0.606836 0.467743
O O7 0.803254 0.693809 0.729051
O O8 0.545933 0.810395 0.202284
O O9 0.069262 0.158723 0.304293
O O10 0.937543 0.158793 0.326947
O O11 0.119283 0.916288 0.604759
O O12 0.659372 0.195995 0.324450
O O13 0.673372 0.235415 0.887009
O O14 0.809984 0.132602 0.362934
O O15 0.867123 0.950704 0.695769
O O16 0.927120 0.258075 0.818008
#
# Coordination Sequence:
#
# PCOD9118838 Si02
#       8
#     2   2   2   2   2   2   2   2
#     4  11  25  44  68  99 135 175 222 272 329 394
#     4  11  23  42  69  98 132 173 221 273 330 392
#     4  12  26  46  70  97 135 177 221 274 333 397
#     4  11  23  42  69  98 132 173 221 273 330 392
#     4  11  25  44  68  99 135 175 222 272 329 394
#     4  12  26  45  69  99 135 176 224 274 331 395
#     4  12  26  45  69  99 135 176 224 274 331 395
#     4  12  26  46  70  97 135 177 221 274 333 397
#
# _framework density 23.426711999999998
#
# number of rings (size 3 to 8) (size 9 to 14) (size 15 to 20)
#    0.000    0.500    2.500    6.000    3.500    3.000 
#    0.000    0.000    0.000    0.000    0.000    0.000 
#    0.000    0.000    0.000    0.000    0.000    0.000 
#
# Total GULP energy -89648.897931 kJ/mol
# GULP energy per Si atom -5603.056121 kJ/mol
# Density = 2.337339 g / cm^3
# Si number density = 23.426712 Si / 1000 Ang^3
#
#
#
# Elastic Constant Matrix: (Units=GPa)
#
#
# Indices 1 2 3 4 5 6 
#
# 1 58.6715 11.1129 16.5631 0.0000 23.7561 0.0000
# 2 11.1129 71.3204 -11.3051 0.0000 14.0540 0.0000
# 3 16.5631 -11.3051 84.1549 0.0000 12.4101 0.0000
# 4 0.0000 0.0000 0.0000 37.1899 0.0000 -1.2752
# 5 23.7561 14.0540 12.4101 0.0000 34.1361 0.0000
# 6 0.0000 0.0000 0.0000 -1.2752 0.0000 23.2394
#
#
#
# Elastic Compliance Matrix: (Units=1/GPa)
#
#
# Indices 1 2 3 4 5 6 
#
# 1 0.024267 -0.001158 -0.002654 0.000000 -0.015446 0.000000
# 2 -0.001158 0.016145 0.003443 0.000000 -0.007093 0.000000
# 3 -0.002654 0.003443 0.013530 0.000000 -0.004489 0.000000
# 4 0.000000 0.000000 0.000000 0.026940 0.000000 0.001478
# 5 -0.015446 -0.007093 -0.004489 0.000000 0.044596 0.000000
# 6 0.000000 0.000000 0.000000 0.001478 0.000000 0.043112
#
#
# Mechanical properties :
#
#
# Convention : Reuss Voigt Hill
#
# Bulk Modulus (GPa) = 18.79596 27.43207 23.11402
# Shear Modulus (GPa) = 26.72921 32.09814 29.41368
#
# Velocity S-wave (km/s) = 3.38149 3.70557 3.54723
# Velocity P-wave (km/s) = 4.82563 5.48120 5.16383
#
# Compressibility (1/GPa) = 0.05320291
#
# Stress axis : x y z
#
# Youngs Moduli (GPa) = 41.20873 61.93855 73.91165
#
# Poissons Ratio (x) = 0.07173 0.19615
# Poissons Ratio (y) = 0.04772 -0.25446
# Poissons Ratio (z) = 0.10936 -0.21324
#
# Static dielectric constant tensor:
#      x y z
#    x 1.811360 0.000000 -0.015300 
#    y 0.000000 1.968530 0.000000 
#    z -0.015300 0.000000 1.832660 
# 
# From -- ./inp_files/5595.got.cif
#   From: 2010.05.17/outbox.cif.g08.bks.cpg/sg4_3_cif.got.tgz:5595.got - 2010.06.03 18:43:04.
