data_PCOD9118302
_publ_section_title
;
Structure prediction by ZEFSAII (Michael W. Deem and Ramdas Pophale) SiO2 
 PCOD9118302
Probable space group: P 21
;
_chemical_formula_sum "Si O2"
_cell_formula_units_Z 14
_cell_length_a 8.787267
_cell_length_b 11.802036
_cell_length_c 8.037345
_cell_angle_alpha 90.000000
_cell_angle_beta 44.204526
_cell_angle_gamma 90.000000
_cell_volume 581.158084
_symmetry_space_group_name_H-M "P 21"
_symmetry_group_IT_number 4
_symmetry_cell_setting 'monoclinic'
loop_
_space_group_symop_operation_xyz
x,y,z
-x,1/2+y,-z
loop_
_atom_site_type_symbol
_atom_site_label
_atom_site_fract_x
_atom_site_fract_y
_atom_site_fract_z
Si Si1 0.755652 0.510420 0.375210
Si Si2 0.303804 0.882429 0.238497
Si Si3 0.900993 0.595433 0.770466
Si Si4 0.667242 0.156960 0.369650
Si Si5 0.347819 0.287957 0.861259
Si Si6 0.992721 0.205527 0.658807
Si Si7 0.941864 0.347660 0.981107
O O1 0.775427 0.423764 0.516294
O O2 0.516847 0.571316 0.558345
O O3 0.939444 0.603491 0.273252
O O4 0.800583 0.451582 0.162876
O O5 0.559228 0.867280 0.066295
O O6 0.234952 0.757199 0.230469
O O7 0.213418 0.977045 0.185607
O O8 0.905077 0.665246 0.594076
O O9 0.141498 0.596931 0.669132
O O10 0.748255 0.670111 0.003817
O O11 0.531922 0.246695 0.588071
O O12 0.789892 0.237432 0.139522
O O13 0.148892 0.352975 0.937697
O O14 0.058359 0.315955 0.714883
#
# Coordination Sequence:
#
# PCOD9118302 Si02
#       7
#     2   2   2   2   2   2   2
#     4  11  25  46  74 105 145 198 235 298 367 426
#     4  11  24  45  69 105 144 187 235 298 367 415
#     4  10  25  45  72 103 146 188 236 305 357 428
#     4  11  23  48  70 103 142 188 246 291 354 441
#     4  11  22  47  70  97 144 186 240 292 352 439
#     4  11  24  45  70 108 143 182 248 294 358 430
#     4  11  25  44  73 101 142 189 240 298 351 437
#
# _framework density 24.089829999999999
#
# number of rings (size 3 to 8) (size 9 to 14) (size 15 to 20)
#    0.000    1.143    4.286    0.857    2.000    6.857 
#    2.571    0.000    0.000    0.000    0.000    0.000 
#    0.000    0.000    0.000    0.000    0.000    0.000 
#
# Total GULP energy -77982.750243 kJ/mol
# GULP energy per Si atom -5570.196446 kJ/mol
# Density = 2.403500 g / cm^3
# Si number density = 24.089830 Si / 1000 Ang^3
#
#
#
# Elastic Constant Matrix: (Units=GPa)
#
#
# Indices 1 2 3 4 5 6 
#
# 1 99.9358 49.7039 27.0510 0.0000 -2.7818 0.0000
# 2 49.7039 72.7167 7.6393 0.0000 -6.2126 0.0000
# 3 27.0510 7.6393 34.5934 0.0000 -7.0793 0.0000
# 4 0.0000 0.0000 0.0000 21.2988 0.0000 -4.1997
# 5 -2.7818 -6.2126 -7.0793 0.0000 34.5319 0.0000
# 6 0.0000 0.0000 0.0000 -4.1997 0.0000 49.8599
#
#
#
# Elastic Compliance Matrix: (Units=1/GPa)
#
#
# Indices 1 2 3 4 5 6 
#
# 1 0.019647 -0.012316 -0.013333 0.000000 -0.003366 0.000000
# 2 -0.012316 0.021930 0.005629 0.000000 0.004107 0.000000
# 3 -0.013333 0.005629 0.039745 0.000000 0.008087 0.000000
# 4 0.000000 0.000000 0.000000 0.047744 0.000000 0.004021
# 5 -0.003366 0.004107 0.008087 0.000000 0.031084 0.000000
# 6 0.000000 0.000000 0.000000 0.004021 0.000000 0.020395
#
#
# Mechanical properties :
#
#
# Convention : Reuss Voigt Hill
#
# Bulk Modulus (GPa) = 24.22385 41.78160 33.00272
# Shear Modulus (GPa) = 21.33587 29.32822 25.33204
#
# Velocity S-wave (km/s) = 2.97927 3.49299 3.24630
# Velocity P-wave (km/s) = 4.68104 5.80083 5.27076
#
# Compressibility (1/GPa) = 0.04128163
#
# Stress axis : x y z
#
# Youngs Moduli (GPa) = 50.89744 45.59924 25.16043
#
# Poissons Ratio (x) = 0.56162 0.33546
# Poissons Ratio (y) = 0.62688 -0.14162
# Poissons Ratio (z) = 0.67860 -0.25667
#
# Static dielectric constant tensor:
#      x y z
#    x 2.027980 0.000000 0.058940 
#    y 0.000000 2.036770 0.000000 
#    z 0.058940 0.000000 1.930610 
# 
# From -- ./inp_files/1111.got.cif
#   From: 2010.05.17/outbox.cif.g08.bks.cpg/sg4_1_cif.got.tgz:1111.got - 2010.06.03 18:43:04.
