data_PCOD9118041
_publ_section_title
;
Structure prediction by ZEFSAII (Michael W. Deem and Ramdas Pophale) SiO2 
 PCOD9118041
Probable space group: P 21
;
_chemical_formula_sum "Si O2"
_cell_formula_units_Z 12
_cell_length_a 11.668534
_cell_length_b 8.485302
_cell_length_c 8.100418
_cell_angle_alpha 90.000000
_cell_angle_beta 140.494443
_cell_angle_gamma 90.000000
_cell_volume 510.214324
_symmetry_space_group_name_H-M "P 21"
_symmetry_group_IT_number 4
_symmetry_cell_setting 'monoclinic'
loop_
_space_group_symop_operation_xyz
x,y,z
-x,1/2+y,-z
loop_
_atom_site_type_symbol
_atom_site_label
_atom_site_fract_x
_atom_site_fract_y
_atom_site_fract_z
Si Si1 0.932984 0.253360 0.686536
Si Si2 0.290871 0.205506 0.910479
Si Si3 0.692952 0.239577 0.873400
Si Si4 0.984148 0.585508 0.903190
Si Si5 0.398600 0.879096 0.876839
Si Si6 0.613365 0.570666 0.627340
O O1 0.737847 0.295634 0.401320
O O2 0.078059 0.223512 0.703480
O O3 0.000388 0.407673 0.859880
O O4 0.937967 0.113441 0.825626
O O5 0.338743 0.057432 0.846934
O O6 0.398487 0.355115 0.960734
O O7 0.366835 0.161537 0.177078
O O8 0.653022 0.389990 0.713911
O O9 0.575652 0.098577 0.668471
O O10 0.900980 0.194634 0.090042
O O11 0.629764 0.288354 0.982784
O O12 0.774004 0.626867 0.686402
#
# Coordination Sequence:
#
# PCOD9118041 Si02
#       6
#     2   2   2   2   2   2
#     4  11  26  46  72 102 140 179 234 282 342 409
#     4  10  26  46  68 102 141 181 226 282 344 410
#     4  11  25  42  71 100 138 182 226 287 340 403
#     4  11  24  44  71 100 136 184 233 281 338 403
#     4  11  27  46  67 105 141 180 229 281 349 405
#     4  10  24  44  67 103 134 180 236 277 339 408
#
# _framework density 23.519528999999999
#
# number of rings (size 3 to 8) (size 9 to 14) (size 15 to 20)
#    0.000    1.333    1.667    1.000   11.667    0.000 
#    0.000    3.333    0.000    0.000    0.000    0.000 
#    0.000    0.000    0.000    0.000    0.000    0.000 
#
# Total GULP energy -67204.863253 kJ/mol
# GULP energy per Si atom -5600.405271 kJ/mol
# Density = 2.346600 g / cm^3
# Si number density = 23.519529 Si / 1000 Ang^3
#
#
#
# Elastic Constant Matrix: (Units=GPa)
#
#
# Indices 1 2 3 4 5 6 
#
# 1 108.4138 20.1415 3.5122 0.0000 17.3319 0.0000
# 2 20.1415 59.3124 -3.0673 0.0000 -1.3794 0.0000
# 3 3.5122 -3.0673 47.0413 0.0000 -4.9732 0.0000
# 4 0.0000 0.0000 0.0000 26.9627 0.0000 0.2029
# 5 17.3319 -1.3794 -4.9732 0.0000 26.7106 0.0000
# 6 0.0000 0.0000 0.0000 0.2029 0.0000 42.2414
#
#
#
# Elastic Compliance Matrix: (Units=1/GPa)
#
#
# Indices 1 2 3 4 5 6 
#
# 1 0.011321 -0.004130 -0.001952 0.000000 -0.007923 0.000000
# 2 -0.004130 0.018455 0.001934 0.000000 0.003993 0.000000
# 3 -0.001952 0.001934 0.022109 0.000000 0.005483 0.000000
# 4 0.000000 0.000000 0.000000 0.037090 0.000000 -0.000178
# 5 -0.007923 0.003993 0.005483 0.000000 0.043806 0.000000
# 6 0.000000 0.000000 0.000000 -0.000178 0.000000 0.023674
#
#
# Mechanical properties :
#
#
# Convention : Reuss Voigt Hill
#
# Bulk Modulus (GPa) = 22.94123 28.43781 25.68952
# Shear Modulus (GPa) = 27.88915 32.12836 30.00876
#
# Velocity S-wave (km/s) = 3.44726 3.69999 3.57586
# Velocity P-wave (km/s) = 5.06163 5.51096 5.29107
#
# Compressibility (1/GPa) = 0.04358964
#
# Stress axis : x y z
#
# Youngs Moduli (GPa) = 88.33185 54.18565 45.22956
#
# Poissons Ratio (x) = 0.22377 0.08829
# Poissons Ratio (y) = 0.36478 -0.08746
# Poissons Ratio (z) = 0.17243 -0.10478
#
# Static dielectric constant tensor:
#      x y z
#    x 1.898340 0.000000 -0.012390 
#    y 0.000000 1.894350 0.000000 
#    z -0.012390 0.000000 1.833760 
# 
# From -- ./inp_files/5615.got.cif
#   From: 2010.05.17/outbox.cif.g08.bks.cpg/sg4_3_cif.got.tgz:5615.got - 2010.06.03 18:43:04.
