data_PCOD9118267
_publ_section_title
;
Structure prediction by ZEFSAII (Michael W. Deem and Ramdas Pophale) SiO2 
 PCOD9118267
Probable space group: P 21
;
_chemical_formula_sum "Si O2"
_cell_formula_units_Z 14
_cell_length_a 10.072657
_cell_length_b 10.375656
_cell_length_c 7.374329
_cell_angle_alpha 90.000000
_cell_angle_beta 129.896579
_cell_angle_gamma 90.000000
_cell_volume 591.279288
_symmetry_space_group_name_H-M "P 21"
_symmetry_group_IT_number 4
_symmetry_cell_setting 'monoclinic'
loop_
_space_group_symop_operation_xyz
x,y,z
-x,1/2+y,-z
loop_
_atom_site_type_symbol
_atom_site_label
_atom_site_fract_x
_atom_site_fract_y
_atom_site_fract_z
Si Si1 0.331282 0.869770 0.455610
Si Si2 0.789298 0.824193 0.481080
Si Si3 0.584065 0.281879 0.821906
Si Si4 0.372129 0.001116 0.856716
Si Si5 0.687926 0.112719 0.344160
Si Si6 0.938570 0.677838 0.304406
Si Si7 0.058297 0.749182 0.025665
O O1 0.429353 0.886416 0.355032
O O2 0.132208 0.869191 0.212584
O O3 0.375432 0.965724 0.650530
O O4 0.368798 0.724842 0.566087
O O5 0.380337 0.863810 0.967997
O O6 0.857417 0.802019 0.334895
O O7 0.126394 0.663397 0.560031
O O8 0.926263 0.781368 0.751854
O O9 0.385548 0.238924 0.657349
O O10 0.757426 0.206253 0.907201
O O11 0.742576 0.973123 0.467609
O O12 0.193415 0.065815 0.758737
O O13 0.536907 0.083077 0.069442
O O14 0.969208 0.673319 0.114006
#
# Coordination Sequence:
#
# PCOD9118267 Si02
#       7
#     2   2   2   2   2   2   2
#     4   9  23  47  65 102 136 180 218 292 341 393
#     4  11  24  45  70 103 133 186 227 275 358 406
#     4   9  23  43  67  93 133 180 224 283 331 405
#     4  11  24  44  71  99 141 181 230 284 343 411
#     4  10  25  42  69 102 138 178 227 288 331 414
#     4  11  26  42  69 106 136 180 229 281 350 409
#     4   9  23  41  67  93 141 169 223 289 324 410
#
# _framework density 23.677472999999999
#
# number of rings (size 3 to 8) (size 9 to 14) (size 15 to 20)
#    0.857    1.143    0.000    0.857   14.000    1.143 
#    5.143    2.857    0.000    0.000    0.000    0.000 
#    0.000    0.000    0.000    0.000    0.000    0.000 
#
# Total GULP energy -77994.864467 kJ/mol
# GULP energy per Si atom -5571.061748 kJ/mol
# Density = 2.362358 g / cm^3
# Si number density = 23.677473 Si / 1000 Ang^3
#
#
#
# Elastic Constant Matrix: (Units=GPa)
#
#
# Indices 1 2 3 4 5 6 
#
# 1 88.9372 -5.7807 20.0089 0.0000 5.8346 0.0000
# 2 -5.7807 67.7160 4.7332 0.0000 -3.7091 0.0000
# 3 20.0089 4.7332 126.6384 0.0000 8.1270 0.0000
# 4 0.0000 0.0000 0.0000 24.7867 0.0000 6.0826
# 5 5.8346 -3.7091 8.1270 0.0000 33.1483 0.0000
# 6 0.0000 0.0000 0.0000 6.0826 0.0000 20.3518
#
#
#
# Elastic Compliance Matrix: (Units=1/GPa)
#
#
# Indices 1 2 3 4 5 6 
#
# 1 0.011819 0.001052 -0.001809 0.000000 -0.001519 0.000000
# 2 0.001052 0.015009 -0.000836 0.000000 0.001699 0.000000
# 3 -0.001809 -0.000836 0.008330 0.000000 -0.001817 0.000000
# 4 0.000000 0.000000 0.000000 0.043537 0.000000 -0.013012
# 5 -0.001519 0.001699 -0.001817 0.000000 0.031071 0.000000
# 6 0.000000 0.000000 0.000000 -0.013012 0.000000 0.053025
#
#
# Mechanical properties :
#
#
# Convention : Reuss Voigt Hill
#
# Bulk Modulus (GPa) = 31.27783 35.69049 33.48416
# Shear Modulus (GPa) = 28.30703 33.27937 30.79320
#
# Velocity S-wave (km/s) = 3.46139 3.75311 3.61019
# Velocity P-wave (km/s) = 5.40496 5.82129 5.61698
#
# Compressibility (1/GPa) = 0.03197153
#
# Stress axis : x y z
#
# Youngs Moduli (GPa) = 84.60978 66.62709 120.04442
#
# Poissons Ratio (x) = -0.07011 0.21719
# Poissons Ratio (y) = -0.08903 0.10039
# Poissons Ratio (z) = 0.15308 0.05572
#
# Static dielectric constant tensor:
#      x y z
#    x 1.949120 0.000000 0.012520 
#    y 0.000000 1.980010 0.000000 
#    z 0.012520 0.000000 1.899130 
# 
# From -- ./inp_files/6763.got.cif
#   From: 2010.05.17/outbox.cif.g08.bks.cpg/sg4_4_cif.got.tgz:6763.got - 2010.06.03 18:43:04.
