data_PCOD9118354
_publ_section_title
;
Structure prediction by ZEFSAII (Michael W. Deem and Ramdas Pophale) SiO2 
 PCOD9118354
Probable space group: P 21
;
_chemical_formula_sum "Si O2"
_cell_formula_units_Z 12
_cell_length_a 10.935024
_cell_length_b 5.266952
_cell_length_c 9.502393
_cell_angle_alpha 90.000000
_cell_angle_beta 77.815541
_cell_angle_gamma 90.000000
_cell_volume 534.954615
_symmetry_space_group_name_H-M "P 21"
_symmetry_group_IT_number 4
_symmetry_cell_setting 'monoclinic'
loop_
_space_group_symop_operation_xyz
x,y,z
-x,1/2+y,-z
loop_
_atom_site_type_symbol
_atom_site_label
_atom_site_fract_x
_atom_site_fract_y
_atom_site_fract_z
Si Si1 0.851244 0.181860 0.627574
Si Si2 0.847882 0.682823 0.452575
Si Si3 0.288174 0.685424 0.044295
Si Si4 0.712837 0.452824 0.229293
Si Si5 0.536768 0.109283 0.410087
Si Si6 0.534675 0.830193 0.140592
O O1 0.813239 0.442455 0.559481
O O2 0.793946 0.163678 0.797155
O O3 0.001835 0.181897 0.600219
O O4 0.813364 0.938906 0.543431
O O5 0.789577 0.635768 0.312651
O O6 0.422160 0.797370 0.061171
O O7 0.230510 0.847810 0.930049
O O8 0.338009 0.424248 0.964720
O O9 0.673263 0.213881 0.335145
O O10 0.582878 0.586009 0.213769
O O11 0.529500 0.851127 0.502194
O O12 0.486221 0.026572 0.269859
#
# Coordination Sequence:
#
# PCOD9118354 Si02
#       6
#     2   2   2   2   2   2
#     4  10  25  49  74  99 135 184 230 295 351 399
#     4  10  25  48  72 103 134 175 244 292 339 413
#     4  11  25  43  68 102 144 189 223 282 349 414
#     4  11  25  44  66 102 144 181 230 290 338 418
#     4  11  24  40  63 100 136 178 229 279 341 405
#     4  11  24  42  65 100 145 183 228 276 342 427
#
# _framework density 22.431809000000001
#
# number of rings (size 3 to 8) (size 9 to 14) (size 15 to 20)
#    0.000    1.333    3.333    0.000    9.333    1.333 
#    3.000    0.000    0.000    0.000    0.000    0.000 
#    0.000    0.000    0.000    0.000    0.000    0.000 
#
# Total GULP energy -67029.171568 kJ/mol
# GULP energy per Si atom -5585.764297 kJ/mol
# Density = 2.238075 g / cm^3
# Si number density = 22.431809 Si / 1000 Ang^3
#
#
#
# Elastic Constant Matrix: (Units=GPa)
#
#
# Indices 1 2 3 4 5 6 
#
# 1 43.8306 24.2441 46.5447 0.0000 8.9487 0.0000
# 2 24.2441 150.4364 76.8348 0.0000 1.3595 0.0000
# 3 46.5447 76.8348 189.1620 0.0000 -9.1823 0.0000
# 4 0.0000 0.0000 0.0000 45.1253 0.0000 6.0627
# 5 8.9487 1.3595 -9.1823 0.0000 42.4550 0.0000
# 6 0.0000 0.0000 0.0000 6.0627 0.0000 22.9871
#
#
#
# Elastic Compliance Matrix: (Units=1/GPa)
#
#
# Indices 1 2 3 4 5 6 
#
# 1 0.034183 -0.001147 -0.008381 0.000000 -0.008981 0.000000
# 2 -0.001147 0.008469 -0.003193 0.000000 -0.000720 0.000000
# 3 -0.008381 -0.003193 0.008829 0.000000 0.003778 0.000000
# 4 0.000000 0.000000 0.000000 0.022975 0.000000 -0.006059
# 5 -0.008981 -0.000720 0.003778 0.000000 0.026288 0.000000
# 6 0.000000 0.000000 0.000000 -0.006059 0.000000 0.045101
#
#
# Mechanical properties :
#
#
# Convention : Reuss Voigt Hill
#
# Bulk Modulus (GPa) = 38.40301 75.40846 56.90573
# Shear Modulus (GPa) = 27.78291 37.83385 32.80838
#
# Velocity S-wave (km/s) = 3.52312 4.11130 3.82852
# Velocity P-wave (km/s) = 5.80576 7.49845 6.70573
#
# Compressibility (1/GPa) = 0.02603963
#
# Stress axis : x y z
#
# Youngs Moduli (GPa) = 29.25401 118.07159 113.26319
#
# Poissons Ratio (x) = 0.13545 0.94927
# Poissons Ratio (y) = 0.03356 0.36163
# Poissons Ratio (z) = 0.24518 0.37698
#
# Static dielectric constant tensor:
#      x y z
#    x 1.823580 0.000000 -0.005290 
#    y 0.000000 1.919970 0.000000 
#    z -0.005290 0.000000 1.831390 
# 
# From -- ./inp_files/7326.got.cif
#   From: 2010.05.17/outbox.cif.g08.bks.cpg/sg4_4_cif.got.tgz:7326.got - 2010.06.03 18:43:04.
