data_PCOD9118861
_publ_section_title
;
Structure prediction by ZEFSAII (Michael W. Deem and Ramdas Pophale) SiO2 
 PCOD9118861
Probable space group: P 21
;
_chemical_formula_sum "Si O2"
_cell_formula_units_Z 16
_cell_length_a 11.625895
_cell_length_b 8.874741
_cell_length_c 14.717327
_cell_angle_alpha 90.000000
_cell_angle_beta 29.961090
_cell_angle_gamma 90.000000
_cell_volume 758.350170
_symmetry_space_group_name_H-M "P 21"
_symmetry_group_IT_number 4
_symmetry_cell_setting 'monoclinic'
loop_
_space_group_symop_operation_xyz
x,y,z
-x,1/2+y,-z
loop_
_atom_site_type_symbol
_atom_site_label
_atom_site_fract_x
_atom_site_fract_y
_atom_site_fract_z
Si Si1 0.156036 0.236900 0.501070
Si Si2 0.848051 0.571047 0.318761
Si Si3 0.077989 0.586855 0.504826
Si Si4 0.357056 0.504651 0.588982
Si Si5 0.614632 0.337682 0.246282
Si Si6 0.889940 0.762232 0.119006
Si Si7 0.001861 0.233578 0.253070
Si Si8 0.610127 0.642557 0.148955
O O1 0.072714 0.187492 0.658086
O O2 0.089647 0.409204 0.521731
O O3 0.433583 0.231256 0.319136
O O4 0.059317 0.124349 0.492175
O O5 0.569654 0.566147 0.502200
O O6 0.920267 0.625193 0.169262
O O7 0.938382 0.407429 0.283616
O O8 0.974372 0.680013 0.659734
O O9 0.339781 0.646054 0.315475
O O10 0.479121 0.409343 0.424541
O O11 0.193700 0.400696 0.761830
O O12 0.207162 0.634677 0.645582
O O13 0.663856 0.471641 0.141413
O O14 0.865859 0.277263 0.098469
O O15 0.690067 0.734216 0.183135
O O16 0.232973 0.195357 0.040628
#
# Coordination Sequence:
#
# PCOD9118861 Si02
#       8
#     2   2   2   2   2   2   2   2
#     4  11  25  47  74  97 137 184 238 287 342 411
#     4  12  24  40  67 108 139 182 227 278 356 414
#     4  11  24  51  69  96 137 185 239 287 343 404
#     4  12  22  43  69 100 144 188 223 283 351 414
#     4  11  23  43  68 102 139 180 230 281 352 411
#     4  12  24  41  68 104 147 179 229 285 350 421
#     4  12  24  42  67  99 141 179 231 284 344 410
#     4  11  24  41  68 102 138 185 225 289 344 411
#
# _framework density 21.098431000000001
#
# number of rings (size 3 to 8) (size 9 to 14) (size 15 to 20)
#    0.000    0.500    6.250    3.000    1.750    0.000 
#    6.750    0.000    0.000    0.000    0.000    0.000 
#    0.000    0.000    0.000    0.000    0.000    0.000 
#
# Total GULP energy -89540.474831 kJ/mol
# GULP energy per Si atom -5596.279677 kJ/mol
# Density = 2.105041 g / cm^3
# Si number density = 21.098431 Si / 1000 Ang^3
#
#
#
# Elastic Constant Matrix: (Units=GPa)
#
#
# Indices 1 2 3 4 5 6 
#
# 1 115.0271 29.6344 40.2118 0.0000 -1.3238 0.0000
# 2 29.6344 74.6742 36.3204 0.0000 -5.8202 0.0000
# 3 40.2118 36.3204 111.9929 0.0000 6.5292 0.0000
# 4 0.0000 0.0000 0.0000 12.7374 0.0000 0.2805
# 5 -1.3238 -5.8202 6.5292 0.0000 25.3058 0.0000
# 6 0.0000 0.0000 0.0000 0.2805 0.0000 42.3306
#
#
#
# Elastic Compliance Matrix: (Units=1/GPa)
#
#
# Indices 1 2 3 4 5 6 
#
# 1 0.010405 -0.002659 -0.002914 0.000000 0.000685 0.000000
# 2 -0.002659 0.017245 -0.004935 0.000000 0.005100 0.000000
# 3 -0.002914 -0.004935 0.011829 0.000000 -0.004340 0.000000
# 4 0.000000 0.000000 0.000000 0.078520 0.000000 -0.000520
# 5 0.000685 0.005100 -0.004340 0.000000 0.041845 0.000000
# 6 0.000000 0.000000 0.000000 -0.000520 0.000000 0.023627
#
#
# Mechanical properties :
#
#
# Convention : Reuss Voigt Hill
#
# Bulk Modulus (GPa) = 54.16201 57.11413 55.63807
# Shear Modulus (GPa) = 23.73709 29.10995 26.42352
#
# Velocity S-wave (km/s) = 3.35784 3.71849 3.54276
# Velocity P-wave (km/s) = 6.38438 6.75021 6.56984
#
# Compressibility (1/GPa) = 0.01846313
#
# Stress axis : x y z
#
# Youngs Moduli (GPa) = 96.10753 57.98915 84.53895
#
# Poissons Ratio (x) = 0.15418 0.24632
# Poissons Ratio (y) = 0.25552 0.41723
# Poissons Ratio (z) = 0.28002 0.28620
#
# Static dielectric constant tensor:
#      x y z
#    x 1.748370 0.000000 0.008380 
#    y 0.000000 1.805690 0.000000 
#    z 0.008380 0.000000 1.755960 
# 
# From -- ./inp_files/12557.got.cif
#   From: 2010.05.17/outbox.cif.g08.bks.cpg/sg4_7_cif.got.tgz:12557.got - 2010.06.03 18:43:04.
