data_PCOD9118085
_publ_section_title
;
Structure prediction by ZEFSAII (Michael W. Deem and Ramdas Pophale) SiO2 
 PCOD9118085
Probable space group: P 21
;
_chemical_formula_sum "Si O2"
_cell_formula_units_Z 16
_cell_length_a 4.929706
_cell_length_b 9.452711
_cell_length_c 13.660124
_cell_angle_alpha 90.000000
_cell_angle_beta 69.367406
_cell_angle_gamma 90.000000
_cell_volume 595.720534
_symmetry_space_group_name_H-M "P 21"
_symmetry_group_IT_number 4
_symmetry_cell_setting 'monoclinic'
loop_
_space_group_symop_operation_xyz
x,y,z
-x,1/2+y,-z
loop_
_atom_site_type_symbol
_atom_site_label
_atom_site_fract_x
_atom_site_fract_y
_atom_site_fract_z
Si Si1 0.081602 0.761940 0.201330
Si Si2 0.948376 0.530163 0.053190
Si Si3 0.509430 0.294526 0.382360
Si Si4 0.962628 0.795046 0.804391
Si Si5 0.050774 0.068844 0.440245
Si Si6 0.242068 0.533245 0.320370
Si Si7 0.417365 0.036717 0.082954
Si Si8 0.420749 0.386697 0.604020
O O1 0.990332 0.657955 0.124324
O O2 0.273501 0.673509 0.254309
O O3 0.794400 0.807995 0.296546
O O4 0.259654 0.896643 0.141665
O O5 0.950791 0.380170 0.108932
O O6 0.237937 0.531842 0.949393
O O7 0.666600 0.544249 0.021720
O O8 0.757906 0.229112 0.284001
O O9 0.201617 0.218834 0.401680
O O10 0.502162 0.457094 0.344897
O O11 0.535358 0.295984 0.496423
O O12 0.725762 0.675584 0.852782
O O13 0.846851 0.915912 0.746987
O O14 0.986629 0.060527 0.564073
O O15 0.301063 0.956295 0.382728
O O16 0.769088 0.011292 0.421928
#
# Coordination Sequence:
#
# PCOD9118085 Si02
#       8
#     2   2   2   2   2   2   2   2
#     4  11  25  49  75 108 146 194 246 299 385 437
#     4  11  28  49  74 105 144 186 248 316 375 429
#     4  11  24  43  73 105 153 193 250 294 367 450
#     4  11  25  45  77 103 146 193 245 300 381 435
#     4  11  24  44  68 103 157 193 246 292 358 431
#     4  10  24  45  66 109 145 200 232 300 356 442
#     4  12  27  49  74 109 139 190 249 316 361 444
#     4  11  25  44  69 110 146 197 238 303 355 452
#
# _framework density 26.858228
#
# number of rings (size 3 to 8) (size 9 to 14) (size 15 to 20)
#    0.000    1.000    2.500    2.250    8.750    2.000 
#    4.500    0.000    0.000    0.000    0.000    0.000 
#    0.000    0.000    0.000    0.000    0.000    0.000 
#
# Total GULP energy -89852.151719 kJ/mol
# GULP energy per Si atom -5615.759482 kJ/mol
# Density = 2.679710 g / cm^3
# Si number density = 26.858228 Si / 1000 Ang^3
#
#
#
# Elastic Constant Matrix: (Units=GPa)
#
#
# Indices 1 2 3 4 5 6 
#
# 1 67.5509 12.9180 12.3229 0.0000 -9.8695 0.0000
# 2 12.9180 136.5613 55.1291 0.0000 2.7247 0.0000
# 3 12.3229 55.1291 130.8678 0.0000 -20.8782 0.0000
# 4 0.0000 0.0000 0.0000 50.3175 0.0000 7.8900
# 5 -9.8695 2.7247 -20.8782 0.0000 40.9066 0.0000
# 6 0.0000 0.0000 0.0000 7.8900 0.0000 35.5092
#
#
#
# Elastic Compliance Matrix: (Units=1/GPa)
#
#
# Indices 1 2 3 4 5 6 
#
# 1 0.015676 -0.001449 -0.000269 0.000000 0.003742 0.000000
# 2 -0.001449 0.009241 -0.004257 0.000000 -0.003138 0.000000
# 3 -0.000269 -0.004257 0.010336 0.000000 0.005494 0.000000
# 4 0.000000 0.000000 0.000000 0.020591 0.000000 -0.004575
# 5 0.003742 -0.003138 0.005494 0.000000 0.028362 0.000000
# 6 0.000000 0.000000 0.000000 -0.004575 0.000000 0.029178
#
#
# Mechanical properties :
#
#
# Convention : Reuss Voigt Hill
#
# Bulk Modulus (GPa) = 42.91076 55.07999 48.99538
# Shear Modulus (GPa) = 37.56492 42.32065 39.94279
#
# Velocity S-wave (km/s) = 3.74389 3.97382 3.86057
# Velocity P-wave (km/s) = 5.89071 6.45037 6.17688
#
# Compressibility (1/GPa) = 0.02330418
#
# Stress axis : x y z
#
# Youngs Moduli (GPa) = 63.78990 108.21446 96.74525
#
# Poissons Ratio (x) = 0.15681 0.02601
# Poissons Ratio (y) = 0.09243 0.41184
# Poissons Ratio (z) = 0.01715 0.46066
#
# Static dielectric constant tensor:
#      x y z
#    x 2.071410 0.000000 0.036310 
#    y 0.000000 2.102660 0.000000 
#    z 0.036310 0.000000 2.066470 
# 
# From -- ./inp_files/13296.got.cif
#   From: 2010.05.17/outbox.cif.g08.bks.cpg/sg4_7_cif.got.tgz:13296.got - 2010.06.03 18:43:04.
