data_PCOD9118158
_publ_section_title
;
Structure prediction by ZEFSAII (Michael W. Deem and Ramdas Pophale) SiO2 
 PCOD9118158
Probable space group: P 21
;
_chemical_formula_sum "Si O2"
_cell_formula_units_Z 14
_cell_length_a 17.818462
_cell_length_b 5.528717
_cell_length_c 9.451430
_cell_angle_alpha 90.000000
_cell_angle_beta 39.016322
_cell_angle_gamma 90.000000
_cell_volume 586.160618
_symmetry_space_group_name_H-M "P 21"
_symmetry_group_IT_number 4
_symmetry_cell_setting 'monoclinic'
loop_
_space_group_symop_operation_xyz
x,y,z
-x,1/2+y,-z
loop_
_atom_site_type_symbol
_atom_site_label
_atom_site_fract_x
_atom_site_fract_y
_atom_site_fract_z
Si Si1 0.082008 0.050980 0.550864
Si Si2 0.304249 0.112379 0.731487
Si Si3 0.075107 0.161099 0.867063
Si Si4 0.462532 0.659622 0.126390
Si Si5 0.282589 0.675735 0.187675
Si Si6 0.864413 0.813074 0.787027
Si Si7 0.472558 0.900298 0.700461
O O1 0.108483 0.193717 0.653125
O O2 0.052992 0.173910 0.444449
O O3 0.198189 0.900996 0.340678
O O4 0.957944 0.916303 0.760876
O O5 0.195523 0.092870 0.779142
O O6 0.397517 0.301903 0.529430
O O7 0.397288 0.920052 0.664866
O O8 0.234127 0.177991 0.978042
O O9 0.007277 0.416797 0.998054
O O10 0.328338 0.596711 0.275218
O O11 0.502566 0.628387 0.229709
O O12 0.525157 0.437186 0.946691
O O13 0.206581 0.485934 0.213168
O O14 0.392936 0.734779 0.921599
#
# Coordination Sequence:
#
# PCOD9118158 Si02
#       7
#     2   2   2   2   2   2   2
#     4  12  27  45  81 111 151 203 266 325 390 463
#     4  12  27  49  78 115 164 207 265 329 400 482
#     4  12  32  54  82 119 163 210 265 332 406 467
#     4  10  24  46  73 109 153 198 259 312 381 460
#     4  11  25  44  78 109 154 198 264 320 388 467
#     4  12  25  47  75 113 148 206 263 326 384 468
#     4  11  26  47  75 116 153 212 254 326 399 473
#
# _framework density 23.884238
#
# number of rings (size 3 to 8) (size 9 to 14) (size 15 to 20)
#    0.000    0.571    4.286    1.714   10.000    5.714 
#    0.000    0.000    0.000    0.000    0.000    0.000 
#    0.000    0.000    0.000    0.000    0.000    0.000 
#
# Total GULP energy -77966.804670 kJ/mol
# GULP energy per Si atom -5569.057476 kJ/mol
# Density = 2.382988 g / cm^3
# Si number density = 23.884238 Si / 1000 Ang^3
#
#
#
# Elastic Constant Matrix: (Units=GPa)
#
#
# Indices 1 2 3 4 5 6 
#
# 1 202.5016 3.2085 -16.3938 0.0000 12.0351 0.0000
# 2 3.2085 37.8171 14.9190 0.0000 -7.0766 0.0000
# 3 -16.3938 14.9190 113.7377 0.0000 -18.9437 0.0000
# 4 0.0000 0.0000 0.0000 14.3321 0.0000 -0.9017
# 5 12.0351 -7.0766 -18.9437 0.0000 72.1586 0.0000
# 6 0.0000 0.0000 0.0000 -0.9017 0.0000 38.9766
#
#
#
# Elastic Compliance Matrix: (Units=1/GPa)
#
#
# Indices 1 2 3 4 5 6 
#
# 1 0.005054 -0.000850 0.000717 0.000000 -0.000738 0.000000
# 2 -0.000850 0.028269 -0.003498 0.000000 0.001996 0.000000
# 3 0.000717 -0.003498 0.009701 0.000000 0.002084 0.000000
# 4 0.000000 0.000000 0.000000 0.069875 0.000000 0.001617
# 5 -0.000738 0.001996 0.002084 0.000000 0.014724 0.000000
# 6 0.000000 0.000000 0.000000 0.001617 0.000000 0.025694
#
#
# Mechanical properties :
#
#
# Convention : Reuss Voigt Hill
#
# Bulk Modulus (GPa) = 27.96258 39.72486 33.84372
# Shear Modulus (GPa) = 28.98559 48.58165 38.78362
#
# Velocity S-wave (km/s) = 3.48744 4.51493 4.03403
# Velocity P-wave (km/s) = 5.28670 6.62177 5.99154
#
# Compressibility (1/GPa) = 0.03576207
#
# Stress axis : x y z
#
# Youngs Moduli (GPa) = 197.87884 35.37490 103.07700
#
# Poissons Ratio (x) = 0.03006 -0.07390
# Poissons Ratio (y) = 0.16814 0.36057
# Poissons Ratio (z) = -0.14187 0.12374
#
# Static dielectric constant tensor:
#      x y z
#    x 2.004350 0.000000 -0.022130 
#    y 0.000000 1.906380 0.000000 
#    z -0.022130 0.000000 1.877700 
# 
# From -- ./inp_files/7247.got.cif
#   From: 2010.05.17/outbox.cif.g08.bks.cpg/sg4_4_cif.got.tgz:7247.got - 2010.06.03 18:43:04.
