data_PCOD9118288
_publ_section_title
;
Structure prediction by ZEFSAII (Michael W. Deem and Ramdas Pophale) SiO2 
 PCOD9118288
Probable space group: P 21
;
_chemical_formula_sum "Si O2"
_cell_formula_units_Z 16
_cell_length_a 24.284352
_cell_length_b 6.293614
_cell_length_c 8.481163
_cell_angle_alpha 90.000000
_cell_angle_beta 29.908292
_cell_angle_gamma 90.000000
_cell_volume 646.317327
_symmetry_space_group_name_H-M "P 21"
_symmetry_group_IT_number 4
_symmetry_cell_setting 'monoclinic'
loop_
_space_group_symop_operation_xyz
x,y,z
-x,1/2+y,-z
loop_
_atom_site_type_symbol
_atom_site_label
_atom_site_fract_x
_atom_site_fract_y
_atom_site_fract_z
Si Si1 0.155106 0.212530 0.566724
Si Si2 0.571785 0.090275 0.621692
Si Si3 0.403863 0.802449 0.909655
Si Si4 0.020312 0.564564 0.513725
Si Si5 0.913334 0.366103 0.066063
Si Si6 0.618900 0.510962 0.364788
Si Si7 0.267344 0.541905 0.498353
Si Si8 0.250582 0.377611 0.008197
O O1 0.206264 0.336070 0.586477
O O2 0.225121 0.291219 0.244516
O O3 0.149450 0.969007 0.630016
O O4 0.027867 0.266830 0.842397
O O5 0.450570 0.995827 0.902595
O O6 0.584533 0.341695 0.581139
O O7 0.639018 0.006173 0.604240
O O8 0.640337 0.009856 0.298689
O O9 0.511733 0.658429 0.607530
O O10 0.360915 0.901822 0.854346
O O11 0.323999 0.656837 0.209331
O O12 0.150344 0.528763 0.213121
O O13 0.004735 0.815005 0.495860
O O14 0.952242 0.541968 0.844565
O O15 0.830547 0.195463 0.197330
O O16 0.723856 0.657297 0.148367
#
# Coordination Sequence:
#
# PCOD9118288 Si02
#       8
#     2   2   2   2   2   2   2   2
#     4  11  24  46  72 103 145 190 254 298 376 453
#     4  11  26  45  70 105 144 182 253 303 383 450
#     4  11  25  45  71 102 136 194 241 304 378 457
#     4  11  27  46  75 110 156 202 252 315 385 451
#     4  11  25  44  74 105 148 197 250 310 370 465
#     4  11  23  45  73  97 141 183 251 305 369 466
#     4  12  27  43  72 104 148 190 235 317 378 440
#     4  10  25  44  71 106 138 200 244 308 371 460
#
# _framework density 24.75564
#
# number of rings (size 3 to 8) (size 9 to 14) (size 15 to 20)
#    0.000    1.000    2.500    2.250   10.500    2.000 
#    0.000    0.000    0.000    0.000    0.000    0.000 
#    0.000    0.000    0.000    0.000    0.000    0.000 
#
# Total GULP energy -89325.708489 kJ/mol
# GULP energy per Si atom -5582.856781 kJ/mol
# Density = 2.469930 g / cm^3
# Si number density = 24.755640 Si / 1000 Ang^3
#
#
#
# Elastic Constant Matrix: (Units=GPa)
#
#
# Indices 1 2 3 4 5 6 
#
# 1 54.4042 13.2112 7.6232 0.0000 2.5791 0.0000
# 2 13.2112 77.3902 20.1696 0.0000 4.9829 0.0000
# 3 7.6232 20.1696 68.2103 0.0000 0.9881 0.0000
# 4 0.0000 0.0000 0.0000 45.7472 0.0000 -0.6107
# 5 2.5791 4.9829 0.9881 0.0000 22.9428 0.0000
# 6 0.0000 0.0000 0.0000 -0.6107 0.0000 37.4808
#
#
#
# Elastic Compliance Matrix: (Units=1/GPa)
#
#
# Indices 1 2 3 4 5 6 
#
# 1 0.019329 -0.002867 -0.001291 0.000000 -0.001495 0.000000
# 2 -0.002867 0.014616 -0.003963 0.000000 -0.002682 0.000000
# 3 -0.001291 -0.003963 0.015972 0.000000 0.000318 0.000000
# 4 0.000000 0.000000 0.000000 0.021864 0.000000 0.000356
# 5 -0.001495 -0.002682 0.000318 0.000000 0.044323 0.000000
# 6 0.000000 0.000000 0.000000 0.000356 0.000000 0.026686
#
#
# Mechanical properties :
#
#
# Convention : Reuss Voigt Hill
#
# Bulk Modulus (GPa) = 29.69459 31.33474 30.51466
# Shear Modulus (GPa) = 29.36734 31.83420 30.60077
#
# Velocity S-wave (km/s) = 3.44799 3.58989 3.51965
# Velocity P-wave (km/s) = 5.27945 5.46518 5.37312
#
# Compressibility (1/GPa) = 0.03367616
#
# Stress axis : x y z
#
# Youngs Moduli (GPa) = 51.73617 68.41636 62.60972
#
# Poissons Ratio (x) = 0.19615 0.08082
# Poissons Ratio (y) = 0.14833 0.24811
# Poissons Ratio (z) = 0.06678 0.27112
#
# Static dielectric constant tensor:
#      x y z
#    x 1.981190 0.000000 0.031150 
#    y 0.000000 2.043610 0.000000 
#    z 0.031150 0.000000 1.955500 
# 
# From -- ./inp_files/7357.got.cif
#   From: 2010.05.17/outbox.cif.g08.bks.cpg/sg4_4_cif.got.tgz:7357.got - 2010.06.03 18:43:04.
