data_PCOD9118996
_publ_section_title
;
Structure prediction by ZEFSAII (Michael W. Deem and Ramdas Pophale) SiO2 
 PCOD9118996
Probable space group: P 21
;
_chemical_formula_sum "Si O2"
_cell_formula_units_Z 16
_cell_length_a 9.160040
_cell_length_b 5.775189
_cell_length_c 27.080243
_cell_angle_alpha 90.000000
_cell_angle_beta 28.922938
_cell_angle_gamma 90.000000
_cell_volume 692.838326
_symmetry_space_group_name_H-M "P 21"
_symmetry_group_IT_number 4
_symmetry_cell_setting 'monoclinic'
loop_
_space_group_symop_operation_xyz
x,y,z
-x,1/2+y,-z
loop_
_atom_site_type_symbol
_atom_site_label
_atom_site_fract_x
_atom_site_fract_y
_atom_site_fract_z
Si Si1 0.871736 0.395430 0.018278
Si Si2 0.192768 0.324017 0.227909
Si Si3 0.139531 0.732534 0.519071
Si Si4 0.740012 0.723091 0.380773
Si Si5 0.837171 0.077623 0.261780
Si Si6 0.810053 0.781525 0.171476
Si Si7 0.813380 0.446980 0.683100
Si Si8 0.576671 0.972329 0.651754
O O1 0.925489 0.313815 0.945919
O O2 0.518260 0.442934 0.132691
O O3 0.030190 0.650093 0.982386
O O4 0.197132 0.153627 0.273755
O O5 0.898495 0.486434 0.317910
O O6 0.139918 0.207446 0.190063
O O7 0.380558 0.735058 0.492164
O O8 0.338875 0.668974 0.412799
O O9 0.917314 0.524019 0.598382
O O10 0.897257 0.931974 0.583424
O O11 0.797478 0.911365 0.320863
O O12 0.928408 0.781926 0.373185
O O13 0.551623 0.249242 0.338997
O O14 0.866787 0.943483 0.201818
O O15 0.690544 0.543747 0.231757
O O16 0.518478 0.851077 0.225264
#
# Coordination Sequence:
#
# PCOD9118996 Si02
#       8
#     2   2   2   2   2   2   2   2
#     4  12  29  52  85 117 152 203 263 326 403 475
#     4  11  25  51  73 106 153 193 247 328 386 459
#     4  12  24  41  68 103 146 200 244 302 382 459
#     4  11  25  44  67 104 149 194 246 310 376 450
#     4  11  23  48  70 103 149 192 252 312 384 454
#     4  12  25  49  75 108 147 197 257 319 388 468
#     4  11  26  40  69 103 145 190 245 302 370 459
#     4  12  25  45  71 104 155 197 256 321 379 470
#
# _framework density 23.093412000000001
#
# number of rings (size 3 to 8) (size 9 to 14) (size 15 to 20)
#    0.000    0.500    5.000    2.250    8.750    0.000 
#    4.500    0.000    0.000    0.000    0.000    0.000 
#    0.000    0.000    0.000    0.000    0.000    0.000 
#
# Total GULP energy -89245.624786 kJ/mol
# GULP energy per Si atom -5577.851549 kJ/mol
# Density = 2.304085 g / cm^3
# Si number density = 23.093412 Si / 1000 Ang^3
#
#
#
# Elastic Constant Matrix: (Units=GPa)
#
#
# Indices 1 2 3 4 5 6 
#
# 1 106.6543 35.0536 10.1133 0.0000 -12.8316 0.0000
# 2 35.0536 58.8515 -12.4923 0.0000 -3.1178 0.0000
# 3 10.1133 -12.4923 43.0027 0.0000 3.2822 0.0000
# 4 0.0000 0.0000 0.0000 22.5138 0.0000 -5.7906
# 5 -12.8316 -3.1178 3.2822 0.0000 44.9398 0.0000
# 6 0.0000 0.0000 0.0000 -5.7906 0.0000 45.7800
#
#
#
# Elastic Compliance Matrix: (Units=1/GPa)
#
#
# Indices 1 2 3 4 5 6 
#
# 1 0.013360 -0.009049 -0.006048 0.000000 0.003629 0.000000
# 2 -0.009049 0.024272 0.009300 0.000000 -0.001579 0.000000
# 3 -0.006048 0.009300 0.027615 0.000000 -0.003098 0.000000
# 4 0.000000 0.000000 0.000000 0.045911 0.000000 0.005807
# 5 0.003629 -0.001579 -0.003098 0.000000 0.023405 0.000000
# 6 0.000000 0.000000 0.000000 0.005807 0.000000 0.022578
#
#
# Mechanical properties :
#
#
# Convention : Reuss Voigt Hill
#
# Bulk Modulus (GPa) = 18.63833 30.42861 24.53347
# Shear Modulus (GPa) = 26.79242 34.36900 30.58071
#
# Velocity S-wave (km/s) = 3.40983 3.86198 3.64293
# Velocity P-wave (km/s) = 4.85705 5.75252 5.32365
#
# Compressibility (1/GPa) = 0.05365287
#
# Stress axis : x y z
#
# Youngs Moduli (GPa) = 74.84851 41.19914 36.21253
#
# Poissons Ratio (x) = 0.37282 0.21901
# Poissons Ratio (y) = 0.67733 -0.33677
# Poissons Ratio (z) = 0.45267 -0.38315
#
# Static dielectric constant tensor:
#      x y z
#    x 1.898600 0.000000 0.010370 
#    y 0.000000 2.037800 0.000000 
#    z 0.010370 0.000000 1.937610 
# 
# From -- ./inp_files/9046.got.cif
#   From: 2010.05.17/outbox.cif.g08.bks.cpg/sg4_5_cif.got.tgz:9046.got - 2010.06.03 18:43:04.
