data_PCOD9118733
_publ_section_title
;
Structure prediction by ZEFSAII (Michael W. Deem and Ramdas Pophale) SiO2 
 PCOD9118733
Probable space group: P 21
;
_chemical_formula_sum "Si O2"
_cell_formula_units_Z 14
_cell_length_a 11.817424
_cell_length_b 5.560521
_cell_length_c 11.743794
_cell_angle_alpha 90.000000
_cell_angle_beta 130.948166
_cell_angle_gamma 90.000000
_cell_volume 582.864785
_symmetry_space_group_name_H-M "P 21"
_symmetry_group_IT_number 4
_symmetry_cell_setting 'monoclinic'
loop_
_space_group_symop_operation_xyz
x,y,z
-x,1/2+y,-z
loop_
_atom_site_type_symbol
_atom_site_label
_atom_site_fract_x
_atom_site_fract_y
_atom_site_fract_z
Si Si1 0.210234 0.604140 0.119901
Si Si2 0.303418 0.129380 0.426129
Si Si3 0.375098 0.387592 0.705025
Si Si4 0.792659 0.790417 0.199741
Si Si5 0.324399 0.797461 0.984006
Si Si6 0.493315 0.278517 0.338319
Si Si7 0.036278 0.865307 0.190839
O O1 0.373160 0.487290 0.237182
O O2 0.147883 0.688873 0.198616
O O3 0.233242 0.817911 0.043983
O O4 0.094850 0.421433 0.985889
O O5 0.345560 0.311670 0.554785
O O6 0.407527 0.143623 0.383487
O O7 0.351213 0.878981 0.513640
O O8 0.131451 0.107105 0.278190
O O9 0.226116 0.339352 0.678475
O O10 0.459064 0.641518 0.743393
O O11 0.502479 0.265287 0.867385
O O12 0.713987 0.538652 0.111102
O O13 0.957914 0.776755 0.253897
O O14 0.726227 0.042475 0.104111
#
# Coordination Sequence:
#
# PCOD9118733 Si02
#       7
#     2   2   2   2   2   2   2
#     4  11  22  44  77 106 147 193 249 315 371 441
#     4  12  25  43  68 107 143 181 246 303 377 435
#     4  12  25  44  71 103 144 199 240 312 371 442
#     4  11  27  46  72 106 152 195 248 301 367 456
#     4  11  23  45  73 109 141 192 258 309 359 429
#     4  12  24  46  72 107 139 192 255 312 368 438
#     4  11  24  44  67 114 142 194 236 304 377 451
#
# _framework density 24.019293999999999
#
# number of rings (size 3 to 8) (size 9 to 14) (size 15 to 20)
#    0.000    0.571    2.857    6.000    2.000    1.143 
#    2.571    0.000    0.000    0.000    0.000    0.000 
#    0.000    0.000    0.000    0.000    0.000    0.000 
#
# Total GULP energy -78173.132580 kJ/mol
# GULP energy per Si atom -5583.795184 kJ/mol
# Density = 2.396463 g / cm^3
# Si number density = 24.019294 Si / 1000 Ang^3
#
#
#
# Elastic Constant Matrix: (Units=GPa)
#
#
# Indices 1 2 3 4 5 6 
#
# 1 153.9425 40.1468 13.1741 0.0000 -28.4557 0.0000
# 2 40.1468 95.4250 16.3119 0.0000 -14.7760 0.0000
# 3 13.1741 16.3119 49.1709 0.0000 -3.9678 0.0000
# 4 0.0000 0.0000 0.0000 33.5578 0.0000 -8.3007
# 5 -28.4557 -14.7760 -3.9678 0.0000 26.5109 0.0000
# 6 0.0000 0.0000 0.0000 -8.3007 0.0000 26.6332
#
#
#
# Elastic Compliance Matrix: (Units=1/GPa)
#
#
# Indices 1 2 3 4 5 6 
#
# 1 0.008613 -0.002249 -0.000928 0.000000 0.007853 0.000000
# 2 -0.002249 0.012622 -0.003251 0.000000 0.004134 0.000000
# 3 -0.000928 -0.003251 0.021700 0.000000 0.000440 0.000000
# 4 0.000000 0.000000 0.000000 0.032289 0.000000 0.010063
# 5 0.007853 0.004134 0.000440 0.000000 0.048519 0.000000
# 6 0.000000 0.000000 0.000000 0.010063 0.000000 0.040683
#
#
# Mechanical properties :
#
#
# Convention : Reuss Voigt Hill
#
# Bulk Modulus (GPa) = 33.24604 48.64491 40.94547
# Shear Modulus (GPa) = 26.69396 32.60075 29.64735
#
# Velocity S-wave (km/s) = 3.33732 3.68812 3.51709
# Velocity P-wave (km/s) = 5.35926 6.19941 5.79458
#
# Compressibility (1/GPa) = 0.03007877
#
# Stress axis : x y z
#
# Youngs Moduli (GPa) = 116.09692 79.22970 46.08342
#
# Poissons Ratio (x) = 0.17821 0.04276
# Poissons Ratio (y) = 0.26113 0.14981
# Poissons Ratio (z) = 0.10773 0.25756
#
# Static dielectric constant tensor:
#      x y z
#    x 1.965350 0.000000 -0.045920 
#    y 0.000000 2.045090 0.000000 
#    z -0.045920 0.000000 1.959550 
# 
# From -- ./inp_files/11461.got.cif
#   From: 2010.05.17/outbox.cif.g08.bks.cpg/sg4_6_cif.got.tgz:11461.got - 2010.06.03 18:43:04.
