data_PCOD9118187
_publ_section_title
;
Structure prediction by ZEFSAII (Michael W. Deem and Ramdas Pophale) SiO2 
 PCOD9118187
Probable space group: P 21
;
_chemical_formula_sum "Si O2"
_cell_formula_units_Z 14
_cell_length_a 6.368685
_cell_length_b 8.614962
_cell_length_c 14.730151
_cell_angle_alpha 90.000000
_cell_angle_beta 46.678228
_cell_angle_gamma 90.000000
_cell_volume 587.963754
_symmetry_space_group_name_H-M "P 21"
_symmetry_group_IT_number 4
_symmetry_cell_setting 'monoclinic'
loop_
_space_group_symop_operation_xyz
x,y,z
-x,1/2+y,-z
loop_
_atom_site_type_symbol
_atom_site_label
_atom_site_fract_x
_atom_site_fract_y
_atom_site_fract_z
Si Si1 0.784548 0.154860 0.345635
Si Si2 0.122853 0.701823 0.178684
Si Si3 0.102919 0.455863 0.866355
Si Si4 0.189394 0.909198 0.796260
Si Si5 0.839909 0.632000 0.443138
Si Si6 0.187264 0.308875 0.356552
Si Si7 0.254118 0.216212 0.958929
O O1 0.752305 0.328784 0.317342
O O2 0.496325 0.109961 0.483782
O O3 0.069271 0.176685 0.321945
O O4 0.781622 0.050488 0.254758
O O5 0.447123 0.646483 0.096187
O O6 0.138487 0.850610 0.109915
O O7 0.903448 0.582519 0.197152
O O8 0.993393 0.727011 0.317112
O O9 0.300645 0.332471 0.860645
O O10 0.968420 0.572661 0.979844
O O11 0.484611 0.866404 0.761092
O O12 0.911400 0.822689 0.919181
O O13 0.841300 0.728615 0.536432
O O14 0.998994 0.466984 0.409539
#
# Coordination Sequence:
#
# PCOD9118187 Si02
#       7
#     2   2   2   2   2   2   2
#     4  10  25  46  68 106 147 188 242 308 370 444
#     4  12  26  42  74 107 142 194 246 305 370 441
#     4  11  27  43  74 101 147 189 252 300 375 435
#     4  10  24  47  72 106 144 193 242 306 373 438
#     4  11  28  41  75 105 144 193 246 304 376 442
#     4  11  26  46  75 103 151 192 247 312 370 438
#     4  11  26  47  70 104 145 193 247 307 362 442
#
# _framework density 23.810993
#
# number of rings (size 3 to 8) (size 9 to 14) (size 15 to 20)
#    0.000    1.143    1.429    1.714   12.000    4.571 
#    0.000    0.000    0.000    0.000    0.000    0.000 
#    0.000    0.000    0.000    0.000    0.000    0.000 
#
# Total GULP energy -78128.757441 kJ/mol
# GULP energy per Si atom -5580.625531 kJ/mol
# Density = 2.375680 g / cm^3
# Si number density = 23.810993 Si / 1000 Ang^3
#
#
#
# Elastic Constant Matrix: (Units=GPa)
#
#
# Indices 1 2 3 4 5 6 
#
# 1 95.2457 26.9870 49.6614 0.0000 -9.4686 0.0000
# 2 26.9870 92.3372 27.3017 0.0000 6.8391 0.0000
# 3 49.6614 27.3017 101.4403 0.0000 -6.4024 0.0000
# 4 0.0000 0.0000 0.0000 40.0425 0.0000 10.3475
# 5 -9.4686 6.8391 -6.4024 0.0000 40.3961 0.0000
# 6 0.0000 0.0000 0.0000 10.3475 0.0000 44.1228
#
#
#
# Elastic Compliance Matrix: (Units=1/GPa)
#
#
# Indices 1 2 3 4 5 6 
#
# 1 0.014874 -0.002679 -0.006376 0.000000 0.002929 0.000000
# 2 -0.002679 0.012508 -0.002251 0.000000 -0.003102 0.000000
# 3 -0.006376 -0.002251 0.013651 0.000000 0.001050 0.000000
# 4 0.000000 0.000000 0.000000 0.026585 0.000000 -0.006234
# 5 0.002929 -0.003102 0.001050 0.000000 0.026133 0.000000
# 6 0.000000 0.000000 0.000000 -0.006234 0.000000 0.024126
#
#
# Mechanical properties :
#
#
# Convention : Reuss Voigt Hill
#
# Bulk Modulus (GPa) = 54.28161 55.21369 54.74765
# Shear Modulus (GPa) = 34.09976 37.25050 35.67513
#
# Velocity S-wave (km/s) = 3.78842 3.95957 3.87494
# Velocity P-wave (km/s) = 6.47939 6.64402 6.56222
#
# Compressibility (1/GPa) = 0.01842245
#
# Stress axis : x y z
#
# Youngs Moduli (GPa) = 67.23250 79.94825 73.25265
#
# Poissons Ratio (x) = 0.21418 0.46704
# Poissons Ratio (y) = 0.18011 0.16487
# Poissons Ratio (z) = 0.42866 0.17994
#
# Static dielectric constant tensor:
#      x y z
#    x 1.963710 0.000000 0.031790 
#    y 0.000000 1.942740 0.000000 
#    z 0.031790 0.000000 1.887760 
# 
# From -- ./inp_files/2381.got.cif
#   From: 2010.05.17/outbox.cif.g08.bks.cpg/sg4_2_cif.got.tgz:2381.got - 2010.06.03 18:43:04.
