data_PCOD9118632
_publ_section_title
;
Structure prediction by ZEFSAII (Michael W. Deem and Ramdas Pophale) SiO2 
 PCOD9118632
Probable space group: P 21
;
_chemical_formula_sum "Si O2"
_cell_formula_units_Z 16
_cell_length_a 13.761378
_cell_length_b 5.793815
_cell_length_c 10.588890
_cell_angle_alpha 90.000000
_cell_angle_beta 47.874498
_cell_angle_gamma 90.000000
_cell_volume 626.169644
_symmetry_space_group_name_H-M "P 21"
_symmetry_group_IT_number 4
_symmetry_cell_setting 'monoclinic'
loop_
_space_group_symop_operation_xyz
x,y,z
-x,1/2+y,-z
loop_
_atom_site_type_symbol
_atom_site_label
_atom_site_fract_x
_atom_site_fract_y
_atom_site_fract_z
Si Si1 0.315682 0.733030 0.440359
Si Si2 0.219626 0.458782 0.930999
Si Si3 0.495566 0.982201 0.441239
Si Si4 0.541516 0.414844 0.156927
Si Si5 0.837390 0.437743 0.000310
Si Si6 0.052817 0.577715 0.626669
Si Si7 0.141448 0.419117 0.277174
Si Si8 0.642481 0.568048 0.804052
O O1 0.352868 0.931430 0.504711
O O2 0.445360 0.581344 0.316510
O O3 0.189873 0.581896 0.579167
O O4 0.298927 0.846682 0.317036
O O5 0.368784 0.457063 0.754273
O O6 0.148933 0.691652 0.940109
O O7 0.221594 0.497655 0.083163
O O8 0.157120 0.205217 0.955816
O O9 0.504547 0.751934 0.521251
O O10 0.457939 0.184898 0.206158
O O11 0.685690 0.424896 0.087988
O O12 0.560285 0.506829 0.998477
O O13 0.941685 0.429070 0.793123
O O14 0.082966 0.532538 0.453668
O O15 0.987969 0.828323 0.680788
O O16 0.239511 0.230656 0.254043
#
# Coordination Sequence:
#
# PCOD9118632 Si02
#       8
#     2   2   2   2   2   2   2   2
#     4  12  26  42  66 102 139 184 239 303 362 423
#     4  11  23  44  71 101 136 189 239 280 355 428
#     4  12  28  50  77 105 135 178 249 330 386 412
#     4  12  23  37  60  99 141 193 231 281 338 429
#     4  11  24  41  68  98 151 193 234 267 342 423
#     4  11  23  39  63 107 152 197 235 273 337 443
#     4  11  22  38  61 104 150 202 223 271 342 435
#     4  12  23  35  62  98 144 192 238 279 342 431
#
# _framework density 25.552181999999998
#
# number of rings (size 3 to 8) (size 9 to 14) (size 15 to 20)
#    0.000    0.500    6.250    3.000    5.250    1.000 
#    0.000    0.000    0.000    9.000    0.000    0.000 
#    0.000    0.000    0.000    0.000    0.000    0.000 
#
# Total GULP energy -89301.162649 kJ/mol
# GULP energy per Si atom -5581.322666 kJ/mol
# Density = 2.549402 g / cm^3
# Si number density = 25.552182 Si / 1000 Ang^3
#
#
#
# Elastic Constant Matrix: (Units=GPa)
#
#
# Indices 1 2 3 4 5 6 
#
# 1 37.8859 6.8965 17.7903 0.0000 -21.1158 0.0000
# 2 6.8965 139.5252 43.7807 0.0000 -3.1030 0.0000
# 3 17.7903 43.7807 150.5168 0.0000 -26.9181 0.0000
# 4 0.0000 0.0000 0.0000 54.4033 0.0000 7.1064
# 5 -21.1158 -3.1030 -26.9181 0.0000 30.9455 0.0000
# 6 0.0000 0.0000 0.0000 7.1064 0.0000 30.9857
#
#
#
# Elastic Compliance Matrix: (Units=1/GPa)
#
#
# Indices 1 2 3 4 5 6 
#
# 1 0.042957 -0.001694 0.000743 0.000000 0.029788 0.000000
# 2 -0.001694 0.008007 -0.002596 0.000000 -0.002611 0.000000
# 3 0.000743 -0.002596 0.008710 0.000000 0.007823 0.000000
# 4 0.000000 0.000000 0.000000 0.018949 0.000000 -0.004346
# 5 0.029788 -0.002611 0.007823 0.000000 0.059184 0.000000
# 6 0.000000 0.000000 0.000000 -0.004346 0.000000 0.033270
#
#
# Mechanical properties :
#
#
# Convention : Reuss Voigt Hill
#
# Bulk Modulus (GPa) = 19.01844 51.65144 35.33494
# Shear Modulus (GPa) = 25.54955 40.56424 33.05689
#
# Velocity S-wave (km/s) = 3.16555 3.98867 3.60071
# Velocity P-wave (km/s) = 4.56290 6.43977 5.58080
#
# Compressibility (1/GPa) = 0.05258056
#
# Stress axis : x y z
#
# Youngs Moduli (GPa) = 23.27898 124.88541 114.80946
#
# Poissons Ratio (x) = 0.21154 -0.08526
# Poissons Ratio (y) = 0.03943 0.29802
# Poissons Ratio (z) = -0.01729 0.32418
#
# Static dielectric constant tensor:
#      x y z
#    x 2.032080 0.000000 0.069010 
#    y 0.000000 2.122570 0.000000 
#    z 0.069010 0.000000 2.029140 
# 
# From -- ./inp_files/12465.got.cif
#   From: 2010.05.17/outbox.cif.g08.bks.cpg/sg4_7_cif.got.tgz:12465.got - 2010.06.03 18:43:04.
