data_PCOD9118397
_publ_section_title
;
Structure prediction by ZEFSAII (Michael W. Deem and Ramdas Pophale) SiO2 
 PCOD9118397
Probable space group: P 21
;
_chemical_formula_sum "Si O2"
_cell_formula_units_Z 14
_cell_length_a 12.938661
_cell_length_b 6.739868
_cell_length_c 12.671068
_cell_angle_alpha 90.000000
_cell_angle_beta 32.358416
_cell_angle_gamma 90.000000
_cell_volume 591.399970
_symmetry_space_group_name_H-M "P 21"
_symmetry_group_IT_number 4
_symmetry_cell_setting 'monoclinic'
loop_
_space_group_symop_operation_xyz
x,y,z
-x,1/2+y,-z
loop_
_atom_site_type_symbol
_atom_site_label
_atom_site_fract_x
_atom_site_fract_y
_atom_site_fract_z
Si Si1 0.681625 0.956030 0.266249
Si Si2 0.062050 0.671613 0.306625
Si Si3 0.950399 0.529307 0.834411
Si Si4 0.332758 0.291791 0.056290
Si Si5 0.314414 0.754082 0.556364
Si Si6 0.919228 0.579745 0.112784
Si Si7 0.257097 0.968109 0.299679
O O1 0.503896 0.868407 0.354134
O O2 0.795713 0.778340 0.226301
O O3 0.817586 0.412064 0.268160
O O4 0.852470 0.069267 0.057817
O O5 0.860761 0.560219 0.501887
O O6 0.221914 0.500168 0.164343
O O7 0.055322 0.812433 0.211099
O O8 0.113859 0.823642 0.357230
O O9 0.158437 0.628444 0.625303
O O10 0.782194 0.662105 0.929551
O O11 0.917841 0.539387 0.987714
O O12 0.319262 0.154093 0.172422
O O13 0.553499 0.340951 0.840361
O O14 0.392063 0.601741 0.578813
#
# Coordination Sequence:
#
# PCOD9118397 Si02
#       7
#     2   2   2   2   2   2   2
#     4  11  21  39  70  92 122 183 228 276 336 398
#     4  11  23  44  70 102 140 173 226 283 330 421
#     4  10  26  44  64 104 143 174 233 285 333 395
#     4  11  23  44  71 102 139 178 226 280 332 426
#     4  11  23  43  68  96 133 181 233 277 338 400
#     4  11  22  43  66  94 137 180 226 280 335 402
#     4  11  22  43  75 100 134 185 220 267 362 400
#
# _framework density 23.672640999999999
#
# number of rings (size 3 to 8) (size 9 to 14) (size 15 to 20)
#    0.000    1.143    7.143    0.000    0.000    3.429 
#    5.143    0.000    0.000    0.000    0.000    0.000 
#    0.000    0.000    0.000    0.000    0.000    0.000 
#
# Total GULP energy -78322.823848 kJ/mol
# GULP energy per Si atom -5594.487418 kJ/mol
# Density = 2.361876 g / cm^3
# Si number density = 23.672641 Si / 1000 Ang^3
#
#
#
# Elastic Constant Matrix: (Units=GPa)
#
#
# Indices 1 2 3 4 5 6 
#
# 1 63.7228 18.2043 27.9701 0.0000 -4.0845 0.0000
# 2 18.2043 98.1952 31.7718 0.0000 3.1538 0.0000
# 3 27.9701 31.7718 142.0273 0.0000 -25.3143 0.0000
# 4 0.0000 0.0000 0.0000 49.5144 0.0000 -7.7638
# 5 -4.0845 3.1538 -25.3143 0.0000 26.7633 0.0000
# 6 0.0000 0.0000 0.0000 -7.7638 0.0000 23.6584
#
#
#
# Elastic Compliance Matrix: (Units=1/GPa)
#
#
# Indices 1 2 3 4 5 6 
#
# 1 0.017654 -0.002336 -0.002917 0.000000 0.000211 0.000000
# 2 -0.002336 0.011725 -0.002974 0.000000 -0.004551 0.000000
# 3 -0.002917 -0.002974 0.009939 0.000000 0.009307 0.000000
# 4 0.000000 0.000000 0.000000 0.021292 0.000000 0.006987
# 5 0.000211 -0.004551 0.009307 0.000000 0.046736 0.000000
# 6 0.000000 0.000000 0.000000 0.006987 0.000000 0.044561
#
#
# Mechanical properties :
#
#
# Convention : Reuss Voigt Hill
#
# Bulk Modulus (GPa) = 43.73423 51.09307 47.41365
# Shear Modulus (GPa) = 28.41186 35.05381 31.73283
#
# Velocity S-wave (km/s) = 3.46815 3.85226 3.66524
# Velocity P-wave (km/s) = 5.87810 6.43557 6.16314
#
# Compressibility (1/GPa) = 0.02286539
#
# Stress axis : x y z
#
# Youngs Moduli (GPa) = 56.64444 85.28520 100.61001
#
# Poissons Ratio (x) = 0.19922 0.29343
# Poissons Ratio (y) = 0.13232 0.29923
# Poissons Ratio (z) = 0.16520 0.25365
#
# Static dielectric constant tensor:
#      x y z
#    x 1.922890 0.000000 -0.021110 
#    y 0.000000 1.927070 0.000000 
#    z -0.021110 0.000000 1.876630 
# 
# From -- ./inp_files/15859.got.cif
#   From: 2010.05.17/outbox.cif.g08.bks.cpg/sg4_8_cif.got.tgz:15859.got - 2010.06.03 18:43:04.
