data_PCOD9118791
_publ_section_title
;
Structure prediction by ZEFSAII (Michael W. Deem and Ramdas Pophale) SiO2 
 PCOD9118791
Probable space group: P 21
;
_chemical_formula_sum "Si O2"
_cell_formula_units_Z 14
_cell_length_a 4.901047
_cell_length_b 5.171227
_cell_length_c 21.188990
_cell_angle_alpha 90.000000
_cell_angle_beta 62.886056
_cell_angle_gamma 90.000000
_cell_volume 478.005023
_symmetry_space_group_name_H-M "P 21"
_symmetry_group_IT_number 4
_symmetry_cell_setting 'monoclinic'
loop_
_space_group_symop_operation_xyz
x,y,z
-x,1/2+y,-z
loop_
_atom_site_type_symbol
_atom_site_label
_atom_site_fract_x
_atom_site_fract_y
_atom_site_fract_z
Si Si1 0.521464 0.608290 0.267876
Si Si2 0.053691 0.407701 0.558433
Si Si3 0.714693 0.595679 0.984262
Si Si4 0.379024 0.025393 0.873046
Si Si5 0.512452 0.612195 0.410792
Si Si6 0.103466 0.117143 0.299810
Si Si7 0.190867 0.025084 0.158607
O O1 0.747452 0.572417 0.184407
O O2 0.619684 0.549583 0.329034
O O3 0.273354 0.386646 0.280742
O O4 0.346286 0.881042 0.282411
O O5 0.264960 0.449581 0.475768
O O6 0.197630 0.156412 0.576099
O O7 0.702970 0.367658 0.576419
O O8 0.083658 0.600836 0.615008
O O9 0.929819 0.565316 0.900032
O O10 0.468345 0.363950 0.001941
O O11 0.835864 0.557936 0.042850
O O12 0.626932 0.256579 0.854760
O O13 0.559518 0.755591 0.859940
O O14 0.973839 0.056510 0.243164
#
# Coordination Sequence:
#
# PCOD9118791 Si02
#       7
#     2   2   2   2   2   2   2
#     4   9  18  33  53  78 111 150 192 238 289 345
#     4  11  23  40  62  90 122 158 200 246 299 356
#     4   8  12  18  32  58  94 134 176 222 272 326
#     4   8  13  22  38  63  98 138 180 226 276 331
#     4  11  23  40  62  90 122 158 200 246 299 356
#     4   9  18  33  53  78 111 150 192 238 289 345
#     4   8  13  22  38  63  98 138 180 226 276 331
#
# _framework density 29.288397
#
# number of rings (size 3 to 8) (size 9 to 14) (size 15 to 20)
#    0.000    2.857    0.000    1.714    0.000    2.286 
#    0.000    0.000    0.000    0.000    0.000    0.000 
#    0.000   61.714    0.000    0.000    0.000   73.143 
#
# Total GULP energy -78423.715130 kJ/mol
# GULP energy per Si atom -5601.693938 kJ/mol
# Density = 2.922173 g / cm^3
# Si number density = 29.288397 Si / 1000 Ang^3
#
#
#
# Elastic Constant Matrix: (Units=GPa)
#
#
# Indices 1 2 3 4 5 6 
#
# 1 98.9188 50.6819 66.8950 0.0000 10.9257 0.0000
# 2 50.6819 149.7353 22.2582 0.0000 -24.7182 0.0000
# 3 66.8950 22.2582 271.6137 0.0000 40.4935 0.0000
# 4 0.0000 0.0000 0.0000 58.2132 0.0000 0.3907
# 5 10.9257 -24.7182 40.4935 0.0000 37.6153 0.0000
# 6 0.0000 0.0000 0.0000 0.3907 0.0000 12.8988
#
#
#
# Elastic Compliance Matrix: (Units=1/GPa)
#
#
# Indices 1 2 3 4 5 6 
#
# 1 0.015342 -0.005743 -0.002479 0.000000 -0.005561 0.000000
# 2 -0.005743 0.010278 -0.000814 0.000000 0.009299 0.000000
# 3 -0.002479 -0.000814 0.005159 0.000000 -0.005369 0.000000
# 4 0.000000 0.000000 0.000000 0.017182 0.000000 -0.000520
# 5 -0.005561 0.009299 -0.005369 0.000000 0.040091 0.000000
# 6 0.000000 0.000000 0.000000 -0.000520 0.000000 0.077542
#
#
# Mechanical properties :
#
#
# Convention : Reuss Voigt Hill
#
# Bulk Modulus (GPa) = 78.68777 88.88199 83.78488
# Shear Modulus (GPa) = 26.60959 47.10765 36.85862
#
# Velocity S-wave (km/s) = 3.01746 4.01485 3.55134
# Velocity P-wave (km/s) = 6.25020 7.20451 6.74426
#
# Compressibility (1/GPa) = 0.01270846
#
# Stress axis : x y z
#
# Youngs Moduli (GPa) = 65.17985 97.29298 193.82041
#
# Poissons Ratio (x) = 0.55871 0.48046
# Poissons Ratio (y) = 0.37430 0.15782
# Poissons Ratio (z) = 0.16157 0.07922
#
# Static dielectric constant tensor:
#      x y z
#    x 2.098800 0.000000 0.017840 
#    y 0.000000 2.310790 0.000000 
#    z 0.017840 0.000000 2.480150 
# 
# From -- ./inp_files/4373.got.cif
#   From: 2010.05.17/outbox.cif.g08.bks.cpg/sg4_3_cif.got.tgz:4373.got - 2010.06.03 18:43:04.
