data_PCOD9118238
_publ_section_title
;
Structure prediction by ZEFSAII (Michael W. Deem and Ramdas Pophale) SiO2 
 PCOD9118238
Probable space group: P 21
;
_chemical_formula_sum "Si O2"
_cell_formula_units_Z 12
_cell_length_a 8.255388
_cell_length_b 5.254520
_cell_length_c 14.507994
_cell_angle_alpha 90.000000
_cell_angle_beta 44.020166
_cell_angle_gamma 90.000000
_cell_volume 437.328127
_symmetry_space_group_name_H-M "P 21"
_symmetry_group_IT_number 4
_symmetry_cell_setting 'monoclinic'
loop_
_space_group_symop_operation_xyz
x,y,z
-x,1/2+y,-z
loop_
_atom_site_type_symbol
_atom_site_label
_atom_site_fract_x
_atom_site_fract_y
_atom_site_fract_z
Si Si1 0.395466 0.980940 0.822781
Si Si2 0.052788 0.111401 0.534288
Si Si3 0.975758 0.730474 0.895543
Si Si4 0.884425 0.876830 0.320962
Si Si5 0.625037 0.963263 0.915298
Si Si6 0.409462 0.749758 0.430297
O O1 0.563377 0.880929 0.835282
O O2 0.225828 0.788014 0.837891
O O3 0.552573 0.126020 0.684748
O O4 0.204298 0.165589 0.949490
O O5 0.320321 0.035579 0.448262
O O6 0.970186 0.844272 0.526140
O O7 0.962905 0.214837 0.669402
O O8 0.869643 0.944834 0.870927
O O9 0.995258 0.498305 0.816353
O O10 0.658362 0.733252 0.376074
O O11 0.774841 0.105003 0.429026
O O12 0.480985 0.741972 0.027904
#
# Coordination Sequence:
#
# PCOD9118238 Si02
#       6
#     2   2   2   2   2   2
#     4  11  25  48  79 118 162 212 270 332 409 479
#     4  12  28  52  80 124 160 212 268 340 402 482
#     4  11  25  48  79 118 162 212 270 332 409 479
#     4  12  26  50  81 115 161 212 270 330 405 484
#     4  10  24  50  78 116 162 210 266 332 404 484
#     4  12  26  50  81 115 161 212 270 330 405 484
#
# _framework density 27.439353000000001
#
# number of rings (size 3 to 8) (size 9 to 14) (size 15 to 20)
#    0.000    0.667    3.333    3.000    0.000    5.333 
#   12.000    0.000    0.000    0.000    0.000    0.000 
#    0.000    0.000    0.000    0.000    0.000    0.000 
#
# Total GULP energy -67255.698390 kJ/mol
# GULP energy per Si atom -5604.641533 kJ/mol
# Density = 2.737690 g / cm^3
# Si number density = 27.439353 Si / 1000 Ang^3
#
#
#
# Elastic Constant Matrix: (Units=GPa)
#
#
# Indices 1 2 3 4 5 6 
#
# 1 177.4615 44.1079 32.8110 0.0000 22.6511 0.0000
# 2 44.1079 108.5658 38.3357 0.0000 9.6260 0.0000
# 3 32.8110 38.3357 102.8520 0.0000 19.1628 0.0000
# 4 0.0000 0.0000 0.0000 50.2720 0.0000 -2.1732
# 5 22.6511 9.6260 19.1628 0.0000 52.2995 0.0000
# 6 0.0000 0.0000 0.0000 -2.1732 0.0000 75.8833
#
#
#
# Elastic Compliance Matrix: (Units=1/GPa)
#
#
# Indices 1 2 3 4 5 6 
#
# 1 0.006616 -0.002181 -0.000900 0.000000 -0.002134 0.000000
# 2 -0.002181 0.011340 -0.003561 0.000000 0.000162 0.000000
# 3 -0.000900 -0.003561 0.011959 0.000000 -0.003336 0.000000
# 4 0.000000 0.000000 0.000000 0.019916 0.000000 0.000570
# 5 -0.002134 0.000162 -0.003336 0.000000 0.021238 0.000000
# 6 0.000000 0.000000 0.000000 0.000570 0.000000 0.013194
#
#
# Mechanical properties :
#
#
# Convention : Reuss Voigt Hill
#
# Bulk Modulus (GPa) = 60.13032 68.82095 64.47563
# Shear Modulus (GPa) = 48.50066 53.93261 51.21664
#
# Velocity S-wave (km/s) = 4.20880 4.43823 4.32503
# Velocity P-wave (km/s) = 6.75130 7.16934 6.96346
#
# Compressibility (1/GPa) = 0.01663054
#
# Stress axis : x y z
#
# Youngs Moduli (GPa) = 151.15118 88.18202 83.61999
#
# Poissons Ratio (x) = 0.19231 0.07526
# Poissons Ratio (y) = 0.32964 0.29780
# Poissons Ratio (z) = 0.13604 0.31404
#
# Static dielectric constant tensor:
#      x y z
#    x 2.251440 0.000000 -0.035900 
#    y 0.000000 2.128730 0.000000 
#    z -0.035900 0.000000 2.156150 
# 
# From -- ./inp_files/13501.got.cif
#   From: 2010.05.17/outbox.cif.g08.bks.cpg/sg4_7_cif.got.tgz:13501.got - 2010.06.03 18:43:04.
