data_PCOD9118148
_publ_section_title
;
Structure prediction by ZEFSAII (Michael W. Deem and Ramdas Pophale) SiO2 
 PCOD9118148
Probable space group: P 21
;
_chemical_formula_sum "Si O2"
_cell_formula_units_Z 16
_cell_length_a 12.410504
_cell_length_b 5.269728
_cell_length_c 12.760270
_cell_angle_alpha 90.000000
_cell_angle_beta 51.984442
_cell_angle_gamma 90.000000
_cell_volume 657.472308
_symmetry_space_group_name_H-M "P 21"
_symmetry_group_IT_number 4
_symmetry_cell_setting 'monoclinic'
loop_
_space_group_symop_operation_xyz
x,y,z
-x,1/2+y,-z
loop_
_atom_site_type_symbol
_atom_site_label
_atom_site_fract_x
_atom_site_fract_y
_atom_site_fract_z
Si Si1 0.164994 0.209460 0.474872
Si Si2 0.632523 0.316097 0.681878
Si Si3 0.424863 0.668322 0.505143
Si Si4 0.548397 0.691991 0.022506
Si Si5 0.164409 0.307238 0.098544
Si Si6 0.142341 0.555394 0.311435
Si Si7 0.870978 0.041419 0.302851
Si Si8 0.080948 0.263387 0.930925
O O1 0.178874 0.292683 0.346361
O O2 0.145704 0.434782 0.570168
O O3 0.019024 0.075812 0.573394
O O4 0.302162 0.056499 0.416246
O O5 0.581746 0.143009 0.617172
O O6 0.511427 0.324168 0.837295
O O7 0.761907 0.236951 0.677681
O O8 0.487410 0.412751 0.515848
O O9 0.266682 0.697683 0.636608
O O10 0.476829 0.420554 0.045549
O O11 0.708642 0.642901 0.938883
O O12 0.168221 0.551452 0.172271
O O13 0.014525 0.187504 0.207004
O O14 0.181539 0.343918 0.964480
O O15 0.874723 0.818472 0.213717
O O16 0.960094 0.471495 0.024919
#
# Coordination Sequence:
#
# PCOD9118148 Si02
#       8
#     2   2   2   2   2   2   2   2
#     4  12  23  42  76 113 151 198 249 325 390 462
#     4  12  27  48  71 108 158 195 257 313 394 475
#     4  12  29  51  75 111 149 203 254 326 397 457
#     4  12  29  50  75 111 157 208 254 310 389 470
#     4  11  25  48  75 109 149 203 257 319 377 463
#     4  12  22  40  70 113 145 189 247 310 389 455
#     4  11  25  49  78 110 149 203 264 325 383 467
#     4  10  24  46  72 109 146 195 256 318 377 443
#
# _framework density 24.335625
#
# number of rings (size 3 to 8) (size 9 to 14) (size 15 to 20)
#    0.000    0.500    3.750    3.750    3.500    5.000 
#    4.500    0.000    0.000    0.000    0.000    0.000 
#    0.000    0.000    0.000    0.000    0.000    0.000 
#
# Total GULP energy -89380.558207 kJ/mol
# GULP energy per Si atom -5586.284888 kJ/mol
# Density = 2.428024 g / cm^3
# Si number density = 24.335625 Si / 1000 Ang^3
#
#
#
# Elastic Constant Matrix: (Units=GPa)
#
#
# Indices 1 2 3 4 5 6 
#
# 1 131.4722 40.7822 46.9514 0.0000 -6.2732 0.0000
# 2 40.7822 83.2415 7.0817 0.0000 -5.5816 0.0000
# 3 46.9514 7.0817 74.3101 0.0000 -7.6445 0.0000
# 4 0.0000 0.0000 0.0000 30.8555 0.0000 2.1017
# 5 -6.2732 -5.5816 -7.6445 0.0000 44.9914 0.0000
# 6 0.0000 0.0000 0.0000 2.1017 0.0000 36.2329
#
#
#
# Elastic Compliance Matrix: (Units=1/GPa)
#
#
# Indices 1 2 3 4 5 6 
#
# 1 0.011651 -0.005134 -0.006891 0.000000 -0.000183 0.000000
# 2 -0.005134 0.014453 0.002013 0.000000 0.001419 0.000000
# 3 -0.006891 0.002013 0.017858 0.000000 0.002323 0.000000
# 4 0.000000 0.000000 0.000000 0.032538 0.000000 -0.001887
# 5 -0.000183 0.001419 0.002323 0.000000 0.022772 0.000000
# 6 0.000000 0.000000 0.000000 -0.001887 0.000000 0.027709
#
#
# Mechanical properties :
#
#
# Convention : Reuss Voigt Hill
#
# Bulk Modulus (GPa) = 41.77701 53.18383 47.48042
# Shear Modulus (GPa) = 32.26142 35.36318 33.81230
#
# Velocity S-wave (km/s) = 3.64495 3.81615 3.73153
# Velocity P-wave (km/s) = 5.90919 6.42799 6.17404
#
# Compressibility (1/GPa) = 0.02393661
#
# Stress axis : x y z
#
# Youngs Moduli (GPa) = 85.82991 69.19205 55.99644
#
# Poissons Ratio (x) = 0.35524 0.38587
# Poissons Ratio (y) = 0.44066 -0.11270
# Poissons Ratio (z) = 0.59146 -0.13926
#
# Static dielectric constant tensor:
#      x y z
#    x 1.964150 0.000000 0.001900 
#    y 0.000000 2.028320 0.000000 
#    z 0.001900 0.000000 1.919350 
# 
# From -- ./inp_files/11737.got.cif
#   From: 2010.05.17/outbox.cif.g08.bks.cpg/sg4_6_cif.got.tgz:11737.got - 2010.06.03 18:43:04.
