data_PCOD9118248
_publ_section_title
;
Structure prediction by ZEFSAII (Michael W. Deem and Ramdas Pophale) SiO2 
 PCOD9118248
Probable space group: P 21
;
_chemical_formula_sum "Si O2"
_cell_formula_units_Z 14
_cell_length_a 22.729125
_cell_length_b 5.073186
_cell_length_c 5.112693
_cell_angle_alpha 90.000000
_cell_angle_beta 118.055331
_cell_angle_gamma 90.000000
_cell_volume 520.265329
_symmetry_space_group_name_H-M "P 21"
_symmetry_group_IT_number 4
_symmetry_cell_setting 'monoclinic'
loop_
_space_group_symop_operation_xyz
x,y,z
-x,1/2+y,-z
loop_
_atom_site_type_symbol
_atom_site_label
_atom_site_fract_x
_atom_site_fract_y
_atom_site_fract_z
Si Si1 0.775074 0.719150 0.632413
Si Si2 0.999830 0.169572 0.314665
Si Si3 0.797881 0.077849 0.176348
Si Si4 0.653218 0.229987 0.895381
Si Si5 0.541707 0.587638 0.514580
Si Si6 0.110977 0.878621 0.286691
Si Si7 0.370556 0.361812 0.658681
O O1 0.786662 0.866217 0.383332
O O2 0.823407 0.469574 0.732068
O O3 0.695771 0.679206 0.485939
O O4 0.796935 0.915663 0.908378
O O5 0.007705 0.415285 0.520856
O O6 0.938141 0.208089 0.991776
O O7 0.065956 0.124489 0.280311
O O8 0.862655 0.236676 0.397973
O O9 0.732711 0.265840 0.056542
O O10 0.609929 0.494474 0.798154
O O11 0.496498 0.328050 0.429907
O O12 0.636663 0.062014 0.601648
O O13 0.564938 0.689220 0.278373
O O14 0.367594 0.549089 0.903333
#
# Coordination Sequence:
#
# PCOD9118248 Si02
#       7
#     2   2   2   2   2   2   2
#     4  10  26  48  84 123 159 213 275 347 418 483
#     4  12  32  54  82 116 170 220 272 336 420 506
#     4  10  26  48  84 123 159 213 275 347 418 483
#     4  10  24  52  80 119 169 214 276 348 414 487
#     4  12  26  54  84 126 168 232 276 338 416 504
#     4  12  30  50  80 122 160 218 278 342 416 498
#     4  10  24  52  80 119 169 214 276 348 414 487
#
# _framework density 26.909347
#
# number of rings (size 3 to 8) (size 9 to 14) (size 15 to 20)
#    0.000    1.143    1.429    0.857   10.000    8.000 
#    5.143    0.000    0.000    0.000    0.000    0.000 
#    0.000    0.000    0.000    0.000    0.000    0.000 
#
# Total GULP energy -78699.106475 kJ/mol
# GULP energy per Si atom -5621.364748 kJ/mol
# Density = 2.684810 g / cm^3
# Si number density = 26.909347 Si / 1000 Ang^3
#
#
#
# Elastic Constant Matrix: (Units=GPa)
#
#
# Indices 1 2 3 4 5 6 
#
# 1 95.6811 54.9573 68.8527 0.0000 13.9989 0.0000
# 2 54.9573 133.4356 37.0727 0.0000 -7.1365 0.0000
# 3 68.8527 37.0727 77.7816 0.0000 -29.0811 0.0000
# 4 0.0000 0.0000 0.0000 51.6761 0.0000 10.2708
# 5 13.9989 -7.1365 -29.0811 0.0000 42.6866 0.0000
# 6 0.0000 0.0000 0.0000 10.2708 0.0000 60.5277
#
#
#
# Elastic Compliance Matrix: (Units=1/GPa)
#
#
# Indices 1 2 3 4 5 6 
#
# 1 -0.060371 0.007255 0.077607 0.000000 0.073882 0.000000
# 2 0.007255 0.007874 -0.014185 0.000000 -0.010727 0.000000
# 3 0.077607 -0.014185 -0.079812 0.000000 -0.082196 0.000000
# 4 0.000000 0.000000 0.000000 0.020027 0.000000 -0.003398
# 5 0.073882 -0.010727 -0.082196 0.000000 -0.058594 0.000000
# 6 0.000000 0.000000 0.000000 -0.003398 0.000000 0.017098
#
#
# Mechanical properties :
#
#
# Convention : Reuss Voigt Hill
#
# Bulk Modulus (GPa) = 110.58538 69.85151 90.21844
# Shear Modulus (GPa) = -17.11649 40.71246 11.79799
#
# Velocity S-wave (km/s) = -2.52480 3.89388 2.09615
# Velocity P-wave (km/s) = 5.71710 6.79933 6.28157
#
# Compressibility (1/GPa) = 0.00904279
#
# Stress axis : x y z
#
# Youngs Moduli (GPa) = -16.56420 127.00399 -12.52948
#
# Poissons Ratio (x) = -0.92135 0.97237
# Poissons Ratio (y) = 0.12017 -0.17773
# Poissons Ratio (z) = 1.28549 1.80156
#
# Static dielectric constant tensor:
#      x y z
#    x 2.114890 0.000000 0.010430 
#    y 0.000000 2.090290 0.000000 
#    z 0.010430 0.000000 2.084440 
# 
# From -- ./inp_files/4285.got.cif
#   From: 2010.05.17/outbox.cif.g08.bks.cpg/sg4_3_cif.got.tgz:4285.got - 2010.06.03 18:43:04.
