data_PCOD9118975
_publ_section_title
;
Structure prediction by ZEFSAII (Michael W. Deem and Ramdas Pophale) SiO2 
 PCOD9118975
Probable space group: P 21
;
_chemical_formula_sum "Si O2"
_cell_formula_units_Z 16
_cell_length_a 22.698711
_cell_length_b 5.351277
_cell_length_c 28.313718
_cell_angle_alpha 90.000000
_cell_angle_beta 10.842228
_cell_angle_gamma 90.000000
_cell_volume 646.928662
_symmetry_space_group_name_H-M "P 21"
_symmetry_group_IT_number 4
_symmetry_cell_setting 'monoclinic'
loop_
_space_group_symop_operation_xyz
x,y,z
-x,1/2+y,-z
loop_
_atom_site_type_symbol
_atom_site_label
_atom_site_fract_x
_atom_site_fract_y
_atom_site_fract_z
Si Si1 0.201598 0.708530 0.850552
Si Si2 0.197663 0.197624 0.986375
Si Si3 0.101208 0.573017 0.488132
Si Si4 0.210473 0.316984 0.075740
Si Si5 0.600686 0.729510 0.806336
Si Si6 0.902374 0.511223 0.748188
Si Si7 0.393832 0.814764 0.603956
Si Si8 0.494915 0.192484 0.284874
O O1 0.455826 0.764805 0.609697
O O2 0.361394 0.700742 0.775662
O O3 0.036080 0.443752 0.968639
O O4 0.042493 0.267196 0.158624
O O5 0.445117 0.418877 0.782882
O O6 0.329886 0.918040 0.881296
O O7 0.951972 0.225301 0.137860
O O8 0.432117 0.712119 0.216530
O O9 0.215468 0.293520 0.386541
O O10 0.847953 0.604283 0.646229
O O11 0.951819 0.618155 0.656709
O O12 0.297579 0.588683 0.025194
O O13 0.025272 0.188479 0.264274
O O14 0.450471 0.935945 0.960000
O O15 0.138756 0.279467 0.563287
O O16 0.592701 0.608245 0.418723
#
# Coordination Sequence:
#
# PCOD9118975 Si02
#       8
#     2   2   2   2   2   2   2   2
#     4  12  23  46  72 103 139 186 251 285 355 439
#     4  12  26  48  74 100 149 197 238 293 378 432
#     4  11  23  47  68 100 142 191 235 304 368 427
#     4  11  26  46  70 102 142 186 246 294 366 440
#     4  11  25  43  71 100 140 188 244 301 363 435
#     4  11  28  42  69 110 139 187 248 299 364 437
#     4  12  26  44  70 107 142 186 237 302 353 420
#     4  12  25  48  74 102 145 197 237 304 365 434
#
# _framework density 24.732244000000001
#
# number of rings (size 3 to 8) (size 9 to 14) (size 15 to 20)
#    0.000    0.500    5.000    2.250    7.000    2.000 
#    0.000    0.000    0.000    0.000    0.000    0.000 
#    0.000    0.000    0.000    0.000    0.000    0.000 
#
# Total GULP energy -89350.497787 kJ/mol
# GULP energy per Si atom -5584.406112 kJ/mol
# Density = 2.467595 g / cm^3
# Si number density = 24.732244 Si / 1000 Ang^3
#
#
#
# Elastic Constant Matrix: (Units=GPa)
#
#
# Indices 1 2 3 4 5 6 
#
# 1 154.3503 25.3841 5.8238 0.0000 34.0769 0.0000
# 2 25.3841 56.8668 4.6199 0.0000 8.6594 0.0000
# 3 5.8238 4.6199 38.2035 0.0000 14.5693 0.0000
# 4 0.0000 0.0000 0.0000 48.1932 0.0000 2.4132
# 5 34.0769 8.6594 14.5693 0.0000 45.9321 0.0000
# 6 0.0000 0.0000 0.0000 2.4132 0.0000 32.4867
#
#
#
# Elastic Compliance Matrix: (Units=1/GPa)
#
#
# Indices 1 2 3 4 5 6 
#
# 1 0.008223 -0.002869 0.001381 0.000000 -0.005997 0.000000
# 2 -0.002869 0.019140 -0.001494 0.000000 -0.001006 0.000000
# 3 0.001381 -0.001494 0.030066 0.000000 -0.010279 0.000000
# 4 0.000000 0.000000 0.000000 0.020827 0.000000 -0.001547
# 5 -0.005997 -0.001006 -0.010279 0.000000 0.029671 0.000000
# 6 0.000000 0.000000 0.000000 -0.001547 0.000000 0.030897
#
#
# Mechanical properties :
#
#
# Convention : Reuss Voigt Hill
#
# Bulk Modulus (GPa) = 19.43093 35.67514 27.55303
# Shear Modulus (GPa) = 30.87505 39.56190 35.21847
#
# Velocity S-wave (km/s) = 3.53706 4.00385 3.77767
# Velocity P-wave (km/s) = 4.95527 5.98584 5.49477
#
# Compressibility (1/GPa) = 0.05146435
#
# Stress axis : x y z
#
# Youngs Moduli (GPa) = 121.61558 52.24583 33.26023
#
# Poissons Ratio (x) = 0.14991 -0.04592
# Poissons Ratio (y) = 0.34896 0.04968
# Poissons Ratio (z) = -0.16791 0.07803
#
# Static dielectric constant tensor:
#      x y z
#    x 1.937170 0.000000 0.019990 
#    y 0.000000 2.062930 0.000000 
#    z 0.019990 0.000000 1.996630 
# 
# From -- ./inp_files/15865.got.cif
#   From: 2010.05.17/outbox.cif.g08.bks.cpg/sg4_8_cif.got.tgz:15865.got - 2010.06.03 18:43:04.
