data_PCOD9118301
_publ_section_title
;
Structure prediction by ZEFSAII (Michael W. Deem and Ramdas Pophale) SiO2 
 PCOD9118301
Probable space group: P 21
;
_chemical_formula_sum "Si O2"
_cell_formula_units_Z 16
_cell_length_a 6.846724
_cell_length_b 17.028872
_cell_length_c 5.904128
_cell_angle_alpha 90.000000
_cell_angle_beta 109.106088
_cell_angle_gamma 90.000000
_cell_volume 650.454337
_symmetry_space_group_name_H-M "P 21"
_symmetry_group_IT_number 4
_symmetry_cell_setting 'monoclinic'
loop_
_space_group_symop_operation_xyz
x,y,z
-x,1/2+y,-z
loop_
_atom_site_type_symbol
_atom_site_label
_atom_site_fract_x
_atom_site_fract_y
_atom_site_fract_z
Si Si1 0.821671 0.019110 0.544913
Si Si2 0.636581 0.678412 0.908498
Si Si3 0.931579 0.585671 0.745549
Si Si4 0.906374 0.797653 0.240154
Si Si5 0.912562 0.424649 0.028795
Si Si6 0.677796 0.143021 0.849574
Si Si7 0.474298 0.399695 0.746893
Si Si8 0.657914 0.284571 0.487318
O O1 0.708743 0.073765 0.681698
O O2 0.996261 0.067777 0.479562
O O3 0.648366 0.981024 0.320174
O O4 0.943046 0.947978 0.709280
O O5 0.721953 0.630088 0.727502
O O6 0.485593 0.745943 0.755607
O O7 0.830700 0.716102 0.110113
O O8 0.510942 0.631891 0.050260
O O9 0.919382 0.501911 0.869854
O O10 0.118477 0.636728 0.919029
O O11 0.701228 0.837758 0.256336
O O12 0.100077 0.790148 0.482721
O O13 0.991165 0.852717 0.071692
O O14 0.672206 0.406905 0.984945
O O15 0.656809 0.224030 0.702085
O O16 0.571325 0.367166 0.547899
#
# Coordination Sequence:
#
# PCOD9118301 Si02
#       8
#     2   2   2   2   2   2   2   2
#     4  11  25  49  72 105 151 193 238 306 359 430
#     4  12  26  45  75 106 145 198 238 303 366 428
#     4  11  25  47  70 108 149 188 246 296 358 437
#     4  11  23  49  72 107 148 182 246 304 355 432
#     4  10  25  45  71 107 143 186 242 300 357 433
#     4  11  25  47  69 108 148 188 247 299 356 434
#     4  11  24  47  75 106 141 193 242 295 370 428
#     4  11  25  45  74 107 141 192 243 295 367 430
#
# _framework density 24.598188
#
# number of rings (size 3 to 8) (size 9 to 14) (size 15 to 20)
#    0.000    1.000    3.750    1.500    3.500    5.000 
#    2.250    0.000    0.000    0.000    0.000    0.000 
#    0.000    0.000    0.000    0.000    0.000    0.000 
#
# Total GULP energy -89635.808878 kJ/mol
# GULP energy per Si atom -5602.238055 kJ/mol
# Density = 2.454220 g / cm^3
# Si number density = 24.598188 Si / 1000 Ang^3
#
#
#
# Elastic Constant Matrix: (Units=GPa)
#
#
# Indices 1 2 3 4 5 6 
#
# 1 176.1783 37.8189 23.2273 0.0000 0.5554 0.0000
# 2 37.8189 62.1917 4.4161 0.0000 -7.7110 0.0000
# 3 23.2273 4.4161 29.0308 0.0000 0.6978 0.0000
# 4 0.0000 0.0000 0.0000 43.9961 0.0000 -0.0693
# 5 0.5554 -7.7110 0.6978 0.0000 27.4724 0.0000
# 6 0.0000 0.0000 0.0000 -0.0693 0.0000 52.8354
#
#
#
# Elastic Compliance Matrix: (Units=1/GPa)
#
#
# Indices 1 2 3 4 5 6 
#
# 1 0.007258 -0.004197 -0.005140 0.000000 -0.001194 0.000000
# 2 -0.004197 0.019292 0.000291 0.000000 0.005492 0.000000
# 3 -0.005140 0.000291 0.038534 0.000000 -0.000793 0.000000
# 4 0.000000 0.000000 0.000000 0.022729 0.000000 0.000030
# 5 -0.001194 0.005492 -0.000793 0.000000 0.037986 0.000000
# 6 0.000000 0.000000 0.000000 0.000030 0.000000 0.018927
#
#
# Mechanical properties :
#
#
# Convention : Reuss Voigt Hill
#
# Bulk Modulus (GPa) = 21.28019 44.25836 32.76928
# Shear Modulus (GPa) = 28.01403 38.32333 33.16868
#
# Velocity S-wave (km/s) = 3.37837 3.95140 3.67607
# Velocity P-wave (km/s) = 4.88751 6.23295 5.60078
#
# Compressibility (1/GPa) = 0.04699206
#
# Stress axis : x y z
#
# Youngs Moduli (GPa) = 137.77026 51.83549 25.95134
#
# Poissons Ratio (x) = 0.21755 0.13340
# Poissons Ratio (y) = 0.57822 -0.00756
# Poissons Ratio (z) = 0.70818 -0.01510
#
# Static dielectric constant tensor:
#      x y z
#    x 1.935700 0.000000 -0.007750 
#    y 0.000000 1.938230 0.000000 
#    z -0.007750 0.000000 1.930120 
# 
# From -- ./inp_files/481.got.cif
#   From: 2010.05.17/outbox.cif.g08.bks.cpg/sg4_1_cif.got.tgz:481.got - 2010.06.03 18:43:04.
