data_PCOD9118504
_publ_section_title
;
Structure prediction by ZEFSAII (Michael W. Deem and Ramdas Pophale) SiO2 
 PCOD9118504
Probable space group: P 21
;
_chemical_formula_sum "Si O2"
_cell_formula_units_Z 14
_cell_length_a 6.819221
_cell_length_b 9.781810
_cell_length_c 7.819400
_cell_angle_alpha 90.000000
_cell_angle_beta 92.699682
_cell_angle_gamma 90.000000
_cell_volume 521.008901
_symmetry_space_group_name_H-M "P 21"
_symmetry_group_IT_number 4
_symmetry_cell_setting 'monoclinic'
loop_
_space_group_symop_operation_xyz
x,y,z
-x,1/2+y,-z
loop_
_atom_site_type_symbol
_atom_site_label
_atom_site_fract_x
_atom_site_fract_y
_atom_site_fract_z
Si Si1 0.647560 0.159620 0.487170
Si Si2 0.134667 0.101951 0.879656
Si Si3 0.525336 0.981798 0.962280
Si Si4 0.819948 0.916114 0.729970
Si Si5 0.562223 0.429397 0.679376
Si Si6 0.108429 0.340896 0.628462
Si Si7 0.101994 0.599019 0.818709
O O1 0.733919 0.050863 0.626899
O O2 0.648131 0.308055 0.571300
O O3 0.782209 0.173772 0.325822
O O4 0.451487 0.079410 0.409919
O O5 0.365853 0.077970 0.866760
O O6 0.068409 0.208091 0.734082
O O7 0.011921 0.963573 0.841202
O O8 0.063644 0.156333 0.061949
O O9 0.632658 0.876467 0.839040
O O10 0.715645 0.059399 0.046629
O O11 0.397198 0.928416 0.116989
O O12 0.888950 0.825646 0.574202
O O13 0.332566 0.384041 0.675048
O O14 0.001903 0.470751 0.711921
#
# Coordination Sequence:
#
# PCOD9118504 Si02
#       7
#     2   2   2   2   2   2   2
#     4   9  18  40  65  94 134 169 210 270 325 380
#     4  11  20  39  68  91 122 172 218 255 325 400
#     4   9  19  38  65  92 122 165 215 267 323 384
#     4   9  20  40  61  93 134 164 207 275 326 373
#     4   9  19  39  68  95 128 172 216 263 324 384
#     4   9  20  41  62  89 131 164 207 277 326 375
#     4   8  20  41  61  92 131 160 207 275 323 372
#
# _framework density 26.870940999999998
#
# number of rings (size 3 to 8) (size 9 to 14) (size 15 to 20)
#    0.000    3.429    0.000    0.857    0.000    1.143 
#    0.000   64.286    0.000    5.143    0.000    0.000 
#    0.000    0.000    0.000    0.000    0.000    0.000 
#
# Total GULP energy -78199.724140 kJ/mol
# GULP energy per Si atom -5585.694581 kJ/mol
# Density = 2.680978 g / cm^3
# Si number density = 26.870941 Si / 1000 Ang^3
#
#
#
# Elastic Constant Matrix: (Units=GPa)
#
#
# Indices 1 2 3 4 5 6 
#
# 1 93.5233 38.6493 45.8996 0.0000 -23.2668 0.0000
# 2 38.6493 101.3185 48.2357 0.0000 -17.9372 0.0000
# 3 45.8996 48.2357 127.9233 0.0000 -33.8198 0.0000
# 4 0.0000 0.0000 0.0000 34.3122 0.0000 -7.1667
# 5 -23.2668 -17.9372 -33.8198 0.0000 42.3568 0.0000
# 6 0.0000 0.0000 0.0000 -7.1667 0.0000 52.7406
#
#
#
# Elastic Compliance Matrix: (Units=1/GPa)
#
#
# Indices 1 2 3 4 5 6 
#
# 1 0.014562 -0.003469 -0.002776 0.000000 0.004313 0.000000
# 2 -0.003469 0.012973 -0.003420 0.000000 0.000857 0.000000
# 3 -0.002776 -0.003420 0.011810 0.000000 0.006456 0.000000
# 4 0.000000 0.000000 0.000000 0.029995 0.000000 0.004076
# 5 0.004313 0.000857 0.006456 0.000000 0.031496 0.000000
# 6 0.000000 0.000000 0.000000 0.004076 0.000000 0.019515
#
#
# Mechanical properties :
#
#
# Convention : Reuss Voigt Hill
#
# Bulk Modulus (GPa) = 49.96847 65.37050 57.66948
# Shear Modulus (GPa) = 34.16358 38.54731 36.35544
#
# Velocity S-wave (km/s) = 3.56953 3.79163 3.68226
# Velocity P-wave (km/s) = 5.96865 6.59917 6.29182
#
# Compressibility (1/GPa) = 0.02001262
#
# Stress axis : x y z
#
# Youngs Moduli (GPa) = 68.67236 77.08035 84.67454
#
# Poissons Ratio (x) = 0.26743 0.23510
# Poissons Ratio (y) = 0.23826 0.28962
# Poissons Ratio (z) = 0.19067 0.26364
#
# Static dielectric constant tensor:
#      x y z
#    x 2.140460 0.000000 -0.008040 
#    y 0.000000 2.227790 0.000000 
#    z -0.008040 0.000000 2.239050 
# 
# From -- ./inp_files/1644.got.cif
#   From: 2010.05.17/outbox.cif.g08.bks.cpg/sg4_1_cif.got.tgz:1644.got - 2010.06.03 18:43:04.
