data_PCOD9118862
_publ_section_title
;
Structure prediction by ZEFSAII (Michael W. Deem and Ramdas Pophale) SiO2 
 PCOD9118862
Probable space group: P 21
;
_chemical_formula_sum "Si O2"
_cell_formula_units_Z 14
_cell_length_a 9.673264
_cell_length_b 12.594953
_cell_length_c 9.521065
_cell_angle_alpha 90.000000
_cell_angle_beta 150.052898
_cell_angle_gamma 90.000000
_cell_volume 579.068448
_symmetry_space_group_name_H-M "P 21"
_symmetry_group_IT_number 4
_symmetry_cell_setting 'monoclinic'
loop_
_space_group_symop_operation_xyz
x,y,z
-x,1/2+y,-z
loop_
_atom_site_type_symbol
_atom_site_label
_atom_site_fract_x
_atom_site_fract_y
_atom_site_fract_z
Si Si1 0.091486 0.617990 0.994230
Si Si2 0.361564 0.007994 0.581914
Si Si3 0.467490 0.389364 0.892030
Si Si4 0.145988 0.669055 0.354451
Si Si5 0.636437 0.797670 0.893459
Si Si6 0.989261 0.785961 0.693488
Si Si7 0.942276 0.076075 0.435662
O O1 0.393814 0.594579 0.194897
O O2 0.135689 0.610323 0.198334
O O3 0.990455 0.732551 0.847734
O O4 0.858194 0.538142 0.731163
O O5 0.177088 0.009357 0.560918
O O6 0.526768 0.899276 0.713085
O O7 0.331540 0.503652 0.801966
O O8 0.291586 0.333962 0.613220
O O9 0.424176 0.322739 0.997128
O O10 0.782002 0.376175 0.123554
O O11 0.452299 0.700438 0.674587
O O12 0.002722 0.608573 0.356670
O O13 0.959416 0.773884 0.167694
O O14 0.068997 0.685425 0.663018
#
# Coordination Sequence:
#
# PCOD9118862 Si02
#       7
#     2   2   2   2   2   2   2
#     4  11  25  47  69 102 143 191 225 285 366 426
#     4  11  24  46  74  98 138 188 240 280 354 440
#     4  12  23  40  71 107 132 179 244 286 352 410
#     4  12  26  45  72 103 147 178 235 296 360 407
#     4  12  23  44  72 105 134 188 234 294 347 432
#     4  11  23  43  68  97 144 182 228 290 349 425
#     4  11  24  45  74 106 136 188 236 309 344 410
#
# _framework density 24.176762
#
# number of rings (size 3 to 8) (size 9 to 14) (size 15 to 20)
#    0.000    0.571    2.857    6.857    0.000    3.429 
#    7.714    0.000    0.000    0.000    0.000    0.000 
#    0.000    0.000    0.000    0.000    0.000    0.000 
#
# Total GULP energy -78401.797215 kJ/mol
# GULP energy per Si atom -5600.128372 kJ/mol
# Density = 2.412173 g / cm^3
# Si number density = 24.176762 Si / 1000 Ang^3
#
#
#
# Elastic Constant Matrix: (Units=GPa)
#
#
# Indices 1 2 3 4 5 6 
#
# 1 57.1465 -2.9110 17.0826 0.0000 -31.7522 0.0000
# 2 -2.9110 53.2559 9.7643 0.0000 0.8763 0.0000
# 3 17.0826 9.7643 130.5193 0.0000 -12.7916 0.0000
# 4 0.0000 0.0000 0.0000 59.2925 0.0000 9.3551
# 5 -31.7522 0.8763 -12.7916 0.0000 41.9716 0.0000
# 6 0.0000 0.0000 0.0000 9.3551 0.0000 14.7717
#
#
#
# Elastic Compliance Matrix: (Units=1/GPa)
#
#
# Indices 1 2 3 4 5 6 
#
# 1 0.030732 0.001661 -0.001929 0.000000 0.022627 0.000000
# 2 0.001661 0.019158 -0.001615 0.000000 0.000365 0.000000
# 3 -0.001929 -0.001615 0.008138 0.000000 0.001055 0.000000
# 4 0.000000 0.000000 0.000000 0.018738 0.000000 -0.011867
# 5 0.022627 0.000365 0.001055 0.000000 0.041257 0.000000
# 6 0.000000 0.000000 0.000000 -0.011867 0.000000 0.075213
#
#
# Mechanical properties :
#
#
# Convention : Reuss Voigt Hill
#
# Bulk Modulus (GPa) = 18.42867 32.08816 25.25842
# Shear Modulus (GPa) = 23.24613 37.67289 30.45951
#
# Velocity S-wave (km/s) = 3.10418 3.95172 3.55331
# Velocity P-wave (km/s) = 4.52625 5.84146 5.22540
#
# Compressibility (1/GPa) = 0.05426326
#
# Stress axis : x y z
#
# Youngs Moduli (GPa) = 32.53913 52.19705 122.87499
#
# Poissons Ratio (x) = -0.08671 0.23702
# Poissons Ratio (y) = -0.05405 0.19843
# Poissons Ratio (z) = 0.06277 0.08429
#
# Static dielectric constant tensor:
#      x y z
#    x 1.901340 0.000000 -0.013910 
#    y 0.000000 1.985430 0.000000 
#    z -0.013910 0.000000 1.909700 
# 
# From -- ./inp_files/6530.got.cif
#   From: 2010.05.17/outbox.cif.g08.bks.cpg/sg4_4_cif.got.tgz:6530.got - 2010.06.03 18:43:04.
