data_PCOD9118810
_publ_section_title
;
Structure prediction by ZEFSAII (Michael W. Deem and Ramdas Pophale) SiO2 
 PCOD9118810
Probable space group: P 21
;
_chemical_formula_sum "Si O2"
_cell_formula_units_Z 14
_cell_length_a 17.189309
_cell_length_b 5.577692
_cell_length_c 5.037209
_cell_angle_alpha 90.000000
_cell_angle_beta 88.536452
_cell_angle_gamma 90.000000
_cell_volume 482.793282
_symmetry_space_group_name_H-M "P 21"
_symmetry_group_IT_number 4
_symmetry_cell_setting 'monoclinic'
loop_
_space_group_symop_operation_xyz
x,y,z
-x,1/2+y,-z
loop_
_atom_site_type_symbol
_atom_site_label
_atom_site_fract_x
_atom_site_fract_y
_atom_site_fract_z
Si Si1 0.098085 0.039050 0.664558
Si Si2 0.045883 0.282800 0.168979
Si Si3 0.243544 0.794445 0.802173
Si Si4 0.474539 0.312223 0.860792
Si Si5 0.809185 0.034764 0.697374
Si Si6 0.334915 0.279481 0.189509
Si Si7 0.614959 0.283665 0.535542
O O1 0.076737 0.077215 0.362211
O O2 0.189204 0.008388 0.704764
O O3 0.066634 0.244084 0.862643
O O4 0.044572 0.822994 0.775208
O O5 0.100171 0.497551 0.268627
O O6 0.212021 0.589767 0.603090
O O7 0.335578 0.803682 0.739173
O O8 0.221742 0.739955 0.103709
O O9 0.521566 0.298165 0.579538
O O10 0.497104 0.570799 0.986617
O O11 0.381729 0.297063 0.906989
O O12 0.757465 0.812278 0.806295
O O13 0.362368 0.523483 0.342403
O O14 0.356791 0.025865 0.317201
#
# Coordination Sequence:
#
# PCOD9118810 Si02
#       7
#     2   2   2   2   2   2   2
#     4  12  24  41  64  92 127 168 216 270 329 392
#     4  12  24  41  64  92 127 168 216 270 329 392
#     4  11  23  41  63  91 126 166 215 270 329 392
#     4   8  14  28  54  86 122 164 212 266 324 386
#     4  11  23  41  63  91 126 166 215 270 329 392
#     4   9  18  34  59  91 127 169 217 270 328 390
#     4   9  18  34  59  91 127 169 217 270 328 390
#
# _framework density 28.997917999999999
#
# number of rings (size 3 to 8) (size 9 to 14) (size 15 to 20)
#    0.000    1.714    0.000    5.143    0.000    2.286 
#    0.000    0.000    0.000   24.000    0.000    0.000 
#    0.000    0.000    0.000    0.000    0.000    0.000 
#
# Total GULP energy -78371.510937 kJ/mol
# GULP energy per Si atom -5597.965067 kJ/mol
# Density = 2.893192 g / cm^3
# Si number density = 28.997918 Si / 1000 Ang^3
#
#
#
# Elastic Constant Matrix: (Units=GPa)
#
#
# Indices 1 2 3 4 5 6 
#
# 1 60.8842 52.7765 63.4171 0.0000 -22.3044 0.0000
# 2 52.7765 176.2943 52.9553 0.0000 14.8175 0.0000
# 3 63.4171 52.9553 100.0132 0.0000 -26.6210 0.0000
# 4 0.0000 0.0000 0.0000 55.2602 0.0000 10.0488
# 5 -22.3044 14.8175 -26.6210 0.0000 53.5078 0.0000
# 6 0.0000 0.0000 0.0000 10.0488 0.0000 61.9872
#
#
#
# Elastic Compliance Matrix: (Units=1/GPa)
#
#
# Indices 1 2 3 4 5 6 
#
# 1 0.062016 -0.010750 -0.029921 0.000000 0.013942 0.000000
# 2 -0.010750 0.009541 -0.000152 0.000000 -0.007198 0.000000
# 3 -0.029921 -0.000152 0.029672 0.000000 0.002332 0.000000
# 4 0.000000 0.000000 0.000000 0.018646 0.000000 -0.003023
# 5 0.013942 -0.007198 0.002332 0.000000 0.027654 0.000000
# 6 0.000000 0.000000 0.000000 -0.003023 0.000000 0.016622
#
#
# Mechanical properties :
#
#
# Convention : Reuss Voigt Hill
#
# Bulk Modulus (GPa) = 51.06007 75.05439 63.05723
# Shear Modulus (GPa) = 19.81588 45.35391 32.58489
#
# Velocity S-wave (km/s) = 2.61694 3.95909 3.35580
# Velocity P-wave (km/s) = 5.17471 6.84383 6.06694
#
# Compressibility (1/GPa) = 0.01958477
#
# Stress axis : x y z
#
# Youngs Moduli (GPa) = 16.12498 104.81100 33.70175
#
# Poissons Ratio (x) = 1.12667 1.00838
# Poissons Ratio (y) = 0.17334 0.00511
# Poissons Ratio (z) = 0.48247 0.01590
#
# Static dielectric constant tensor:
#      x y z
#    x 2.208960 0.000000 0.010990 
#    y 0.000000 2.309730 0.000000 
#    z 0.010990 0.000000 2.173140 
# 
# From -- ./inp_files/3864.got.cif
#   From: 2010.05.17/outbox.cif.g08.bks.cpg/sg4_2_cif.got.tgz:3864.got - 2010.06.03 18:43:04.
