data_PCOD9118256
_publ_section_title
;
Structure prediction by ZEFSAII (Michael W. Deem and Ramdas Pophale) SiO2 
 PCOD9118256
Probable space group: P 21
;
_chemical_formula_sum "Si O2"
_cell_formula_units_Z 16
_cell_length_a 19.383557
_cell_length_b 4.893191
_cell_length_c 8.136194
_cell_angle_alpha 90.000000
_cell_angle_beta 54.819236
_cell_angle_gamma 90.000000
_cell_volume 630.737760
_symmetry_space_group_name_H-M "P 21"
_symmetry_group_IT_number 4
_symmetry_cell_setting 'monoclinic'
loop_
_space_group_symop_operation_xyz
x,y,z
-x,1/2+y,-z
loop_
_atom_site_type_symbol
_atom_site_label
_atom_site_fract_x
_atom_site_fract_y
_atom_site_fract_z
Si Si1 0.550511 0.220460 0.903701
Si Si2 0.163846 0.028601 0.074909
Si Si3 0.733252 0.896457 0.303807
Si Si4 0.998109 0.489233 0.895568
Si Si5 0.661087 0.432004 0.047903
Si Si6 0.830849 0.251057 0.439252
Si Si7 0.380782 0.886002 0.545267
Si Si8 0.788678 0.762099 0.688600
O O1 0.568841 0.325252 0.692852
O O2 0.471022 0.402252 0.070591
O O3 0.617484 0.275540 0.957761
O O4 0.199997 0.274604 0.914885
O O5 0.247432 0.846543 0.995712
O O6 0.082735 0.906947 0.100369
O O7 0.140805 0.162375 0.279818
O O8 0.684857 0.619705 0.423407
O O9 0.783374 0.104540 0.353644
O O10 0.655446 0.087196 0.360780
O O11 0.071990 0.660436 0.707025
O O12 0.032469 0.211631 0.927943
O O13 0.599957 0.481602 0.290071
O O14 0.700425 0.695435 0.898884
O O15 0.807318 0.562668 0.508704
O O16 0.795635 0.074386 0.637791
#
# Coordination Sequence:
#
# PCOD9118256 Si02
#       8
#     2   2   2   2   2   2   2   2
#     4  12  27  47  73 110 148 182 229 295 365 437
#     4   9  24  45  66 100 139 188 237 300 357 420
#     4  11  22  41  71  99 135 181 249 282 342 427
#     4  12  26  42  67  98 142 186 245 310 364 423
#     4   9  24  47  72 101 144 183 239 293 347 437
#     4  12  23  39  66  96 137 187 235 298 362 414
#     4  11  25  44  75 106 138 193 237 283 363 438
#     4  10  25  41  66  98 137 178 235 293 360 416
#
# _framework density 25.367118000000001
#
# number of rings (size 3 to 8) (size 9 to 14) (size 15 to 20)
#    0.750    0.500    1.250    3.750    5.250    6.000 
#    0.000    0.000    0.000    0.000    0.000    0.000 
#    0.000    0.000    0.000    0.000    0.000    0.000 
#
# Total GULP energy -89154.503999 kJ/mol
# GULP energy per Si atom -5572.156500 kJ/mol
# Density = 2.530938 g / cm^3
# Si number density = 25.367118 Si / 1000 Ang^3
#
#
#
# Elastic Constant Matrix: (Units=GPa)
#
#
# Indices 1 2 3 4 5 6 
#
# 1 105.1293 7.0084 8.6609 0.0000 9.5632 0.0000
# 2 7.0084 80.8890 22.1620 0.0000 -4.4030 0.0000
# 3 8.6609 22.1620 118.1654 0.0000 27.6779 0.0000
# 4 0.0000 0.0000 0.0000 25.8727 0.0000 -5.3081
# 5 9.5632 -4.4030 27.6779 0.0000 21.0361 0.0000
# 6 0.0000 0.0000 0.0000 -5.3081 0.0000 24.5021
#
#
#
# Elastic Compliance Matrix: (Units=1/GPa)
#
#
# Indices 1 2 3 4 5 6 
#
# 1 0.010094 -0.001484 0.000992 0.000000 -0.006204 0.000000
# 2 -0.001484 0.014421 -0.005003 0.000000 0.010275 0.000000
# 3 0.000992 -0.005003 0.013991 0.000000 -0.019906 0.000000
# 4 0.000000 0.000000 0.000000 0.040449 0.000000 0.008763
# 5 -0.006204 0.010275 -0.019906 0.000000 0.078700 0.000000
# 6 0.000000 0.000000 0.000000 0.008763 0.000000 0.042711
#
#
# Mechanical properties :
#
#
# Convention : Reuss Voigt Hill
#
# Bulk Modulus (GPa) = 36.34275 42.20515 39.27395
# Shear Modulus (GPa) = 22.67298 32.03901 27.35599
#
# Velocity S-wave (km/s) = 2.99288 3.55775 3.28747
# Velocity P-wave (km/s) = 5.12844 5.79229 5.47044
#
# Compressibility (1/GPa) = 0.02751580
#
# Stress axis : x y z
#
# Youngs Moduli (GPa) = 99.07188 69.34272 71.47501
#
# Poissons Ratio (x) = 0.10290 -0.07088
# Poissons Ratio (y) = 0.14702 0.35757
# Poissons Ratio (z) = -0.09825 0.34690
#
# Static dielectric constant tensor:
#      x y z
#    x 2.245680 0.000000 0.089110 
#    y 0.000000 1.955660 0.000000 
#    z 0.089110 0.000000 2.135690 
# 
# From -- ./inp_files/9489.got.cif
#   From: 2010.05.17/outbox.cif.g08.bks.cpg/sg4_5_cif.got.tgz:9489.got - 2010.06.03 18:43:04.
