data_PCOD9118891
_publ_section_title
;
Structure prediction by ZEFSAII (Michael W. Deem and Ramdas Pophale) SiO2 
 PCOD9118891
Probable space group: P 21
;
_chemical_formula_sum "Si O2"
_cell_formula_units_Z 14
_cell_length_a 12.677875
_cell_length_b 7.523421
_cell_length_c 6.748144
_cell_angle_alpha 90.000000
_cell_angle_beta 84.949609
_cell_angle_gamma 90.000000
_cell_volume 641.145815
_symmetry_space_group_name_H-M "P 21"
_symmetry_group_IT_number 4
_symmetry_cell_setting 'monoclinic'
loop_
_space_group_symop_operation_xyz
x,y,z
-x,1/2+y,-z
loop_
_atom_site_type_symbol
_atom_site_label
_atom_site_fract_x
_atom_site_fract_y
_atom_site_fract_z
Si Si1 0.888326 0.040150 0.191551
Si Si2 0.769659 0.504951 0.391722
Si Si3 0.601317 0.190804 0.320559
Si Si4 0.367977 0.332522 0.429450
Si Si5 0.039506 0.147815 0.844469
Si Si6 0.847707 0.220552 0.612462
Si Si7 0.693098 0.056490 0.925229
O O1 0.853052 0.132103 0.396843
O O2 0.926967 0.843562 0.220651
O O3 0.789563 0.022100 0.059628
O O4 0.985481 0.140032 0.067752
O O5 0.681236 0.356852 0.349301
O O6 0.712276 0.686566 0.466768
O O7 0.855780 0.531110 0.202466
O O8 0.842557 0.428679 0.559437
O O9 0.484881 0.250329 0.404329
O O10 0.628770 0.011045 0.437614
O O11 0.606006 0.138911 0.086141
O O12 0.338939 0.392420 0.209356
O O13 0.941141 0.120096 0.712950
O O14 0.742469 0.192507 0.758867
#
# Coordination Sequence:
#
# PCOD9118891 Si02
#       7
#     2   2   2   2   2   2   2
#     4  11  23  44  65 103 153 184 242 303 363 451
#     4  12  24  47  77 101 149 200 239 314 376 434
#     4  12  26  50  75 106 151 190 256 312 374 454
#     4  12  27  49  76 108 143 196 251 315 380 454
#     4  11  25  39  70 106 142 198 246 294 367 450
#     4  11  23  44  70 103 147 190 239 300 369 447
#     4  11  24  45  71 103 147 184 241 310 369 442
#
# _framework density 21.835908
#
# number of rings (size 3 to 8) (size 9 to 14) (size 15 to 20)
#    0.000    0.571    4.286    3.429    2.000    6.857 
#    5.143    0.000    0.000    0.000    0.000    0.000 
#    0.000    0.000    0.000    0.000    0.000    0.000 
#
# Total GULP energy -78141.583025 kJ/mol
# GULP energy per Si atom -5581.541645 kJ/mol
# Density = 2.178621 g / cm^3
# Si number density = 21.835908 Si / 1000 Ang^3
#
#
#
# Elastic Constant Matrix: (Units=GPa)
#
#
# Indices 1 2 3 4 5 6 
#
# 1 68.6648 30.6589 39.4195 0.0000 -38.8631 0.0000
# 2 30.6589 97.2213 43.5531 0.0000 -13.4444 0.0000
# 3 39.4195 43.5531 139.5433 0.0000 -19.9509 0.0000
# 4 0.0000 0.0000 0.0000 36.8769 0.0000 -7.8141
# 5 -38.8631 -13.4444 -19.9509 0.0000 36.3989 0.0000
# 6 0.0000 0.0000 0.0000 -7.8141 0.0000 53.4172
#
#
#
# Elastic Compliance Matrix: (Units=1/GPa)
#
#
# Indices 1 2 3 4 5 6 
#
# 1 0.043312 -0.005914 -0.004438 0.000000 0.041628 0.000000
# 2 -0.005914 0.012991 -0.002822 0.000000 -0.003063 0.000000
# 3 -0.004438 -0.002822 0.009195 0.000000 -0.000741 0.000000
# 4 0.000000 0.000000 0.000000 0.027985 0.000000 0.004094
# 5 0.041628 -0.003063 -0.000741 0.000000 0.070382 0.000000
# 6 0.000000 0.000000 0.000000 0.004094 0.000000 0.019319
#
#
# Mechanical properties :
#
#
# Convention : Reuss Voigt Hill
#
# Bulk Modulus (GPa) = 25.54216 59.18806 42.36511
# Shear Modulus (GPa) = 22.46353 38.12513 30.29433
#
# Velocity S-wave (km/s) = 3.21088 4.18303 3.72877
# Velocity P-wave (km/s) = 5.04669 7.10598 6.16296
#
# Compressibility (1/GPa) = 0.03915096
#
# Stress axis : x y z
#
# Youngs Moduli (GPa) = 23.08805 76.97343 108.75784
#
# Poissons Ratio (x) = 0.45522 0.48265
# Poissons Ratio (y) = 0.13654 0.30692
# Poissons Ratio (z) = 0.10246 0.21722
#
# Static dielectric constant tensor:
#      x y z
#    x 1.883100 0.000000 -0.010720 
#    y 0.000000 1.813290 0.000000 
#    z -0.010720 0.000000 1.763740 
# 
# From -- ./inp_files/2613.got.cif
#   From: 2010.05.17/outbox.cif.g08.bks.cpg/sg4_2_cif.got.tgz:2613.got - 2010.06.03 18:43:04.
