data_PCOD9118006
_publ_section_title
;
Structure prediction by ZEFSAII (Michael W. Deem and Ramdas Pophale) SiO2 
 PCOD9118006
Probable space group: P 21
;
_chemical_formula_sum "Si O2"
_cell_formula_units_Z 14
_cell_length_a 5.605949
_cell_length_b 15.911679
_cell_length_c 7.543827
_cell_angle_alpha 90.000000
_cell_angle_beta 110.046380
_cell_angle_gamma 90.000000
_cell_volume 632.141891
_symmetry_space_group_name_H-M "P 21"
_symmetry_group_IT_number 4
_symmetry_cell_setting 'monoclinic'
loop_
_space_group_symop_operation_xyz
x,y,z
-x,1/2+y,-z
loop_
_atom_site_type_symbol
_atom_site_label
_atom_site_fract_x
_atom_site_fract_y
_atom_site_fract_z
Si Si1 0.258196 0.063880 0.820205
Si Si2 0.664440 0.050021 0.199739
Si Si3 0.565699 0.390102 0.310440
Si Si4 0.927828 0.962714 0.934383
Si Si5 0.227845 0.723262 0.604737
Si Si6 0.402063 0.895491 0.270040
Si Si7 0.638734 0.725745 0.385873
O O1 0.330237 0.139518 0.713035
O O2 0.340092 0.975193 0.756024
O O3 0.403688 0.079865 0.041346
O O4 0.976446 0.039799 0.810006
O O5 0.789276 0.131421 0.313436
O O6 0.595613 0.973751 0.310920
O O7 0.815741 0.007068 0.079308
O O8 0.659106 0.301722 0.256544
O O9 0.664196 0.389987 0.538365
O O10 0.263287 0.398243 0.207750
O O11 0.176451 0.916701 0.076602
O O12 0.436873 0.713921 0.497005
O O13 0.933883 0.747636 0.498247
O O14 0.527745 0.806559 0.255051
#
# Coordination Sequence:
#
# PCOD9118006 Si02
#       7
#     2   2   2   2   2   2   2
#     4  10  24  43  68 103 139 186 231 293 348 420
#     4  10  24  43  68 103 139 186 231 293 348 420
#     4  10  24  45  70 103 137 187 233 294 348 422
#     4  10  24  44  74 102 142 188 236 284 366 400
#     4  11  27  45  72 106 138 186 238 287 356 416
#     4  10  24  45  70 103 137 187 233 294 348 422
#     4  11  27  45  72 106 138 186 238 287 356 416
#
# _framework density 22.146927000000002
#
# number of rings (size 3 to 8) (size 9 to 14) (size 15 to 20)
#    0.000    1.714    0.000    0.857   20.000    3.429 
#    0.000    1.429    0.000    0.000    0.000    0.000 
#    0.000    0.000    0.000    0.000    0.000    0.000 
#
# Total GULP energy -78038.094127 kJ/mol
# GULP energy per Si atom -5574.149580 kJ/mol
# Density = 2.209652 g / cm^3
# Si number density = 22.146927 Si / 1000 Ang^3
#
#
#
# Elastic Constant Matrix: (Units=GPa)
#
#
# Indices 1 2 3 4 5 6 
#
# 1 73.3551 7.8806 16.9587 0.0000 11.2014 0.0000
# 2 7.8806 116.9022 16.1188 0.0000 5.1983 0.0000
# 3 16.9587 16.1188 54.5178 0.0000 5.0235 0.0000
# 4 0.0000 0.0000 0.0000 -43.0853 0.0000 61.5545
# 5 11.2014 5.1983 5.0235 0.0000 25.7397 0.0000
# 6 0.0000 0.0000 0.0000 61.5545 0.0000 -22.0574
#
#
#
# Elastic Compliance Matrix: (Units=1/GPa)
#
#
# Indices 1 2 3 4 5 6 
#
# 1 0.015531 -0.000202 -0.004229 0.000000 -0.005893 0.000000
# 2 -0.000202 0.008964 -0.002473 0.000000 -0.001240 0.000000
# 3 -0.004229 -0.002473 0.020543 0.000000 -0.001670 0.000000
# 4 0.000000 0.000000 0.000000 0.007770 0.000000 0.021685
# 5 -0.005893 -0.001240 -0.001670 0.000000 0.041991 0.000000
# 6 0.000000 0.000000 0.000000 0.021685 0.000000 0.015178
#
#
# Mechanical properties :
#
#
# Convention : Reuss Voigt Hill
#
# Bulk Modulus (GPa) = 32.01953 36.29903 34.15928
# Shear Modulus (GPa) = 37.25884 5.70720 21.48302
#
# Velocity S-wave (km/s) = 4.10609 1.60704 3.11790
# Velocity P-wave (km/s) = 6.08023 4.45748 5.33096
#
# Compressibility (1/GPa) = 0.03123094
#
# Stress axis : x y z
#
# Youngs Moduli (GPa) = 64.38540 111.55835 48.67811
#
# Poissons Ratio (x) = 0.02252 0.20584
# Poissons Ratio (y) = 0.01300 0.12039
# Poissons Ratio (z) = 0.27226 0.27591
#
# Static dielectric constant tensor:
#      x y z
#    x 1.949250 0.000000 0.013430 
#    y 0.000000 1.801900 0.000000 
#    z 0.013430 0.000000 1.813920 
# 
# From -- ./inp_files/4667.got.cif
#   From: 2010.05.17/outbox.cif.g08.bks.cpg/sg4_3_cif.got.tgz:4667.got - 2010.06.03 18:43:04.
