data_PCOD9118491
_publ_section_title
;
Structure prediction by ZEFSAII (Michael W. Deem and Ramdas Pophale) SiO2 
 PCOD9118491
Probable space group: P 21
;
_chemical_formula_sum "Si O2"
_cell_formula_units_Z 16
_cell_length_a 24.987507
_cell_length_b 6.175436
_cell_length_c 15.954206
_cell_angle_alpha 90.000000
_cell_angle_beta 16.272752
_cell_angle_gamma 90.000000
_cell_volume 689.842153
_symmetry_space_group_name_H-M "P 21"
_symmetry_group_IT_number 4
_symmetry_cell_setting 'monoclinic'
loop_
_space_group_symop_operation_xyz
x,y,z
-x,1/2+y,-z
loop_
_atom_site_type_symbol
_atom_site_label
_atom_site_fract_x
_atom_site_fract_y
_atom_site_fract_z
Si Si1 0.325777 0.231380 0.321154
Si Si2 0.865881 0.064052 0.291900
Si Si3 0.532282 0.446869 0.329387
Si Si4 0.738274 0.561864 0.303608
Si Si5 0.737378 0.214766 0.156171
Si Si6 0.711830 0.043715 0.780238
Si Si7 0.525922 0.759982 0.193264
Si Si8 0.071101 0.862348 0.643683
O O1 0.180928 0.322663 0.607406
O O2 0.526570 0.196573 0.063666
O O3 0.254704 0.013375 0.384386
O O4 0.320610 0.411185 0.256885
O O5 0.663326 0.160197 0.567144
O O6 0.934747 0.213222 0.265634
O O7 0.062342 0.061160 0.944687
O O8 0.695695 0.309935 0.127725
O O9 0.454835 0.607648 0.517915
O O10 0.596142 0.577202 0.151850
O O11 0.348782 0.296655 0.584785
O O12 0.775045 0.406036 0.167078
O O13 0.568644 0.448260 0.609319
O O14 0.897214 0.030553 0.905025
O O15 0.683785 0.867170 0.895565
O O16 0.891001 0.201651 0.492001
#
# Coordination Sequence:
#
# PCOD9118491 Si02
#       8
#     2   2   2   2   2   2   2   2
#     4  11  20  36  64  95 133 187 224 285 338 415
#     4  11  23  37  61 102 147 171 228 282 354 431
#     4  11  24  42  68  97 139 187 229 297 353 421
#     4  11  24  39  64 100 136 182 224 293 356 414
#     4  11  22  44  68 102 133 173 251 292 345 413
#     4  11  22  39  59  98 146 184 234 271 351 434
#     4  11  27  38  60 102 150 194 217 280 368 442
#     4  11  22  37  68 102 136 180 231 298 337 402
#
# _framework density 23.193709999999999
#
# number of rings (size 3 to 8) (size 9 to 14) (size 15 to 20)
#    0.000    1.000    6.250    0.750    3.500    0.000 
#    0.000    0.000    0.000    0.000    6.500    1.750 
#    0.000    0.000    0.000    0.000    0.000    0.000 
#
# Total GULP energy -89353.088169 kJ/mol
# GULP energy per Si atom -5584.568011 kJ/mol
# Density = 2.314092 g / cm^3
# Si number density = 23.193710 Si / 1000 Ang^3
#
#
#
# Elastic Constant Matrix: (Units=GPa)
#
#
# Indices 1 2 3 4 5 6 
#
# 1 78.6572 41.8445 32.2976 0.0000 17.0028 0.0000
# 2 41.8445 101.5059 25.2434 0.0000 11.6249 0.0000
# 3 32.2976 25.2434 45.6880 0.0000 14.6028 0.0000
# 4 0.0000 0.0000 0.0000 49.9160 0.0000 2.9488
# 5 17.0028 11.6249 14.6028 0.0000 16.6142 0.0000
# 6 0.0000 0.0000 0.0000 2.9488 0.0000 41.8723
#
#
#
# Elastic Compliance Matrix: (Units=1/GPa)
#
#
# Indices 1 2 3 4 5 6 
#
# 1 0.021510 -0.005474 -0.008858 0.000000 -0.010398 0.000000
# 2 -0.005474 0.012954 -0.003033 0.000000 -0.000796 0.000000
# 3 -0.008858 -0.003033 0.036505 0.000000 -0.020898 0.000000
# 4 0.000000 0.000000 0.000000 0.020117 0.000000 -0.001417
# 5 -0.010398 -0.000796 -0.020898 0.000000 0.089755 0.000000
# 6 0.000000 0.000000 0.000000 -0.001417 0.000000 0.023982
#
#
# Mechanical properties :
#
#
# Convention : Reuss Voigt Hill
#
# Bulk Modulus (GPa) = 27.59522 47.18021 37.38771
# Shear Modulus (GPa) = 19.87022 30.11154 24.99088
#
# Velocity S-wave (km/s) = 2.93013 3.60705 3.28607
# Velocity P-wave (km/s) = 4.83437 6.14278 5.52742
#
# Compressibility (1/GPa) = 0.03623817
#
# Stress axis : x y z
#
# Youngs Moduli (GPa) = 46.48958 77.19894 27.39354
#
# Poissons Ratio (x) = 0.42255 0.24266
# Poissons Ratio (y) = 0.25446 0.08309
# Poissons Ratio (z) = 0.41182 0.23417
#
# Static dielectric constant tensor:
#      x y z
#    x 1.907450 0.000000 0.006050 
#    y 0.000000 1.924810 0.000000 
#    z 0.006050 0.000000 1.965920 
# 
# From -- ./inp_files/14511.got.cif
#   From: 2010.05.17/outbox.cif.g08.bks.cpg/sg4_8_cif.got.tgz:14511.got - 2010.06.03 18:43:04.
