data_PCOD9118744
_publ_section_title
;
Structure prediction by ZEFSAII (Michael W. Deem and Ramdas Pophale) SiO2 
 PCOD9118744
Probable space group: P 21
;
_chemical_formula_sum "Si O2"
_cell_formula_units_Z 16
_cell_length_a 9.865340
_cell_length_b 15.179008
_cell_length_c 6.678782
_cell_angle_alpha 90.000000
_cell_angle_beta 50.888913
_cell_angle_gamma 90.000000
_cell_volume 776.018542
_symmetry_space_group_name_H-M "P 21"
_symmetry_group_IT_number 4
_symmetry_cell_setting 'monoclinic'
loop_
_space_group_symop_operation_xyz
x,y,z
-x,1/2+y,-z
loop_
_atom_site_type_symbol
_atom_site_label
_atom_site_fract_x
_atom_site_fract_y
_atom_site_fract_z
Si Si1 0.484393 0.754250 0.849157
Si Si2 0.832489 0.822140 0.311751
Si Si3 0.321928 0.643387 0.661222
Si Si4 0.698493 0.959508 0.108525
Si Si5 0.361573 0.928848 0.186599
Si Si6 0.392098 0.112216 0.940408
Si Si7 0.979731 0.883811 0.567534
Si Si8 0.035545 0.205906 0.161026
O O1 0.669809 0.785870 0.589314
O O2 0.367939 0.721358 0.772411
O O3 0.398334 0.835990 0.044499
O O4 0.525744 0.674685 0.963629
O O5 0.763029 0.893583 0.219563
O O6 0.961502 0.867535 0.348804
O O7 0.917672 0.745091 0.101301
O O8 0.285017 0.557731 0.828373
O O9 0.489465 0.626059 0.365606
O O10 0.153843 0.662683 0.681513
O O11 0.500222 0.938341 0.235221
O O12 0.818507 0.939823 0.803621
O O13 0.162898 0.929117 0.445045
O O14 0.393573 0.011573 0.011179
O O15 0.194376 0.143870 0.081398
O O16 0.972441 0.789010 0.682327
#
# Coordination Sequence:
#
# PCOD9118744 Si02
#       8
#     2   2   2   2   2   2   2   2
#     4  12  23  47  73  99 142 185 229 292 353 410
#     4  11  22  45  72  98 139 180 226 295 345 409
#     4  12  27  44  71 101 139 187 234 285 352 421
#     4  11  26  45  67 103 137 179 232 289 347 413
#     4  12  26  46  72 104 142 186 236 287 354 420
#     4  12  26  47  69 103 142 184 232 293 345 413
#     4  11  25  46  70 100 139 183 230 291 348 419
#     4  11  25  44  70 102 136 182 235 282 350 417
#
# _framework density 20.618065000000001
#
# number of rings (size 3 to 8) (size 9 to 14) (size 15 to 20)
#    0.000    0.500    5.000    3.000    3.500    2.000 
#    4.500    0.000    0.000    0.000    0.000    0.000 
#    0.000    0.000    0.000    0.000    0.000    0.000 
#
# Total GULP energy -89562.432428 kJ/mol
# GULP energy per Si atom -5597.652027 kJ/mol
# Density = 2.057114 g / cm^3
# Si number density = 20.618065 Si / 1000 Ang^3
#
#
#
# Elastic Constant Matrix: (Units=GPa)
#
#
# Indices 1 2 3 4 5 6 
#
# 1 128.7263 12.2502 9.4424 0.0000 -15.7526 0.0000
# 2 12.2502 63.0123 -5.4970 0.0000 -11.6618 0.0000
# 3 9.4424 -5.4970 19.8864 0.0000 3.7943 0.0000
# 4 0.0000 0.0000 0.0000 10.5065 0.0000 0.8246
# 5 -15.7526 -11.6618 3.7943 0.0000 19.6954 0.0000
# 6 0.0000 0.0000 0.0000 0.8246 0.0000 27.5442
#
#
#
# Elastic Compliance Matrix: (Units=1/GPa)
#
#
# Indices 1 2 3 4 5 6 
#
# 1 0.009299 -0.000844 -0.006200 0.000000 0.008132 0.000000
# 2 -0.000844 0.018076 0.003617 0.000000 0.009332 0.000000
# 3 -0.006200 0.003617 0.056857 0.000000 -0.013771 0.000000
# 4 0.000000 0.000000 0.000000 0.095404 0.000000 -0.002856
# 5 0.008132 0.009332 -0.013771 0.000000 0.065456 0.000000
# 6 0.000000 0.000000 0.000000 -0.002856 0.000000 0.036391
#
#
# Mechanical properties :
#
#
# Convention : Reuss Voigt Hill
#
# Bulk Modulus (GPa) = 12.92352 27.11291 20.01822
# Shear Modulus (GPa) = 15.91708 24.57784 20.24746
#
# Velocity S-wave (km/s) = 2.78150 3.45636 3.13713
# Velocity P-wave (km/s) = 4.07398 5.39511 4.78040
#
# Compressibility (1/GPa) = 0.07737829
#
# Stress axis : x y z
#
# Youngs Moduli (GPa) = 107.54283 55.32054 17.58810
#
# Poissons Ratio (x) = 0.04667 0.10904
# Poissons Ratio (y) = 0.09072 -0.06361
# Poissons Ratio (z) = 0.66676 -0.20008
#
# Static dielectric constant tensor:
#      x y z
#    x 1.735570 0.000000 0.000430 
#    y 0.000000 1.717650 0.000000 
#    z 0.000430 0.000000 1.714730 
# 
# From -- ./inp_files/1837.got.cif
#   From: 2010.05.17/outbox.cif.g08.bks.cpg/sg4_1_cif.got.tgz:1837.got - 2010.06.03 18:43:04.
