data_PCOD9118751
_publ_section_title
;
Structure prediction by ZEFSAII (Michael W. Deem and Ramdas Pophale) SiO2 
 PCOD9118751
Probable space group: P 21
;
_chemical_formula_sum "Si O2"
_cell_formula_units_Z 16
_cell_length_a 8.506174
_cell_length_b 7.965311
_cell_length_c 18.356413
_cell_angle_alpha 90.000000
_cell_angle_beta 33.159080
_cell_angle_gamma 90.000000
_cell_volume 680.275351
_symmetry_space_group_name_H-M "P 21"
_symmetry_group_IT_number 4
_symmetry_cell_setting 'monoclinic'
loop_
_space_group_symop_operation_xyz
x,y,z
-x,1/2+y,-z
loop_
_atom_site_type_symbol
_atom_site_label
_atom_site_fract_x
_atom_site_fract_y
_atom_site_fract_z
Si Si1 0.154278 0.324930 0.535691
Si Si2 0.082844 0.162229 0.242873
Si Si3 0.040006 0.274262 0.727013
Si Si4 0.441865 0.840983 0.288468
Si Si5 0.339922 0.675835 0.472420
Si Si6 0.048034 0.378710 0.999260
Si Si7 0.320197 0.678107 0.740275
Si Si8 0.749677 0.212236 0.991786
O O1 0.045380 0.202292 0.642459
O O2 0.352897 0.478839 0.485779
O O3 0.356206 0.239233 0.399248
O O4 0.864193 0.407985 0.618721
O O5 0.409327 0.221275 0.112294
O O6 0.935190 0.229590 0.374072
O O7 0.867636 0.200995 0.259848
O O8 0.091910 0.958673 0.234540
O O9 0.378524 0.272434 0.611524
O O10 0.892829 0.200174 0.856078
O O11 0.353821 0.699370 0.380361
O O12 0.652544 0.788942 0.141297
O O13 0.623387 0.987718 0.256751
O O14 0.149347 0.551221 0.998899
O O15 0.852623 0.279642 0.132177
O O16 0.859072 0.369642 0.997985
#
# Coordination Sequence:
#
# PCOD9118751 Si02
#       8
#     2   2   2   2   2   2   2   2
#     4  11  26  43  76 105 142 190 246 302 365 433
#     4  11  26  46  73 109 145 189 244 300 369 433
#     4  11  23  48  71 101 145 192 239 307 357 432
#     4  12  25  48  71 105 147 193 238 304 370 431
#     4  11  22  46  71 101 145 186 236 301 360 429
#     4  12  26  47  72 107 146 196 242 304 365 438
#     4  12  25  45  73 106 144 190 241 304 362 435
#     4  12  27  49  77 106 152 196 246 304 370 441
#
# _framework density 23.519888999999999
#
# number of rings (size 3 to 8) (size 9 to 14) (size 15 to 20)
#    0.000    0.500    5.000    3.000    5.250    0.000 
#    2.250    0.000    0.000    0.000    0.000    0.000 
#    0.000    0.000    0.000    0.000    0.000    0.000 
#
# Total GULP energy -89264.057730 kJ/mol
# GULP energy per Si atom -5579.003608 kJ/mol
# Density = 2.346636 g / cm^3
# Si number density = 23.519889 Si / 1000 Ang^3
#
#
#
# Elastic Constant Matrix: (Units=GPa)
#
#
# Indices 1 2 3 4 5 6 
#
# 1 78.0152 24.7057 68.2204 0.0000 -9.6407 0.0000
# 2 24.7057 24.7218 34.0740 0.0000 1.9170 0.0000
# 3 68.2204 34.0740 234.7648 0.0000 8.8558 0.0000
# 4 0.0000 0.0000 0.0000 31.5261 0.0000 6.7597
# 5 -9.6407 1.9170 8.8558 0.0000 48.3902 0.0000
# 6 0.0000 0.0000 0.0000 6.7597 0.0000 35.9866
#
#
#
# Elastic Compliance Matrix: (Units=1/GPa)
#
#
# Indices 1 2 3 4 5 6 
#
# 1 0.022853 -0.017300 -0.004358 0.000000 0.006036 0.000000
# 2 -0.017300 0.063684 -0.004018 0.000000 -0.005234 0.000000
# 3 -0.004358 -0.004018 0.006178 0.000000 -0.001840 0.000000
# 4 0.000000 0.000000 0.000000 0.033051 0.000000 -0.006208
# 5 0.006036 -0.005234 -0.001840 0.000000 0.022412 0.000000
# 6 0.000000 0.000000 0.000000 -0.006208 0.000000 0.028954
#
#
# Mechanical properties :
#
#
# Convention : Reuss Voigt Hill
#
# Bulk Modulus (GPa) = 24.17633 65.72245 44.94939
# Shear Modulus (GPa) = 20.63797 37.21401 28.92599
#
# Velocity S-wave (km/s) = 2.96542 3.98205 3.51073
# Velocity P-wave (km/s) = 4.69323 7.01044 5.96543
#
# Compressibility (1/GPa) = 0.04136276
#
# Stress axis : x y z
#
# Youngs Moduli (GPa) = 43.75803 15.70265 161.85201
#
# Poissons Ratio (x) = 0.27166 0.70528
# Poissons Ratio (y) = 0.75702 0.65039
# Poissons Ratio (z) = 0.19068 0.06310
#
# Static dielectric constant tensor:
#      x y z
#    x 2.003750 0.000000 0.110500 
#    y 0.000000 1.938460 0.000000 
#    z 0.110500 0.000000 1.915520 
# 
# From -- ./inp_files/14941.got.cif
#   From: 2010.05.17/outbox.cif.g08.bks.cpg/sg4_8_cif.got.tgz:14941.got - 2010.06.03 18:43:04.
