data_PCOD9118476
_publ_section_title
;
Structure prediction by ZEFSAII (Michael W. Deem and Ramdas Pophale) SiO2 
 PCOD9118476
Probable space group: P 21
;
_chemical_formula_sum "Si O2"
_cell_formula_units_Z 16
_cell_length_a 9.645629
_cell_length_b 9.741392
_cell_length_c 10.064134
_cell_angle_alpha 90.000000
_cell_angle_beta 42.907386
_cell_angle_gamma 90.000000
_cell_volume 643.809363
_symmetry_space_group_name_H-M "P 21"
_symmetry_group_IT_number 4
_symmetry_cell_setting 'monoclinic'
loop_
_space_group_symop_operation_xyz
x,y,z
-x,1/2+y,-z
loop_
_atom_site_type_symbol
_atom_site_label
_atom_site_fract_x
_atom_site_fract_y
_atom_site_fract_z
Si Si1 0.087756 0.419730 0.571175
Si Si2 0.691686 0.674391 0.297536
Si Si3 0.353297 0.161346 0.959925
Si Si4 0.168283 0.680760 0.383625
Si Si5 0.789358 0.355739 0.989147
Si Si6 0.653961 0.376972 0.370954
Si Si7 0.121279 0.036800 0.599241
Si Si8 0.613085 0.726736 0.770455
O O1 0.091918 0.583532 0.557305
O O2 0.299468 0.355791 0.373450
O O3 0.932874 0.326805 0.586208
O O4 0.009531 0.378203 0.770727
O O5 0.749077 0.708285 0.106280
O O6 0.570828 0.528297 0.389786
O O7 0.535266 0.782090 0.465950
O O8 0.870641 0.625234 0.269803
O O9 0.592327 0.192131 0.774639
O O10 0.315020 0.998063 0.989049
O O11 0.304245 0.224521 0.137697
O O12 0.088277 0.573315 0.324597
O O13 0.785424 0.340394 0.149829
O O14 0.629990 0.239397 0.054027
O O15 0.797075 0.393668 0.400795
O O16 0.292893 0.099508 0.378540
#
# Coordination Sequence:
#
# PCOD9118476 Si02
#       8
#     2   2   2   2   2   2   2   2
#     4  11  24  40  65  96 137 170 221 275 335 390
#     4   9  20  36  64  94 131 175 223 271 329 394
#     4  11  23  38  69 101 131 175 229 275 336 398
#     4  11  23  39  66  97 133 175 218 276 337 388
#     4  11  19  39  67  90 131 177 218 271 337 396
#     4   9  19  38  65  90 128 177 222 271 330 397
#     4   9  21  38  65  87 137 166 219 275 323 391
#     4  11  21  40  65  97 130 173 222 274 335 398
#
# _framework density 24.852077999999999
#
# number of rings (size 3 to 8) (size 9 to 14) (size 15 to 20)
#    0.750    1.000    3.750    1.500    1.750    1.000 
#    0.000    0.000   16.500    0.000    0.000    0.000 
#    0.000    0.000    0.000    0.000    0.000    0.000 
#
# Total GULP energy -89202.926637 kJ/mol
# GULP energy per Si atom -5575.182915 kJ/mol
# Density = 2.479551 g / cm^3
# Si number density = 24.852078 Si / 1000 Ang^3
#
#
#
# Elastic Constant Matrix: (Units=GPa)
#
#
# Indices 1 2 3 4 5 6 
#
# 1 65.4151 -24.5493 6.3729 0.0000 14.5136 0.0000
# 2 -24.5493 68.3683 3.8626 0.0000 -8.7010 0.0000
# 3 6.3729 3.8626 114.2329 0.0000 23.2608 0.0000
# 4 0.0000 0.0000 0.0000 28.3637 0.0000 0.0977
# 5 14.5136 -8.7010 23.2608 0.0000 49.2213 0.0000
# 6 0.0000 0.0000 0.0000 0.0977 0.0000 36.9587
#
#
#
# Elastic Compliance Matrix: (Units=1/GPa)
#
#
# Indices 1 2 3 4 5 6 
#
# 1 0.018567 0.006154 -0.000388 0.000000 -0.004204 0.000000
# 2 0.006154 0.017142 -0.001295 0.000000 0.001828 0.000000
# 3 -0.000388 -0.001295 0.009784 0.000000 -0.004738 0.000000
# 4 0.000000 0.000000 0.000000 0.035257 0.000000 -0.000093
# 5 -0.004204 0.001828 -0.004738 0.000000 0.024118 0.000000
# 6 0.000000 0.000000 0.000000 -0.000093 0.000000 0.027057
#
#
# Mechanical properties :
#
#
# Convention : Reuss Voigt Hill
#
# Bulk Modulus (GPa) = 18.37062 24.37655 21.37359
# Shear Modulus (GPa) = 35.42855 40.39742 37.91299
#
# Velocity S-wave (km/s) = 3.77978 4.03614 3.91006
# Velocity P-wave (km/s) = 5.14364 5.61699 5.38551
#
# Compressibility (1/GPa) = 0.05443474
#
# Stress axis : x y z
#
# Youngs Moduli (GPa) = 53.85946 58.33581 102.20417
#
# Poissons Ratio (x) = -0.35899 0.03965
# Poissons Ratio (y) = -0.33144 0.13237
# Poissons Ratio (z) = 0.02090 0.07555
#
# Static dielectric constant tensor:
#      x y z
#    x 2.047810 0.000000 0.042660 
#    y 0.000000 2.056190 0.000000 
#    z 0.042660 0.000000 2.001030 
# 
# From -- ./inp_files/8307.got.cif
#   From: 2010.05.17/outbox.cif.g08.bks.cpg/sg4_5_cif.got.tgz:8307.got - 2010.06.03 18:43:04.
