data_PCOD9118618
_publ_section_title
;
Structure prediction by ZEFSAII (Michael W. Deem and Ramdas Pophale) SiO2 
 PCOD9118618
Probable space group: P 21
;
_chemical_formula_sum "Si O2"
_cell_formula_units_Z 16
_cell_length_a 10.833030
_cell_length_b 10.008058
_cell_length_c 6.608880
_cell_angle_alpha 90.000000
_cell_angle_beta 92.377943
_cell_angle_gamma 90.000000
_cell_volume 715.901848
_symmetry_space_group_name_H-M "P 21"
_symmetry_group_IT_number 4
_symmetry_cell_setting 'monoclinic'
loop_
_space_group_symop_operation_xyz
x,y,z
-x,1/2+y,-z
loop_
_atom_site_type_symbol
_atom_site_label
_atom_site_fract_x
_atom_site_fract_y
_atom_site_fract_z
Si Si1 0.121193 0.380420 0.061217
Si Si2 0.464820 0.099476 0.085766
Si Si3 0.058433 0.925358 0.295633
Si Si4 0.065731 0.201855 0.447912
Si Si5 0.447716 0.343853 0.395409
Si Si6 0.708733 0.728878 0.249319
Si Si7 0.337501 0.878913 0.324070
Si Si8 0.690247 0.082902 0.838449
O O1 0.111421 0.282629 0.252236
O O2 0.172832 0.525836 0.123764
O O3 0.221233 0.321722 0.909370
O O4 0.994330 0.394515 0.929820
O O5 0.444137 0.216301 0.248162
O O6 0.421212 0.958757 0.170515
O O7 0.380332 0.133813 0.885951
O O8 0.607990 0.095592 0.034494
O O9 0.204331 0.945828 0.307858
O O10 0.021674 0.803480 0.437505
O O11 0.002948 0.064211 0.374993
O O12 0.179925 0.170551 0.606931
O O13 0.377535 0.304990 0.596766
O O14 0.587360 0.382469 0.462392
O O15 0.379143 0.469008 0.294180
O O16 0.316786 0.725383 0.266375
#
# Coordination Sequence:
#
# PCOD9118618 Si02
#       8
#     2   2   2   2   2   2   2   2
#     4  11  25  47  74 100 145 190 250 301 372 434
#     4  12  25  47  71 112 148 191 244 302 388 440
#     4  11  29  46  73 106 142 199 247 305 369 434
#     4  11  26  49  74 102 144 197 249 310 366 438
#     4  12  24  47  74 106 153 190 240 302 381 449
#     4  11  21  46  76 102 140 198 237 297 380 443
#     4  12  27  44  71 113 147 188 246 304 365 446
#     4  12  25  44  75 105 143 193 241 305 365 446
#
# _framework density 22.349432
#
# number of rings (size 3 to 8) (size 9 to 14) (size 15 to 20)
#    0.000    0.500    3.750    3.750    5.250    3.000 
#    0.000    0.000    0.000    0.000    0.000    0.000 
#    0.000    0.000    0.000    0.000    0.000    0.000 
#
# Total GULP energy -89580.985636 kJ/mol
# GULP energy per Si atom -5598.811602 kJ/mol
# Density = 2.229856 g / cm^3
# Si number density = 22.349432 Si / 1000 Ang^3
#
#
#
# Elastic Constant Matrix: (Units=GPa)
#
#
# Indices 1 2 3 4 5 6 
#
# 1 37.2487 -39.1613 -0.2839 0.0000 10.5872 0.0000
# 2 -39.1613 60.4137 0.6226 0.0000 3.3328 0.0000
# 3 -0.2839 0.6226 78.4510 0.0000 9.7348 0.0000
# 4 0.0000 0.0000 0.0000 24.2858 0.0000 9.0879
# 5 10.5872 3.3328 9.7348 0.0000 28.2790 0.0000
# 6 0.0000 0.0000 0.0000 9.0879 0.0000 11.5971
#
#
#
# Elastic Compliance Matrix: (Units=1/GPa)
#
#
# Indices 1 2 3 4 5 6 
#
# 1 0.171364 0.115456 0.009771 0.000000 -0.081126 0.000000
# 2 0.115456 0.094450 0.006699 0.000000 -0.056662 0.000000
# 3 0.009771 0.006699 0.013874 0.000000 -0.009223 0.000000
# 4 0.000000 0.000000 0.000000 0.058261 0.000000 -0.045655
# 5 -0.081126 -0.056662 -0.009223 0.000000 0.075587 0.000000
# 6 0.000000 0.000000 0.000000 -0.045655 0.000000 0.122006
#
#
# Mechanical properties :
#
#
# Convention : Reuss Voigt Hill
#
# Bulk Modulus (GPa) = 1.83979 10.94091 6.39035
# Shear Modulus (GPa) = 11.04072 27.16145 19.10108
#
# Velocity S-wave (km/s) = 2.22503 3.48991 2.92662
# Velocity P-wave (km/s) = 2.72507 4.59840 3.77964
#
# Compressibility (1/GPa) = 0.54354028
#
# Stress axis : x y z
#
# Youngs Moduli (GPa) = 5.83553 10.58759 72.07978
#
# Poissons Ratio (x) = -1.22240 -0.70427
# Poissons Ratio (y) = -0.67375 -0.48289
# Poissons Ratio (z) = -0.05702 -0.07093
#
# Static dielectric constant tensor:
#      x y z
#    x 1.846140 0.000000 -0.001170 
#    y 0.000000 1.798240 0.000000 
#    z -0.001170 0.000000 1.817600 
# 
# From -- ./inp_files/2590.got.cif
#   From: 2010.05.17/outbox.cif.g08.bks.cpg/sg4_2_cif.got.tgz:2590.got - 2010.06.03 18:43:04.
