data_PCOD9118515
_publ_section_title
;
Structure prediction by ZEFSAII (Michael W. Deem and Ramdas Pophale) SiO2 
 PCOD9118515
Probable space group: P 21
;
_chemical_formula_sum "Si O2"
_cell_formula_units_Z 16
_cell_length_a 11.138811
_cell_length_b 12.271604
_cell_length_c 11.885954
_cell_angle_alpha 90.000000
_cell_angle_beta 156.191280
_cell_angle_gamma 90.000000
_cell_volume 655.867834
_symmetry_space_group_name_H-M "P 21"
_symmetry_group_IT_number 4
_symmetry_cell_setting 'monoclinic'
loop_
_space_group_symop_operation_xyz
x,y,z
-x,1/2+y,-z
loop_
_atom_site_type_symbol
_atom_site_label
_atom_site_fract_x
_atom_site_fract_y
_atom_site_fract_z
Si Si1 0.031438 0.877480 0.263158
Si Si2 0.538538 0.680935 0.373808
Si Si3 0.905481 0.069919 0.453044
Si Si4 0.474147 0.468210 0.468876
Si Si5 0.421500 0.783119 0.783394
Si Si6 0.813976 0.397699 0.948971
Si Si7 0.621003 0.426295 0.034303
Si Si8 0.838065 0.118085 0.136458
O O1 0.286805 0.890487 0.389304
O O2 0.214732 0.863926 0.534733
O O3 0.870755 0.993651 0.125307
O O4 0.761381 0.791532 0.031032
O O5 0.447602 0.579020 0.373562
O O6 0.352787 0.788693 0.235380
O O7 0.892417 0.686551 0.686844
O O8 0.463717 0.657028 0.178356
O O9 0.729812 0.166079 0.365241
O O10 0.891979 0.112981 0.314259
O O11 0.708607 0.960741 0.284576
O O12 0.220809 0.031477 0.771833
O O13 0.617112 0.488797 0.714366
O O14 0.152596 0.413844 0.202647
O O15 0.405726 0.829609 0.897611
O O16 0.789663 0.403759 0.062918
#
# Coordination Sequence:
#
# PCOD9118515 Si02
#       8
#     2   2   2   2   2   2   2   2
#     4  11  22  43  71  98 135 178 239 294 344 405
#     4  11  24  43  76 106 129 192 250 284 349 414
#     4  12  25  41  69 108 146 187 222 285 377 427
#     4  11  25  47  73 104 141 185 245 305 342 414
#     4  12  23  43  70 106 140 183 229 287 365 433
#     4  12  26  48  72 105 147 190 237 293 364 424
#     4  12  25  46  68 107 149 186 228 297 354 431
#     4  11  20  41  71 102 141 177 236 297 327 426
#
# _framework density 24.395159
#
# number of rings (size 3 to 8) (size 9 to 14) (size 15 to 20)
#    0.000    0.500    2.500    7.500    0.000    2.000 
#    9.000    0.000    0.000    0.000    0.000    0.000 
#    0.000    0.000    0.000    0.000    0.000    0.000 
#
# Total GULP energy -89517.619331 kJ/mol
# GULP energy per Si atom -5594.851208 kJ/mol
# Density = 2.433963 g / cm^3
# Si number density = 24.395159 Si / 1000 Ang^3
#
#
#
# Elastic Constant Matrix: (Units=GPa)
#
#
# Indices 1 2 3 4 5 6 
#
# 1 67.1931 29.8162 -11.6086 0.0000 -5.2290 0.0000
# 2 29.8162 55.8339 6.4897 0.0000 -1.6730 0.0000
# 3 -11.6086 6.4897 89.6436 0.0000 0.6240 0.0000
# 4 0.0000 0.0000 0.0000 32.2013 0.0000 2.7417
# 5 -5.2290 -1.6730 0.6240 0.0000 47.3249 0.0000
# 6 0.0000 0.0000 0.0000 2.7417 0.0000 24.5655
#
#
#
# Elastic Compliance Matrix: (Units=1/GPa)
#
#
# Indices 1 2 3 4 5 6 
#
# 1 0.020686 -0.011397 0.003491 0.000000 0.001837 0.000000
# 2 -0.011397 0.024362 -0.003237 0.000000 -0.000355 0.000000
# 3 0.003491 -0.003237 0.011841 0.000000 0.000115 0.000000
# 4 0.000000 0.000000 0.000000 0.031353 0.000000 -0.003499
# 5 0.001837 -0.000355 0.000115 0.000000 0.021319 0.000000
# 6 0.000000 0.000000 0.000000 -0.003499 0.000000 0.041098
#
#
# Mechanical properties :
#
#
# Convention : Reuss Voigt Hill
#
# Bulk Modulus (GPa) = 28.89982 29.11838 29.00910
# Shear Modulus (GPa) = 27.10317 33.34989 30.22653
#
# Velocity S-wave (km/s) = 3.33679 3.70140 3.52382
# Velocity P-wave (km/s) = 5.16893 5.49811 5.33606
#
# Compressibility (1/GPa) = 0.03460229
#
# Stress axis : x y z
#
# Youngs Moduli (GPa) = 48.34181 41.04708 84.45284
#
# Poissons Ratio (x) = 0.46783 -0.29483
# Poissons Ratio (y) = 0.55097 0.27339
# Poissons Ratio (z) = -0.16877 0.13288
#
# Static dielectric constant tensor:
#      x y z
#    x 1.996470 0.000000 -0.038710 
#    y 0.000000 1.979960 0.000000 
#    z -0.038710 0.000000 1.871360 
# 
# From -- ./inp_files/12254.got.cif
#   From: 2010.05.17/outbox.cif.g08.bks.cpg/sg4_7_cif.got.tgz:12254.got - 2010.06.03 18:43:04.
