data_PCOD9118962
_publ_section_title
;
Structure prediction by ZEFSAII (Michael W. Deem and Ramdas Pophale) SiO2 
 PCOD9118962
Probable space group: P 21
;
_chemical_formula_sum "Si O2"
_cell_formula_units_Z 16
_cell_length_a 11.870181
_cell_length_b 10.991858
_cell_length_c 6.220046
_cell_angle_alpha 90.000000
_cell_angle_beta 128.577170
_cell_angle_gamma 90.000000
_cell_volume 634.454515
_symmetry_space_group_name_H-M "P 21"
_symmetry_group_IT_number 4
_symmetry_cell_setting 'monoclinic'
loop_
_space_group_symop_operation_xyz
x,y,z
-x,1/2+y,-z
loop_
_atom_site_type_symbol
_atom_site_label
_atom_site_fract_x
_atom_site_fract_y
_atom_site_fract_z
Si Si1 0.984767 0.280590 0.060511
Si Si2 0.309251 0.933346 0.675580
Si Si3 0.058016 0.999406 0.663762
Si Si4 0.700826 0.193483 0.508262
Si Si5 0.171290 0.409928 0.899585
Si Si6 0.424166 0.301716 0.421867
Si Si7 0.615805 0.934535 0.205999
Si Si8 0.190348 0.104922 0.203693
O O1 0.839218 0.209789 0.824684
O O2 0.059059 0.348143 0.937838
O O3 0.962152 0.375018 0.225315
O O4 0.106608 0.185421 0.276130
O O5 0.213586 0.997471 0.740032
O O6 0.277838 0.790349 0.658196
O O7 0.246232 0.981210 0.373201
O O8 0.475608 0.966403 0.897407
O O9 0.931879 0.008574 0.338683
O O10 0.074793 0.093867 0.875395
O O11 0.566050 0.258835 0.468152
O O12 0.672493 0.059715 0.381490
O O13 0.259209 0.370120 0.785489
O O14 0.318394 0.411898 0.215260
O O15 0.446935 0.341484 0.692960
O O16 0.323694 0.183575 0.285784
#
# Coordination Sequence:
#
# PCOD9118962 Si02
#       8
#     2   2   2   2   2   2   2   2
#     4  11  25  47  73 109 151 195 247 312 368 448
#     4  12  27  49  72 110 149 190 255 307 377 452
#     4  12  23  46  73 103 148 200 243 302 378 438
#     4  12  25  50  73 112 146 192 260 300 366 462
#     4  11  23  46  71 106 150 186 253 300 367 445
#     4  11  27  49  75 111 156 191 249 318 377 441
#     4  12  28  46  78 109 149 203 248 314 376 444
#     4  11  26  47  75 108 151 197 243 313 383 436
#
# _framework density 25.218515
#
# number of rings (size 3 to 8) (size 9 to 14) (size 15 to 20)
#    0.000    0.500    3.750    3.750    3.500    6.000 
#    6.750    0.000    0.000    0.000    0.000    0.000 
#    0.000    0.000    0.000    0.000    0.000    0.000 
#
# Total GULP energy -89237.136806 kJ/mol
# GULP energy per Si atom -5577.321050 kJ/mol
# Density = 2.516112 g / cm^3
# Si number density = 25.218515 Si / 1000 Ang^3
#
#
#
# Elastic Constant Matrix: (Units=GPa)
#
#
# Indices 1 2 3 4 5 6 
#
# 1 123.0929 17.0827 41.1793 0.0000 23.3262 0.0000
# 2 17.0827 60.8794 20.0275 0.0000 -13.1012 0.0000
# 3 41.1793 20.0275 107.1608 0.0000 14.2045 0.0000
# 4 0.0000 0.0000 0.0000 29.1864 0.0000 3.5826
# 5 23.3262 -13.1012 14.2045 0.0000 41.1358 0.0000
# 6 0.0000 0.0000 0.0000 3.5826 0.0000 34.0485
#
#
#
# Elastic Compliance Matrix: (Units=1/GPa)
#
#
# Indices 1 2 3 4 5 6 
#
# 1 0.010668 -0.003476 -0.002621 0.000000 -0.006251 0.000000
# 2 -0.003476 0.020813 -0.003871 0.000000 0.009937 0.000000
# 3 -0.002621 -0.003871 0.011558 0.000000 -0.003738 0.000000
# 4 0.000000 0.000000 0.000000 0.034711 0.000000 -0.003652
# 5 -0.006251 0.009937 -0.003738 0.000000 0.032310 0.000000
# 6 0.000000 0.000000 0.000000 -0.003652 0.000000 0.029754
#
#
# Mechanical properties :
#
#
# Convention : Reuss Voigt Hill
#
# Bulk Modulus (GPa) = 43.28649 49.74579 46.51614
# Shear Modulus (GPa) = 29.85934 35.06371 32.46152
#
# Velocity S-wave (km/s) = 3.44470 3.73285 3.59166
# Velocity P-wave (km/s) = 5.74657 6.19254 5.97372
#
# Compressibility (1/GPa) = 0.02310190
#
# Stress axis : x y z
#
# Youngs Moduli (GPa) = 93.73927 48.04630 86.52102
#
# Poissons Ratio (x) = 0.16703 0.22678
# Poissons Ratio (y) = 0.32588 0.33493
# Poissons Ratio (z) = 0.24570 0.18599
#
# Static dielectric constant tensor:
#      x y z
#    x 1.977030 0.000000 -0.034830 
#    y 0.000000 2.017340 0.000000 
#    z -0.034830 0.000000 2.045000 
# 
# From -- ./inp_files/2916.got.cif
#   From: 2010.05.17/outbox.cif.g08.bks.cpg/sg4_2_cif.got.tgz:2916.got - 2010.06.03 18:43:04.
