data_PCOD9118619
_publ_section_title
;
Structure prediction by ZEFSAII (Michael W. Deem and Ramdas Pophale) SiO2 
 PCOD9118619
Probable space group: P 21
;
_chemical_formula_sum "Si O2"
_cell_formula_units_Z 14
_cell_length_a 8.424436
_cell_length_b 10.901266
_cell_length_c 6.181290
_cell_angle_alpha 90.000000
_cell_angle_beta 105.726332
_cell_angle_gamma 90.000000
_cell_volume 546.421762
_symmetry_space_group_name_H-M "P 21"
_symmetry_group_IT_number 4
_symmetry_cell_setting 'monoclinic'
loop_
_space_group_symop_operation_xyz
x,y,z
-x,1/2+y,-z
loop_
_atom_site_type_symbol
_atom_site_label
_atom_site_fract_x
_atom_site_fract_y
_atom_site_fract_z
Si Si1 0.981792 0.610300 0.793707
Si Si2 0.736646 0.153426 0.455026
Si Si3 0.931193 0.830806 0.090707
Si Si4 0.350386 0.462591 0.231303
Si Si5 0.738470 0.703432 0.359954
Si Si6 0.452151 0.070709 0.068538
Si Si7 0.588636 0.354656 0.633297
O O1 0.125657 0.638375 0.673013
O O2 0.992845 0.468921 0.877737
O O3 0.001653 0.712823 0.988533
O O4 0.815642 0.632692 0.591359
O O5 0.553228 0.151985 0.278736
O O6 0.739409 0.273408 0.607105
O O7 0.741666 0.038555 0.618297
O O8 0.873277 0.797442 0.312555
O O9 0.761572 0.853730 0.892085
O O10 0.522548 0.426665 0.401506
O O11 0.399935 0.539368 0.041849
O O12 0.567916 0.770890 0.355367
O O13 0.691647 0.623534 0.132275
O O14 0.389858 0.948862 0.164574
#
# Coordination Sequence:
#
# PCOD9118619 Si02
#       7
#     2   2   2   2   2   2   2
#     4  12  30  52  84 116 166 222 267 335 410 483
#     4  11  25  47  76 113 153 206 267 325 404 475
#     4  12  27  55  80 112 168 217 268 333 408 481
#     4  11  21  46  77 108 154 199 263 331 397 469
#     4  12  26  50  79 116 159 211 273 332 405 486
#     4  11  24  46  79 111 153 210 262 330 414 466
#     4  11  23  44  77 114 151 199 270 338 390 482
#
# _framework density 25.621231000000002
#
# number of rings (size 3 to 8) (size 9 to 14) (size 15 to 20)
#    0.000    0.571    5.714    1.714    2.000    0.000 
#    7.714    0.000    0.000    0.000    0.000    0.000 
#    0.000    0.000    0.000    0.000    0.000    0.000 
#
# Total GULP energy -78415.700014 kJ/mol
# GULP energy per Si atom -5601.121430 kJ/mol
# Density = 2.556292 g / cm^3
# Si number density = 25.621231 Si / 1000 Ang^3
#
#
#
# Elastic Constant Matrix: (Units=GPa)
#
#
# Indices 1 2 3 4 5 6 
#
# 1 109.0470 45.7091 25.3291 0.0000 -22.8850 0.0000
# 2 45.7091 145.0229 68.0842 0.0000 -7.3217 0.0000
# 3 25.3291 68.0842 127.8999 0.0000 9.1117 0.0000
# 4 0.0000 0.0000 0.0000 53.6523 0.0000 -2.8932
# 5 -22.8850 -7.3217 9.1117 0.0000 61.3172 0.0000
# 6 0.0000 0.0000 0.0000 -2.8932 0.0000 46.4541
#
#
#
# Elastic Compliance Matrix: (Units=1/GPa)
#
#
# Indices 1 2 3 4 5 6 
#
# 1 0.011496 -0.002948 -0.000998 0.000000 0.004087 0.000000
# 2 -0.002948 0.010160 -0.004884 0.000000 0.000839 0.000000
# 3 -0.000998 -0.004884 0.010799 0.000000 -0.002561 0.000000
# 4 0.000000 0.000000 0.000000 0.018701 0.000000 0.001165
# 5 0.004087 0.000839 -0.002561 0.000000 0.018315 0.000000
# 6 0.000000 0.000000 0.000000 0.001165 0.000000 0.021599
#
#
# Mechanical properties :
#
#
# Convention : Reuss Voigt Hill
#
# Bulk Modulus (GPa) = 67.60057 73.35718 70.47887
# Shear Modulus (GPa) = 43.98987 48.47453 46.23220
#
# Velocity S-wave (km/s) = 4.14808 4.35439 4.25249
# Velocity P-wave (km/s) = 7.02737 7.34674 7.18883
#
# Compressibility (1/GPa) = 0.01479277
#
# Stress axis : x y z
#
# Youngs Moduli (GPa) = 86.98875 98.42392 92.60296
#
# Poissons Ratio (x) = 0.29018 0.09245
# Poissons Ratio (y) = 0.25647 0.45231
# Poissons Ratio (z) = 0.08684 0.48074
#
# Static dielectric constant tensor:
#      x y z
#    x 2.059260 0.000000 0.035960 
#    y 0.000000 2.038290 0.000000 
#    z 0.035960 0.000000 1.989530 
# 
# From -- ./inp_files/2740.got.cif
#   From: 2010.05.17/outbox.cif.g08.bks.cpg/sg4_2_cif.got.tgz:2740.got - 2010.06.03 18:43:04.
