data_PCOD9118802
_publ_section_title
;
Structure prediction by ZEFSAII (Michael W. Deem and Ramdas Pophale) SiO2 
 PCOD9118802
Probable space group: P 21
;
_chemical_formula_sum "Si O2"
_cell_formula_units_Z 12
_cell_length_a 20.673903
_cell_length_b 4.961499
_cell_length_c 8.862116
_cell_angle_alpha 90.000000
_cell_angle_beta 150.866809
_cell_angle_gamma 90.000000
_cell_volume 442.547994
_symmetry_space_group_name_H-M "P 21"
_symmetry_group_IT_number 4
_symmetry_cell_setting 'monoclinic'
loop_
_space_group_symop_operation_xyz
x,y,z
-x,1/2+y,-z
loop_
_atom_site_type_symbol
_atom_site_label
_atom_site_fract_x
_atom_site_fract_y
_atom_site_fract_z
Si Si1 0.645511 0.533940 0.916753
Si Si2 0.686976 0.891851 0.456886
Si Si3 0.910970 0.623342 0.272065
Si Si4 0.098503 0.762251 0.017753
Si Si5 0.452724 0.587947 0.132356
Si Si6 0.845517 0.488935 0.569749
O O1 0.762694 0.599859 0.039707
O O2 0.730812 0.381780 0.227897
O O3 0.550972 0.276329 0.717265
O O4 0.581712 0.792905 0.868201
O O5 0.595502 0.693302 0.365554
O O6 0.783003 0.710483 0.550763
O O7 0.769253 0.088223 0.735172
O O8 0.608676 0.057954 0.167466
O O9 0.981060 0.904704 0.447778
O O10 0.899105 0.533378 0.073225
O O11 0.095811 0.779116 0.194406
O O12 0.958768 0.621627 0.701320
#
# Coordination Sequence:
#
# PCOD9118802 Si02
#       6
#     2   2   2   2   2   2
#     4  11  24  46  70 106 143 199 245 294 362 445
#     4  11  24  42  70 112 146 190 246 307 367 430
#     4  12  28  46  73 107 154 200 241 298 378 454
#     4  12  25  41  72 112 151 190 243 308 373 438
#     4  11  24  43  73 104 147 193 247 297 361 433
#     4  11  23  40  68 109 149 180 240 308 369 426
#
# _framework density 27.115707
#
# number of rings (size 3 to 8) (size 9 to 14) (size 15 to 20)
#    0.000    0.667    5.000    3.000    9.333    0.000 
#    0.000    0.000    3.667    0.000    0.000    0.000 
#    0.000    0.000    0.000    0.000    0.000    0.000 
#
# Total GULP energy -66999.749711 kJ/mol
# GULP energy per Si atom -5583.312476 kJ/mol
# Density = 2.705399 g / cm^3
# Si number density = 27.115707 Si / 1000 Ang^3
#
#
#
# Elastic Constant Matrix: (Units=GPa)
#
#
# Indices 1 2 3 4 5 6 
#
# 1 145.6071 16.6011 10.0147 0.0000 18.1587 0.0000
# 2 16.6011 53.4181 13.0355 0.0000 10.3251 0.0000
# 3 10.0147 13.0355 103.7385 0.0000 -11.2476 0.0000
# 4 0.0000 0.0000 0.0000 99.4523 0.0000 40.7698
# 5 18.1587 10.3251 -11.2476 0.0000 48.5630 0.0000
# 6 0.0000 0.0000 0.0000 40.7698 0.0000 78.6076
#
#
#
# Elastic Compliance Matrix: (Units=1/GPa)
#
#
# Indices 1 2 3 4 5 6 
#
# 1 0.007433 -0.001608 -0.000800 0.000000 -0.002623 0.000000
# 2 -0.001608 0.020810 -0.002948 0.000000 -0.004506 0.000000
# 3 -0.000800 -0.002948 0.010450 0.000000 0.003346 0.000000
# 4 0.000000 0.000000 0.000000 0.012770 0.000000 -0.006623
# 5 -0.002623 -0.004506 0.003346 0.000000 0.023306 0.000000
# 6 0.000000 0.000000 0.000000 -0.006623 0.000000 0.016157
#
#
# Mechanical properties :
#
#
# Convention : Reuss Voigt Hill
#
# Bulk Modulus (GPa) = 35.73792 42.45181 39.09486
# Shear Modulus (GPa) = 45.05896 62.86540 53.96218
#
# Velocity S-wave (km/s) = 4.08085 4.82021 4.46586
# Velocity P-wave (km/s) = 5.95087 6.83148 6.40632
#
# Compressibility (1/GPa) = 0.02798149
#
# Stress axis : x y z
#
# Youngs Moduli (GPa) = 134.53093 48.05285 95.69257
#
# Poissons Ratio (x) = 0.07726 0.07655
# Poissons Ratio (y) = 0.21631 0.28213
# Poissons Ratio (z) = 0.10761 0.14167
#
# Static dielectric constant tensor:
#      x y z
#    x 1.898410 0.000000 -0.342670 
#    y 0.000000 1.925430 0.000000 
#    z -0.342670 0.000000 1.989490 
# 
# From -- ./inp_files/8560.got.cif
#   From: 2010.05.17/outbox.cif.g08.bks.cpg/sg4_5_cif.got.tgz:8560.got - 2010.06.03 18:43:04.
