data_PCOD9118413
_publ_section_title
;
Structure prediction by ZEFSAII (Michael W. Deem and Ramdas Pophale) SiO2 
 PCOD9118413
Probable space group: P 21
;
_chemical_formula_sum "Si O2"
_cell_formula_units_Z 16
_cell_length_a 5.645490
_cell_length_b 21.901705
_cell_length_c 4.921981
_cell_angle_alpha 90.000000
_cell_angle_beta 81.137736
_cell_angle_gamma 90.000000
_cell_volume 601.317022
_symmetry_space_group_name_H-M "P 21"
_symmetry_group_IT_number 4
_symmetry_cell_setting 'monoclinic'
loop_
_space_group_symop_operation_xyz
x,y,z
-x,1/2+y,-z
loop_
_atom_site_type_symbol
_atom_site_label
_atom_site_fract_x
_atom_site_fract_y
_atom_site_fract_z
Si Si1 0.180770 0.413960 0.422189
Si Si2 0.407396 0.865277 0.956053
Si Si3 0.409310 0.183881 0.023986
Si Si4 0.935734 0.209049 0.862558
Si Si5 0.206699 0.497883 0.902719
Si Si6 0.193800 0.818590 0.476473
Si Si7 0.259974 0.113170 0.571187
Si Si8 0.693197 0.511328 0.041791
O O1 0.345208 0.364002 0.249858
O O2 0.130328 0.460662 0.186587
O O3 0.961952 0.377279 0.583397
O O4 0.287675 0.452887 0.648184
O O5 0.229096 0.828962 0.788080
O O6 0.344279 0.937805 0.954920
O O7 0.423033 0.833164 0.243976
O O8 0.309030 0.137438 0.265224
O O9 0.674743 0.206639 0.050534
O O10 0.445785 0.150757 0.728469
O O11 0.173157 0.224998 0.999628
O O12 0.912936 0.256708 0.619417
O O13 0.011042 0.142431 0.727844
O O14 0.444230 0.533424 0.947379
O O15 0.951646 0.526148 0.859139
O O16 0.290532 0.044190 0.668066
#
# Coordination Sequence:
#
# PCOD9118413 Si02
#       8
#     2   2   2   2   2   2   2   2
#     4  11  23  44  63 101 139 179 222 279 339 416
#     4  11  25  41  66 103 138 180 228 282 350 417
#     4  10  26  46  69 102 132 179 234 287 344 409
#     4  10  28  46  72 102 138 182 240 283 349 405
#     4  11  25  41  70  98 144 172 230 272 347 407
#     4  12  24  42  71  96 140 181 229 287 343 415
#     4  10  27  46  75  96 144 178 239 285 351 408
#     4  11  24  46  68 106 135 187 226 291 343 421
#
# _framework density 26.608257999999999
#
# number of rings (size 3 to 8) (size 9 to 14) (size 15 to 20)
#    0.750    0.500    2.500    1.500    7.000    5.000 
#    0.000    0.000    0.000    0.000    0.000    0.000 
#    0.000    0.000    0.000    0.000    0.000    0.000 
#
# Total GULP energy -89324.993749 kJ/mol
# GULP energy per Si atom -5582.812109 kJ/mol
# Density = 2.654770 g / cm^3
# Si number density = 26.608258 Si / 1000 Ang^3
#
#
#
# Elastic Constant Matrix: (Units=GPa)
#
#
# Indices 1 2 3 4 5 6 
#
# 1 171.1388 22.5322 11.7352 0.0000 -12.9915 0.0000
# 2 22.5322 84.6683 11.4709 0.0000 2.7234 0.0000
# 3 11.7352 11.4709 74.3231 0.0000 8.2872 0.0000
# 4 0.0000 0.0000 0.0000 41.2505 0.0000 3.0379
# 5 -12.9915 2.7234 8.2872 0.0000 35.3122 0.0000
# 6 0.0000 0.0000 0.0000 3.0379 0.0000 36.3293
#
#
#
# Elastic Compliance Matrix: (Units=1/GPa)
#
#
# Indices 1 2 3 4 5 6 
#
# 1 0.006335 -0.001631 -0.001050 0.000000 0.002703 0.000000
# 2 -0.001631 0.012492 -0.001536 0.000000 -0.001203 0.000000
# 3 -0.001050 -0.001536 0.014261 0.000000 -0.003615 0.000000
# 4 0.000000 0.000000 0.000000 0.024392 0.000000 -0.002040
# 5 0.002703 -0.001203 -0.003615 0.000000 0.030254 0.000000
# 6 0.000000 0.000000 0.000000 -0.002040 0.000000 0.027697
#
#
# Mechanical properties :
#
#
# Convention : Reuss Voigt Hill
#
# Bulk Modulus (GPa) = 40.56221 46.84517 43.70369
# Shear Modulus (GPa) = 37.85519 41.53785 39.69652
#
# Velocity S-wave (km/s) = 3.77594 3.95535 3.86669
# Velocity P-wave (km/s) = 5.85556 6.20511 6.03287
#
# Compressibility (1/GPa) = 0.02465349
#
# Stress axis : x y z
#
# Youngs Moduli (GPa) = 157.85134 80.05403 70.12273
#
# Poissons Ratio (x) = 0.13054 0.07363
# Poissons Ratio (y) = 0.25739 0.10773
# Poissons Ratio (z) = 0.16574 0.12299
#
# Static dielectric constant tensor:
#      x y z
#    x 2.191580 0.000000 0.018660 
#    y 0.000000 2.069490 0.000000 
#    z 0.018660 0.000000 2.015550 
# 
# From -- ./inp_files/793.got.cif
#   From: 2010.05.17/outbox.cif.g08.bks.cpg/sg4_1_cif.got.tgz:793.got - 2010.06.03 18:43:04.
