data_PCOD9118714
_publ_section_title
;
Structure prediction by ZEFSAII (Michael W. Deem and Ramdas Pophale) SiO2 
 PCOD9118714
Probable space group: P 21
;
_chemical_formula_sum "Si O2"
_cell_formula_units_Z 14
_cell_length_a 27.030444
_cell_length_b 5.251103
_cell_length_c 21.189769
_cell_angle_alpha 90.000000
_cell_angle_beta 10.938844
_cell_angle_gamma 90.000000
_cell_volume 570.738518
_symmetry_space_group_name_H-M "P 21"
_symmetry_group_IT_number 4
_symmetry_cell_setting 'monoclinic'
loop_
_space_group_symop_operation_xyz
x,y,z
-x,1/2+y,-z
loop_
_atom_site_type_symbol
_atom_site_label
_atom_site_fract_x
_atom_site_fract_y
_atom_site_fract_z
Si Si1 0.236967 0.179050 0.297554
Si Si2 0.932284 0.062301 0.124509
Si Si3 0.651926 0.709261 0.292641
Si Si4 0.912232 0.680410 0.699263
Si Si5 0.378818 0.674306 0.290333
Si Si6 0.330783 0.020160 0.869174
Si Si7 0.108999 0.171913 0.602499
O O1 0.241041 0.173348 0.367909
O O2 0.076799 0.428670 0.477945
O O3 0.512508 0.177420 0.917840
O O4 0.078263 0.928826 0.476801
O O5 0.628818 0.006251 0.517440
O O6 0.954624 0.308378 0.050465
O O7 0.098633 0.135971 0.977590
O O8 0.435708 0.497650 0.583858
O O9 0.678296 0.662855 0.185608
O O10 0.638960 0.688564 0.005595
O O11 0.841016 0.659333 0.862618
O O12 0.230260 0.412176 0.486955
O O13 0.195124 0.917020 0.528951
O O14 0.192289 0.746131 0.031713
#
# Coordination Sequence:
#
# PCOD9118714 Si02
#       7
#     2   2   2   2   2   2   2
#     4  11  22  44  67  95 140 187 234 290 346 424
#     4  12  25  48  75 106 137 189 234 287 357 427
#     4  12  25  48  76 105 139 186 236 288 354 429
#     4  11  25  42  68 101 140 184 229 299 358 398
#     4  12  23  43  68 102 133 190 243 278 349 427
#     4  11  27  48  70 105 154 174 242 295 354 424
#     4  11  25  41  66 100 139 182 230 297 354 399
#
# _framework density 24.529620999999999
#
# number of rings (size 3 to 8) (size 9 to 14) (size 15 to 20)
#    0.000    0.571    2.857    5.143    2.000    6.857 
#    2.571    0.000    0.000    0.000    0.000    0.000 
#    0.000    0.000    0.000    0.000    0.000    0.000 
#
# Total GULP energy -78551.189247 kJ/mol
# GULP energy per Si atom -5610.799232 kJ/mol
# Density = 2.447379 g / cm^3
# Si number density = 24.529621 Si / 1000 Ang^3
#
#
#
# Elastic Constant Matrix: (Units=GPa)
#
#
# Indices 1 2 3 4 5 6 
#
# 1 84.0570 12.0337 13.4937 0.0000 -5.0029 0.0000
# 2 12.0337 169.4723 40.3198 0.0000 -19.1714 0.0000
# 3 13.4937 40.3198 130.1648 0.0000 -26.7445 0.0000
# 4 0.0000 0.0000 0.0000 44.3700 0.0000 11.8087
# 5 -5.0029 -19.1714 -26.7445 0.0000 56.0172 0.0000
# 6 0.0000 0.0000 0.0000 11.8087 0.0000 -43.8225
#
#
#
# Elastic Compliance Matrix: (Units=1/GPa)
#
#
# Indices 1 2 3 4 5 6 
#
# 1 0.012164 -0.000580 -0.000997 0.000000 0.000412 0.000000
# 2 -0.000580 0.006494 -0.001669 0.000000 0.001374 0.000000
# 3 -0.000997 -0.001669 0.009056 0.000000 0.003663 0.000000
# 4 0.000000 0.000000 0.000000 0.021030 0.000000 0.005667
# 5 0.000412 0.001374 0.003663 0.000000 0.020108 0.000000
# 6 0.000000 0.000000 0.000000 0.005667 0.000000 -0.021292
#
#
# Mechanical properties :
#
#
# Convention : Reuss Voigt Hill
#
# Bulk Modulus (GPa) = 47.12027 57.26539 52.19283
# Shear Modulus (GPa) = 81.79925 32.50272 57.15099
#
# Velocity S-wave (km/s) = 5.78096 3.64406 4.83212
# Velocity P-wave (km/s) = 7.98815 6.41106 7.24266
#
# Compressibility (1/GPa) = 0.02122229
#
# Stress axis : x y z
#
# Youngs Moduli (GPa) = 82.20809 153.97833 110.42864
#
# Poissons Ratio (x) = 0.08931 0.11006
# Poissons Ratio (y) = 0.04768 0.18434
# Poissons Ratio (z) = 0.08194 0.25704
#
# Static dielectric constant tensor:
#      x y z
#    x 1.954480 0.000000 0.013000 
#    y 0.000000 1.923860 0.000000 
#    z 0.013000 0.000000 1.939690 
# 
# From -- ./inp_files/16253.got.cif
#   From: 2010.05.17/outbox.cif.g08.bks.cpg/sg4_9_cif.got.tgz:16253.got - 2010.06.03 18:43:04.
