data_PCOD9118336
_publ_section_title
;
Structure prediction by ZEFSAII (Michael W. Deem and Ramdas Pophale) SiO2 
 PCOD9118336
Probable space group: P 21
;
_chemical_formula_sum "Si O2"
_cell_formula_units_Z 14
_cell_length_a 8.001222
_cell_length_b 9.736434
_cell_length_c 7.262548
_cell_angle_alpha 90.000000
_cell_angle_beta 92.869707
_cell_angle_gamma 90.000000
_cell_volume 565.067460
_symmetry_space_group_name_H-M "P 21"
_symmetry_group_IT_number 4
_symmetry_cell_setting 'monoclinic'
loop_
_space_group_symop_operation_xyz
x,y,z
-x,1/2+y,-z
loop_
_atom_site_type_symbol
_atom_site_label
_atom_site_fract_x
_atom_site_fract_y
_atom_site_fract_z
Si Si1 0.806308 0.250000 0.415169
Si Si2 0.338630 0.431875 0.156379
Si Si3 0.482436 0.091653 0.511259
Si Si4 0.594906 0.434730 0.867828
Si Si5 0.835966 0.202749 0.976935
Si Si6 0.820764 0.661402 0.903439
Si Si7 0.111230 0.062043 0.479823
O O1 0.620551 0.208314 0.474868
O O2 0.805099 0.231147 0.192800
O O3 0.868862 0.405139 0.454094
O O4 0.941471 0.144734 0.514116
O O5 0.447102 0.497137 0.323073
O O6 0.242954 0.295255 0.205781
O O7 0.447803 0.384011 0.988764
O O8 0.219626 0.550915 0.076927
O O9 0.467369 0.999308 0.325482
O O10 0.289854 0.131097 0.544958
O O11 0.679052 0.564845 0.978136
O O12 0.726366 0.312072 0.861334
O O13 0.033758 0.210060 0.956136
O O14 0.891881 0.565324 0.744117
#
# Coordination Sequence:
#
# PCOD9118336 Si02
#       7
#     2   2   2   2   2   2   2
#     4  11  25  51  75 113 161 195 267 317 385 467
#     4  12  25  45  75 105 148 201 246 315 384 449
#     4  11  27  45  75 111 151 198 253 311 385 458
#     4  11  24  46  73 103 151 196 253 312 380 459
#     4  11  24  47  73 108 145 206 248 317 387 452
#     4  10  25  47  71 109 153 192 262 313 379 466
#     4  10  26  45  78 111 153 208 251 325 382 455
#
# _framework density 24.775801999999999
#
# number of rings (size 3 to 8) (size 9 to 14) (size 15 to 20)
#    0.000    1.143    1.429    2.571   14.000    0.000 
#    2.571    1.429    0.000    0.000    0.000    0.000 
#    0.000    0.000    0.000    0.000    0.000    0.000 
#
# Total GULP energy -78363.316900 kJ/mol
# GULP energy per Si atom -5597.379779 kJ/mol
# Density = 2.471941 g / cm^3
# Si number density = 24.775802 Si / 1000 Ang^3
#
#
#
# Elastic Constant Matrix: (Units=GPa)
#
#
# Indices 1 2 3 4 5 6 
#
# 1 83.8972 27.0554 7.3139 0.0000 24.7836 0.0000
# 2 27.0554 147.4381 10.3234 0.0000 10.2152 0.0000
# 3 7.3139 10.3234 89.0470 0.0000 7.9938 0.0000
# 4 0.0000 0.0000 0.0000 34.6876 0.0000 8.1023
# 5 24.7836 10.2152 7.9938 0.0000 29.8443 0.0000
# 6 0.0000 0.0000 0.0000 8.1023 0.0000 37.7860
#
#
#
# Elastic Compliance Matrix: (Units=1/GPa)
#
#
# Indices 1 2 3 4 5 6 
#
# 1 0.016415 -0.002121 0.000058 0.000000 -0.012921 0.000000
# 2 -0.002121 0.007253 -0.000617 0.000000 -0.000556 0.000000
# 3 0.000058 -0.000617 0.011560 0.000000 -0.002933 0.000000
# 4 0.000000 0.000000 0.000000 0.030349 0.000000 -0.006508
# 5 -0.012921 -0.000556 -0.002933 0.000000 0.045213 0.000000
# 6 0.000000 0.000000 0.000000 -0.006508 0.000000 0.027860
#
#
# Mechanical properties :
#
#
# Convention : Reuss Voigt Hill
#
# Bulk Modulus (GPa) = 33.48021 45.52974 39.50498
# Shear Modulus (GPa) = 32.47429 38.84289 35.65859
#
# Velocity S-wave (km/s) = 3.62432 3.96381 3.79786
# Velocity P-wave (km/s) = 5.57287 6.27420 5.93391
#
# Compressibility (1/GPa) = 0.02986839
#
# Stress axis : x y z
#
# Youngs Moduli (GPa) = 60.91863 137.86549 86.50443
#
# Poissons Ratio (x) = 0.29242 -0.00498
# Poissons Ratio (y) = 0.12921 0.05335
# Poissons Ratio (z) = -0.00351 0.08503
#
# Static dielectric constant tensor:
#      x y z
#    x 2.067070 0.000000 -0.019150 
#    y 0.000000 1.936370 0.000000 
#    z -0.019150 0.000000 1.942950 
# 
# From -- ./inp_files/5467.got.cif
#   From: 2010.05.17/outbox.cif.g08.bks.cpg/sg4_3_cif.got.tgz:5467.got - 2010.06.03 18:43:04.
