data_PCOD9118220
_publ_section_title
;
Structure prediction by ZEFSAII (Michael W. Deem and Ramdas Pophale) SiO2 
 PCOD9118220
Probable space group: P 21
;
_chemical_formula_sum "Si O2"
_cell_formula_units_Z 16
_cell_length_a 14.704544
_cell_length_b 9.982372
_cell_length_c 5.841762
_cell_angle_alpha 90.000000
_cell_angle_beta 50.340207
_cell_angle_gamma 90.000000
_cell_volume 660.136796
_symmetry_space_group_name_H-M "P 21"
_symmetry_group_IT_number 4
_symmetry_cell_setting 'monoclinic'
loop_
_space_group_symop_operation_xyz
x,y,z
-x,1/2+y,-z
loop_
_atom_site_type_symbol
_atom_site_label
_atom_site_fract_x
_atom_site_fract_y
_atom_site_fract_z
Si Si1 0.948188 0.582620 0.083582
Si Si2 0.247552 0.725770 0.270151
Si Si3 0.247448 0.287049 0.215501
Si Si4 0.403864 0.423244 0.632683
Si Si5 0.701978 0.522860 0.669154
Si Si6 0.501226 0.647198 0.698333
Si Si7 0.813499 0.976306 0.305418
Si Si8 0.990451 0.721330 0.518999
O O1 0.812103 0.541982 0.318521
O O2 0.976331 0.659739 0.282408
O O3 0.046277 0.466114 0.949844
O O4 0.967352 0.641660 0.796372
O O5 0.208495 0.612925 0.516175
O O6 0.128406 0.759155 0.318265
O O7 0.295006 0.867225 0.283863
O O8 0.362665 0.662410 0.969921
O O9 0.264864 0.127649 0.182262
O O10 0.227165 0.343106 0.499383
O O11 0.122026 0.322178 0.296988
O O12 0.363493 0.358948 0.937683
O O13 0.500449 0.539093 0.493658
O O14 0.449205 0.294037 0.425755
O O15 0.280745 0.482825 0.742547
O O16 0.579724 0.576870 0.765263
#
# Coordination Sequence:
#
# PCOD9118220 Si02
#       8
#     2   2   2   2   2   2   2   2
#     4  10  24  48  79 116 155 201 257 324 392 459
#     4  11  27  47  74 113 152 201 254 317 383 458
#     4  11  25  48  79 106 152 198 250 322 393 460
#     4  12  28  48  78 108 148 200 262 310 390 456
#     4  11  27  47  74 113 152 201 254 317 383 458
#     4  12  28  48  74 110 152 204 256 314 380 468
#     4  11  25  48  79 106 152 198 250 322 393 460
#     4  10  24  48  79 116 155 201 257 324 392 459
#
# _framework density 24.237397999999999
#
# number of rings (size 3 to 8) (size 9 to 14) (size 15 to 20)
#    0.000    1.000    2.500    1.500   12.250    4.000 
#    2.250    0.000    0.000    0.000    0.000    0.000 
#    0.000    0.000    0.000    0.000    0.000    0.000 
#
# Total GULP energy -89221.048975 kJ/mol
# GULP energy per Si atom -5576.315561 kJ/mol
# Density = 2.418223 g / cm^3
# Si number density = 24.237398 Si / 1000 Ang^3
#
#
#
# Elastic Constant Matrix: (Units=GPa)
#
#
# Indices 1 2 3 4 5 6 
#
# 1 136.8121 32.2386 31.7725 0.0000 -16.5103 0.0000
# 2 32.2386 121.4936 17.2282 0.0000 -4.1611 0.0000
# 3 31.7725 17.2282 75.5087 0.0000 -10.0612 0.0000
# 4 0.0000 0.0000 0.0000 27.1674 0.0000 -7.0415
# 5 -16.5103 -4.1611 -10.0612 0.0000 37.1775 0.0000
# 6 0.0000 0.0000 0.0000 -7.0415 0.0000 36.3074
#
#
#
# Elastic Compliance Matrix: (Units=1/GPa)
#
#
# Indices 1 2 3 4 5 6 
#
# 1 0.008757 -0.001815 -0.002884 0.000000 0.002906 0.000000
# 2 -0.001815 0.008889 -0.001286 0.000000 -0.000159 0.000000
# 3 -0.002884 -0.001286 0.015105 0.000000 0.002663 0.000000
# 4 0.000000 0.000000 0.000000 0.038757 0.000000 0.007517
# 5 0.002906 -0.000159 0.002663 0.000000 0.028891 0.000000
# 6 0.000000 0.000000 0.000000 0.007517 0.000000 0.029000
#
#
# Mechanical properties :
#
#
# Convention : Reuss Voigt Hill
#
# Bulk Modulus (GPa) = 48.11659 55.14367 51.63013
# Shear Modulus (GPa) = 33.71608 36.96880 35.34244
#
# Velocity S-wave (km/s) = 3.73376 3.90972 3.82275
# Velocity P-wave (km/s) = 6.20349 6.57131 6.39004
#
# Compressibility (1/GPa) = 0.02078285
#
# Stress axis : x y z
#
# Youngs Moduli (GPa) = 114.18942 112.49297 66.20303
#
# Poissons Ratio (x) = 0.20422 0.19090
# Poissons Ratio (y) = 0.20730 0.08511
# Poissons Ratio (z) = 0.32927 0.14462
#
# Static dielectric constant tensor:
#      x y z
#    x 1.955980 0.000000 0.043790 
#    y 0.000000 1.961530 0.000000 
#    z 0.043790 0.000000 2.002100 
# 
# From -- ./inp_files/3685.got.cif
#   From: 2010.05.17/outbox.cif.g08.bks.cpg/sg4_2_cif.got.tgz:3685.got - 2010.06.03 18:43:04.
