data_PCOD9118173
_publ_section_title
;
Structure prediction by ZEFSAII (Michael W. Deem and Ramdas Pophale) SiO2 
 PCOD9118173
Probable space group: P 21
;
_chemical_formula_sum "Si O2"
_cell_formula_units_Z 10
_cell_length_a 4.880026
_cell_length_b 14.001335
_cell_length_c 5.508597
_cell_angle_alpha 90.000000
_cell_angle_beta 78.348169
_cell_angle_gamma 90.000000
_cell_volume 368.629050
_symmetry_space_group_name_H-M "P 21"
_symmetry_group_IT_number 4
_symmetry_cell_setting 'monoclinic'
loop_
_space_group_symop_operation_xyz
x,y,z
-x,1/2+y,-z
loop_
_atom_site_type_symbol
_atom_site_label
_atom_site_fract_x
_atom_site_fract_y
_atom_site_fract_z
Si Si1 0.038520 0.442510 0.729624
Si Si2 0.267326 0.170256 0.908940
Si Si3 0.312989 0.627346 0.789351
Si Si4 0.330699 0.794891 0.426310
Si Si5 0.267442 0.977135 0.699928
O O1 0.295809 0.513585 0.748162
O O2 0.937275 0.337330 0.663113
O O3 0.934831 0.492150 0.495353
O O4 0.874896 0.451012 0.016830
O O5 0.416593 0.266416 0.794902
O O6 0.391964 0.080612 0.734764
O O7 0.935703 0.154488 0.974998
O O8 0.387134 0.152779 0.155758
O O9 0.250763 0.702573 0.590776
O O10 0.429712 0.880657 0.589487
#
# Coordination Sequence:
#
# PCOD9118173 Si02
#       5
#     2   2   2   2   2
#     4   9  22  47  74 109 149 193 247 305 370 440
#     4  11  26  48  78 108 152 199 248 307 377 442
#     4  11  26  48  78 108 152 199 248 307 377 442
#     4  10  24  46  80 110 148 200 248 312 364 456
#     4   9  22  47  74 109 149 193 247 305 370 440
#
# _framework density 27.12754
#
# number of rings (size 3 to 8) (size 9 to 14) (size 15 to 20)
#    1.200    0.800    0.000    1.200   11.200    0.000 
#    0.000   38.000    0.000    0.000    0.000    0.000 
#    0.000    0.000    0.000    0.000    0.000    0.000 
#
# Total GULP energy -55755.434868 kJ/mol
# GULP energy per Si atom -5575.543487 kJ/mol
# Density = 2.706580 g / cm^3
# Si number density = 27.127540 Si / 1000 Ang^3
#
#
#
# Elastic Constant Matrix: (Units=GPa)
#
#
# Indices 1 2 3 4 5 6 
#
# 1 88.3040 2.0308 7.3608 0.0000 12.7069 0.0000
# 2 2.0308 84.0550 26.5856 0.0000 -9.2493 0.0000
# 3 7.3608 26.5856 109.9320 0.0000 17.3674 0.0000
# 4 0.0000 0.0000 0.0000 77.2764 0.0000 9.2006
# 5 12.7069 -9.2493 17.3674 0.0000 33.2300 0.0000
# 6 0.0000 0.0000 0.0000 9.2006 0.0000 37.7769
#
#
#
# Elastic Compliance Matrix: (Units=1/GPa)
#
#
# Indices 1 2 3 4 5 6 
#
# 1 0.012042 -0.000898 0.000194 0.000000 -0.004956 0.000000
# 2 -0.000898 0.014015 -0.004360 0.000000 0.006523 0.000000
# 3 0.000194 -0.004360 0.011272 0.000000 -0.007179 0.000000
# 4 0.000000 0.000000 0.000000 0.013327 0.000000 -0.003246
# 5 -0.004956 0.006523 -0.007179 0.000000 0.037556 0.000000
# 6 0.000000 0.000000 0.000000 -0.003246 0.000000 0.027262
#
#
# Mechanical properties :
#
#
# Convention : Reuss Voigt Hill
#
# Bulk Modulus (GPa) = 36.76172 39.36060 38.06116
# Shear Modulus (GPa) = 37.12802 46.07756 41.60279
#
# Velocity S-wave (km/s) = 3.70354 4.12582 3.92037
# Velocity P-wave (km/s) = 5.64527 6.10225 5.87821
#
# Compressibility (1/GPa) = 0.02720221
#
# Stress axis : x y z
#
# Youngs Moduli (GPa) = 83.04160 71.35007 88.71483
#
# Poissons Ratio (x) = 0.06404 -0.01718
# Poissons Ratio (y) = 0.07453 0.38678
# Poissons Ratio (z) = -0.01608 0.31108
#
# Static dielectric constant tensor:
#      x y z
#    x 2.131360 0.000000 -0.092680 
#    y 0.000000 2.165370 0.000000 
#    z -0.092680 0.000000 2.200740 
# 
# From -- ./inp_files/330.got.cif
#   From: 2010.05.17/outbox.cif.g08.bks.cpg/sg4_1_cif.got.tgz:330.got - 2010.06.03 18:43:04.
