data_PCOD9118285
_publ_section_title
;
Structure prediction by ZEFSAII (Michael W. Deem and Ramdas Pophale) SiO2 
 PCOD9118285
Probable space group: P 21
;
_chemical_formula_sum "Si O2"
_cell_formula_units_Z 16
_cell_length_a 17.342305
_cell_length_b 5.025426
_cell_length_c 20.220886
_cell_angle_alpha 90.000000
_cell_angle_beta 158.610177
_cell_angle_gamma 90.000000
_cell_volume 642.730966
_symmetry_space_group_name_H-M "P 21"
_symmetry_group_IT_number 4
_symmetry_cell_setting 'monoclinic'
loop_
_space_group_symop_operation_xyz
x,y,z
-x,1/2+y,-z
loop_
_atom_site_type_symbol
_atom_site_label
_atom_site_fract_x
_atom_site_fract_y
_atom_site_fract_z
Si Si1 0.391047 0.701010 0.434567
Si Si2 0.984532 0.450032 0.948653
Si Si3 0.872891 0.394105 0.405822
Si Si4 0.508863 0.048812 0.047228
Si Si5 0.818231 0.420704 0.604547
Si Si6 0.863177 0.265411 0.049397
Si Si7 0.565544 0.555476 0.271412
Si Si8 0.777850 0.655956 0.066049
O O1 0.416295 0.391358 0.436338
O O2 0.331680 0.767594 0.462571
O O3 0.211110 0.822302 0.244584
O O4 0.123145 0.620435 0.008406
O O5 0.906431 0.688213 0.934224
O O6 0.757885 0.549439 0.374050
O O7 0.989732 0.636646 0.462129
O O8 0.701987 0.228436 0.227471
O O9 0.579975 0.767549 0.075081
O O10 0.343486 0.992588 0.973962
O O11 0.667113 0.517944 0.424788
O O12 0.014977 0.262388 0.729671
O O13 0.964339 0.629742 0.763708
O O14 0.611518 0.284527 0.865774
O O15 0.904295 0.569318 0.099386
O O16 0.401659 0.345029 0.107342
#
# Coordination Sequence:
#
# PCOD9118285 Si02
#       8
#     2   2   2   2   2   2   2   2
#     4  11  26  45  68 102 141 177 231 287 343 416
#     4  11  26  44  72 101 137 185 228 283 351 407
#     4  11  26  45  68 102 141 177 231 287 343 416
#     4  11  26  44  72 101 137 185 228 283 351 407
#     4  10  25  44  69  99 134 183 230 281 347 407
#     4  10  25  45  70  98 140 178 235 287 338 416
#     4  10  25  44  69  99 134 183 230 281 347 407
#     4  10  25  45  70  98 140 178 235 287 338 416
#
# _framework density 24.893775999999999
#
# number of rings (size 3 to 8) (size 9 to 14) (size 15 to 20)
#    0.000    1.500    0.000    1.500   24.500    1.000 
#    0.000    0.000    0.000    0.000    0.000    0.000 
#    0.000    0.000    0.000    0.000    0.000    0.000 
#
# Total GULP energy -89079.448589 kJ/mol
# GULP energy per Si atom -5567.465537 kJ/mol
# Density = 2.483712 g / cm^3
# Si number density = 24.893776 Si / 1000 Ang^3
#
#
#
# Elastic Constant Matrix: (Units=GPa)
#
#
# Indices 1 2 3 4 5 6 
#
# 1 70.7203 11.5161 36.7297 0.0000 -6.8758 0.0000
# 2 11.5161 76.9426 14.6945 0.0000 5.2847 0.0000
# 3 36.7297 14.6945 91.7818 0.0000 -5.3988 0.0000
# 4 0.0000 0.0000 0.0000 -1.4301 0.0000 -0.4668
# 5 -6.8758 5.2847 -5.3988 0.0000 30.4364 0.0000
# 6 0.0000 0.0000 0.0000 -0.4668 0.0000 37.2565
#
#
#
# Elastic Compliance Matrix: (Units=1/GPa)
#
#
# Indices 1 2 3 4 5 6 
#
# 1 0.018285 -0.001645 -0.006866 0.000000 0.003198 0.000000
# 2 -0.001645 0.013784 -0.001729 0.000000 -0.003072 0.000000
# 3 -0.006866 -0.001729 0.013992 0.000000 0.001231 0.000000
# 4 0.000000 0.000000 0.000000 -0.696401 0.000000 -0.008725
# 5 0.003198 -0.003072 0.001231 0.000000 0.034330 0.000000
# 6 0.000000 0.000000 0.000000 -0.008725 0.000000 0.026732
#
#
# Mechanical properties :
#
#
# Convention : Reuss Voigt Hill
#
# Bulk Modulus (GPa) = 39.09148 40.59167 39.84158
# Shear Modulus (GPa) = -8.92425 25.01952 8.04763
#
# Velocity S-wave (km/s) = -1.89545 3.17369 1.79995
# Velocity P-wave (km/s) = 3.30864 5.45629 4.51211
#
# Compressibility (1/GPa) = 0.02558102
#
# Stress axis : x y z
#
# Youngs Moduli (GPa) = 54.68976 72.54704 71.46801
#
# Poissons Ratio (x) = 0.11935 0.49069
# Poissons Ratio (y) = 0.08997 0.12358
# Poissons Ratio (z) = 0.37549 0.12545
#
# Static dielectric constant tensor:
#      x y z
#    x 2.232870 0.000000 0.074130 
#    y 0.000000 2.135830 0.000000 
#    z 0.074130 0.000000 2.114460 
# 
# From -- ./inp_files/15885.got.cif
#   From: 2010.05.17/outbox.cif.g08.bks.cpg/sg4_8_cif.got.tgz:15885.got - 2010.06.03 18:43:04.
