data_PCOD9118989
_publ_section_title
;
Structure prediction by ZEFSAII (Michael W. Deem and Ramdas Pophale) SiO2 
 PCOD9118989
Probable space group: P 21
;
_chemical_formula_sum "Si O2"
_cell_formula_units_Z 14
_cell_length_a 10.128602
_cell_length_b 8.479162
_cell_length_c 13.459887
_cell_angle_alpha 90.000000
_cell_angle_beta 146.423017
_cell_angle_gamma 90.000000
_cell_volume 639.313196
_symmetry_space_group_name_H-M "P 21"
_symmetry_group_IT_number 4
_symmetry_cell_setting 'monoclinic'
loop_
_space_group_symop_operation_xyz
x,y,z
-x,1/2+y,-z
loop_
_atom_site_type_symbol
_atom_site_label
_atom_site_fract_x
_atom_site_fract_y
_atom_site_fract_z
Si Si1 0.728744 0.592070 0.460886
Si Si2 0.411482 0.530343 0.440033
Si Si3 0.940550 0.268067 0.672578
Si Si4 0.993693 0.318280 0.109301
Si Si5 0.914678 0.453318 0.844164
Si Si6 0.213403 0.771380 0.824024
Si Si7 0.359546 0.084154 0.823149
O O1 0.520195 0.616000 0.410923
O O2 0.819010 0.412007 0.536193
O O3 0.636671 0.617526 0.292081
O O4 0.959345 0.699769 0.630912
O O5 0.252966 0.641639 0.410258
O O6 0.250710 0.387041 0.300203
O O7 0.639272 0.467933 0.641157
O O8 0.035551 0.346067 0.835122
O O9 0.141772 0.183361 0.734486
O O10 0.988656 0.130215 0.100963
O O11 0.825319 0.363337 0.095673
O O12 0.935454 0.387319 0.966510
O O13 0.309060 0.899518 0.807449
O O14 0.404476 0.637126 0.969778
#
# Coordination Sequence:
#
# PCOD9118989 Si02
#       7
#     2   2   2   2   2   2   2
#     4  11  26  47  75 104 143 190 239 299 360 423
#     4  11  24  46  74 107 142 182 239 305 354 423
#     4  11  23  47  73 104 142 189 243 296 354 432
#     4  12  25  45  71 110 144 184 235 295 367 421
#     4  11  25  42  73 105 146 182 234 298 363 424
#     4  12  27  49  70 108 145 189 241 295 350 441
#     4  12  28  48  74 100 150 194 239 292 362 424
#
# _framework density 21.898499000000001
#
# number of rings (size 3 to 8) (size 9 to 14) (size 15 to 20)
#    0.000    0.571    4.286    4.286    4.000    0.000 
#    7.714    0.000    0.000    0.000    0.000    0.000 
#    0.000    0.000    0.000    0.000    0.000    0.000 
#
# Total GULP energy -78387.015309 kJ/mol
# GULP energy per Si atom -5599.072522 kJ/mol
# Density = 2.184866 g / cm^3
# Si number density = 21.898499 Si / 1000 Ang^3
#
#
#
# Elastic Constant Matrix: (Units=GPa)
#
#
# Indices 1 2 3 4 5 6 
#
# 1 84.6466 13.1843 35.3829 0.0000 -1.0915 0.0000
# 2 13.1843 67.4769 13.2159 0.0000 -3.1804 0.0000
# 3 35.3829 13.2159 70.6809 0.0000 -18.7805 0.0000
# 4 0.0000 0.0000 0.0000 35.8292 0.0000 2.1456
# 5 -1.0915 -3.1804 -18.7805 0.0000 38.5882 0.0000
# 6 0.0000 0.0000 0.0000 2.1456 0.0000 42.5549
#
#
#
# Elastic Compliance Matrix: (Units=1/GPa)
#
#
# Indices 1 2 3 4 5 6 
#
# 1 0.015569 -0.001554 -0.008522 0.000000 -0.003835 0.000000
# 2 -0.001554 0.015539 -0.002066 0.000000 0.000231 0.000000
# 3 -0.008522 -0.002066 0.021468 0.000000 0.010037 0.000000
# 4 0.000000 0.000000 0.000000 0.027995 0.000000 -0.001411
# 5 -0.003835 0.000231 0.010037 0.000000 0.030710 0.000000
# 6 0.000000 0.000000 0.000000 -0.001411 0.000000 0.023570
#
#
# Mechanical properties :
#
#
# Convention : Reuss Voigt Hill
#
# Bulk Modulus (GPa) = 35.34717 38.48563 36.91640
# Shear Modulus (GPa) = 29.66212 34.12922 31.89567
#
# Velocity S-wave (km/s) = 3.68438 3.95209 3.82058
# Velocity P-wave (km/s) = 5.85457 6.19984 6.02968
#
# Compressibility (1/GPa) = 0.02829081
#
# Stress axis : x y z
#
# Youngs Moduli (GPa) = 64.23120 64.35406 46.58186
#
# Poissons Ratio (x) = 0.09998 0.39699
# Poissons Ratio (y) = 0.09979 0.09625
# Poissons Ratio (z) = 0.54740 0.13298
#
# Static dielectric constant tensor:
#      x y z
#    x 1.805810 0.000000 0.019460 
#    y 0.000000 1.821740 0.000000 
#    z 0.019460 0.000000 1.780290 
# 
# From -- ./inp_files/7923.got.cif
#   From: 2010.05.17/outbox.cif.g08.bks.cpg/sg4_4_cif.got.tgz:7923.got - 2010.06.03 18:43:04.
