data_PCOD9118145
_publ_section_title
;
Structure prediction by ZEFSAII (Michael W. Deem and Ramdas Pophale) SiO2 
 PCOD9118145
Probable space group: P 21
;
_chemical_formula_sum "Si O2"
_cell_formula_units_Z 16
_cell_length_a 5.487925
_cell_length_b 5.414945
_cell_length_c 20.743292
_cell_angle_alpha 90.000000
_cell_angle_beta 112.012750
_cell_angle_gamma 90.000000
_cell_volume 571.487453
_symmetry_space_group_name_H-M "P 21"
_symmetry_group_IT_number 4
_symmetry_cell_setting 'monoclinic'
loop_
_space_group_symop_operation_xyz
x,y,z
-x,1/2+y,-z
loop_
_atom_site_type_symbol
_atom_site_label
_atom_site_fract_x
_atom_site_fract_y
_atom_site_fract_z
Si Si1 0.567724 0.144380 0.595635
Si Si2 0.694949 0.884421 0.724476
Si Si3 0.908831 0.692673 0.525806
Si Si4 0.647498 0.603291 0.024852
Si Si5 0.738380 0.138252 0.225859
Si Si6 0.863343 0.882440 0.353337
Si Si7 0.736425 0.686934 0.898157
Si Si8 0.088761 0.690188 0.151583
O O1 0.375214 0.294957 0.625309
O O2 0.863467 0.234719 0.615770
O O3 0.600116 0.898745 0.641535
O O4 0.403771 0.153769 0.513382
O O5 0.456893 0.787013 0.744846
O O6 0.968059 0.735561 0.754173
O O7 0.791264 0.142516 0.766313
O O8 0.986677 0.959527 0.506379
O O9 0.037976 0.643993 0.607559
O O10 0.783193 0.638752 0.107227
O O11 0.561816 0.323029 0.004411
O O12 0.825973 0.664719 0.980343
O O13 0.574097 0.134628 0.144147
O O14 0.771520 0.889852 0.270643
O O15 0.857962 0.462353 0.869359
O O16 0.792163 0.961464 0.878184
#
# Coordination Sequence:
#
# PCOD9118145 Si02
#       8
#     2   2   2   2   2   2   2   2
#     4  11  24  42  68 101 139 183 232 286 347 413
#     4  11  24  43  69 102 141 184 233 287 347 413
#     4  10  24  46  72 102 140 182 232 286 346 412
#     4  12  24  40  66 100 138 182 232 288 348 414
#     4  11  24  43  69 102 141 184 233 287 347 413
#     4  11  24  42  68 101 139 183 232 286 347 413
#     4  11  24  44  68  97 136 183 232 286 346 413
#     4  11  24  44  68  97 136 183 232 286 346 413
#
# _framework density 27.997112999999999
#
# number of rings (size 3 to 8) (size 9 to 14) (size 15 to 20)
#    0.000    1.000    0.000    6.000    0.000   12.000 
#    0.000    0.000    0.000    0.000    0.000    0.000 
#    0.000    0.000    0.000    0.000    0.000    0.000 
#
# Total GULP energy -89535.994485 kJ/mol
# GULP energy per Si atom -5595.999655 kJ/mol
# Density = 2.793339 g / cm^3
# Si number density = 27.997113 Si / 1000 Ang^3
#
#
#
# Elastic Constant Matrix: (Units=GPa)
#
#
# Indices 1 2 3 4 5 6 
#
# 1 135.3292 70.5842 27.7120 0.0000 6.4578 0.0000
# 2 70.5842 98.7919 19.9878 0.0000 -5.6663 0.0000
# 3 27.7120 19.9878 111.1988 0.0000 25.7541 0.0000
# 4 0.0000 0.0000 0.0000 50.4046 0.0000 -5.2867
# 5 6.4578 -5.6663 25.7541 0.0000 43.7190 0.0000
# 6 0.0000 0.0000 0.0000 -5.2867 0.0000 71.7990
#
#
#
# Elastic Compliance Matrix: (Units=1/GPa)
#
#
# Indices 1 2 3 4 5 6 
#
# 1 0.012221 -0.008679 -0.000934 0.000000 -0.002380 0.000000
# 2 -0.008679 0.016987 -0.001965 0.000000 0.004641 0.000000
# 3 -0.000934 -0.001965 0.011124 0.000000 -0.006670 0.000000
# 4 0.000000 0.000000 0.000000 0.019994 0.000000 0.001472
# 5 -0.002380 0.004641 -0.006670 0.000000 0.027755 0.000000
# 6 0.000000 0.000000 0.000000 0.001472 0.000000 0.014036
#
#
# Mechanical properties :
#
#
# Convention : Reuss Voigt Hill
#
# Bulk Modulus (GPa) = 58.22767 64.65421 61.44094
# Shear Modulus (GPa) = 38.16797 48.32024 43.24410
#
# Velocity S-wave (km/s) = 3.69627 4.15890 3.93439
# Velocity P-wave (km/s) = 6.24976 6.79745 6.52935
#
# Compressibility (1/GPa) = 0.01717397
#
# Stress axis : x y z
#
# Youngs Moduli (GPa) = 81.82598 58.86819 89.89763
#
# Poissons Ratio (x) = 0.51092 0.08401
# Poissons Ratio (y) = 0.71017 0.17669
# Poissons Ratio (z) = 0.07646 0.11570
#
# Static dielectric constant tensor:
#      x y z
#    x 2.204460 0.000000 -0.001520 
#    y 0.000000 2.229650 0.000000 
#    z -0.001520 0.000000 2.208770 
# 
# From -- ./inp_files/4305.got.cif
#   From: 2010.05.17/outbox.cif.g08.bks.cpg/sg4_3_cif.got.tgz:4305.got - 2010.06.03 18:43:04.
