data_PCOD9118592
_publ_section_title
;
Structure prediction by ZEFSAII (Michael W. Deem and Ramdas Pophale) SiO2 
 PCOD9118592
Probable space group: P 21
;
_chemical_formula_sum "Si O2"
_cell_formula_units_Z 16
_cell_length_a 12.740632
_cell_length_b 11.199127
_cell_length_c 12.572263
_cell_angle_alpha 90.000000
_cell_angle_beta 22.038197
_cell_angle_gamma 90.000000
_cell_volume 673.100536
_symmetry_space_group_name_H-M "P 21"
_symmetry_group_IT_number 4
_symmetry_cell_setting 'monoclinic'
loop_
_space_group_symop_operation_xyz
x,y,z
-x,1/2+y,-z
loop_
_atom_site_type_symbol
_atom_site_label
_atom_site_fract_x
_atom_site_fract_y
_atom_site_fract_z
Si Si1 0.366167 0.751510 0.973451
Si Si2 0.417466 0.318178 0.750007
Si Si3 0.191877 0.663811 0.363960
Si Si4 0.921790 0.583352 0.967471
Si Si5 0.033398 0.867633 0.663858
Si Si6 0.158119 0.138660 0.602982
Si Si7 0.740014 0.527563 0.906241
Si Si8 0.503359 0.537990 0.521703
O O1 0.287782 0.679756 0.153486
O O2 0.348154 0.890597 0.016726
O O3 0.133689 0.706321 0.107778
O O4 0.662721 0.715897 0.647650
O O5 0.254844 0.204997 0.860150
O O6 0.745795 0.304687 0.463435
O O7 0.388936 0.427526 0.697175
O O8 0.272663 0.352883 0.998627
O O9 0.080421 0.790980 0.513811
O O10 0.941025 0.572007 0.623108
O O11 0.465160 0.611100 0.166656
O O12 0.729919 0.497452 0.220999
O O13 0.910344 0.544682 0.855749
O O14 0.231100 0.592468 0.722341
O O15 0.108916 0.006783 0.599314
O O16 0.327626 0.118816 0.552539
#
# Coordination Sequence:
#
# PCOD9118592 Si02
#       8
#     2   2   2   2   2   2   2   2
#     4  12  28  45  73 103 149 188 223 298 366 416
#     4  11  22  42  65 100 134 178 239 287 341 406
#     4  12  25  45  73 102 135 185 238 290 349 428
#     4  12  23  43  69  98 140 183 234 291 349 411
#     4  11  21  43  72  95 132 180 233 300 325 410
#     4  11  25  48  66 105 143 182 236 290 351 414
#     4  12  27  49  69 109 142 181 242 290 359 420
#     4  11  25  41  69 102 135 191 233 280 352 419
#
# _framework density 23.770593999999999
#
# number of rings (size 3 to 8) (size 9 to 14) (size 15 to 20)
#    0.000    0.500    2.500    6.750    3.500    3.000 
#    0.000    0.000    0.000    0.000    0.000    0.000 
#    0.000    0.000    0.000    0.000    0.000    0.000 
#
# Total GULP energy -89629.940850 kJ/mol
# GULP energy per Si atom -5601.871303 kJ/mol
# Density = 2.371649 g / cm^3
# Si number density = 23.770594 Si / 1000 Ang^3
#
#
#
# Elastic Constant Matrix: (Units=GPa)
#
#
# Indices 1 2 3 4 5 6 
#
# 1 59.1925 12.2408 4.0123 0.0000 10.5929 0.0000
# 2 12.2408 67.2392 -3.0497 0.0000 -12.1311 0.0000
# 3 4.0123 -3.0497 72.9454 0.0000 -16.1509 0.0000
# 4 0.0000 0.0000 0.0000 33.5911 0.0000 6.1098
# 5 10.5929 -12.1311 -16.1509 0.0000 25.2636 0.0000
# 6 0.0000 0.0000 0.0000 6.1098 0.0000 22.8416
#
#
#
# Elastic Compliance Matrix: (Units=1/GPa)
#
#
# Indices 1 2 3 4 5 6 
#
# 1 0.021408 -0.006898 -0.004877 0.000000 -0.015407 0.000000
# 2 -0.006898 0.019015 0.004469 0.000000 0.014880 0.000000
# 3 -0.004877 0.004469 0.017580 0.000000 0.015430 0.000000
# 4 0.000000 0.000000 0.000000 0.031292 0.000000 -0.008370
# 5 -0.015407 0.014880 0.015430 0.000000 0.063052 0.000000
# 6 0.000000 0.000000 0.000000 -0.008370 0.000000 0.046019
#
#
# Mechanical properties :
#
#
# Convention : Reuss Voigt Hill
#
# Bulk Modulus (GPa) = 23.04596 25.08710 24.06653
# Shear Modulus (GPa) = 21.98347 28.75083 25.36715
#
# Velocity S-wave (km/s) = 3.04438 3.48158 3.27029
# Velocity P-wave (km/s) = 4.69828 5.17094 4.94027
#
# Compressibility (1/GPa) = 0.04339154
#
# Stress axis : x y z
#
# Youngs Moduli (GPa) = 46.71088 52.58887 56.88167
#
# Poissons Ratio (x) = 0.36277 0.27742
# Poissons Ratio (y) = 0.32222 -0.25421
# Poissons Ratio (z) = 0.22782 -0.23502
#
# Static dielectric constant tensor:
#      x y z
#    x 1.935610 0.000000 0.009920 
#    y 0.000000 1.906020 0.000000 
#    z 0.009920 0.000000 1.856100 
# 
# From -- ./inp_files/12253.got.cif
#   From: 2010.05.17/outbox.cif.g08.bks.cpg/sg4_7_cif.got.tgz:12253.got - 2010.06.03 18:43:04.
