data_PCOD9118954
_publ_section_title
;
Structure prediction by ZEFSAII (Michael W. Deem and Ramdas Pophale) SiO2 
 PCOD9118954
Probable space group: P 21
;
_chemical_formula_sum "Si O2"
_cell_formula_units_Z 14
_cell_length_a 13.238623
_cell_length_b 9.181769
_cell_length_c 9.205536
_cell_angle_alpha 90.000000
_cell_angle_beta 148.122726
_cell_angle_gamma 90.000000
_cell_volume 590.929544
_symmetry_space_group_name_H-M "P 21"
_symmetry_group_IT_number 4
_symmetry_cell_setting 'monoclinic'
loop_
_space_group_symop_operation_xyz
x,y,z
-x,1/2+y,-z
loop_
_atom_site_type_symbol
_atom_site_label
_atom_site_fract_x
_atom_site_fract_y
_atom_site_fract_z
Si Si1 0.212735 0.290500 0.405916
Si Si2 0.967438 0.339074 0.360746
Si Si3 0.385589 0.645727 0.181800
Si Si4 0.131382 0.870583 0.198295
Si Si5 0.364117 0.605900 0.503873
Si Si6 0.777300 0.570635 0.959761
Si Si7 0.877915 0.888806 0.138044
O O1 0.403819 0.199102 0.606533
O O2 0.253047 0.460317 0.411865
O O3 0.147115 0.274232 0.492283
O O4 0.017142 0.270771 0.075381
O O5 0.007270 0.350242 0.577786
O O6 0.775383 0.252820 0.081331
O O7 0.937592 0.499106 0.256070
O O8 0.376939 0.638916 0.346431
O O9 0.303822 0.486696 0.042275
O O10 0.273348 0.755831 0.448573
O O11 0.018254 0.955201 0.186977
O O12 0.224548 0.976604 0.191325
O O13 0.579955 0.565984 0.806036
O O14 0.809808 0.740516 0.979646
#
# Coordination Sequence:
#
# PCOD9118954 Si02
#       7
#     2   2   2   2   2   2   2
#     4  11  23  47  75 105 149 190 250 314 368 436
#     4  11  25  53  73 104 157 195 246 310 373 454
#     4  12  25  44  74 112 145 191 252 305 371 444
#     4  11  23  45  80 107 145 196 254 308 380 435
#     4  12  22  44  73 109 142 192 250 317 365 428
#     4  11  25  47  72 112 150 189 256 313 362 450
#     4  12  27  46  75 111 152 205 242 307 387 447
#
# _framework density 23.691489000000001
#
# number of rings (size 3 to 8) (size 9 to 14) (size 15 to 20)
#    0.000    0.571    5.714    3.429    2.000    1.143 
#    5.143    0.000    0.000    0.000    0.000    0.000 
#    0.000    0.000    0.000    0.000    0.000    0.000 
#
# Total GULP energy -78267.053247 kJ/mol
# GULP energy per Si atom -5590.503803 kJ/mol
# Density = 2.363757 g / cm^3
# Si number density = 23.691489 Si / 1000 Ang^3
#
#
#
# Elastic Constant Matrix: (Units=GPa)
#
#
# Indices 1 2 3 4 5 6 
#
# 1 111.0123 27.6559 50.0079 0.0000 17.9261 0.0000
# 2 27.6559 139.7512 33.9753 0.0000 20.2724 0.0000
# 3 50.0079 33.9753 72.5980 0.0000 18.5221 0.0000
# 4 0.0000 0.0000 0.0000 39.8581 0.0000 14.8080
# 5 17.9261 20.2724 18.5221 0.0000 44.1145 0.0000
# 6 0.0000 0.0000 0.0000 14.8080 0.0000 29.8230
#
#
#
# Elastic Compliance Matrix: (Units=1/GPa)
#
#
# Indices 1 2 3 4 5 6 
#
# 1 0.013188 -0.000299 -0.008526 0.000000 -0.001642 0.000000
# 2 -0.000299 0.008310 -0.003069 0.000000 -0.002409 0.000000
# 3 -0.008526 -0.003069 0.022220 0.000000 -0.004455 0.000000
# 4 0.000000 0.000000 0.000000 0.030764 0.000000 -0.015275
# 5 -0.001642 -0.002409 -0.004455 0.000000 0.026313 0.000000
# 6 0.000000 0.000000 0.000000 -0.015275 0.000000 0.041116
#
#
# Mechanical properties :
#
#
# Convention : Reuss Voigt Hill
#
# Bulk Modulus (GPa) = 50.17071 60.73776 55.45424
# Shear Modulus (GPa) = 29.01218 36.87393 32.94306
#
# Velocity S-wave (km/s) = 3.50320 3.94943 3.73299
# Velocity P-wave (km/s) = 6.13073 6.81835 6.48366
#
# Compressibility (1/GPa) = 0.01993195
#
# Stress axis : x y z
#
# Youngs Moduli (GPa) = 75.82537 120.33410 45.00487
#
# Poissons Ratio (x) = 0.03598 0.38369
# Poissons Ratio (y) = 0.02267 0.13810
# Poissons Ratio (z) = 0.64646 0.36925
#
# Static dielectric constant tensor:
#      x y z
#    x 1.942150 0.000000 0.062100 
#    y 0.000000 2.036390 0.000000 
#    z 0.062100 0.000000 1.908860 
# 
# From -- ./inp_files/8087.got.cif
#   From: 2010.05.17/outbox.cif.g08.bks.cpg/sg4_5_cif.got.tgz:8087.got - 2010.06.03 18:43:04.
