data_PCOD9118320
_publ_section_title
;
Structure prediction by ZEFSAII (Michael W. Deem and Ramdas Pophale) SiO2 
 PCOD9118320
Probable space group: P 21
;
_chemical_formula_sum "Si O2"
_cell_formula_units_Z 16
_cell_length_a 15.166239
_cell_length_b 5.143343
_cell_length_c 14.893577
_cell_angle_alpha 90.000000
_cell_angle_beta 147.545657
_cell_angle_gamma 90.000000
_cell_volume 623.440795
_symmetry_space_group_name_H-M "P 21"
_symmetry_group_IT_number 4
_symmetry_cell_setting 'monoclinic'
loop_
_space_group_symop_operation_xyz
x,y,z
-x,1/2+y,-z
loop_
_atom_site_type_symbol
_atom_site_label
_atom_site_fract_x
_atom_site_fract_y
_atom_site_fract_z
Si Si1 0.164531 0.152200 0.369756
Si Si2 0.263200 0.138634 0.183092
Si Si3 0.322612 0.898049 0.040676
Si Si4 0.097445 0.684633 0.597356
Si Si5 0.148623 0.401632 0.829795
Si Si6 0.111367 0.525955 0.155170
Si Si7 0.611713 0.280357 0.496615
Si Si8 0.684669 0.008989 0.369011
O O1 0.103588 0.327255 0.234222
O O2 0.186341 0.297702 0.483123
O O3 0.031477 0.927656 0.278476
O O4 0.350610 0.076441 0.499608
O O5 0.216436 0.439917 0.158696
O O6 0.443056 0.151287 0.385223
O O7 0.299187 0.018873 0.118721
O O8 0.075425 0.044071 0.038844
O O9 0.220888 0.111650 0.895186
O O10 0.257655 0.606426 0.979374
O O11 0.515309 0.897041 0.185546
O O12 0.148496 0.537414 0.732311
O O13 0.236103 0.680739 0.640099
O O14 0.961287 0.480053 0.443245
O O15 0.235690 0.736164 0.305063
O O16 0.644036 0.154966 0.426704
#
# Coordination Sequence:
#
# PCOD9118320 Si02
#       8
#     2   2   2   2   2   2   2   2
#     4  11  23  47  74  97 146 194 248 303 376 452
#     4  11  26  46  70 106 146 195 252 310 384 446
#     4  11  27  47  70 107 151 199 241 308 381 453
#     4  12  25  43  75 111 143 192 256 310 369 452
#     4  12  25  45  75 106 151 191 250 306 376 442
#     4  11  26  43  68 106 142 189 251 313 373 457
#     4  10  25  47  71 102 144 197 251 314 379 454
#     4  10  25  46  71 105 143 193 245 304 382 448
#
# _framework density 25.664027000000001
#
# number of rings (size 3 to 8) (size 9 to 14) (size 15 to 20)
#    0.000    1.000    2.500    2.250   10.500    1.000 
#    2.250    0.000    0.000    0.000    0.000    0.000 
#    0.000    0.000    0.000    0.000    0.000    0.000 
#
# Total GULP energy -89250.394206 kJ/mol
# GULP energy per Si atom -5578.149638 kJ/mol
# Density = 2.560561 g / cm^3
# Si number density = 25.664027 Si / 1000 Ang^3
#
#
#
# Elastic Constant Matrix: (Units=GPa)
#
#
# Indices 1 2 3 4 5 6 
#
# 1 73.5360 2.3938 31.1646 0.0000 12.8073 0.0000
# 2 2.3938 52.0883 22.2578 0.0000 8.3178 0.0000
# 3 31.1646 22.2578 148.7973 0.0000 19.0232 0.0000
# 4 0.0000 0.0000 0.0000 29.3147 0.0000 1.8076
# 5 12.8073 8.3178 19.0232 0.0000 42.3670 0.0000
# 6 0.0000 0.0000 0.0000 1.8076 0.0000 29.9254
#
#
#
# Elastic Compliance Matrix: (Units=1/GPa)
#
#
# Indices 1 2 3 4 5 6 
#
# 1 0.015430 0.001118 -0.002944 0.000000 -0.003562 0.000000
# 2 0.001118 0.020910 -0.002964 0.000000 -0.003112 0.000000
# 3 -0.002944 -0.002964 0.008055 0.000000 -0.002145 0.000000
# 4 0.000000 0.000000 0.000000 0.034240 0.000000 -0.002068
# 5 -0.003562 -0.003112 -0.002145 0.000000 0.026254 0.000000
# 6 0.000000 0.000000 0.000000 -0.002068 0.000000 0.033541
#
#
# Mechanical properties :
#
#
# Convention : Reuss Voigt Hill
#
# Bulk Modulus (GPa) = 28.72311 42.89489 35.80900
# Shear Modulus (GPa) = 31.32519 34.89513 33.11016
#
# Velocity S-wave (km/s) = 3.49748 3.69140 3.59575
# Velocity P-wave (km/s) = 5.24653 5.90922 5.58771
#
# Compressibility (1/GPa) = 0.03481517
#
# Stress axis : x y z
#
# Youngs Moduli (GPa) = 64.80768 47.82324 124.15204
#
# Poissons Ratio (x) = -0.05344 0.36544
# Poissons Ratio (y) = -0.07242 0.36799
# Poissons Ratio (z) = 0.19076 0.14175
#
# Static dielectric constant tensor:
#      x y z
#    x 2.008950 0.000000 -0.022320 
#    y 0.000000 2.217680 0.000000 
#    z -0.022320 0.000000 2.098070 
# 
# From -- ./inp_files/14113.got.cif
#   From: 2010.05.17/outbox.cif.g08.bks.cpg/sg4_8_cif.got.tgz:14113.got - 2010.06.03 18:43:04.
