data_PCOD9118043
_publ_section_title
;
Structure prediction by ZEFSAII (Michael W. Deem and Ramdas Pophale) SiO2 
 PCOD9118043
Probable space group: P 21
;
_chemical_formula_sum "Si O2"
_cell_formula_units_Z 14
_cell_length_a 11.764360
_cell_length_b 8.599285
_cell_length_c 9.788422
_cell_angle_alpha 90.000000
_cell_angle_beta 144.370986
_cell_angle_gamma 90.000000
_cell_volume 576.852912
_symmetry_space_group_name_H-M "P 21"
_symmetry_group_IT_number 4
_symmetry_cell_setting 'monoclinic'
loop_
_space_group_symop_operation_xyz
x,y,z
-x,1/2+y,-z
loop_
_atom_site_type_symbol
_atom_site_label
_atom_site_fract_x
_atom_site_fract_y
_atom_site_fract_z
Si Si1 0.749998 0.457500 0.499997
Si Si2 0.893503 0.776074 0.257547
Si Si3 0.393501 0.276074 0.257547
Si Si4 0.064153 0.205938 0.124865
Si Si5 0.034637 0.508463 0.232475
Si Si6 0.564156 0.705941 0.124865
Si Si7 0.465364 0.508465 0.767525
O O1 0.601760 0.356721 0.446882
O O2 0.883452 0.566834 0.723669
O O3 0.616548 0.566835 0.276329
O O4 0.898236 0.356718 0.553115
O O5 0.923068 0.595266 0.245819
O O6 0.770142 0.779940 0.274214
O O7 0.750002 0.843284 1.000000
O O8 0.270141 0.279938 0.274215
O O9 0.423070 0.095267 0.245821
O O10 0.957097 0.346210 0.096849
O O11 0.967380 0.133251 0.894811
O O12 0.250000 0.483163 0.500000
O O13 0.457098 0.846213 0.096849
O O14 0.467381 0.633254 0.894810
#
# Coordination Sequence:
#
# PCOD9118043 Si02
#       7
#     2   2   2   2   2   2   2
#     4  12  24  42  72 102 136 182 224 280 340 406
#     4  10  24  44  67  99 138 178 229 279 336 404
#     4  10  24  44  67  99 138 178 229 279 336 404
#     4  11  25  44  70 102 137 182 226 278 348 397
#     4  11  23  46  70 101 138 175 231 282 329 411
#     4  11  25  44  70 102 137 182 226 278 348 397
#     4  11  23  46  70 101 138 175 231 282 329 411
#
# _framework density 24.269617
#
# number of rings (size 3 to 8) (size 9 to 14) (size 15 to 20)
#    0.000    1.143    2.857    3.429    4.000    0.000 
#    0.000   12.857    0.000    0.000    0.000    0.000 
#    0.000    0.000    0.000    0.000    0.000    0.000 
#
# Total GULP energy -78311.315719 kJ/mol
# GULP energy per Si atom -5593.665409 kJ/mol
# Density = 2.421438 g / cm^3
# Si number density = 24.269617 Si / 1000 Ang^3
#
#
#
# Elastic Constant Matrix: (Units=GPa)
#
#
# Indices 1 2 3 4 5 6 
#
# 1 92.7068 49.5021 5.5242 0.0000 0.3390 0.0000
# 2 49.5021 128.9966 25.8913 0.0000 4.7340 0.0000
# 3 5.5242 25.8913 72.2654 0.0000 -6.3548 0.0000
# 4 0.0000 0.0000 0.0000 34.6270 0.0000 -9.5885
# 5 0.3390 4.7340 -6.3548 0.0000 24.3314 0.0000
# 6 0.0000 0.0000 0.0000 -9.5885 0.0000 41.1510
#
#
#
# Elastic Compliance Matrix: (Units=1/GPa)
#
#
# Indices 1 2 3 4 5 6 
#
# 1 0.013651 -0.005486 0.001023 0.000000 0.001144 0.000000
# 2 -0.005486 0.010704 -0.003677 0.000000 -0.002966 0.000000
# 3 0.001023 -0.003677 0.015494 0.000000 0.004748 0.000000
# 4 0.000000 0.000000 0.000000 0.030871 0.000000 0.007193
# 5 0.001144 -0.002966 0.004748 0.000000 0.042900 0.000000
# 6 0.000000 0.000000 0.000000 0.007193 0.000000 0.025977
#
#
# Mechanical properties :
#
#
# Convention : Reuss Voigt Hill
#
# Bulk Modulus (GPa) = 42.42712 50.64486 46.53599
# Shear Modulus (GPa) = 30.53741 34.22528 32.38135
#
# Velocity S-wave (km/s) = 3.55104 3.75935 3.65668
# Velocity P-wave (km/s) = 5.85941 6.30528 6.08643
#
# Compressibility (1/GPa) = 0.02356983
#
# Stress axis : x y z
#
# Youngs Moduli (GPa) = 73.25623 93.42266 64.53915
#
# Poissons Ratio (x) = 0.51248 -0.06599
# Poissons Ratio (y) = 0.40186 0.23728
# Poissons Ratio (z) = -0.07491 0.34347
#
# Static dielectric constant tensor:
#      x y z
#    x 1.913330 0.000000 0.021390 
#    y 0.000000 1.958770 0.000000 
#    z 0.021390 0.000000 1.954670 
# 
# From -- ./inp_files/12574.got.cif
#   From: 2010.05.17/outbox.cif.g08.bks.cpg/sg4_7_cif.got.tgz:12574.got - 2010.06.03 18:43:04.
