data_PCOD9118094
_publ_section_title
;
Structure prediction by ZEFSAII (Michael W. Deem and Ramdas Pophale) SiO2 
 PCOD9118094
Probable space group: P 21
;
_chemical_formula_sum "Si O2"
_cell_formula_units_Z 14
_cell_length_a 11.310833
_cell_length_b 7.552254
_cell_length_c 6.827830
_cell_angle_alpha 90.000000
_cell_angle_beta 96.864199
_cell_angle_gamma 90.000000
_cell_volume 579.068230
_symmetry_space_group_name_H-M "P 21"
_symmetry_group_IT_number 4
_symmetry_cell_setting 'monoclinic'
loop_
_space_group_symop_operation_xyz
x,y,z
-x,1/2+y,-z
loop_
_atom_site_type_symbol
_atom_site_label
_atom_site_fract_x
_atom_site_fract_y
_atom_site_fract_z
Si Si1 0.354835 0.639110 0.624271
Si Si2 0.158818 0.005251 0.966958
Si Si3 0.776700 0.791356 0.350288
Si Si4 0.585179 0.360232 0.031783
Si Si5 0.037913 0.473649 0.341306
Si Si6 0.153861 0.862681 0.387354
Si Si7 0.477328 0.155039 0.687092
O O1 0.271277 0.489731 0.703080
O O2 0.437557 0.713127 0.808762
O O3 0.274888 0.796938 0.514546
O O4 0.436905 0.578425 0.460413
O O5 0.180091 0.184456 0.837405
O O6 0.272090 0.882450 0.941940
O O7 0.031234 0.928821 0.871931
O O8 0.161527 0.990312 0.201832
O O9 0.867896 0.839469 0.543353
O O10 0.657454 0.694609 0.403483
O O11 0.532333 0.526441 0.131420
O O12 0.536652 0.323438 0.806934
O O13 0.093583 0.669782 0.329534
O O14 0.929494 0.462419 0.474481
#
# Coordination Sequence:
#
# PCOD9118094 Si02
#       7
#     2   2   2   2   2   2   2
#     4  11  22  44  72 103 144 191 241 297 370 426
#     4  11  23  46  70 106 142 192 243 299 366 430
#     4  10  24  45  69 105 150 187 241 303 361 437
#     4  11  23  41  71 101 145 187 240 306 353 439
#     4  11  23  47  70 107 146 188 245 304 362 443
#     4  11  24  44  74 101 145 191 240 302 369 429
#     4  11  23  43  68 105 144 190 246 295 369 430
#
# _framework density 24.176774000000002
#
# number of rings (size 3 to 8) (size 9 to 14) (size 15 to 20)
#    0.000    1.143    4.286    1.714    0.000    1.143 
#    0.000    7.143    0.000    0.000    0.000    0.000 
#    0.000    0.000    0.000    0.000    0.000    0.000 
#
# Total GULP energy -78114.593149 kJ/mol
# GULP energy per Si atom -5579.613796 kJ/mol
# Density = 2.412175 g / cm^3
# Si number density = 24.176774 Si / 1000 Ang^3
#
#
#
# Elastic Constant Matrix: (Units=GPa)
#
#
# Indices 1 2 3 4 5 6 
#
# 1 71.2763 25.4872 38.4885 0.0000 5.5253 0.0000
# 2 25.4872 107.0181 39.9158 0.0000 12.6636 0.0000
# 3 38.4885 39.9158 115.1217 0.0000 6.4812 0.0000
# 4 0.0000 0.0000 0.0000 40.9580 0.0000 3.5640
# 5 5.5253 12.6636 6.4812 0.0000 24.2962 0.0000
# 6 0.0000 0.0000 0.0000 3.5640 0.0000 19.8829
#
#
#
# Elastic Compliance Matrix: (Units=1/GPa)
#
#
# Indices 1 2 3 4 5 6 
#
# 1 0.017652 -0.002127 -0.005077 0.000000 -0.001551 0.000000
# 2 -0.002127 0.011537 -0.003023 0.000000 -0.004723 0.000000
# 3 -0.005077 -0.003023 0.011450 0.000000 -0.000324 0.000000
# 4 0.000000 0.000000 0.000000 0.024802 0.000000 -0.004446
# 5 -0.001551 -0.004723 -0.000324 0.000000 0.044060 0.000000
# 6 0.000000 0.000000 0.000000 -0.004446 0.000000 0.051091
#
#
# Mechanical properties :
#
#
# Convention : Reuss Voigt Hill
#
# Bulk Modulus (GPa) = 49.53988 55.68879 52.61434
# Shear Modulus (GPa) = 26.62753 29.66240 28.14496
#
# Velocity S-wave (km/s) = 3.32229 3.50651 3.41564
# Velocity P-wave (km/s) = 5.93734 6.28316 6.11270
#
# Compressibility (1/GPa) = 0.02018576
#
# Stress axis : x y z
#
# Youngs Moduli (GPa) = 56.65031 86.67543 87.33392
#
# Poissons Ratio (x) = 0.18434 0.44338
# Poissons Ratio (y) = 0.12049 0.26404
# Poissons Ratio (z) = 0.28760 0.26205
#
# Static dielectric constant tensor:
#      x y z
#    x 1.954250 0.000000 0.036340 
#    y 0.000000 2.118120 0.000000 
#    z 0.036340 0.000000 1.878290 
# 
# From -- ./inp_files/2561.got.cif
#   From: 2010.05.17/outbox.cif.g08.bks.cpg/sg4_2_cif.got.tgz:2561.got - 2010.06.03 18:43:04.
