data_PCOD9118250
_publ_section_title
;
Structure prediction by ZEFSAII (Michael W. Deem and Ramdas Pophale) SiO2 
 PCOD9118250
Probable space group: P 21
;
_chemical_formula_sum "Si O2"
_cell_formula_units_Z 14
_cell_length_a 5.035313
_cell_length_b 15.215775
_cell_length_c 6.956371
_cell_angle_alpha 90.000000
_cell_angle_beta 111.319545
_cell_angle_gamma 90.000000
_cell_volume 496.497998
_symmetry_space_group_name_H-M "P 21"
_symmetry_group_IT_number 4
_symmetry_cell_setting 'monoclinic'
loop_
_space_group_symop_operation_xyz
x,y,z
-x,1/2+y,-z
loop_
_atom_site_type_symbol
_atom_site_label
_atom_site_fract_x
_atom_site_fract_y
_atom_site_fract_z
Si Si1 0.664734 0.865580 0.546703
Si Si2 0.980074 0.101856 0.400325
Si Si3 0.562382 0.235947 0.200898
Si Si4 0.103224 0.122065 0.996481
Si Si5 0.814676 0.960968 0.072563
Si Si6 0.227815 0.795633 0.137075
Si Si7 0.742477 0.466057 0.310639
O O1 0.626333 0.798856 0.716506
O O2 0.517998 0.818653 0.326780
O O3 0.446599 0.942981 0.549863
O O4 0.982719 0.902361 0.615373
O O5 0.786307 0.185029 0.392468
O O6 0.133088 0.129402 0.242241
O O7 0.821718 0.014340 0.275014
O O8 0.155859 0.066145 0.625352
O O9 0.415509 0.158307 0.036918
O O10 0.704540 0.291988 0.070575
O O11 0.973580 0.024871 0.957977
O O12 0.899483 0.198336 0.863281
O O13 0.490924 0.958712 0.917714
O O14 0.993068 0.870858 0.125214
#
# Coordination Sequence:
#
# PCOD9118250 Si02
#       7
#     2   2   2   2   2   2   2
#     4  12  30  50  81 127 163 224 287 354 426 520
#     4   9  24  50  79 113 169 219 280 354 421 503
#     4  11  26  51  84 120 172 226 283 361 431 512
#     4   9  23  49  77 120 161 225 278 352 427 494
#     4  10  24  52  84 121 170 228 286 353 424 517
#     4  11  25  54  84 121 175 227 286 356 435 505
#     4  12  28  50  83 126 162 223 292 350 428 509
#
# _framework density 28.197499000000001
#
# number of rings (size 3 to 8) (size 9 to 14) (size 15 to 20)
#    0.857    0.571    1.429    0.857   12.000    3.429 
#    2.571    0.000    0.000    0.000    0.000    0.000 
#    0.000    0.000    0.000    0.000    0.000    0.000 
#
# Total GULP energy -78347.270379 kJ/mol
# GULP energy per Si atom -5596.233599 kJ/mol
# Density = 2.813332 g / cm^3
# Si number density = 28.197499 Si / 1000 Ang^3
#
#
#
# Elastic Constant Matrix: (Units=GPa)
#
#
# Indices 1 2 3 4 5 6 
#
# 1 129.4621 26.3930 34.2667 0.0000 17.7293 0.0000
# 2 26.3930 104.6277 25.9040 0.0000 -0.7492 0.0000
# 3 34.2667 25.9040 135.2379 0.0000 6.8756 0.0000
# 4 0.0000 0.0000 0.0000 62.1602 0.0000 12.8339
# 5 17.7293 -0.7492 6.8756 0.0000 31.7356 0.0000
# 6 0.0000 0.0000 0.0000 12.8339 0.0000 51.1044
#
#
#
# Elastic Compliance Matrix: (Units=1/GPa)
#
#
# Indices 1 2 3 4 5 6 
#
# 1 0.009237 -0.001938 -0.001724 0.000000 -0.004833 0.000000
# 2 -0.001938 0.010454 -0.001596 0.000000 0.001675 0.000000
# 3 -0.001724 -0.001596 0.008180 0.000000 -0.000847 0.000000
# 4 0.000000 0.000000 0.000000 0.016967 0.000000 -0.004261
# 5 -0.004833 0.001675 -0.000847 0.000000 0.034433 0.000000
# 6 0.000000 0.000000 0.000000 -0.004261 0.000000 0.020638
#
#
# Mechanical properties :
#
#
# Convention : Reuss Voigt Hill
#
# Bulk Modulus (GPa) = 57.62076 60.27279 58.94677
# Shear Modulus (GPa) = 43.02521 47.85099 45.43810
#
# Velocity S-wave (km/s) = 3.91045 4.12393 4.01861
# Velocity P-wave (km/s) = 6.39280 6.64058 6.51787
#
# Compressibility (1/GPa) = 0.01735486
#
# Stress axis : x y z
#
# Youngs Moduli (GPa) = 108.25512 95.65858 122.24971
#
# Poissons Ratio (x) = 0.18539 0.21072
# Poissons Ratio (y) = 0.20980 0.19517
# Poissons Ratio (z) = 0.18659 0.15272
#
# Static dielectric constant tensor:
#      x y z
#    x 2.286660 0.000000 -0.067020 
#    y 0.000000 2.304030 0.000000 
#    z -0.067020 0.000000 2.235620 
# 
# From -- ./inp_files/10586.got.cif
#   From: 2010.05.17/outbox.cif.g08.bks.cpg/sg4_6_cif.got.tgz:10586.got - 2010.06.03 18:43:04.
