data_PCOD9118360
_publ_section_title
;
Structure prediction by ZEFSAII (Michael W. Deem and Ramdas Pophale) SiO2 
 PCOD9118360
Probable space group: P 21
;
_chemical_formula_sum "Si O2"
_cell_formula_units_Z 12
_cell_length_a 9.507933
_cell_length_b 5.374516
_cell_length_c 15.160082
_cell_angle_alpha 90.000000
_cell_angle_beta 38.043340
_cell_angle_gamma 90.000000
_cell_volume 477.407404
_symmetry_space_group_name_H-M "P 21"
_symmetry_group_IT_number 4
_symmetry_cell_setting 'monoclinic'
loop_
_space_group_symop_operation_xyz
x,y,z
-x,1/2+y,-z
loop_
_atom_site_type_symbol
_atom_site_label
_atom_site_fract_x
_atom_site_fract_y
_atom_site_fract_z
Si Si1 0.935365 0.301400 0.738859
Si Si2 0.527821 0.280821 0.812859
Si Si3 0.596467 0.605482 0.490606
Si Si4 0.109522 0.578794 0.486519
Si Si5 0.625698 0.194691 0.219695
Si Si6 0.901811 0.516847 0.947818
O O1 0.704491 0.226737 0.803279
O O2 0.883270 0.391099 0.862282
O O3 0.130742 0.093268 0.650658
O O4 0.051399 0.509587 0.616549
O O5 0.528853 0.559922 0.776783
O O6 0.632125 0.124539 0.677961
O O7 0.267223 0.252313 0.973247
O O8 0.492596 0.330903 0.527932
O O9 0.531173 0.716617 0.617780
O O10 0.992019 0.839924 0.515968
O O11 0.834382 0.033826 0.158781
O O12 0.778315 0.387113 0.090983
#
# Coordination Sequence:
#
# PCOD9118360 Si02
#       6
#     2   2   2   2   2   2
#     4  11  28  48  80 119 149 202 262 329 379 458
#     4  11  28  47  78 111 156 201 259 325 387 457
#     4  12  30  53  83 116 154 205 264 322 384 466
#     4  10  25  48  75 116 156 197 251 320 395 447
#     4  12  28  50  77 107 159 207 259 312 396 466
#     4  12  27  50  75 109 156 208 255 312 393 470
#
# _framework density 25.135762
#
# number of rings (size 3 to 8) (size 9 to 14) (size 15 to 20)
#    0.000    0.667    3.333    1.000   23.333    0.000 
#    3.000    0.000    0.000    0.000    0.000    0.000 
#    0.000    0.000    0.000    0.000    0.000    0.000 
#
# Total GULP energy -67033.907229 kJ/mol
# GULP energy per Si atom -5586.158936 kJ/mol
# Density = 2.507855 g / cm^3
# Si number density = 25.135762 Si / 1000 Ang^3
#
#
#
# Elastic Constant Matrix: (Units=GPa)
#
#
# Indices 1 2 3 4 5 6 
#
# 1 87.8711 -3.8991 0.4577 0.0000 -7.3885 0.0000
# 2 -3.8991 48.1148 -14.0828 0.0000 -12.5411 0.0000
# 3 0.4577 -14.0828 105.6490 0.0000 -2.9650 0.0000
# 4 0.0000 0.0000 0.0000 30.6799 0.0000 1.2579
# 5 -7.3885 -12.5411 -2.9650 0.0000 43.9495 0.0000
# 6 0.0000 0.0000 0.0000 1.2579 0.0000 29.3500
#
#
#
# Elastic Compliance Matrix: (Units=1/GPa)
#
#
# Indices 1 2 3 4 5 6 
#
# 1 0.011658 0.001652 0.000238 0.000000 0.002448 0.000000
# 2 0.001652 0.023807 0.003371 0.000000 0.007299 0.000000
# 3 0.000238 0.003371 0.009961 0.000000 0.001674 0.000000
# 4 0.000000 0.000000 0.000000 0.032652 0.000000 -0.001399
# 5 0.002448 0.007299 0.001674 0.000000 0.025360 0.000000
# 6 0.000000 0.000000 0.000000 -0.001399 0.000000 0.034131
#
#
# Mechanical properties :
#
#
# Convention : Reuss Voigt Hill
#
# Bulk Modulus (GPa) = 17.87333 22.95408 20.41370
# Shear Modulus (GPa) = 34.31826 38.07317 36.19571
#
# Velocity S-wave (km/s) = 3.69903 3.89614 3.79886
# Velocity P-wave (km/s) = 5.03685 5.42141 5.23267
#
# Compressibility (1/GPa) = 0.05594930
#
# Stress axis : x y z
#
# Youngs Moduli (GPa) = 85.77669 42.00522 100.39556
#
# Poissons Ratio (x) = -0.06941 -0.02394
# Poissons Ratio (y) = -0.14175 -0.33844
# Poissons Ratio (z) = -0.02045 -0.14160
#
# Static dielectric constant tensor:
#      x y z
#    x 2.094230 0.000000 -0.095360 
#    y 0.000000 2.147040 0.000000 
#    z -0.095360 0.000000 2.011430 
# 
# From -- ./inp_files/8772.got.cif
#   From: 2010.05.17/outbox.cif.g08.bks.cpg/sg4_5_cif.got.tgz:8772.got - 2010.06.03 18:43:04.
