data_PCOD9118556
_publ_section_title
;
Structure prediction by ZEFSAII (Michael W. Deem and Ramdas Pophale) SiO2 
 PCOD9118556
Probable space group: P 21
;
_chemical_formula_sum "Si O2"
_cell_formula_units_Z 12
_cell_length_a 7.054940
_cell_length_b 7.575127
_cell_length_c 11.307228
_cell_angle_alpha 90.000000
_cell_angle_beta 135.689408
_cell_angle_gamma 90.000000
_cell_volume 422.119471
_symmetry_space_group_name_H-M "P 21"
_symmetry_group_IT_number 4
_symmetry_cell_setting 'monoclinic'
loop_
_space_group_symop_operation_xyz
x,y,z
-x,1/2+y,-z
loop_
_atom_site_type_symbol
_atom_site_label
_atom_site_fract_x
_atom_site_fract_y
_atom_site_fract_z
Si Si1 0.655399 0.196700 0.328382
Si Si2 0.078177 0.698418 0.222306
Si Si3 0.753066 0.218588 0.958797
Si Si4 0.758095 0.603584 0.389307
Si Si5 0.609639 0.938567 0.085733
Si Si6 0.567778 0.537787 0.549025
O O1 0.671174 0.405448 0.317442
O O2 0.642608 0.078485 0.206734
O O3 0.440359 0.142823 0.331906
O O4 0.942917 0.147327 0.516046
O O5 0.049206 0.702904 0.065304
O O6 0.268229 0.535334 0.352504
O O7 0.793445 0.759811 0.152039
O O8 0.286606 0.854598 0.356161
O O9 0.467784 0.233967 0.759508
O O10 0.704240 0.375862 0.031908
O O11 0.725272 0.044197 0.024189
O O12 0.753344 0.617931 0.528837
#
# Coordination Sequence:
#
# PCOD9118556 Si02
#       6
#     2   2   2   2   2   2
#     4  12  22  39  69  96 137 171 227 283 330 398
#     4  11  24  44  67 103 135 178 225 278 342 401
#     4  11  26  46  68  95 141 180 225 277 338 407
#     4  11  24  40  66 104 128 181 225 279 339 392
#     4  12  25  47  67 100 137 181 228 272 343 406
#     4  11  21  40  67  98 136 169 224 283 330 392
#
# _framework density 28.427969999999998
#
# number of rings (size 3 to 8) (size 9 to 14) (size 15 to 20)
#    0.000    0.667    5.000    3.000    2.333    1.333 
#    3.000    1.667    0.000    0.000    0.000    0.000 
#    0.000    0.000    0.000    0.000    0.000    0.000 
#
# Total GULP energy -67113.389398 kJ/mol
# GULP energy per Si atom -5592.782450 kJ/mol
# Density = 2.836327 g / cm^3
# Si number density = 28.427970 Si / 1000 Ang^3
#
#
#
# Elastic Constant Matrix: (Units=GPa)
#
#
# Indices 1 2 3 4 5 6 
#
# 1 153.2794 13.8661 25.5269 0.0000 -43.5976 0.0000
# 2 13.8661 76.0040 16.9690 0.0000 -5.3465 0.0000
# 3 25.5269 16.9690 94.0264 0.0000 -25.2641 0.0000
# 4 0.0000 0.0000 0.0000 39.2460 0.0000 -4.3768
# 5 -43.5976 -5.3465 -25.2641 0.0000 55.5740 0.0000
# 6 0.0000 0.0000 0.0000 -4.3768 0.0000 45.2383
#
#
#
# Elastic Compliance Matrix: (Units=1/GPa)
#
#
# Indices 1 2 3 4 5 6 
#
# 1 0.008500 -0.001010 -0.000410 0.000000 0.006384 0.000000
# 2 -0.001010 0.013832 -0.002366 0.000000 -0.000537 0.000000
# 3 -0.000410 -0.002366 0.012560 0.000000 0.005161 0.000000
# 4 0.000000 0.000000 0.000000 0.025758 0.000000 0.002492
# 5 0.006384 -0.000537 0.005161 0.000000 0.025297 0.000000
# 6 0.000000 0.000000 0.000000 0.002492 0.000000 0.022346
#
#
# Mechanical properties :
#
#
# Convention : Reuss Voigt Hill
#
# Bulk Modulus (GPa) = 36.60419 48.44819 42.52619
# Shear Modulus (GPa) = 40.00881 45.80817 42.90849
#
# Velocity S-wave (km/s) = 3.75557 4.01855 3.88928
# Velocity P-wave (km/s) = 5.63115 6.21378 5.92963
#
# Compressibility (1/GPa) = 0.02731928
#
# Stress axis : x y z
#
# Youngs Moduli (GPa) = 117.65278 72.29602 79.61590
#
# Poissons Ratio (x) = 0.07302 0.03263
# Poissons Ratio (y) = 0.11884 0.18841
# Poissons Ratio (z) = 0.04821 0.17109
#
# Static dielectric constant tensor:
#      x y z
#    x 2.210890 0.000000 -0.037660 
#    y 0.000000 2.341970 0.000000 
#    z -0.037660 0.000000 2.345310 
# 
# From -- ./inp_files/7616.got.cif
#   From: 2010.05.17/outbox.cif.g08.bks.cpg/sg4_4_cif.got.tgz:7616.got - 2010.06.03 18:43:04.
