data_PCOD9118105
_publ_section_title
;
Structure prediction by ZEFSAII (Michael W. Deem and Ramdas Pophale) SiO2 
 PCOD9118105
Probable space group: P 21
;
_chemical_formula_sum "Si O2"
_cell_formula_units_Z 16
_cell_length_a 24.689224
_cell_length_b 5.153918
_cell_length_c 9.718808
_cell_angle_alpha 90.000000
_cell_angle_beta 149.358345
_cell_angle_gamma 90.000000
_cell_volume 630.295939
_symmetry_space_group_name_H-M "P 21"
_symmetry_group_IT_number 4
_symmetry_cell_setting 'monoclinic'
loop_
_space_group_symop_operation_xyz
x,y,z
-x,1/2+y,-z
loop_
_atom_site_type_symbol
_atom_site_label
_atom_site_fract_x
_atom_site_fract_y
_atom_site_fract_z
Si Si1 0.568279 0.106170 0.631074
Si Si2 0.643438 0.505200 0.236136
Si Si3 0.435780 0.725711 0.684237
Si Si4 0.878367 0.970182 0.161093
Si Si5 0.073307 0.556755 0.171988
Si Si6 0.120034 0.981091 0.661050
Si Si7 0.246537 0.399309 0.368311
Si Si8 0.254480 0.665997 0.762657
O O1 0.492851 0.334357 0.527312
O O2 0.599639 0.227785 0.551339
O O3 0.664945 0.054484 0.947363
O O4 0.587663 0.457721 0.262300
O O5 0.745028 0.670712 0.503352
O O6 0.676740 0.260619 0.217608
O O7 0.559373 0.660480 0.960908
O O8 0.363007 0.511532 0.599389
O O9 0.872894 0.775870 0.276708
O O10 0.996040 0.942884 0.354496
O O11 0.861077 0.263703 0.176745
O O12 0.795646 0.847269 0.874952
O O13 0.158076 0.594408 0.233563
O O14 0.149621 0.527425 0.472547
O O15 0.997429 0.804942 0.011716
O O16 0.203048 0.915776 0.724785
#
# Coordination Sequence:
#
# PCOD9118105 Si02
#       8
#     2   2   2   2   2   2   2   2
#     4  12  31  50  80 115 163 207 265 325 402 472
#     4  12  27  49  78 112 160 208 267 327 401 477
#     4  12  27  50  77 113 156 207 265 326 391 482
#     4  10  24  45  72 107 145 199 249 318 383 462
#     4  12  29  50  78 119 163 208 267 333 397 477
#     4  10  24  46  72 104 151 195 253 310 389 467
#     4  12  27  45  78 108 152 207 263 320 396 468
#     4  12  27  51  77 118 158 211 259 335 399 471
#
# _framework density 25.384902
#
# number of rings (size 3 to 8) (size 9 to 14) (size 15 to 20)
#    0.000    0.500    3.750    2.250    8.750    7.000 
#    0.000    0.000    0.000    0.000    0.000    0.000 
#    0.000    0.000    0.000    0.000    0.000    0.000 
#
# Total GULP energy -89509.716210 kJ/mol
# GULP energy per Si atom -5594.357263 kJ/mol
# Density = 2.532713 g / cm^3
# Si number density = 25.384902 Si / 1000 Ang^3
#
#
#
# Elastic Constant Matrix: (Units=GPa)
#
#
# Indices 1 2 3 4 5 6 
#
# 1 98.7032 6.1626 24.1844 0.0000 -9.0308 0.0000
# 2 6.1626 81.7200 40.7242 0.0000 5.8529 0.0000
# 3 24.1844 40.7242 186.0042 0.0000 -15.4962 0.0000
# 4 0.0000 0.0000 0.0000 27.5337 0.0000 6.9851
# 5 -9.0308 5.8529 -15.4962 0.0000 38.4815 0.0000
# 6 0.0000 0.0000 0.0000 6.9851 0.0000 32.8210
#
#
#
# Elastic Compliance Matrix: (Units=1/GPa)
#
#
# Indices 1 2 3 4 5 6 
#
# 1 0.010623 -0.000394 -0.001120 0.000000 0.002102 0.000000
# 2 -0.000394 0.014198 -0.003358 0.000000 -0.003604 0.000000
# 3 -0.001120 -0.003358 0.006496 0.000000 0.002864 0.000000
# 4 0.000000 0.000000 0.000000 0.038392 0.000000 -0.008171
# 5 0.002102 -0.003604 0.002864 0.000000 0.028181 0.000000
# 6 0.000000 0.000000 0.000000 -0.008171 0.000000 0.032207
#
#
# Mechanical properties :
#
#
# Convention : Reuss Voigt Hill
#
# Bulk Modulus (GPa) = 46.35197 56.50774 51.42986
# Shear Modulus (GPa) = 34.00672 39.45766 36.73219
#
# Velocity S-wave (km/s) = 3.66408 3.94683 3.80808
# Velocity P-wave (km/s) = 6.01664 6.56344 6.29598
#
# Compressibility (1/GPa) = 0.02157405
#
# Stress axis : x y z
#
# Youngs Moduli (GPa) = 94.13841 70.43285 153.95226
#
# Poissons Ratio (x) = 0.02772 0.17241
# Poissons Ratio (y) = 0.03704 0.51691
# Poissons Ratio (z) = 0.10543 0.23649
#
# Static dielectric constant tensor:
#      x y z
#    x 2.018640 0.000000 -0.011230 
#    y 0.000000 2.046200 0.000000 
#    z -0.011230 0.000000 1.988480 
# 
# From -- ./inp_files/10044.got.cif
#   From: 2010.05.17/outbox.cif.g08.bks.cpg/sg4_6_cif.got.tgz:10044.got - 2010.06.03 18:43:04.
