data_PCOD9118778
_publ_section_title
;
Structure prediction by ZEFSAII (Michael W. Deem and Ramdas Pophale) SiO2 
 PCOD9118778
Probable space group: P 21
;
_chemical_formula_sum "Si O2"
_cell_formula_units_Z 16
_cell_length_a 12.857202
_cell_length_b 9.818165
_cell_length_c 5.415152
_cell_angle_alpha 90.000000
_cell_angle_beta 82.527949
_cell_angle_gamma 90.000000
_cell_volume 677.772353
_symmetry_space_group_name_H-M "P 21"
_symmetry_group_IT_number 4
_symmetry_cell_setting 'monoclinic'
loop_
_space_group_symop_operation_xyz
x,y,z
-x,1/2+y,-z
loop_
_atom_site_type_symbol
_atom_site_label
_atom_site_fract_x
_atom_site_fract_y
_atom_site_fract_z
Si Si1 0.180639 0.451270 0.649518
Si Si2 0.237806 0.810056 0.357579
Si Si3 0.648680 0.830242 0.733496
Si Si4 0.966938 0.176206 0.449771
Si Si5 0.574217 0.338142 0.320333
Si Si6 0.674665 0.097457 0.035391
Si Si7 0.097924 0.207602 0.910000
Si Si8 0.704523 0.557515 0.998223
O O1 0.245106 0.354906 0.448828
O O2 0.087754 0.528977 0.545793
O O3 0.138115 0.362594 0.887936
O O4 0.261488 0.558443 0.739812
O O5 0.128451 0.786092 0.530739
O O6 0.343255 0.815573 0.487350
O O7 0.249592 0.680631 0.171623
O O8 0.241835 0.948206 0.200457
O O9 0.548375 0.840760 0.583568
O O10 0.658210 0.687209 0.869476
O O11 0.636781 0.958194 0.923081
O O12 0.027838 0.191451 0.687519
O O13 0.037560 0.185614 0.183848
O O14 0.588259 0.208677 0.134307
O O15 0.615819 0.474136 0.172514
O O16 0.200765 0.113060 0.863571
#
# Coordination Sequence:
#
# PCOD9118778 Si02
#       8
#     2   2   2   2   2   2   2   2
#     4  12  27  50  76 111 157 199 267 327 385 476
#     4  11  26  48  74 110 155 196 265 323 382 473
#     4  12  25  48  78 113 156 202 260 318 404 471
#     4  12  28  51  80 114 151 213 260 318 401 464
#     4  11  26  45  81 111 153 210 253 323 399 471
#     4  11  22  49  74 103 155 201 259 312 389 462
#     4  12  30  50  79 115 156 207 261 330 392 457
#     4  11  28  49  72 115 159 192 265 329 384 474
#
# _framework density 23.606746000000001
#
# number of rings (size 3 to 8) (size 9 to 14) (size 15 to 20)
#    0.000    0.500    3.750    2.250    7.000    4.000 
#    0.000    0.000    0.000    0.000    0.000    0.000 
#    0.000    0.000    0.000    0.000    0.000    0.000 
#
# Total GULP energy -89625.177668 kJ/mol
# GULP energy per Si atom -5601.573604 kJ/mol
# Density = 2.355302 g / cm^3
# Si number density = 23.606746 Si / 1000 Ang^3
#
#
#
# Elastic Constant Matrix: (Units=GPa)
#
#
# Indices 1 2 3 4 5 6 
#
# 1 105.8165 21.1658 15.6578 0.0000 18.7258 0.0000
# 2 21.1658 131.8357 14.9348 0.0000 8.1699 0.0000
# 3 15.6578 14.9348 68.1949 0.0000 13.6340 0.0000
# 4 0.0000 0.0000 0.0000 39.2273 0.0000 12.9197
# 5 18.7258 8.1699 13.6340 0.0000 37.8107 0.0000
# 6 0.0000 0.0000 0.0000 12.9197 0.0000 11.8144
#
#
#
# Elastic Compliance Matrix: (Units=1/GPa)
#
#
# Indices 1 2 3 4 5 6 
#
# 1 0.010704 -0.001293 -0.001262 0.000000 -0.004567 0.000000
# 2 -0.001293 0.007981 -0.001330 0.000000 -0.000605 0.000000
# 3 -0.001262 -0.001330 0.016233 0.000000 -0.004941 0.000000
# 4 0.000000 0.000000 0.000000 0.039842 0.000000 -0.043570
# 5 -0.004567 -0.000605 -0.004941 0.000000 0.030622 0.000000
# 6 0.000000 0.000000 0.000000 -0.043570 0.000000 0.132288
#
#
# Mechanical properties :
#
#
# Convention : Reuss Voigt Hill
#
# Bulk Modulus (GPa) = 36.83396 45.48486 41.15941
# Shear Modulus (GPa) = 19.64735 34.70974 27.17854
#
# Velocity S-wave (km/s) = 2.88805 3.83865 3.39677
# Velocity P-wave (km/s) = 5.17283 6.24152 5.73213
#
# Compressibility (1/GPa) = 0.02714886
#
# Stress axis : x y z
#
# Youngs Moduli (GPa) = 93.42565 125.29965 61.60417
#
# Poissons Ratio (x) = 0.16195 0.07771
# Poissons Ratio (y) = 0.12076 0.08194
# Poissons Ratio (z) = 0.11786 0.16667
#
# Static dielectric constant tensor:
#      x y z
#    x 1.888670 0.000000 -0.001040 
#    y 0.000000 1.898250 0.000000 
#    z -0.001040 0.000000 1.907520 
# 
# From -- ./inp_files/2576.got.cif
#   From: 2010.05.17/outbox.cif.g08.bks.cpg/sg4_2_cif.got.tgz:2576.got - 2010.06.03 18:43:04.
