data_PCOD9118278
_publ_section_title
;
Structure prediction by ZEFSAII (Michael W. Deem and Ramdas Pophale) SiO2 
 PCOD9118278
Probable space group: P 21
;
_chemical_formula_sum "Si O2"
_cell_formula_units_Z 16
_cell_length_a 22.626702
_cell_length_b 7.529829
_cell_length_c 6.646775
_cell_angle_alpha 90.000000
_cell_angle_beta 137.577145
_cell_angle_gamma 90.000000
_cell_volume 763.944291
_symmetry_space_group_name_H-M "P 21"
_symmetry_group_IT_number 4
_symmetry_cell_setting 'monoclinic'
loop_
_space_group_symop_operation_xyz
x,y,z
-x,1/2+y,-z
loop_
_atom_site_type_symbol
_atom_site_label
_atom_site_fract_x
_atom_site_fract_y
_atom_site_fract_z
Si Si1 0.278829 0.536150 0.713628
Si Si2 0.646779 0.339026 0.810774
Si Si3 0.911398 0.108015 0.671089
Si Si4 0.980360 0.472324 0.701143
Si Si5 0.593995 0.178767 0.292875
Si Si6 0.519903 0.858493 0.338586
Si Si7 0.888816 0.807628 0.274036
Si Si8 0.704108 0.718910 0.957442
O O1 0.178908 0.591796 0.433715
O O2 0.336691 0.568124 0.663287
O O3 0.315632 0.665391 0.983485
O O4 0.285577 0.338456 0.817467
O O5 0.642279 0.317259 0.559602
O O6 0.549169 0.366722 0.653638
O O7 0.703749 0.511198 0.005554
O O8 0.920396 0.302223 0.597648
O O9 0.906990 0.955014 0.491744
O O10 0.990975 0.067754 0.021033
O O11 0.935080 0.621843 0.449993
O O12 0.065826 0.388080 0.808542
O O13 0.543456 0.053082 0.320144
O O14 0.528191 0.262955 0.967612
O O15 0.609722 0.764130 0.626213
O O16 0.784718 0.773082 0.015815
#
# Coordination Sequence:
#
# PCOD9118278 Si02
#       8
#     2   2   2   2   2   2   2   2
#     4  10  25  44  65  96 132 175 219 275 326 395
#     4  11  23  45  64  97 135 175 220 274 330 382
#     4  11  24  43  69 100 136 168 223 276 331 401
#     4  12  23  45  70  98 133 178 217 274 339 398
#     4  11  24  42  66  98 131 180 220 270 331 391
#     4  11  24  39  67  94 135 175 223 270 326 393
#     4  11  25  44  69 101 131 177 221 272 339 398
#     4  11  24  44  68  94 135 172 219 275 326 394
#
# _framework density 20.943933000000001
#
# number of rings (size 3 to 8) (size 9 to 14) (size 15 to 20)
#    0.000    1.000    3.750    2.250    7.000    0.000 
#    4.500    0.000    0.000    0.000    0.000    0.000 
#    0.000    0.000    0.000    0.000    0.000    0.000 
#
# Total GULP energy -89478.459190 kJ/mol
# GULP energy per Si atom -5592.403699 kJ/mol
# Density = 2.089626 g / cm^3
# Si number density = 20.943933 Si / 1000 Ang^3
#
#
#
# Elastic Constant Matrix: (Units=GPa)
#
#
# Indices 1 2 3 4 5 6 
#
# 1 56.7163 19.2204 21.5111 0.0000 5.5529 0.0000
# 2 19.2204 88.7792 8.7219 0.0000 2.7862 0.0000
# 3 21.5111 8.7219 45.9872 0.0000 4.5675 0.0000
# 4 0.0000 0.0000 0.0000 25.7059 0.0000 1.6313
# 5 5.5529 2.7862 4.5675 0.0000 27.3706 0.0000
# 6 0.0000 0.0000 0.0000 1.6313 0.0000 29.0271
#
#
#
# Elastic Compliance Matrix: (Units=1/GPa)
#
#
# Indices 1 2 3 4 5 6 
#
# 1 0.022899 -0.003922 -0.009707 0.000000 -0.002627 0.000000
# 2 -0.003922 0.012167 -0.000437 0.000000 -0.000370 0.000000
# 3 -0.009707 -0.000437 0.026609 0.000000 -0.002427 0.000000
# 4 0.000000 0.000000 0.000000 0.039041 0.000000 -0.002194
# 5 -0.002627 -0.000370 -0.002427 0.000000 0.037511 0.000000
# 6 0.000000 0.000000 0.000000 -0.002194 0.000000 0.034574
#
#
# Mechanical properties :
#
#
# Convention : Reuss Voigt Hill
#
# Bulk Modulus (GPa) = 29.80944 32.26548 31.03746
# Shear Modulus (GPa) = 23.57224 25.88934 24.73079
#
# Velocity S-wave (km/s) = 3.35848 3.51967 3.44002
# Velocity P-wave (km/s) = 5.41323 5.65301 5.53442
#
# Compressibility (1/GPa) = 0.03354642
#
# Stress axis : x y z
#
# Youngs Moduli (GPa) = 43.66942 82.18678 37.58058
#
# Poissons Ratio (x) = 0.32230 0.36479
# Poissons Ratio (y) = 0.17125 0.01640
# Poissons Ratio (z) = 0.42389 0.03588
#
# Static dielectric constant tensor:
#      x y z
#    x 1.729860 0.000000 0.011170 
#    y 0.000000 1.754650 0.000000 
#    z 0.011170 0.000000 1.757330 
# 
# From -- ./inp_files/3579.got.cif
#   From: 2010.05.17/outbox.cif.g08.bks.cpg/sg4_2_cif.got.tgz:3579.got - 2010.06.03 18:43:04.
