data_PCOD9118011
_publ_section_title
;
Structure prediction by ZEFSAII (Michael W. Deem and Ramdas Pophale) SiO2 
 PCOD9118011
Probable space group: P 21
;
_chemical_formula_sum "Si O2"
_cell_formula_units_Z 14
_cell_length_a 5.246582
_cell_length_b 9.187866
_cell_length_c 13.530228
_cell_angle_alpha 90.000000
_cell_angle_beta 115.524194
_cell_angle_gamma 90.000000
_cell_volume 588.568429
_symmetry_space_group_name_H-M "P 21"
_symmetry_group_IT_number 4
_symmetry_cell_setting 'monoclinic'
loop_
_space_group_symop_operation_xyz
x,y,z
-x,1/2+y,-z
loop_
_atom_site_type_symbol
_atom_site_label
_atom_site_fract_x
_atom_site_fract_y
_atom_site_fract_z
Si Si1 0.123780 0.152650 0.045278
Si Si2 0.631013 0.791528 0.447416
Si Si3 0.648340 0.989436 0.635914
Si Si4 0.756866 0.128769 0.170566
Si Si5 0.997641 0.897442 0.327118
Si Si6 0.152345 0.148877 0.824861
Si Si7 0.532276 0.911056 0.836749
O O1 0.431127 0.078664 0.111821
O O2 0.921476 0.099941 0.097417
O O3 0.044575 0.137850 0.918110
O O4 0.802899 0.824188 0.922643
O O5 0.566888 0.618156 0.435169
O O6 0.868264 0.836895 0.407440
O O7 0.327490 0.864287 0.369228
O O8 0.694713 0.866509 0.562360
O O9 0.544096 0.921425 0.720968
O O10 0.936145 0.072121 0.713242
O O11 0.917591 0.062675 0.291039
O O12 0.447431 0.066569 0.864828
O O13 0.835328 0.811895 0.212126
O O14 0.279550 0.802251 0.825222
#
# Coordination Sequence:
#
# PCOD9118011 Si02
#       7
#     2   2   2   2   2   2   2
#     4  10  25  41  72 105 140 188 228 286 359 423
#     4  11  27  45  72 102 142 187 240 294 361 415
#     4  11  26  46  72 107 143 190 241 297 357 421
#     4  10  24  43  70 105 143 186 237 290 350 434
#     4  11  25  46  69 105 139 188 235 301 352 421
#     4  11  25  45  73 101 151 182 241 293 356 429
#     4  10  24  44  70 105 142 185 232 295 349 431
#
# _framework density 23.786528000000001
#
# number of rings (size 3 to 8) (size 9 to 14) (size 15 to 20)
#    0.857    0.571    1.429    1.714    8.000    2.286 
#    0.000    0.000    0.000    0.000    0.000    0.000 
#    0.000    0.000    0.000    0.000    0.000    0.000 
#
# Total GULP energy -78272.271010 kJ/mol
# GULP energy per Si atom -5590.876501 kJ/mol
# Density = 2.373239 g / cm^3
# Si number density = 23.786528 Si / 1000 Ang^3
#
#
#
# Elastic Constant Matrix: (Units=GPa)
#
#
# Indices 1 2 3 4 5 6 
#
# 1 99.7874 1.2010 20.2867 0.0000 -24.9051 0.0000
# 2 1.2010 34.0579 20.0749 0.0000 7.2388 0.0000
# 3 20.2867 20.0749 89.5590 0.0000 -19.6892 0.0000
# 4 0.0000 0.0000 0.0000 30.5289 0.0000 -0.8916
# 5 -24.9051 7.2388 -19.6892 0.0000 42.6386 0.0000
# 6 0.0000 0.0000 0.0000 -0.8916 0.0000 22.5375
#
#
#
# Elastic Compliance Matrix: (Units=1/GPa)
#
#
# Indices 1 2 3 4 5 6 
#
# 1 0.011910 -0.001315 -0.000918 0.000000 0.006756 0.000000
# 2 -0.001315 0.038586 -0.011086 0.000000 -0.012438 0.000000
# 3 -0.000918 -0.011086 0.015754 0.000000 0.008621 0.000000
# 4 0.000000 0.000000 0.000000 0.032794 0.000000 0.001297
# 5 0.006756 -0.012438 0.008621 0.000000 0.033491 0.000000
# 6 0.000000 0.000000 0.000000 0.001297 0.000000 0.044422
#
#
# Mechanical properties :
#
#
# Convention : Reuss Voigt Hill
#
# Bulk Modulus (GPa) = 25.24434 34.05883 29.65158
# Shear Modulus (GPa) = 23.06293 31.26377 27.16335
#
# Velocity S-wave (km/s) = 3.11718 3.62933 3.38296
# Velocity P-wave (km/s) = 4.85713 5.64910 5.26802
#
# Compressibility (1/GPa) = 0.03961285
#
# Stress axis : x y z
#
# Youngs Moduli (GPa) = 83.96395 25.91603 63.47656
#
# Poissons Ratio (x) = 0.03408 0.05826
# Poissons Ratio (y) = 0.11041 0.70369
# Poissons Ratio (z) = 0.07706 0.28730
#
# Static dielectric constant tensor:
#      x y z
#    x 1.890930 0.000000 0.070390 
#    y 0.000000 1.947450 0.000000 
#    z 0.070390 0.000000 1.879540 
# 
# From -- ./inp_files/10417.got.cif
#   From: 2010.05.17/outbox.cif.g08.bks.cpg/sg4_6_cif.got.tgz:10417.got - 2010.06.03 18:43:04.
