data_PCOD9118570
_publ_section_title
;
Structure prediction by ZEFSAII (Michael W. Deem and Ramdas Pophale) SiO2 
 PCOD9118570
Probable space group: P 21
;
_chemical_formula_sum "Si O2"
_cell_formula_units_Z 14
_cell_length_a 9.422883
_cell_length_b 9.384004
_cell_length_c 7.425862
_cell_angle_alpha 90.000000
_cell_angle_beta 118.752661
_cell_angle_gamma 90.000000
_cell_volume 575.667950
_symmetry_space_group_name_H-M "P 21"
_symmetry_group_IT_number 4
_symmetry_cell_setting 'monoclinic'
loop_
_space_group_symop_operation_xyz
x,y,z
-x,1/2+y,-z
loop_
_atom_site_type_symbol
_atom_site_label
_atom_site_fract_x
_atom_site_fract_y
_atom_site_fract_z
Si Si1 0.836438 0.239520 0.891225
Si Si2 0.016244 0.358282 0.490143
Si Si3 0.893806 0.528735 0.067731
Si Si4 0.307255 0.699535 0.557142
Si Si5 0.793288 0.055175 0.178701
Si Si6 0.533374 0.904827 0.862673
Si Si7 0.665261 0.686179 0.195503
O O1 0.717636 0.176989 0.667647
O O2 0.846129 0.409459 0.893845
O O3 0.800224 0.199798 0.074482
O O4 0.999784 0.154535 0.948708
O O5 0.045595 0.486763 0.648786
O O6 0.180966 0.261107 0.607674
O O7 0.988979 0.440008 0.284211
O O8 0.859307 0.274880 0.469926
O O9 0.746393 0.608235 0.073345
O O10 0.317327 0.573439 0.710089
O O11 0.459940 0.800533 0.673354
O O12 0.719215 0.950882 0.983232
O O13 0.432011 0.051330 0.784888
O O14 0.539255 0.806938 0.049370
#
# Coordination Sequence:
#
# PCOD9118570 Si02
#       7
#     2   2   2   2   2   2   2
#     4  12  26  43  71 107 145 182 239 301 356 426
#     4  11  21  41  76 100 137 178 243 288 354 415
#     4  12  25  43  72 112 142 183 241 301 357 422
#     4  12  22  44  68 100 134 186 233 292 352 419
#     4  11  23  44  67 101 139 183 232 290 355 426
#     4  11  24  42  70 101 144 187 241 290 364 433
#     4  11  23  43  72 107 137 193 239 294 358 431
#
# _framework density 24.319576999999999
#
# number of rings (size 3 to 8) (size 9 to 14) (size 15 to 20)
#    0.000    0.571    7.143    0.857    2.000    1.143 
#    2.571    1.429    0.000    0.000    0.000    0.000 
#    0.000    0.000    0.000    0.000    0.000    0.000 
#
# Total GULP energy -78070.020271 kJ/mol
# GULP energy per Si atom -5576.430019 kJ/mol
# Density = 2.426422 g / cm^3
# Si number density = 24.319577 Si / 1000 Ang^3
#
#
#
# Elastic Constant Matrix: (Units=GPa)
#
#
# Indices 1 2 3 4 5 6 
#
# 1 35.9242 14.1858 24.1064 0.0000 -2.7580 0.0000
# 2 14.1858 107.7441 19.0410 0.0000 -3.8444 0.0000
# 3 24.1064 19.0410 100.2405 0.0000 -12.3983 0.0000
# 4 0.0000 0.0000 0.0000 60.4300 0.0000 8.2642
# 5 -2.7580 -3.8444 -12.3983 0.0000 30.9716 0.0000
# 6 0.0000 0.0000 0.0000 8.2642 0.0000 35.0480
#
#
#
# Elastic Compliance Matrix: (Units=1/GPa)
#
#
# Indices 1 2 3 4 5 6 
#
# 1 0.034204 -0.003162 -0.007677 0.000000 -0.000420 0.000000
# 2 -0.003162 0.009903 -0.001056 0.000000 0.000525 0.000000
# 3 -0.007677 -0.001056 0.012543 0.000000 0.004206 0.000000
# 4 0.000000 0.000000 0.000000 0.017099 0.000000 -0.004032
# 5 -0.000420 0.000525 0.004206 0.000000 0.033999 0.000000
# 6 0.000000 0.000000 0.000000 -0.004032 0.000000 0.029483
#
#
# Mechanical properties :
#
#
# Convention : Reuss Voigt Hill
#
# Bulk Modulus (GPa) = 30.43103 39.84168 35.13635
# Shear Modulus (GPa) = 29.07410 37.72831 33.40120
#
# Velocity S-wave (km/s) = 3.46135 3.94300 3.71000
# Velocity P-wave (km/s) = 5.33992 6.09490 5.72986
#
# Compressibility (1/GPa) = 0.03286119
#
# Stress axis : x y z
#
# Youngs Moduli (GPa) = 29.23620 100.98114 79.72556
#
# Poissons Ratio (x) = 0.31927 0.61205
# Poissons Ratio (y) = 0.09244 0.08417
# Poissons Ratio (z) = 0.22444 0.10662
#
# Static dielectric constant tensor:
#      x y z
#    x 1.971190 0.000000 0.028810 
#    y 0.000000 2.079130 0.000000 
#    z 0.028810 0.000000 1.936520 
# 
# From -- ./inp_files/7471.got.cif
#   From: 2010.05.17/outbox.cif.g08.bks.cpg/sg4_4_cif.got.tgz:7471.got - 2010.06.03 18:43:04.
