data_PCOD9118052
_publ_section_title
;
Structure prediction by ZEFSAII (Michael W. Deem and Ramdas Pophale) SiO2 
 PCOD9118052
Probable space group: P 21
;
_chemical_formula_sum "Si O2"
_cell_formula_units_Z 14
_cell_length_a 9.685729
_cell_length_b 9.584537
_cell_length_c 8.669791
_cell_angle_alpha 90.000000
_cell_angle_beta 130.504937
_cell_angle_gamma 90.000000
_cell_volume 611.963657
_symmetry_space_group_name_H-M "P 21"
_symmetry_group_IT_number 4
_symmetry_cell_setting 'monoclinic'
loop_
_space_group_symop_operation_xyz
x,y,z
-x,1/2+y,-z
loop_
_atom_site_type_symbol
_atom_site_label
_atom_site_fract_x
_atom_site_fract_y
_atom_site_fract_z
Si Si1 0.129124 0.117460 0.089804
Si Si2 0.265916 0.862490 0.392292
Si Si3 0.626127 0.864129 0.835229
Si Si4 0.852980 0.517408 0.244673
Si Si5 0.510746 0.182738 0.013691
Si Si6 0.257972 0.666986 0.116188
Si Si7 0.881444 0.228520 0.428499
O O1 0.286114 0.230861 0.181719
O O2 0.194322 0.991307 0.243062
O O3 0.090442 0.055344 0.889839
O O4 0.956626 0.197274 0.036730
O O5 0.435672 0.903002 0.620265
O O6 0.324318 0.738286 0.320506
O O7 0.120416 0.801794 0.405687
O O8 0.593862 0.813570 0.986564
O O9 0.744848 0.000084 0.899762
O O10 0.891573 0.357174 0.316637
O O11 0.962932 0.613608 0.446489
O O12 0.641030 0.562328 0.103777
O O13 0.684541 0.157520 0.252317
O O14 0.606373 0.212302 0.920631
#
# Coordination Sequence:
#
# PCOD9118052 Si02
#       7
#     2   2   2   2   2   2   2
#     4  11  24  44  71 103 143 181 233 293 360 414
#     4  11  23  44  67 102 140 177 234 289 348 421
#     4  10  24  44  69 100 138 185 235 285 351 430
#     4  11  25  48  71 102 143 189 238 294 358 438
#     4  10  24  44  70  97 139 188 232 289 352 421
#     4  12  23  43  70 102 139 183 229 296 356 406
#     4  11  25  45  70 106 138 185 245 288 353 434
#
# _framework density 22.877175000000001
#
# number of rings (size 3 to 8) (size 9 to 14) (size 15 to 20)
#    0.000    1.143    1.429    4.286    4.000    2.286 
#    2.571    0.000    0.000    0.000    0.000    0.000 
#    0.000    0.000    0.000    0.000    0.000    0.000 
#
# Total GULP energy -78257.629051 kJ/mol
# GULP energy per Si atom -5589.830647 kJ/mol
# Density = 2.282511 g / cm^3
# Si number density = 22.877175 Si / 1000 Ang^3
#
#
#
# Elastic Constant Matrix: (Units=GPa)
#
#
# Indices 1 2 3 4 5 6 
#
# 1 103.6207 22.2512 20.7890 0.0000 -9.3639 0.0000
# 2 22.2512 81.9345 38.1718 0.0000 5.4879 0.0000
# 3 20.7890 38.1718 69.3664 0.0000 -1.2664 0.0000
# 4 0.0000 0.0000 0.0000 45.5540 0.0000 1.7112
# 5 -9.3639 5.4879 -1.2664 0.0000 45.0635 0.0000
# 6 0.0000 0.0000 0.0000 1.7112 0.0000 28.0892
#
#
#
# Elastic Compliance Matrix: (Units=1/GPa)
#
#
# Indices 1 2 3 4 5 6 
#
# 1 0.010732 -0.002151 -0.001988 0.000000 0.002436 0.000000
# 2 -0.002151 0.017076 -0.008803 0.000000 -0.002774 0.000000
# 3 -0.001988 -0.008803 0.019878 0.000000 0.001218 0.000000
# 4 0.000000 0.000000 0.000000 0.022002 0.000000 -0.001340
# 5 0.002436 -0.002774 0.001218 0.000000 0.023069 0.000000
# 6 0.000000 0.000000 0.000000 -0.001340 0.000000 0.035683
#
#
# Mechanical properties :
#
#
# Convention : Reuss Voigt Hill
#
# Bulk Modulus (GPa) = 45.86765 46.37174 46.11970
# Shear Modulus (GPa) = 30.94238 35.32198 33.13218
#
# Velocity S-wave (km/s) = 3.68168 3.93362 3.80973
# Velocity P-wave (km/s) = 6.17787 6.39883 6.28932
#
# Compressibility (1/GPa) = 0.02180186
#
# Stress axis : x y z
#
# Youngs Moduli (GPa) = 93.18335 58.56200 50.30646
#
# Poissons Ratio (x) = 0.12599 0.10000
# Poissons Ratio (y) = 0.20048 0.44283
# Poissons Ratio (z) = 0.18523 0.51550
#
# Static dielectric constant tensor:
#      x y z
#    x 1.869160 0.000000 -0.009350 
#    y 0.000000 1.854330 0.000000 
#    z -0.009350 0.000000 1.882410 
# 
# From -- ./inp_files/5840.got.cif
#   From: 2010.05.17/outbox.cif.g08.bks.cpg/sg4_3_cif.got.tgz:5840.got - 2010.06.03 18:43:04.
