data_PCOD9118241
_publ_section_title
;
Structure prediction by ZEFSAII (Michael W. Deem and Ramdas Pophale) SiO2 
 PCOD9118241
Probable space group: P 21
;
_chemical_formula_sum "Si O2"
_cell_formula_units_Z 16
_cell_length_a 7.077217
_cell_length_b 17.825477
_cell_length_c 7.077194
_cell_angle_alpha 90.000000
_cell_angle_beta 41.847318
_cell_angle_gamma 90.000000
_cell_volume 595.644169
_symmetry_space_group_name_H-M "P 21"
_symmetry_group_IT_number 4
_symmetry_cell_setting 'monoclinic'
loop_
_space_group_symop_operation_xyz
x,y,z
-x,1/2+y,-z
loop_
_atom_site_type_symbol
_atom_site_label
_atom_site_fract_x
_atom_site_fract_y
_atom_site_fract_z
Si Si1 0.104109 0.038890 0.945630
Si Si2 0.384632 0.823108 0.870903
Si Si3 0.441422 0.791418 0.257665
Si Si4 0.054370 0.212573 0.895898
Si Si5 0.257659 0.960041 0.441429
Si Si6 0.505541 0.073171 0.975191
Si Si7 0.975188 0.678288 0.505537
Si Si8 0.129103 0.428354 0.615360
O O1 0.033737 0.125731 0.966267
O O2 0.171231 0.997301 0.701604
O O3 0.377143 0.037381 0.881140
O O4 0.862536 0.996831 0.245332
O O5 0.881142 0.714081 0.377138
O O6 0.604801 0.875732 0.604813
O O7 0.245332 0.754631 0.862531
O O8 0.118837 0.875730 0.118847
O O9 0.701602 0.754161 0.171228
O O10 0.373418 0.875729 0.373434
O O11 0.162103 0.739022 0.478000
O O12 0.503571 0.797148 0.985710
O O13 0.985706 0.954312 0.503579
O O14 0.478000 0.012435 0.162106
O O15 0.800502 0.113220 0.718143
O O16 0.281863 0.138239 0.199504
#
# Coordination Sequence:
#
# PCOD9118241 Si02
#       8
#     2   2   2   2   2   2   2   2
#     4  11  24  51  84 125 159 222 284 339 416 506
#     4  10  25  52  78 115 169 216 268 347 414 490
#     4  10  24  50  87 125 167 220 282 346 421 498
#     4  11  24  51  84 125 159 222 284 339 416 506
#     4  10  24  50  87 125 167 220 282 346 421 498
#     4  11  25  52  82 118 174 221 272 348 417 494
#     4  11  25  52  82 118 174 221 272 348 417 494
#     4  10  25  52  78 115 169 216 268 347 414 490
#
# _framework density 26.861675000000002
#
# number of rings (size 3 to 8) (size 9 to 14) (size 15 to 20)
#    0.000    1.500    2.500    0.000    0.000   14.000 
#   13.500    6.250    0.000    0.000    0.000    0.000 
#    0.000    0.000    0.000    0.000    0.000    0.000 
#
# Total GULP energy -90026.151314 kJ/mol
# GULP energy per Si atom -5626.634457 kJ/mol
# Density = 2.680054 g / cm^3
# Si number density = 26.861675 Si / 1000 Ang^3
#
#
#
# Elastic Constant Matrix: (Units=GPa)
#
#
# Indices 1 2 3 4 5 6 
#
# 1 202.1087 104.0748 72.5943 0.0000 10.7835 0.0000
# 2 104.0748 263.7494 87.2475 0.0000 3.0590 0.0000
# 3 72.5943 87.2475 148.7190 0.0000 -1.0700 0.0000
# 4 0.0000 0.0000 0.0000 55.9075 0.0000 -2.3931
# 5 10.7835 3.0590 -1.0700 0.0000 37.2778 0.0000
# 6 0.0000 0.0000 0.0000 -2.3931 0.0000 42.7644
#
#
#
# Elastic Compliance Matrix: (Units=1/GPa)
#
#
# Indices 1 2 3 4 5 6 
#
# 1 0.006846 -0.001948 -0.002213 0.000000 -0.001884 0.000000
# 2 -0.001948 0.005267 -0.002139 0.000000 0.000070 0.000000
# 3 -0.002213 -0.002139 0.009067 0.000000 0.001076 0.000000
# 4 0.000000 0.000000 0.000000 0.017930 0.000000 0.001003
# 5 -0.001884 0.000070 0.001076 0.000000 0.027396 0.000000
# 6 0.000000 0.000000 0.000000 0.001003 0.000000 0.023440
#
#
# Mechanical properties :
#
#
# Convention : Reuss Voigt Hill
#
# Bulk Modulus (GPa) = 116.53050 126.93446 121.73248
# Shear Modulus (GPa) = 47.43703 50.56730 49.00217
#
# Velocity S-wave (km/s) = 4.20691 4.34349 4.27575
# Velocity P-wave (km/s) = 8.18983 8.51540 8.35420
#
# Compressibility (1/GPa) = 0.00858144
#
# Stress axis : x y z
#
# Youngs Moduli (GPa) = 146.06960 189.87564 110.29591
#
# Poissons Ratio (x) = 0.36980 0.24406
# Poissons Ratio (y) = 0.28449 0.23587
# Poissons Ratio (z) = 0.32321 0.40605
#
# Static dielectric constant tensor:
#      x y z
#    x 2.110760 0.000000 0.000280 
#    y 0.000000 2.090660 0.000000 
#    z 0.000280 0.000000 2.109250 
# 
# From -- ./inp_files/12346.got.cif
#   From: 2010.05.17/outbox.cif.g08.bks.cpg/sg4_7_cif.got.tgz:12346.got - 2010.06.03 18:43:04.
