data_PCOD9118147
_publ_section_title
;
Structure prediction by ZEFSAII (Michael W. Deem and Ramdas Pophale) SiO2 
 PCOD9118147
Probable space group: P 21
;
_chemical_formula_sum "Si O2"
_cell_formula_units_Z 14
_cell_length_a 21.771355
_cell_length_b 6.138957
_cell_length_c 24.457460
_cell_angle_alpha 90.000000
_cell_angle_beta 10.285855
_cell_angle_gamma 90.000000
_cell_volume 583.678780
_symmetry_space_group_name_H-M "P 21"
_symmetry_group_IT_number 4
_symmetry_cell_setting 'monoclinic'
loop_
_space_group_symop_operation_xyz
x,y,z
-x,1/2+y,-z
loop_
_atom_site_type_symbol
_atom_site_label
_atom_site_fract_x
_atom_site_fract_y
_atom_site_fract_z
Si Si1 0.738792 0.966610 0.616565
Si Si2 0.221357 0.238636 0.131238
Si Si3 0.298920 0.729230 0.913841
Si Si4 0.870956 0.968301 0.200255
Si Si5 0.785969 0.465608 0.422282
Si Si6 0.355020 0.224757 0.710966
Si Si7 0.135969 0.874126 0.366524
O O1 0.589831 0.835123 0.696460
O O2 0.053296 0.860360 0.374389
O O3 0.898061 0.185903 0.452427
O O4 0.427166 0.023444 0.930561
O O5 0.074566 0.344142 0.204829
O O6 0.491497 0.370136 0.931577
O O7 0.466464 0.513735 0.741569
O O8 0.972129 0.682420 0.238011
O O9 0.168636 0.866781 0.976640
O O10 0.544322 0.006769 0.524757
O O11 0.765255 0.834552 0.239552
O O12 0.034083 0.185984 0.031705
O O13 0.641434 0.349242 0.495204
O O14 0.989871 0.629342 0.512294
#
# Coordination Sequence:
#
# PCOD9118147 Si02
#       7
#     2   2   2   2   2   2   2
#     4  11  24  43  67  97 134 177 225 279 340 406
#     4  11  24  43  67  97 134 177 225 279 340 406
#     4  12  24  41  65  95 130 171 219 272 336 406
#     4  12  24  42  64  91 126 166 216 272 336 406
#     4  12  24  41  65  95 130 171 219 272 336 406
#     4  12  24  42  64  91 126 166 216 272 336 406
#     4  10  24  46  72 104 142 186 236 292 354 422
#
# _framework density 23.985795
#
# number of rings (size 3 to 8) (size 9 to 14) (size 15 to 20)
#    0.000    0.571    0.000    8.571    0.000    8.000 
#    0.000    0.000    0.000    0.000    0.000    0.000 
#    0.000    0.000    0.000    0.000    0.000    0.000 
#
# Total GULP energy -78170.887475 kJ/mol
# GULP energy per Si atom -5583.634820 kJ/mol
# Density = 2.393120 g / cm^3
# Si number density = 23.985795 Si / 1000 Ang^3
#
#
#
# Elastic Constant Matrix: (Units=GPa)
#
#
# Indices 1 2 3 4 5 6 
#
# 1 183.8463 34.8250 45.6968 0.0000 -59.0990 0.0000
# 2 34.8250 59.8895 24.5718 0.0000 -24.4127 0.0000
# 3 45.6968 24.5718 99.4559 0.0000 -29.8727 0.0000
# 4 0.0000 0.0000 0.0000 41.9759 0.0000 -2.6735
# 5 -59.0990 -24.4127 -29.8727 0.0000 69.8112 0.0000
# 6 0.0000 0.0000 0.0000 -2.6735 0.0000 54.5451
#
#
#
# Elastic Compliance Matrix: (Units=1/GPa)
#
#
# Indices 1 2 3 4 5 6 
#
# 1 0.007898 -0.001744 -0.001575 0.000000 0.005402 0.000000
# 2 -0.001744 0.020772 -0.002975 0.000000 0.004515 0.000000
# 3 -0.001575 -0.002975 0.012393 0.000000 0.002929 0.000000
# 4 0.000000 0.000000 0.000000 0.023898 0.000000 0.001171
# 5 0.005402 0.004515 0.002929 0.000000 0.021730 0.000000
# 6 0.000000 0.000000 0.000000 0.001171 0.000000 0.018391
#
#
# Mechanical properties :
#
#
# Convention : Reuss Voigt Hill
#
# Bulk Modulus (GPa) = 35.11838 61.48655 48.30246
# Shear Modulus (GPa) = 39.32001 49.13965 44.22983
#
# Velocity S-wave (km/s) = 4.05322 4.53116 4.29884
# Velocity P-wave (km/s) = 6.04797 7.28461 6.69490
#
# Compressibility (1/GPa) = 0.02847512
#
# Stress axis : x y z
#
# Youngs Moduli (GPa) = 126.61831 48.14082 80.68858
#
# Poissons Ratio (x) = 0.08397 0.12711
# Poissons Ratio (y) = 0.22084 0.24002
# Poissons Ratio (z) = 0.19947 0.14320
#
# Static dielectric constant tensor:
#      x y z
#    x 1.926080 0.000000 -0.062380 
#    y 0.000000 1.941680 0.000000 
#    z -0.062380 0.000000 1.973090 
# 
# From -- ./inp_files/3940.got.cif
#   From: 2010.05.17/outbox.cif.g08.bks.cpg/sg4_2_cif.got.tgz:3940.got - 2010.06.03 18:43:04.
