data_PCOD9118416
_publ_section_title
;
Structure prediction by ZEFSAII (Michael W. Deem and Ramdas Pophale) SiO2 
 PCOD9118416
Probable space group: P 21
;
_chemical_formula_sum "Si O2"
_cell_formula_units_Z 10
_cell_length_a 14.094831
_cell_length_b 5.271398
_cell_length_c 14.870692
_cell_angle_alpha 90.000000
_cell_angle_beta 160.556078
_cell_angle_gamma 90.000000
_cell_volume 367.798456
_symmetry_space_group_name_H-M "P 21"
_symmetry_group_IT_number 4
_symmetry_cell_setting 'monoclinic'
loop_
_space_group_symop_operation_xyz
x,y,z
-x,1/2+y,-z
loop_
_atom_site_type_symbol
_atom_site_label
_atom_site_fract_x
_atom_site_fract_y
_atom_site_fract_z
Si Si1 0.912174 0.496030 0.626297
Si Si2 0.448362 0.166736 0.114702
Si Si3 0.104469 0.852814 0.937401
Si Si4 0.107876 0.728565 0.631558
Si Si5 0.484143 0.501824 0.539673
O O1 0.015447 0.723751 0.652564
O O2 0.622657 0.365341 0.334269
O O3 0.156550 0.294602 0.825522
O O4 0.962482 0.596568 0.771934
O O5 0.618089 0.110864 0.175035
O O6 0.358732 0.935288 0.097625
O O7 0.265915 0.880031 0.175974
O O8 0.823400 0.029404 0.686809
O O9 0.889604 0.514897 0.400215
O O10 0.569691 0.780174 0.582037
#
# Coordination Sequence:
#
# PCOD9118416 Si02
#       5
#     2   2   2   2   2
#     4  11  27  45  75 112 157 208 263 316 378 461
#     4  11  27  45  75 112 157 208 263 316 378 461
#     4  12  28  48  84 110 156 200 264 322 398 474
#     4  10  26  46  72 108 160 208 258 308 372 442
#     4  12  30  54  82 114 152 198 256 334 412 482
#
# _framework density 27.188803
#
# number of rings (size 3 to 8) (size 9 to 14) (size 15 to 20)
#    0.000    0.800    0.000    3.600   25.200    1.600 
#    0.000    0.000    0.000    0.000    0.000    0.000 
#    0.000    0.000    0.000    0.000    0.000    0.000 
#
# Total GULP energy -55903.955734 kJ/mol
# GULP energy per Si atom -5590.395573 kJ/mol
# Density = 2.712692 g / cm^3
# Si number density = 27.188803 Si / 1000 Ang^3
#
#
#
# Elastic Constant Matrix: (Units=GPa)
#
#
# Indices 1 2 3 4 5 6 
#
# 1 52.2654 21.1358 34.8420 0.0000 23.0956 0.0000
# 2 21.1358 112.6561 37.9217 0.0000 -12.9011 0.0000
# 3 34.8420 37.9217 120.1403 0.0000 -11.6712 0.0000
# 4 0.0000 0.0000 0.0000 36.4786 0.0000 7.5337
# 5 23.0956 -12.9011 -11.6712 0.0000 52.7205 0.0000
# 6 0.0000 0.0000 0.0000 7.5337 0.0000 43.8863
#
#
#
# Elastic Compliance Matrix: (Units=1/GPa)
#
#
# Indices 1 2 3 4 5 6 
#
# 1 0.037972 -0.005701 -0.011205 0.000000 -0.020510 0.000000
# 2 -0.005701 0.010953 -0.001330 0.000000 0.004883 0.000000
# 3 -0.011205 -0.001330 0.012712 0.000000 0.007397 0.000000
# 4 0.000000 0.000000 0.000000 0.028421 0.000000 -0.004879
# 5 -0.020510 0.004883 0.007397 0.000000 0.030786 0.000000
# 6 0.000000 0.000000 0.000000 -0.004879 0.000000 0.023624
#
#
# Mechanical properties :
#
#
# Convention : Reuss Voigt Hill
#
# Bulk Modulus (GPa) = 39.73810 52.54010 46.13910
# Shear Modulus (GPa) = 26.40950 39.36123 32.88537
#
# Velocity S-wave (km/s) = 3.12001 3.80899 3.48159
# Velocity P-wave (km/s) = 5.25610 6.22179 5.75922
#
# Compressibility (1/GPa) = 0.02516477
#
# Stress axis : x y z
#
# Youngs Moduli (GPa) = 26.33549 91.30004 78.66870
#
# Poissons Ratio (x) = 0.52049 0.88150
# Poissons Ratio (y) = 0.15014 0.10459
# Poissons Ratio (z) = 0.29509 0.12138
#
# Static dielectric constant tensor:
#      x y z
#    x 2.312010 0.000000 -0.077770 
#    y 0.000000 2.195060 0.000000 
#    z -0.077770 0.000000 2.132390 
# 
# From -- ./inp_files/2291.got.cif
#   From: 2010.05.17/outbox.cif.g08.bks.cpg/sg4_2_cif.got.tgz:2291.got - 2010.06.03 18:43:04.
