data_PCOD9118601
_publ_section_title
;
Structure prediction by ZEFSAII (Michael W. Deem and Ramdas Pophale) SiO2 
 PCOD9118601
Probable space group: P 21
;
_chemical_formula_sum "Si O2"
_cell_formula_units_Z 16
_cell_length_a 5.551777
_cell_length_b 8.977810
_cell_length_c 14.117285
_cell_angle_alpha 90.000000
_cell_angle_beta 70.939466
_cell_angle_gamma 90.000000
_cell_volume 665.067015
_symmetry_space_group_name_H-M "P 21"
_symmetry_group_IT_number 4
_symmetry_cell_setting 'monoclinic'
loop_
_space_group_symop_operation_xyz
x,y,z
-x,1/2+y,-z
loop_
_atom_site_type_symbol
_atom_site_label
_atom_site_fract_x
_atom_site_fract_y
_atom_site_fract_z
Si Si1 0.567739 0.895330 0.334536
Si Si2 0.086281 0.204756 0.616616
Si Si3 0.582522 0.536031 0.836143
Si Si4 0.924072 0.393022 0.475832
Si Si5 0.916369 0.171407 0.305476
Si Si6 0.791073 0.605313 0.074911
Si Si7 0.772250 0.236465 0.841943
Si Si8 0.159962 0.757423 0.896289
O O1 0.558862 0.934349 0.224966
O O2 0.312402 0.925092 0.424638
O O3 0.660778 0.731529 0.353417
O O4 0.776362 0.015839 0.341027
O O5 0.118092 0.311578 0.521549
O O6 0.869505 0.244113 0.720733
O O7 0.014855 0.045980 0.583697
O O8 0.717203 0.407546 0.879743
O O9 0.380270 0.647533 0.907510
O O10 0.789416 0.632995 0.752835
O O11 0.869462 0.276947 0.399530
O O12 0.819914 0.244000 0.219918
O O13 0.993926 0.668654 0.127411
O O14 0.493219 0.646996 0.122142
O O15 0.817979 0.427543 0.076914
O O16 0.898065 0.684821 0.966397
#
# Coordination Sequence:
#
# PCOD9118601 Si02
#       8
#     2   2   2   2   2   2   2   2
#     4  11  21  45  66 105 141 205 254 313 387 459
#     4  12  25  42  70 104 152 196 265 314 392 461
#     4  11  24  46  79 104 155 201 257 325 400 465
#     4  12  25  42  67 107 147 206 254 322 380 476
#     4  11  25  46  73 107 153 195 258 319 394 457
#     4  12  30  51  82 119 154 211 263 330 404 474
#     4  12  27  50  79 115 158 205 266 329 398 474
#     4  11  29  50  80 115 154 205 261 332 397 480
#
# _framework density 24.057727
#
# number of rings (size 3 to 8) (size 9 to 14) (size 15 to 20)
#    0.000    0.500    2.500    4.500    8.750    1.000 
#    2.250    0.000    0.000    0.000    0.000    0.000 
#    0.000    0.000    0.000    0.000    0.000    0.000 
#
# Total GULP energy -89516.641726 kJ/mol
# GULP energy per Si atom -5594.790108 kJ/mol
# Density = 2.400297 g / cm^3
# Si number density = 24.057727 Si / 1000 Ang^3
#
#
#
# Elastic Constant Matrix: (Units=GPa)
#
#
# Indices 1 2 3 4 5 6 
#
# 1 88.5070 31.1499 21.8738 0.0000 7.5164 0.0000
# 2 31.1499 121.1583 35.4463 0.0000 16.5132 0.0000
# 3 21.8738 35.4463 91.4653 0.0000 26.0104 0.0000
# 4 0.0000 0.0000 0.0000 36.8496 0.0000 -7.6797
# 5 7.5164 16.5132 26.0104 0.0000 39.6808 0.0000
# 6 0.0000 0.0000 0.0000 -7.6797 0.0000 36.7173
#
#
#
# Elastic Compliance Matrix: (Units=1/GPa)
#
#
# Indices 1 2 3 4 5 6 
#
# 1 0.012740 -0.002691 -0.002011 0.000000 0.000025 0.000000
# 2 -0.002691 0.009990 -0.002693 0.000000 -0.001883 0.000000
# 3 -0.002011 -0.002693 0.014787 0.000000 -0.008191 0.000000
# 4 0.000000 0.000000 0.000000 0.028374 0.000000 0.005935
# 5 0.000025 -0.001883 -0.008191 0.000000 0.031349 0.000000
# 6 0.000000 0.000000 0.000000 0.005935 0.000000 0.028476
#
#
# Mechanical properties :
#
#
# Convention : Reuss Voigt Hill
#
# Bulk Modulus (GPa) = 43.99770 53.11896 48.55833
# Shear Modulus (GPa) = 33.76515 36.82690 35.29603
#
# Velocity S-wave (km/s) = 3.75040 3.91675 3.83448
# Velocity P-wave (km/s) = 6.08951 6.52551 6.31128
#
# Compressibility (1/GPa) = 0.02272846
#
# Stress axis : x y z
#
# Youngs Moduli (GPa) = 78.49026 100.10265 67.62725
#
# Poissons Ratio (x) = 0.26933 0.13601
# Poissons Ratio (y) = 0.21118 0.18209
# Poissons Ratio (z) = 0.15786 0.26954
#
# Static dielectric constant tensor:
#      x y z
#    x 2.042250 0.000000 0.096680 
#    y 0.000000 1.903240 0.000000 
#    z 0.096680 0.000000 1.917920 
# 
# From -- ./inp_files/3403.got.cif
#   From: 2010.05.17/outbox.cif.g08.bks.cpg/sg4_2_cif.got.tgz:3403.got - 2010.06.03 18:43:04.
