data_PCOD9118715
_publ_section_title
;
Structure prediction by ZEFSAII (Michael W. Deem and Ramdas Pophale) SiO2 
 PCOD9118715
Probable space group: P 21
;
_chemical_formula_sum "Si O2"
_cell_formula_units_Z 16
_cell_length_a 6.596441
_cell_length_b 10.419369
_cell_length_c 15.187284
_cell_angle_alpha 90.000000
_cell_angle_beta 44.752679
_cell_angle_gamma 90.000000
_cell_volume 734.908789
_symmetry_space_group_name_H-M "P 21"
_symmetry_group_IT_number 4
_symmetry_cell_setting 'monoclinic'
loop_
_space_group_symop_operation_xyz
x,y,z
-x,1/2+y,-z
loop_
_atom_site_type_symbol
_atom_site_label
_atom_site_fract_x
_atom_site_fract_y
_atom_site_fract_z
Si Si1 0.756943 0.913210 0.677182
Si Si2 0.349045 0.198089 0.143122
Si Si3 0.292090 0.276032 0.960974
Si Si4 0.282052 0.707604 0.310526
Si Si5 0.380231 0.247333 0.435470
Si Si6 0.404295 0.828503 0.453992
Si Si7 0.209433 0.537086 0.729304
Si Si8 0.892478 0.035669 0.041181
O O1 0.683735 0.814082 0.777533
O O2 0.602962 0.868073 0.634684
O O3 0.097832 0.900056 0.551147
O O4 0.684739 0.058190 0.722152
O O5 0.609150 0.107060 0.092268
O O6 0.058370 0.113707 0.227304
O O7 0.384371 0.251426 0.032895
O O8 0.568734 0.290502 0.811967
O O9 0.088873 0.402359 0.018456
O O10 0.126209 0.150181 0.974882
O O11 0.421133 0.742907 0.361609
O O12 0.944840 0.730350 0.432076
O O13 0.570616 0.253034 0.463669
O O14 0.515083 0.129845 0.340158
O O15 0.669200 0.926433 0.369459
O O16 0.129079 0.489164 0.850987
#
# Coordination Sequence:
#
# PCOD9118715 Si02
#       8
#     2   2   2   2   2   2   2   2
#     4  11  24  41  67 103 140 177 222 279 338 407
#     4  11  26  43  75  97 137 182 226 280 344 401
#     4  11  28  48  71 101 133 186 232 281 345 399
#     4  11  26  43  65 103 140 175 226 279 338 408
#     4  11  24  40  68 100 139 176 216 280 337 403
#     4  11  24  42  66 102 139 177 222 273 343 405
#     4  11  22  44  68 101 133 178 222 271 343 399
#     4  11  26  49  70  97 141 179 234 289 330 408
#
# _framework density 21.771408999999998
#
# number of rings (size 3 to 8) (size 9 to 14) (size 15 to 20)
#    0.000    1.000    5.000    0.000    7.000    2.000 
#    0.000    0.000    0.000    0.000    0.000    0.000 
#    0.000    0.000    0.000    0.000    0.000    0.000 
#
# Total GULP energy -89400.599080 kJ/mol
# GULP energy per Si atom -5587.537442 kJ/mol
# Density = 2.172186 g / cm^3
# Si number density = 21.771409 Si / 1000 Ang^3
#
#
#
# Elastic Constant Matrix: (Units=GPa)
#
#
# Indices 1 2 3 4 5 6 
#
# 1 71.3605 14.1300 37.9049 0.0000 17.2753 0.0000
# 2 14.1300 82.9520 10.8620 0.0000 8.3159 0.0000
# 3 37.9049 10.8620 65.6243 0.0000 6.3623 0.0000
# 4 0.0000 0.0000 0.0000 33.9323 0.0000 2.0804
# 5 17.2753 8.3159 6.3623 0.0000 29.5033 0.0000
# 6 0.0000 0.0000 0.0000 2.0804 0.0000 18.2324
#
#
#
# Elastic Compliance Matrix: (Units=1/GPa)
#
#
# Indices 1 2 3 4 5 6 
#
# 1 0.023356 -0.001306 -0.012240 0.000000 -0.010668 0.000000
# 2 -0.001306 0.012679 -0.001095 0.000000 -0.002573 0.000000
# 3 -0.012240 -0.001095 0.022229 0.000000 0.002682 0.000000
# 4 0.000000 0.000000 0.000000 0.029678 0.000000 -0.003386
# 5 -0.010668 -0.002573 0.002682 0.000000 0.040288 0.000000
# 6 0.000000 0.000000 0.000000 -0.003386 0.000000 0.055234
#
#
# Mechanical properties :
#
#
# Convention : Reuss Voigt Hill
#
# Bulk Modulus (GPa) = 34.50367 38.41451 36.45909
# Shear Modulus (GPa) = 22.48121 26.80291 24.64206
#
# Velocity S-wave (km/s) = 3.21690 3.51252 3.36795
# Velocity P-wave (km/s) = 5.44798 5.84236 5.64861
#
# Compressibility (1/GPa) = 0.02898243
#
# Stress axis : x y z
#
# Youngs Moduli (GPa) = 42.81486 78.87102 44.98530
#
# Poissons Ratio (x) = 0.10303 0.55063
# Poissons Ratio (y) = 0.05593 0.04924
# Poissons Ratio (z) = 0.52407 0.08634
#
# Static dielectric constant tensor:
#      x y z
#    x 1.782630 0.000000 -0.029030 
#    y 0.000000 1.790250 0.000000 
#    z -0.029030 0.000000 1.793980 
# 
# From -- ./inp_files/2734.got.cif
#   From: 2010.05.17/outbox.cif.g08.bks.cpg/sg4_2_cif.got.tgz:2734.got - 2010.06.03 18:43:04.
