data_PCOD9118750
_publ_section_title
;
Structure prediction by ZEFSAII (Michael W. Deem and Ramdas Pophale) SiO2 
 PCOD9118750
Probable space group: P 21
;
_chemical_formula_sum "Si O2"
_cell_formula_units_Z 14
_cell_length_a 15.338981
_cell_length_b 5.232272
_cell_length_c 11.153951
_cell_angle_alpha 90.000000
_cell_angle_beta 144.141186
_cell_angle_gamma 90.000000
_cell_volume 524.393682
_symmetry_space_group_name_H-M "P 21"
_symmetry_group_IT_number 4
_symmetry_cell_setting 'monoclinic'
loop_
_space_group_symop_operation_xyz
x,y,z
-x,1/2+y,-z
loop_
_atom_site_type_symbol
_atom_site_label
_atom_site_fract_x
_atom_site_fract_y
_atom_site_fract_z
Si Si1 0.147816 0.885020 0.533552
Si Si2 0.864950 0.952623 0.676414
Si Si3 0.608341 0.192058 0.513150
Si Si4 0.396095 0.209266 0.886059
Si Si5 0.140826 0.101711 0.148832
Si Si6 0.812924 0.064916 0.193305
Si Si7 0.341578 0.457702 0.203339
O O1 0.129671 0.627375 0.434151
O O2 0.190987 0.784772 0.713678
O O3 0.282137 0.086782 0.659138
O O4 0.985390 0.006482 0.362381
O O5 0.696538 0.985560 0.534639
O O6 0.895900 0.661880 0.751081
O O7 0.988139 0.059022 0.908252
O O8 0.740503 0.379547 0.700868
O O9 0.466926 0.283528 0.282272
O O10 0.556458 0.095249 0.584752
O O11 0.279492 0.327002 0.853616
O O12 0.493675 0.466547 0.962650
O O13 0.223416 0.301605 0.150738
O O14 0.737753 0.128976 0.982876
#
# Coordination Sequence:
#
# PCOD9118750 Si02
#       7
#     2   2   2   2   2   2   2
#     4  12  27  51  77 118 159 217 277 341 412 500
#     4  11  25  43  74 105 149 196 261 324 397 475
#     4  11  24  44  71 105 146 197 253 325 394 469
#     4  12  28  54  79 118 169 214 276 337 409 488
#     4  11  22  46  69 106 142 196 254 320 396 467
#     4  12  27  49  83 115 162 216 276 339 413 502
#     4  11  25  45  73 109 147 196 259 326 401 473
#
# _framework density 26.697499000000001
#
# number of rings (size 3 to 8) (size 9 to 14) (size 15 to 20)
#    0.000    0.571    7.143    0.000    2.000    3.429 
#    2.571    0.000    0.000    0.000    0.000    0.000 
#    0.000    0.000    0.000    0.000    0.000    0.000 
#
# Total GULP energy -78137.579851 kJ/mol
# GULP energy per Si atom -5581.255704 kJ/mol
# Density = 2.663673 g / cm^3
# Si number density = 26.697499 Si / 1000 Ang^3
#
#
#
# Elastic Constant Matrix: (Units=GPa)
#
#
# Indices 1 2 3 4 5 6 
#
# 1 78.7115 16.5864 29.0777 0.0000 22.9698 0.0000
# 2 16.5864 79.3786 12.0263 0.0000 11.6220 0.0000
# 3 29.0777 12.0263 133.5554 0.0000 21.4103 0.0000
# 4 0.0000 0.0000 0.0000 22.9283 0.0000 7.0984
# 5 22.9698 11.6220 21.4103 0.0000 48.9519 0.0000
# 6 0.0000 0.0000 0.0000 7.0984 0.0000 40.5145
#
#
#
# Elastic Compliance Matrix: (Units=1/GPa)
#
#
# Indices 1 2 3 4 5 6 
#
# 1 0.015702 -0.002074 -0.002290 0.000000 -0.005874 0.000000
# 2 -0.002074 0.013392 -0.000431 0.000000 -0.002018 0.000000
# 3 -0.002290 -0.000431 0.008427 0.000000 -0.002509 0.000000
# 4 0.000000 0.000000 0.000000 0.046116 0.000000 -0.008080
# 5 -0.005874 -0.002018 -0.002509 0.000000 0.024761 0.000000
# 6 0.000000 0.000000 0.000000 -0.008080 0.000000 0.026098
#
#
# Mechanical properties :
#
#
# Convention : Reuss Voigt Hill
#
# Bulk Modulus (GPa) = 35.80288 45.22515 40.51402
# Shear Modulus (GPa) = 32.59541 38.07594 35.33568
#
# Velocity S-wave (km/s) = 3.49795 3.78060 3.64202
# Velocity P-wave (km/s) = 5.45471 6.00282 5.73532
#
# Compressibility (1/GPa) = 0.02793071
#
# Stress axis : x y z
#
# Youngs Moduli (GPa) = 63.68696 74.67181 118.66395
#
# Poissons Ratio (x) = 0.15487 0.27177
# Poissons Ratio (y) = 0.13209 0.05113
# Poissons Ratio (z) = 0.14586 0.03217
#
# Static dielectric constant tensor:
#      x y z
#    x 2.133590 0.000000 -0.045600 
#    y 0.000000 2.439500 0.000000 
#    z -0.045600 0.000000 2.023570 
# 
# From -- ./inp_files/10682.got.cif
#   From: 2010.05.17/outbox.cif.g08.bks.cpg/sg4_6_cif.got.tgz:10682.got - 2010.06.03 18:43:04.
