data_PCOD9118871
_publ_section_title
;
Structure prediction by ZEFSAII (Michael W. Deem and Ramdas Pophale) SiO2 
 PCOD9118871
Probable space group: P 21
;
_chemical_formula_sum "Si O2"
_cell_formula_units_Z 10
_cell_length_a 14.198777
_cell_length_b 5.107277
_cell_length_c 5.333138
_cell_angle_alpha 90.000000
_cell_angle_beta 64.230281
_cell_angle_gamma 90.000000
_cell_volume 348.281463
_symmetry_space_group_name_H-M "P 21"
_symmetry_group_IT_number 4
_symmetry_cell_setting 'monoclinic'
loop_
_space_group_symop_operation_xyz
x,y,z
-x,1/2+y,-z
loop_
_atom_site_type_symbol
_atom_site_label
_atom_site_fract_x
_atom_site_fract_y
_atom_site_fract_z
Si Si1 0.157979 0.215040 0.424369
Si Si2 0.633960 0.731352 0.550596
Si Si3 0.043501 0.893744 0.918918
Si Si4 0.216457 0.699658 0.058209
Si Si5 0.585275 0.435099 0.111696
O O1 0.249192 0.313622 0.510326
O O2 0.055327 0.129456 0.695168
O O3 0.161943 0.434615 0.208628
O O4 0.193911 0.936221 0.274868
O O5 0.632274 0.619490 0.273895
O O6 0.537280 0.927503 0.689595
O O7 0.600746 0.525974 0.808724
O O8 0.996542 0.122058 0.158313
O O9 0.157830 0.806180 0.881445
O O10 0.342441 0.679239 0.920628
#
# Coordination Sequence:
#
# PCOD9118871 Si02
#       5
#     2   2   2   2   2
#     4  11  25  47  74 110 155 201 260 328 399 480
#     4  11  23  43  70 114 159 209 263 320 394 482
#     4  12  26  48  76 112 150 202 272 338 408 478
#     4  11  25  47  74 110 155 201 260 328 399 480
#     4  11  23  43  70 114 159 209 263 320 394 482
#
# _framework density 28.712409999999998
#
# number of rings (size 3 to 8) (size 9 to 14) (size 15 to 20)
#    0.000    0.800    2.000    4.800    0.000    6.400 
#    3.600    0.000    0.000    0.000    0.000    0.000 
#    0.000    0.000    0.000    0.000    0.000    0.000 
#
# Total GULP energy -55923.053770 kJ/mol
# GULP energy per Si atom -5592.305377 kJ/mol
# Density = 2.864706 g / cm^3
# Si number density = 28.712410 Si / 1000 Ang^3
#
#
#
# Elastic Constant Matrix: (Units=GPa)
#
#
# Indices 1 2 3 4 5 6 
#
# 1 133.5248 42.4459 10.8817 0.0000 5.4952 0.0000
# 2 42.4459 219.2347 80.2520 0.0000 -11.2995 0.0000
# 3 10.8817 80.2520 157.6423 0.0000 -40.8152 0.0000
# 4 0.0000 0.0000 0.0000 37.2248 0.0000 -0.7499
# 5 5.4952 -11.2995 -40.8152 0.0000 66.0226 0.0000
# 6 0.0000 0.0000 0.0000 -0.7499 0.0000 27.2473
#
#
#
# Elastic Compliance Matrix: (Units=1/GPa)
#
#
# Indices 1 2 3 4 5 6 
#
# 1 0.008038 -0.001614 0.000026 0.000000 -0.000929 0.000000
# 2 -0.001614 0.005981 -0.003136 0.000000 -0.000780 0.000000
# 3 0.000026 -0.003136 0.009285 0.000000 0.005201 0.000000
# 4 0.000000 0.000000 0.000000 0.026879 0.000000 0.000740
# 5 -0.000929 -0.000780 0.005201 0.000000 0.018305 0.000000
# 6 0.000000 0.000000 0.000000 0.000740 0.000000 0.036721
#
#
# Mechanical properties :
#
#
# Convention : Reuss Voigt Hill
#
# Bulk Modulus (GPa) = 72.16239 86.39567 79.27903
# Shear Modulus (GPa) = 41.91986 51.22041 46.57014
#
# Velocity S-wave (km/s) = 3.82513 4.22822 4.03172
# Velocity P-wave (km/s) = 6.68552 7.34796 7.02455
#
# Compressibility (1/GPa) = 0.01385763
#
# Stress axis : x y z
#
# Youngs Moduli (GPa) = 124.40380 167.18634 107.70621
#
# Poissons Ratio (x) = 0.26979 -0.00281
# Poissons Ratio (y) = 0.20075 0.33773
# Poissons Ratio (z) = -0.00325 0.52424
#
# Static dielectric constant tensor:
#      x y z
#    x 2.498560 0.000000 -0.483130 
#    y 0.000000 1.956970 0.000000 
#    z -0.483130 0.000000 3.140930 
# 
# From -- ./inp_files/3271.got.cif
#   From: 2010.05.17/outbox.cif.g08.bks.cpg/sg4_2_cif.got.tgz:3271.got - 2010.06.03 18:43:04.
