data_PCOD9118677
_publ_section_title
;
Structure prediction by ZEFSAII (Michael W. Deem and Ramdas Pophale) SiO2 
 PCOD9118677
Probable space group: P 21
;
_chemical_formula_sum "Si O2"
_cell_formula_units_Z 16
_cell_length_a 9.001271
_cell_length_b 6.309284
_cell_length_c 18.690542
_cell_angle_alpha 90.000000
_cell_angle_beta 44.026453
_cell_angle_gamma 90.000000
_cell_volume 737.708217
_symmetry_space_group_name_H-M "P 21"
_symmetry_group_IT_number 4
_symmetry_cell_setting 'monoclinic'
loop_
_space_group_symop_operation_xyz
x,y,z
-x,1/2+y,-z
loop_
_atom_site_type_symbol
_atom_site_label
_atom_site_fract_x
_atom_site_fract_y
_atom_site_fract_z
Si Si1 0.679806 0.090070 0.249721
Si Si2 0.041698 0.754576 0.137351
Si Si3 0.683142 0.490353 0.858516
Si Si4 0.051848 0.847672 0.737000
Si Si5 0.399701 0.609741 0.221663
Si Si6 0.015164 0.290107 0.388752
Si Si7 0.244201 0.929633 0.383766
Si Si8 0.298710 0.741207 0.919981
O O1 0.775102 0.269560 0.266960
O O2 0.426995 0.083345 0.349610
O O3 0.714699 0.139280 0.153906
O O4 0.823224 0.886206 0.220848
O O5 0.249985 0.895334 0.087826
O O6 0.036450 0.556779 0.193269
O O7 0.081884 0.715238 0.039792
O O8 0.671042 0.281168 0.812939
O O9 0.469729 0.611674 0.909250
O O10 0.867692 0.669266 0.789740
O O11 0.135616 0.849455 0.626323
O O12 0.220328 0.434128 0.299827
O O13 0.608298 0.478221 0.126162
O O14 0.390297 0.748468 0.296938
O O15 0.102653 0.052639 0.373502
O O16 0.904796 0.351994 0.501274
#
# Coordination Sequence:
#
# PCOD9118677 Si02
#       8
#     2   2   2   2   2   2   2   2
#     4  11  27  46  62 100 149 187 234 280 356 441
#     4  11  28  42  69 100 143 193 228 297 358 421
#     4  11  22  42  69 100 137 175 240 292 354 402
#     4  11  24  47  65  98 149 181 232 291 356 424
#     4  12  21  42  72  99 144 173 232 313 341 413
#     4  12  23  44  75 108 132 183 240 302 350 426
#     4  12  25  45  74 106 135 185 241 292 365 418
#     4  12  26  42  72 101 139 187 247 285 354 423
#
# _framework density 21.688791999999999
#
# number of rings (size 3 to 8) (size 9 to 14) (size 15 to 20)
#    0.000    0.500    7.500    0.000    7.000    1.000 
#    2.250    0.000    0.000    0.000    0.000    0.000 
#    0.000    0.000    0.000    0.000    0.000    0.000 
#
# Total GULP energy -89180.406909 kJ/mol
# GULP energy per Si atom -5573.775432 kJ/mol
# Density = 2.163943 g / cm^3
# Si number density = 21.688792 Si / 1000 Ang^3
#
#
#
# Elastic Constant Matrix: (Units=GPa)
#
#
# Indices 1 2 3 4 5 6 
#
# 1 82.6984 17.6771 14.6989 0.0000 11.5986 0.0000
# 2 17.6771 94.3832 38.7528 0.0000 13.7835 0.0000
# 3 14.6989 38.7528 74.2869 0.0000 14.9088 0.0000
# 4 0.0000 0.0000 0.0000 31.0678 0.0000 4.8739
# 5 11.5986 13.7835 14.9088 0.0000 17.8458 0.0000
# 6 0.0000 0.0000 0.0000 4.8739 0.0000 35.4981
#
#
#
# Elastic Compliance Matrix: (Units=1/GPa)
#
#
# Indices 1 2 3 4 5 6 
#
# 1 0.013484 -0.001224 -0.000553 0.000000 -0.007356 0.000000
# 2 -0.001224 0.014051 -0.006090 0.000000 -0.004969 0.000000
# 3 -0.000553 -0.006090 0.018901 0.000000 -0.010727 0.000000
# 4 0.000000 0.000000 0.000000 0.032896 0.000000 -0.004517
# 5 -0.007356 -0.004969 -0.010727 0.000000 0.073615 0.000000
# 6 0.000000 0.000000 0.000000 -0.004517 0.000000 0.028791
#
#
# Mechanical properties :
#
#
# Convention : Reuss Voigt Hill
#
# Bulk Modulus (GPa) = 32.57328 43.73622 38.15475
# Shear Modulus (GPa) = 24.07255 28.89833 26.48544
#
# Velocity S-wave (km/s) = 3.33514 3.65418 3.49830
# Velocity P-wave (km/s) = 5.46644 6.16548 5.82645
#
# Compressibility (1/GPa) = 0.03070001
#
# Stress axis : x y z
#
# Youngs Moduli (GPa) = 74.16308 71.17146 52.90834
#
# Poissons Ratio (x) = 0.08711 0.02927
# Poissons Ratio (y) = 0.09077 0.32223
# Poissons Ratio (z) = 0.04103 0.43346
#
# Static dielectric constant tensor:
#      x y z
#    x 1.824170 0.000000 0.052350 
#    y 0.000000 1.873080 0.000000 
#    z 0.052350 0.000000 1.830240 
# 
# From -- ./inp_files/14830.got.cif
#   From: 2010.05.17/outbox.cif.g08.bks.cpg/sg4_8_cif.got.tgz:14830.got - 2010.06.03 18:43:04.
