data_PCOD9118682
_publ_section_title
;
Structure prediction by ZEFSAII (Michael W. Deem and Ramdas Pophale) SiO2 
 PCOD9118682
Probable space group: P 21
;
_chemical_formula_sum "Si O2"
_cell_formula_units_Z 16
_cell_length_a 27.690154
_cell_length_b 5.806719
_cell_length_c 9.658487
_cell_angle_alpha 90.000000
_cell_angle_beta 153.863901
_cell_angle_gamma 90.000000
_cell_volume 684.094354
_symmetry_space_group_name_H-M "P 21"
_symmetry_group_IT_number 4
_symmetry_cell_setting 'monoclinic'
loop_
_space_group_symop_operation_xyz
x,y,z
-x,1/2+y,-z
loop_
_atom_site_type_symbol
_atom_site_label
_atom_site_fract_x
_atom_site_fract_y
_atom_site_fract_z
Si Si1 0.760110 0.259920 0.566851
Si Si2 0.146721 0.063863 0.427886
Si Si3 0.841820 0.935776 0.003666
Si Si4 0.634863 0.656090 0.401750
Si Si5 0.559423 0.963963 0.669131
Si Si6 0.194941 0.437553 0.767008
Si Si7 0.009403 0.251557 0.829725
Si Si8 0.556858 0.938946 0.968057
O O1 0.799912 0.350079 0.518808
O O2 0.709576 0.471244 0.519557
O O3 0.841971 0.145908 0.891250
O O4 0.659386 0.092612 0.275571
O O5 0.207191 0.208811 0.702346
O O6 0.042280 0.983865 0.245858
O O7 0.104237 0.202383 0.185138
O O8 0.718217 0.844536 0.668404
O O9 0.849113 0.941462 0.187938
O O10 0.934479 0.772026 0.175451
O O11 0.560075 0.559886 0.329413
O O12 0.551798 0.741528 0.069731
O O13 0.495641 0.726259 0.451103
O O14 0.582012 0.865104 0.880173
O O15 0.677504 0.019287 0.901925
O O16 0.094628 0.579030 0.437382
#
# Coordination Sequence:
#
# PCOD9118682 Si02
#       8
#     2   2   2   2   2   2   2   2
#     4  11  24  43  73 106 153 195 265 323 396 483
#     4  12  25  47  76 109 146 202 261 320 391 489
#     4  11  28  46  71 110 151 201 255 330 407 478
#     4  11  22  42  72 105 147 195 263 322 399 475
#     4  12  31  52  80 115 167 214 268 331 410 496
#     4  12  30  50  77 112 160 206 261 334 411 477
#     4  12  26  46  77 106 147 198 258 321 396 484
#     4  11  24  42  74 109 145 207 265 331 396 478
#
# _framework density 23.388586
#
# number of rings (size 3 to 8) (size 9 to 14) (size 15 to 20)
#    0.000    0.500    3.750    3.000   10.500    1.000 
#    0.000    0.000    0.000    0.000    0.000    0.000 
#    0.000    0.000    0.000    0.000    0.000    0.000 
#
# Total GULP energy -89077.973392 kJ/mol
# GULP energy per Si atom -5567.373337 kJ/mol
# Density = 2.333535 g / cm^3
# Si number density = 23.388586 Si / 1000 Ang^3
#
#
#
# Elastic Constant Matrix: (Units=GPa)
#
#
# Indices 1 2 3 4 5 6 
#
# 1 170.1882 21.3760 28.0557 0.0000 5.9092 0.0000
# 2 21.3760 43.2357 15.4092 0.0000 3.1950 0.0000
# 3 28.0557 15.4092 43.1811 0.0000 0.5338 0.0000
# 4 0.0000 0.0000 0.0000 29.0703 0.0000 2.6212
# 5 5.9092 3.1950 0.5338 0.0000 45.4556 0.0000
# 6 0.0000 0.0000 0.0000 2.6212 0.0000 26.4716
#
#
#
# Elastic Compliance Matrix: (Units=1/GPa)
#
#
# Indices 1 2 3 4 5 6 
#
# 1 0.006754 -0.001979 -0.003674 0.000000 -0.000696 0.000000
# 2 -0.001979 0.027219 -0.008408 0.000000 -0.001557 0.000000
# 3 -0.003674 -0.008408 0.028537 0.000000 0.000733 0.000000
# 4 0.000000 0.000000 0.000000 0.034709 0.000000 -0.003437
# 5 -0.000696 -0.001557 0.000733 0.000000 0.022191 0.000000
# 6 0.000000 0.000000 0.000000 -0.003437 0.000000 0.038117
#
#
# Mechanical properties :
#
#
# Convention : Reuss Voigt Hill
#
# Bulk Modulus (GPa) = 29.07938 42.92075 36.00006
# Shear Modulus (GPa) = 25.36651 32.98380 29.17516
#
# Velocity S-wave (km/s) = 3.29685 3.75941 3.53570
# Velocity P-wave (km/s) = 5.19157 6.10206 5.66514
#
# Compressibility (1/GPa) = 0.03438863
#
# Stress axis : x y z
#
# Youngs Moduli (GPa) = 148.05775 36.73897 35.04281
#
# Poissons Ratio (x) = 0.07269 0.12873
# Poissons Ratio (y) = 0.29294 0.29465
# Poissons Ratio (z) = 0.54391 0.30891
#
# Static dielectric constant tensor:
#      x y z
#    x 1.861800 0.000000 0.010950 
#    y 0.000000 2.086880 0.000000 
#    z 0.010950 0.000000 2.163130 
# 
# From -- ./inp_files/9470.got.cif
#   From: 2010.05.17/outbox.cif.g08.bks.cpg/sg4_5_cif.got.tgz:9470.got - 2010.06.03 18:43:04.
