data_PCOD9118769
_publ_section_title
;
Structure prediction by ZEFSAII (Michael W. Deem and Ramdas Pophale) SiO2 
 PCOD9118769
Probable space group: P 21
;
_chemical_formula_sum "Si O2"
_cell_formula_units_Z 14
_cell_length_a 7.479889
_cell_length_b 7.012467
_cell_length_c 15.468784
_cell_angle_alpha 90.000000
_cell_angle_beta 43.174213
_cell_angle_gamma 90.000000
_cell_volume 555.158837
_symmetry_space_group_name_H-M "P 21"
_symmetry_group_IT_number 4
_symmetry_cell_setting 'monoclinic'
loop_
_space_group_symop_operation_xyz
x,y,z
-x,1/2+y,-z
loop_
_atom_site_type_symbol
_atom_site_label
_atom_site_fract_x
_atom_site_fract_y
_atom_site_fract_z
Si Si1 0.188527 0.867660 0.582250
Si Si2 0.527179 0.033763 0.616420
Si Si3 0.272795 0.486454 0.004087
Si Si4 0.023738 0.266458 0.803290
Si Si5 0.844016 0.539165 0.736600
Si Si6 0.924460 0.115149 0.110827
Si Si7 0.660054 0.641744 0.618317
O O1 0.388265 0.919101 0.587743
O O2 0.290267 0.694873 0.486917
O O3 0.942004 0.758034 0.711867
O O4 0.205395 0.051370 0.513576
O O5 0.679864 0.872612 0.616305
O O6 0.287173 0.156067 0.739988
O O7 0.193647 0.604186 0.116801
O O8 0.120339 0.287512 0.057106
O O9 0.579982 0.489549 0.880785
O O10 0.159031 0.592126 0.958562
O O11 0.947814 0.423702 0.899727
O O12 0.043200 0.382834 0.706402
O O13 0.771581 0.529282 0.661449
O O14 0.655174 0.121448 0.261761
#
# Coordination Sequence:
#
# PCOD9118769 Si02
#       7
#     2   2   2   2   2   2   2
#     4  12  25  46  72 106 147 194 252 313 374 462
#     4  12  24  45  77 104 139 204 262 305 371 459
#     4  11  25  46  74 106 151 193 254 322 377 463
#     4  12  25  45  74 108 147 198 252 318 378 462
#     4  11  30  46  68 114 157 195 242 318 406 450
#     4  11  22  47  73 107 136 196 261 308 372 454
#     4  11  25  47  72 107 147 194 249 314 376 454
#
# _framework density 25.218007
#
# number of rings (size 3 to 8) (size 9 to 14) (size 15 to 20)
#    0.000    0.571    5.714    1.714    4.000    0.000 
#    0.000    0.000    0.000    0.000    0.000    0.000 
#    0.000    0.000    0.000    0.000    0.000    0.000 
#
# Total GULP energy -78261.576515 kJ/mol
# GULP energy per Si atom -5590.112608 kJ/mol
# Density = 2.516061 g / cm^3
# Si number density = 25.218007 Si / 1000 Ang^3
#
#
#
# Elastic Constant Matrix: (Units=GPa)
#
#
# Indices 1 2 3 4 5 6 
#
# 1 67.7250 31.9917 29.8195 0.0000 6.5843 0.0000
# 2 31.9917 175.4697 57.3294 0.0000 0.7494 0.0000
# 3 29.8195 57.3294 78.5598 0.0000 -18.3164 0.0000
# 4 0.0000 0.0000 0.0000 52.6643 0.0000 5.1459
# 5 6.5843 0.7494 -18.3164 0.0000 42.1049 0.0000
# 6 0.0000 0.0000 0.0000 5.1459 0.0000 32.6717
#
#
#
# Elastic Compliance Matrix: (Units=1/GPa)
#
#
# Indices 1 2 3 4 5 6 
#
# 1 0.019473 -0.000786 -0.008374 0.000000 -0.006674 0.000000
# 2 -0.000786 0.007822 -0.006025 0.000000 -0.002637 0.000000
# 3 -0.008374 -0.006025 0.022964 0.000000 0.011406 0.000000
# 4 0.000000 0.000000 0.000000 0.019285 0.000000 -0.003037
# 5 -0.006674 -0.002637 0.011406 0.000000 0.029803 0.000000
# 6 0.000000 0.000000 0.000000 -0.003037 0.000000 0.031086
#
#
# Mechanical properties :
#
#
# Convention : Reuss Voigt Hill
#
# Bulk Modulus (GPa) = 50.27811 62.22619 56.25215
# Shear Modulus (GPa) = 29.86310 38.99577 34.42944
#
# Velocity S-wave (km/s) = 3.44495 3.93663 3.69897
# Velocity P-wave (km/s) = 5.98366 6.73733 6.37165
#
# Compressibility (1/GPa) = 0.01988937
#
# Stress axis : x y z
#
# Youngs Moduli (GPa) = 51.35388 127.84613 43.54703
#
# Poissons Ratio (x) = 0.10046 0.36466
# Poissons Ratio (y) = 0.04036 0.26236
# Poissons Ratio (z) = 0.43004 0.77023
#
# Static dielectric constant tensor:
#      x y z
#    x 1.996660 0.000000 -0.037270 
#    y 0.000000 2.032780 0.000000 
#    z -0.037270 0.000000 2.100870 
# 
# From -- ./inp_files/10680.got.cif
#   From: 2010.05.17/outbox.cif.g08.bks.cpg/sg4_6_cif.got.tgz:10680.got - 2010.06.03 18:43:04.
