data_PCOD9118799
_publ_section_title
;
Structure prediction by ZEFSAII (Michael W. Deem and Ramdas Pophale) SiO2 
 PCOD9118799
Probable space group: P 21
;
_chemical_formula_sum "Si O2"
_cell_formula_units_Z 12
_cell_length_a 9.921900
_cell_length_b 8.162095
_cell_length_c 14.442715
_cell_angle_alpha 90.000000
_cell_angle_beta 29.645854
_cell_angle_gamma 90.000000
_cell_volume 578.538720
_symmetry_space_group_name_H-M "P 21"
_symmetry_group_IT_number 4
_symmetry_cell_setting 'monoclinic'
loop_
_space_group_symop_operation_xyz
x,y,z
-x,1/2+y,-z
loop_
_atom_site_type_symbol
_atom_site_label
_atom_site_fract_x
_atom_site_fract_y
_atom_site_fract_z
Si Si1 0.821019 0.297720 0.579793
Si Si2 0.182373 0.669297 0.615812
Si Si3 0.268912 0.163307 0.440470
Si Si4 0.113360 0.645404 0.980844
Si Si5 0.254970 0.303018 0.647283
Si Si6 0.206877 0.276895 0.996076
O O1 0.863635 0.180355 0.465965
O O2 0.798368 0.479587 0.551554
O O3 0.531221 0.259210 0.800139
O O4 0.064115 0.278355 0.506561
O O5 0.232669 0.486271 0.622388
O O6 0.454514 0.771721 0.477736
O O7 0.930598 0.741408 0.823825
O O8 0.582482 0.198887 0.227910
O O9 0.234404 0.186544 0.570272
O O10 0.131645 0.460367 0.007520
O O11 0.975355 0.757470 0.141217
O O12 0.928416 0.658633 0.999804
#
# Coordination Sequence:
#
# PCOD9118799 Si02
#       6
#     2   2   2   2   2   2
#     4  11  25  44  66  95 131 170 213 265 324 382
#     4  12  24  40  66  96 129 169 215 266 319 381
#     4  11  25  44  66  95 131 170 213 265 324 382
#     4  11  23  40  66  96 128 168 216 264 318 380
#     4  12  24  40  66  96 129 169 215 266 319 381
#     4  11  23  40  66  96 128 168 216 264 318 380
#
# _framework density 20.741911999999999
#
# number of rings (size 3 to 8) (size 9 to 14) (size 15 to 20)
#    0.000    0.667    3.333    5.000    0.000    5.333 
#    0.000    0.000    0.000    0.000    0.000    0.000 
#    0.000    0.000    0.000    0.000    0.000    0.000 
#
# Total GULP energy -67210.456416 kJ/mol
# GULP energy per Si atom -5600.871368 kJ/mol
# Density = 2.069470 g / cm^3
# Si number density = 20.741912 Si / 1000 Ang^3
#
#
#
# Elastic Constant Matrix: (Units=GPa)
#
#
# Indices 1 2 3 4 5 6 
#
# 1 68.9001 -8.9933 10.9209 0.0000 1.8828 0.0000
# 2 -8.9933 49.2848 24.8283 0.0000 3.3576 0.0000
# 3 10.9209 24.8283 85.8284 0.0000 7.5463 0.0000
# 4 0.0000 0.0000 0.0000 10.2381 0.0000 2.6542
# 5 1.8828 3.3576 7.5463 0.0000 17.3851 0.0000
# 6 0.0000 0.0000 0.0000 2.6542 0.0000 35.1548
#
#
#
# Elastic Compliance Matrix: (Units=1/GPa)
#
#
# Indices 1 2 3 4 5 6 
#
# 1 0.015648 0.004550 -0.003203 0.000000 -0.001183 0.000000
# 2 0.004550 0.025121 -0.007669 0.000000 -0.002016 0.000000
# 3 -0.003203 -0.007669 0.014676 0.000000 -0.004543 0.000000
# 4 0.000000 0.000000 0.000000 0.099624 0.000000 -0.007522
# 5 -0.001183 -0.002016 -0.004543 0.000000 0.060010 0.000000
# 6 0.000000 0.000000 0.000000 -0.007522 0.000000 0.029014
#
#
# Mechanical properties :
#
#
# Convention : Reuss Voigt Hill
#
# Bulk Modulus (GPa) = 23.36410 28.61390 25.98900
# Shear Modulus (GPa) = 18.44991 24.37276 21.41134
#
# Velocity S-wave (km/s) = 2.98568 3.43162 3.21639
# Velocity P-wave (km/s) = 4.81398 5.43383 5.13327
#
# Compressibility (1/GPa) = 0.04280071
#
# Stress axis : x y z
#
# Youngs Moduli (GPa) = 63.90750 39.80739 68.13615
#
# Poissons Ratio (x) = -0.18110 0.21825
# Poissons Ratio (y) = -0.29075 0.52251
# Poissons Ratio (z) = 0.20470 0.30527
#
# Static dielectric constant tensor:
#      x y z
#    x 1.735230 0.000000 0.010120 
#    y 0.000000 1.768460 0.000000 
#    z 0.010120 0.000000 1.699950 
# 
# From -- ./inp_files/5832.got.cif
#   From: 2010.05.17/outbox.cif.g08.bks.cpg/sg4_3_cif.got.tgz:5832.got - 2010.06.03 18:43:04.
