data_PCOD9118875
_publ_section_title
;
Structure prediction by ZEFSAII (Michael W. Deem and Ramdas Pophale) SiO2 
 PCOD9118875
Probable space group: P 21
;
_chemical_formula_sum "Si O2"
_cell_formula_units_Z 16
_cell_length_a 12.930895
_cell_length_b 8.435011
_cell_length_c 11.974115
_cell_angle_alpha 90.000000
_cell_angle_beta 149.232570
_cell_angle_gamma 90.000000
_cell_volume 668.112466
_symmetry_space_group_name_H-M "P 21"
_symmetry_group_IT_number 4
_symmetry_cell_setting 'monoclinic'
loop_
_space_group_symop_operation_xyz
x,y,z
-x,1/2+y,-z
loop_
_atom_site_type_symbol
_atom_site_label
_atom_site_fract_x
_atom_site_fract_y
_atom_site_fract_z
Si Si1 0.061840 0.212820 0.703067
Si Si2 0.117632 0.365383 0.969490
Si Si3 0.211248 0.065584 0.210162
Si Si4 0.237796 0.437487 0.535748
Si Si5 0.415464 0.015758 0.967092
Si Si6 0.603377 0.056750 0.906696
Si Si7 0.912635 0.242023 0.316274
Si Si8 0.496786 0.798294 0.378804
O O1 0.007318 0.329627 0.750991
O O2 0.299121 0.171875 0.905040
O O3 0.978582 0.248225 0.504826
O O4 0.946787 0.056043 0.633811
O O5 0.990497 0.500289 0.915053
O O6 0.142629 0.198554 0.056604
O O7 0.337602 0.425493 0.130620
O O8 0.378869 0.167530 0.435391
O O9 0.317069 0.901764 0.265621
O O10 0.350219 0.433373 0.523232
O O11 0.118743 0.273153 0.441264
O O12 0.384768 0.483741 0.774422
O O13 0.448014 0.026483 0.863553
O O14 0.265228 0.871801 0.852654
O O15 0.564676 0.209299 0.792918
O O16 0.803850 0.089317 0.167004
#
# Coordination Sequence:
#
# PCOD9118875 Si02
#       8
#     2   2   2   2   2   2   2   2
#     4  11  26  41  73 107 153 196 244 300 386 460
#     4  12  29  49  76 107 152 205 262 330 390 452
#     4  12  30  52  77 107 149 200 283 332 386 447
#     4  11  23  43  72 103 148 195 240 305 382 451
#     4  11  24  44  69 114 156 196 244 303 376 497
#     4  12  25  45  77 111 156 199 249 311 398 470
#     4  11  24  41  69 112 153 192 244 299 380 482
#     4  12  27  49  79 105 145 201 262 328 386 449
#
# _framework density 23.948065
#
# number of rings (size 3 to 8) (size 9 to 14) (size 15 to 20)
#    0.000    0.500    2.500    4.500   10.500    1.000 
#    0.000    0.000    0.000    0.000    0.000    0.000 
#    0.000    0.000    0.000    0.000    0.000    0.000 
#
# Total GULP energy -89325.471689 kJ/mol
# GULP energy per Si atom -5582.841981 kJ/mol
# Density = 2.389356 g / cm^3
# Si number density = 23.948065 Si / 1000 Ang^3
#
#
#
# Elastic Constant Matrix: (Units=GPa)
#
#
# Indices 1 2 3 4 5 6 
#
# 1 121.4705 42.5728 24.5168 0.0000 11.0675 0.0000
# 2 42.5728 71.8956 31.1513 0.0000 -4.6028 0.0000
# 3 24.5168 31.1513 62.2777 0.0000 -3.7685 0.0000
# 4 0.0000 0.0000 0.0000 50.8327 0.0000 -12.6518
# 5 11.0675 -4.6028 -3.7685 0.0000 34.0044 0.0000
# 6 0.0000 0.0000 0.0000 -12.6518 0.0000 65.8686
#
#
#
# Elastic Compliance Matrix: (Units=1/GPa)
#
#
# Indices 1 2 3 4 5 6 
#
# 1 0.011152 -0.006227 -0.001557 0.000000 -0.004645 0.000000
# 2 -0.006227 0.021303 -0.007961 0.000000 0.004028 0.000000
# 3 -0.001557 -0.007961 0.020757 0.000000 0.001729 0.000000
# 4 0.000000 0.000000 0.000000 0.020660 0.000000 0.003968
# 5 -0.004645 0.004028 0.001729 0.000000 0.031657 0.000000
# 6 0.000000 0.000000 0.000000 0.003968 0.000000 0.015944
#
#
# Mechanical properties :
#
#
# Convention : Reuss Voigt Hill
#
# Bulk Modulus (GPa) = 46.03312 50.23619 48.13466
# Shear Modulus (GPa) = 31.21043 40.63467 35.92255
#
# Velocity S-wave (km/s) = 3.61398 4.12367 3.87721
# Velocity P-wave (km/s) = 6.05626 6.61026 6.33931
#
# Compressibility (1/GPa) = 0.02172349
#
# Stress axis : x y z
#
# Youngs Moduli (GPa) = 89.66857 46.94094 48.17717
#
# Poissons Ratio (x) = 0.29228 0.07500
# Poissons Ratio (y) = 0.55833 0.38354
# Poissons Ratio (z) = 0.13960 0.37370
#
# Static dielectric constant tensor:
#      x y z
#    x 1.890250 0.000000 -0.045370 
#    y 0.000000 2.128660 0.000000 
#    z -0.045370 0.000000 1.757120 
# 
# From -- ./inp_files/12076.got.cif
#   From: 2010.05.17/outbox.cif.g08.bks.cpg/sg4_7_cif.got.tgz:12076.got - 2010.06.03 18:43:04.
