data_PCOD9118364
_publ_section_title
;
Structure prediction by ZEFSAII (Michael W. Deem and Ramdas Pophale) SiO2 
 PCOD9118364
Probable space group: P 21
;
_chemical_formula_sum "Si O2"
_cell_formula_units_Z 16
_cell_length_a 5.765956
_cell_length_b 10.022136
_cell_length_c 12.091878
_cell_angle_alpha 90.000000
_cell_angle_beta 100.211388
_cell_angle_gamma 90.000000
_cell_volume 687.687697
_symmetry_space_group_name_H-M "P 21"
_symmetry_group_IT_number 4
_symmetry_cell_setting 'monoclinic'
loop_
_space_group_symop_operation_xyz
x,y,z
-x,1/2+y,-z
loop_
_atom_site_type_symbol
_atom_site_label
_atom_site_fract_x
_atom_site_fract_y
_atom_site_fract_z
Si Si1 0.956617 0.744250 0.961636
Si Si2 0.787088 0.466154 0.912149
Si Si3 0.028092 0.745872 0.475429
Si Si4 0.580804 0.734761 0.304292
Si Si5 0.731186 0.895727 0.119818
Si Si6 0.907779 0.740010 0.699138
Si Si7 0.307970 0.967608 0.391070
Si Si8 0.674121 0.017637 0.617608
O O1 0.887978 0.593498 0.988277
O O2 0.982141 0.746488 0.832267
O O3 0.752884 0.838480 0.997218
O O4 0.183337 0.817884 0.032859
O O5 0.503357 0.483883 0.880864
O O6 0.006692 0.457929 0.841261
O O7 0.095573 0.891730 0.435531
O O8 0.151627 0.629817 0.416354
O O9 0.753699 0.730237 0.424490
O O10 0.086427 0.729522 0.609822
O O11 0.715018 0.775107 0.205509
O O12 0.404969 0.857397 0.313766
O O13 0.454303 0.593631 0.292907
O O14 0.744028 0.610235 0.666827
O O15 0.785469 0.880642 0.664435
O O16 0.498841 0.986435 0.502882
#
# Coordination Sequence:
#
# PCOD9118364 Si02
#       8
#     2   2   2   2   2   2   2   2
#     4  10  27  45  74 102 144 189 242 301 358 423
#     4  10  25  49  71 106 139 189 239 299 357 419
#     4  11  24  42  67  97 141 183 234 279 366 428
#     4  11  24  42  72  92 135 194 222 291 355 432
#     4  10  26  45  74 101 142 184 246 286 360 426
#     4  12  23  44  69 105 141 180 234 295 349 425
#     4  11  23  43  63 101 139 181 233 283 354 431
#     4  11  24  42  62 102 143 178 232 288 355 424
#
# _framework density 23.266376000000001
#
# number of rings (size 3 to 8) (size 9 to 14) (size 15 to 20)
#    0.750    0.500    2.500    2.250    7.000    3.000 
#    4.500    0.000    0.000    0.000    0.000    0.000 
#    0.000    0.000    0.000    0.000    0.000    0.000 
#
# Total GULP energy -89168.757063 kJ/mol
# GULP energy per Si atom -5573.047316 kJ/mol
# Density = 2.321342 g / cm^3
# Si number density = 23.266376 Si / 1000 Ang^3
#
#
#
# Elastic Constant Matrix: (Units=GPa)
#
#
# Indices 1 2 3 4 5 6 
#
# 1 93.9381 29.9515 9.1711 0.0000 -6.8266 0.0000
# 2 29.9515 126.7484 7.9980 0.0000 -2.8598 0.0000
# 3 9.1711 7.9980 80.2409 0.0000 -18.1125 0.0000
# 4 0.0000 0.0000 0.0000 33.2707 0.0000 2.7471
# 5 -6.8266 -2.8598 -18.1125 0.0000 25.5008 0.0000
# 6 0.0000 0.0000 0.0000 2.7471 0.0000 14.9746
#
#
#
# Elastic Compliance Matrix: (Units=1/GPa)
#
#
# Indices 1 2 3 4 5 6 
#
# 1 0.011731 -0.002684 -0.000515 0.000000 0.002474 0.000000
# 2 -0.002684 0.008557 -0.000586 0.000000 -0.000175 0.000000
# 3 -0.000515 -0.000586 0.014927 0.000000 0.010399 0.000000
# 4 0.000000 0.000000 0.000000 0.030519 0.000000 -0.005599
# 5 0.002474 -0.000175 0.010399 0.000000 0.047243 0.000000
# 6 0.000000 0.000000 0.000000 -0.005599 0.000000 0.067807
#
#
# Mechanical properties :
#
#
# Convention : Reuss Voigt Hill
#
# Bulk Modulus (GPa) = 36.17135 43.90764 40.03950
# Shear Modulus (GPa) = 25.30778 31.66967 28.48872
#
# Velocity S-wave (km/s) = 3.30167 3.69342 3.50302
# Velocity P-wave (km/s) = 5.48772 6.09107 5.79725
#
# Compressibility (1/GPa) = 0.02764619
#
# Stress axis : x y z
#
# Youngs Moduli (GPa) = 85.24377 116.86527 66.99286
#
# Poissons Ratio (x) = 0.31365 0.03449
# Poissons Ratio (y) = 0.22878 0.03923
# Poissons Ratio (z) = 0.04389 0.06844
#
# Static dielectric constant tensor:
#      x y z
#    x 1.936120 0.000000 -0.031920 
#    y 0.000000 1.884870 0.000000 
#    z -0.031920 0.000000 1.958520 
# 
# From -- ./inp_files/13267.got.cif
#   From: 2010.05.17/outbox.cif.g08.bks.cpg/sg4_7_cif.got.tgz:13267.got - 2010.06.03 18:43:04.
