data_PCOD9118178
_publ_section_title
;
Structure prediction by ZEFSAII (Michael W. Deem and Ramdas Pophale) SiO2 
 PCOD9118178
Probable space group: P 21
;
_chemical_formula_sum "Si O2"
_cell_formula_units_Z 12
_cell_length_a 7.083045
_cell_length_b 17.703330
_cell_length_c 5.330020
_cell_angle_alpha 90.000000
_cell_angle_beta 132.625132
_cell_angle_gamma 90.000000
_cell_volume 491.771839
_symmetry_space_group_name_H-M "P 21"
_symmetry_group_IT_number 4
_symmetry_cell_setting 'monoclinic'
loop_
_space_group_symop_operation_xyz
x,y,z
-x,1/2+y,-z
loop_
_atom_site_type_symbol
_atom_site_label
_atom_site_fract_x
_atom_site_fract_y
_atom_site_fract_z
Si Si1 0.347890 0.971690 0.608207
Si Si2 0.703677 0.756852 0.370471
Si Si3 0.845986 0.919784 0.362933
Si Si4 0.939334 0.616218 0.736073
Si Si5 0.447719 0.186941 0.268070
Si Si6 0.710126 0.039652 0.596039
O O1 0.094184 0.920947 0.405810
O O2 0.252111 0.058011 0.572944
O O3 0.469728 0.985333 0.443235
O O4 0.579210 0.939078 0.982012
O O5 0.809205 0.840609 0.467692
O O6 0.935244 0.695335 0.592039
O O7 0.524067 0.734713 0.446876
O O8 0.571747 0.739945 0.986859
O O9 0.894021 0.986662 0.605045
O O10 0.812462 0.642011 0.888277
O O11 0.182032 0.568605 0.039298
O O12 0.639230 0.117582 0.399085
#
# Coordination Sequence:
#
# PCOD9118178 Si02
#       6
#     2   2   2   2   2   2
#     4  11  25  45  71 106 146 196 253 301 373 455
#     4  10  24  47  69 110 154 192 251 315 382 440
#     4  12  28  44  76 108 157 194 247 320 387 435
#     4   9  22  42  74 104 144 197 255 297 367 446
#     4   9  23  44  72 105 144 200 250 305 365 458
#     4  11  24  44  80 107 149 197 264 304 372 454
#
# _framework density 24.401558999999999
#
# number of rings (size 3 to 8) (size 9 to 14) (size 15 to 20)
#    1.000    0.667    1.667    1.000    9.333    1.333 
#    3.000    0.000    0.000    0.000    0.000    0.000 
#    0.000    0.000    0.000    0.000    0.000    0.000 
#
# Total GULP energy -66925.661319 kJ/mol
# GULP energy per Si atom -5577.138443 kJ/mol
# Density = 2.434602 g / cm^3
# Si number density = 24.401559 Si / 1000 Ang^3
#
#
#
# Elastic Constant Matrix: (Units=GPa)
#
#
# Indices 1 2 3 4 5 6 
#
# 1 71.5423 36.3529 35.1915 0.0000 -6.0732 0.0000
# 2 36.3529 57.4709 16.4444 0.0000 5.8419 0.0000
# 3 35.1915 16.4444 87.1378 0.0000 -0.1157 0.0000
# 4 0.0000 0.0000 0.0000 18.7331 0.0000 -11.5626
# 5 -6.0732 5.8419 -0.1157 0.0000 39.8459 0.0000
# 6 0.0000 0.0000 0.0000 -11.5626 0.0000 19.0688
#
#
#
# Elastic Compliance Matrix: (Units=1/GPa)
#
#
# Indices 1 2 3 4 5 6 
#
# 1 0.025694 -0.014694 -0.007596 0.000000 0.006049 0.000000
# 2 -0.014694 0.027093 0.000813 0.000000 -0.006209 0.000000
# 3 -0.007596 0.000813 0.014389 0.000000 -0.001235 0.000000
# 4 0.000000 0.000000 0.000000 0.085310 0.000000 0.051729
# 5 0.006049 -0.006209 -0.001235 0.000000 0.026925 0.000000
# 6 0.000000 0.000000 0.000000 0.051729 0.000000 0.083808
#
#
# Mechanical properties :
#
#
# Convention : Reuss Voigt Hill
#
# Bulk Modulus (GPa) = 41.28378 43.56984 42.42681
# Shear Modulus (GPa) = 15.91105 24.07372 19.99238
#
# Velocity S-wave (km/s) = 2.55630 3.14437 2.86546
# Velocity P-wave (km/s) = 5.06637 5.57466 5.32658
#
# Compressibility (1/GPa) = 0.02422259
#
# Stress axis : x y z
#
# Youngs Moduli (GPa) = 38.91957 36.90960 69.49946
#
# Poissons Ratio (x) = 0.54235 0.52790
# Poissons Ratio (y) = 0.57188 -0.05651
# Poissons Ratio (z) = 0.29562 -0.03001
#
# Static dielectric constant tensor:
#      x y z
#    x 2.043140 0.000000 0.013570 
#    y 0.000000 1.908270 0.000000 
#    z 0.013570 0.000000 2.013200 
# 
# From -- ./inp_files/1688.got.cif
#   From: 2010.05.17/outbox.cif.g08.bks.cpg/sg4_1_cif.got.tgz:1688.got - 2010.06.03 18:43:04.
