data_PCOD9118519
_publ_section_title
;
Structure prediction by ZEFSAII (Michael W. Deem and Ramdas Pophale) SiO2 
 PCOD9118519
Probable space group: P 21
;
_chemical_formula_sum "Si O2"
_cell_formula_units_Z 16
_cell_length_a 11.340666
_cell_length_b 10.887299
_cell_length_c 5.341862
_cell_angle_alpha 90.000000
_cell_angle_beta 102.030537
_cell_angle_gamma 90.000000
_cell_volume 645.069494
_symmetry_space_group_name_H-M "P 21"
_symmetry_group_IT_number 4
_symmetry_cell_setting 'monoclinic'
loop_
_space_group_symop_operation_xyz
x,y,z
-x,1/2+y,-z
loop_
_atom_site_type_symbol
_atom_site_label
_atom_site_fract_x
_atom_site_fract_y
_atom_site_fract_z
Si Si1 0.643472 0.048950 0.528170
Si Si2 0.686730 0.784040 0.673297
Si Si3 0.926422 0.832082 0.998242
Si Si4 0.259637 0.947439 0.911077
Si Si5 0.416654 0.121498 0.732386
Si Si6 0.558579 0.248528 0.152134
Si Si7 0.966206 0.407150 0.458577
Si Si8 0.161531 0.747169 0.248932
O O1 0.517878 0.045905 0.627922
O O2 0.613801 0.117845 0.256715
O O3 0.742399 0.138778 0.703389
O O4 0.692247 0.912794 0.530108
O O5 0.790723 0.784955 0.928135
O O6 0.689984 0.668005 0.491926
O O7 0.552497 0.777877 0.721024
O O8 0.947388 0.891752 0.737250
O O9 0.032498 0.728732 0.055225
O O10 0.960404 0.919958 0.248905
O O11 0.338325 0.847895 0.793620
O O12 0.141645 0.988337 0.703446
O O13 0.356409 0.057300 0.947617
O O14 0.217253 0.870536 0.137908
O O15 0.496088 0.237341 0.856605
O O16 0.889462 0.284102 0.499924
#
# Coordination Sequence:
#
# PCOD9118519 Si02
#       8
#     2   2   2   2   2   2   2   2
#     4  11  22  41  66 102 132 181 230 288 356 419
#     4  11  26  43  62 100 147 177 226 296 358 426
#     4   9  21  44  67  99 140 177 235 284 349 416
#     4  11  20  42  69  97 131 178 235 287 345 421
#     4  11  26  39  64 101 136 182 225 294 363 421
#     4  11  23  39  65  97 132 175 226 287 347 423
#     4   9  20  41  71  97 130 181 230 291 330 422
#     4   9  20  39  72  95 132 177 239 281 340 420
#
# _framework density 24.803528
#
# number of rings (size 3 to 8) (size 9 to 14) (size 15 to 20)
#    0.750    1.000    3.750    0.000    3.500    2.000 
#    2.250    2.500    0.000    0.000    0.000    0.000 
#    0.000    0.000    0.000    0.000    0.000    0.000 
#
# Total GULP energy -89140.028363 kJ/mol
# GULP energy per Si atom -5571.251773 kJ/mol
# Density = 2.474707 g / cm^3
# Si number density = 24.803528 Si / 1000 Ang^3
#
#
#
# Elastic Constant Matrix: (Units=GPa)
#
#
# Indices 1 2 3 4 5 6 
#
# 1 88.1384 19.4291 35.7935 0.0000 23.7329 0.0000
# 2 19.4291 42.6984 2.6651 0.0000 7.9204 0.0000
# 3 35.7935 2.6651 104.3470 0.0000 6.9513 0.0000
# 4 0.0000 0.0000 0.0000 17.9907 0.0000 5.8646
# 5 23.7329 7.9204 6.9513 0.0000 46.4206 0.0000
# 6 0.0000 0.0000 0.0000 5.8646 0.0000 12.3788
#
#
#
# Elastic Compliance Matrix: (Units=1/GPa)
#
#
# Indices 1 2 3 4 5 6 
#
# 1 0.016513 -0.005961 -0.005068 0.000000 -0.006666 0.000000
# 2 -0.005961 0.026350 0.001483 0.000000 -0.001670 0.000000
# 3 -0.005068 0.001483 0.011240 0.000000 0.000655 0.000000
# 4 0.000000 0.000000 0.000000 0.065737 0.000000 -0.031144
# 5 -0.006666 -0.001670 0.000655 0.000000 0.025137 0.000000
# 6 0.000000 0.000000 0.000000 -0.031144 0.000000 0.095538
#
#
# Mechanical properties :
#
#
# Convention : Reuss Voigt Hill
#
# Bulk Modulus (GPa) = 28.56227 38.99547 33.77887
# Shear Modulus (GPa) = 18.43129 27.17776 22.80452
#
# Velocity S-wave (km/s) = 2.72893 3.31376 3.03546
# Velocity P-wave (km/s) = 4.63355 5.51337 5.09249
#
# Compressibility (1/GPa) = 0.03501122
#
# Stress axis : x y z
#
# Youngs Moduli (GPa) = 60.55827 37.95094 88.96519
#
# Poissons Ratio (x) = 0.22623 0.45088
# Poissons Ratio (y) = 0.36099 -0.13194
# Poissons Ratio (z) = 0.30691 -0.05628
#
# Static dielectric constant tensor:
#      x y z
#    x 1.979410 0.000000 0.011460 
#    y 0.000000 2.008840 0.000000 
#    z 0.011460 0.000000 2.030740 
# 
# From -- ./inp_files/3091.got.cif
#   From: 2010.05.17/outbox.cif.g08.bks.cpg/sg4_2_cif.got.tgz:3091.got - 2010.06.03 18:43:04.
