data_PCOD9118089
_publ_section_title
;
Structure prediction by ZEFSAII (Michael W. Deem and Ramdas Pophale) SiO2 
 PCOD9118089
Probable space group: P 21
;
_chemical_formula_sum "Si O2"
_cell_formula_units_Z 16
_cell_length_a 5.622122
_cell_length_b 14.188313
_cell_length_c 9.100281
_cell_angle_alpha 90.000000
_cell_angle_beta 62.173480
_cell_angle_gamma 90.000000
_cell_volume 641.973911
_symmetry_space_group_name_H-M "P 21"
_symmetry_group_IT_number 4
_symmetry_cell_setting 'monoclinic'
loop_
_space_group_symop_operation_xyz
x,y,z
-x,1/2+y,-z
loop_
_atom_site_type_symbol
_atom_site_label
_atom_site_fract_x
_atom_site_fract_y
_atom_site_fract_z
Si Si1 0.323798 0.531320 0.495182
Si Si2 0.482844 0.318019 0.859488
Si Si3 0.887431 0.751567 0.303222
Si Si4 0.421629 0.722092 0.636368
Si Si5 0.782164 0.487978 0.712771
Si Si6 0.157380 0.567635 0.221035
Si Si7 0.196763 0.909569 0.625243
Si Si8 0.436554 0.171508 0.101688
O O1 0.402158 0.618146 0.575043
O O2 0.544770 0.457983 0.374909
O O3 0.098346 0.472520 0.650296
O O4 0.210456 0.577739 0.379322
O O5 0.301471 0.297264 0.768403
O O6 0.550825 0.428052 0.857974
O O7 0.800554 0.282661 0.765840
O O8 0.344560 0.258654 0.029203
O O9 0.717138 0.757966 0.502092
O O10 0.917863 0.640674 0.252544
O O11 0.218179 0.798353 0.627861
O O12 0.383564 0.715711 0.821026
O O13 0.764965 0.450972 0.550211
O O14 0.752034 0.598589 0.756718
O O15 0.059309 0.460796 0.231827
O O16 0.403454 0.604233 0.055855
#
# Coordination Sequence:
#
# PCOD9118089 Si02
#       8
#     2   2   2   2   2   2   2   2
#     4  11  23  47  77 102 143 194 255 308 365 444
#     4  11  26  47  76 110 146 204 241 305 376 444
#     4  11  22  46  77 102 147 194 254 299 362 439
#     4  12  22  44  73 110 139 187 257 300 366 441
#     4  11  24  47  72 106 147 196 250 305 371 439
#     4  10  24  45  68 102 144 192 236 306 379 432
#     4  11  23  44  75 103 134 195 253 301 359 452
#     4  11  26  46  66 111 148 188 238 308 380 435
#
# _framework density 24.923131999999999
#
# number of rings (size 3 to 8) (size 9 to 14) (size 15 to 20)
#    0.000    1.000    3.750    3.000    0.000    3.000 
#   13.500    0.000    0.000    0.000    0.000    0.000 
#    0.000    0.000    0.000    0.000    0.000    0.000 
#
# Total GULP energy -89328.976688 kJ/mol
# GULP energy per Si atom -5583.061043 kJ/mol
# Density = 2.486641 g / cm^3
# Si number density = 24.923132 Si / 1000 Ang^3
#
#
#
# Elastic Constant Matrix: (Units=GPa)
#
#
# Indices 1 2 3 4 5 6 
#
# 1 88.0433 14.7509 22.1758 0.0000 10.4274 0.0000
# 2 14.7509 89.4373 18.8011 0.0000 18.7896 0.0000
# 3 22.1758 18.8011 88.2716 0.0000 12.3831 0.0000
# 4 0.0000 0.0000 0.0000 38.2860 0.0000 -9.1357
# 5 10.4274 18.7896 12.3831 0.0000 25.7038 0.0000
# 6 0.0000 0.0000 0.0000 -9.1357 0.0000 32.6617
#
#
#
# Elastic Compliance Matrix: (Units=1/GPa)
#
#
# Indices 1 2 3 4 5 6 
#
# 1 0.012517 -0.000856 -0.002507 0.000000 -0.003244 0.000000
# 2 -0.000856 0.013473 -0.001417 0.000000 -0.008819 0.000000
# 3 -0.002507 -0.001417 0.012840 0.000000 -0.004133 0.000000
# 4 0.000000 0.000000 0.000000 0.027987 0.000000 0.007828
# 5 -0.003244 -0.008819 -0.004133 0.000000 0.048658 0.000000
# 6 0.000000 0.000000 0.000000 0.007828 0.000000 0.032807
#
#
# Mechanical properties :
#
#
# Convention : Reuss Voigt Hill
#
# Bulk Modulus (GPa) = 34.16554 41.91199 38.03876
# Shear Modulus (GPa) = 29.83301 33.33191 31.58246
#
# Velocity S-wave (km/s) = 3.46352 3.66100 3.56363
# Velocity P-wave (km/s) = 5.45278 5.89267 5.67699
#
# Compressibility (1/GPa) = 0.02926926
#
# Stress axis : x y z
#
# Youngs Moduli (GPa) = 79.89019 74.22352 77.88054
#
# Poissons Ratio (x) = 0.06352 0.19526
# Poissons Ratio (y) = 0.06837 0.11039
# Poissons Ratio (z) = 0.20030 0.10521
#
# Static dielectric constant tensor:
#      x y z
#    x 2.060290 0.000000 -0.033530 
#    y 0.000000 2.036830 0.000000 
#    z -0.033530 0.000000 1.943310 
# 
# From -- ./inp_files/1547.got.cif
#   From: 2010.05.17/outbox.cif.g08.bks.cpg/sg4_1_cif.got.tgz:1547.got - 2010.06.03 18:43:04.
