data_PCOD9118367
_publ_section_title
;
Structure prediction by ZEFSAII (Michael W. Deem and Ramdas Pophale) SiO2 
 PCOD9118367
Probable space group: P 21
;
_chemical_formula_sum "Si O2"
_cell_formula_units_Z 14
_cell_length_a 7.784793
_cell_length_b 8.923945
_cell_length_c 9.148599
_cell_angle_alpha 90.000000
_cell_angle_beta 67.308322
_cell_angle_gamma 90.000000
_cell_volume 586.366612
_symmetry_space_group_name_H-M "P 21"
_symmetry_group_IT_number 4
_symmetry_cell_setting 'monoclinic'
loop_
_space_group_symop_operation_xyz
x,y,z
-x,1/2+y,-z
loop_
_atom_site_type_symbol
_atom_site_label
_atom_site_fract_x
_atom_site_fract_y
_atom_site_fract_z
Si Si1 0.657445 0.612940 0.900833
Si Si2 0.093885 0.679323 0.792459
Si Si3 0.592779 0.936083 0.832149
Si Si4 0.112288 0.656123 0.132398
Si Si5 0.724464 0.366424 0.681370
Si Si6 0.623789 0.070743 0.528373
Si Si7 0.202696 0.995593 0.621264
O O1 0.560913 0.769972 0.898617
O O2 0.598991 0.494826 0.794797
O O3 0.877823 0.645150 0.827091
O O4 0.585293 0.540479 0.074958
O O5 0.226666 0.574766 0.649958
O O6 0.160788 0.845663 0.726151
O O7 0.114620 0.669291 0.959099
O O8 0.759744 0.014710 0.865028
O O9 0.648669 0.944680 0.644793
O O10 0.184539 0.793615 0.205541
O O11 0.909610 0.624210 0.262952
O O12 0.641560 0.229123 0.612797
O O13 0.858160 0.453275 0.523837
O O14 0.416989 0.041607 0.539508
#
# Coordination Sequence:
#
# PCOD9118367 Si02
#       7
#     2   2   2   2   2   2   2
#     4  12  26  47  77 108 151 195 263 308 393 442
#     4  11  27  48  73 113 151 201 251 319 380 452
#     4  11  25  45  77 108 147 200 248 319 373 467
#     4  11  25  48  75 111 151 198 258 309 383 450
#     4  10  27  46  76 112 145 202 252 314 375 456
#     4  10  25  49  74 110 152 193 257 307 391 446
#     4  11  25  49  76 108 153 197 253 318 383 453
#
# _framework density 23.875847
#
# number of rings (size 3 to 8) (size 9 to 14) (size 15 to 20)
#    0.000    1.143    1.429    2.571   14.000    1.143 
#    5.143    0.000    0.000    0.000    0.000    0.000 
#    0.000    0.000    0.000    0.000    0.000    0.000 
#
# Total GULP energy -78342.668739 kJ/mol
# GULP energy per Si atom -5595.904910 kJ/mol
# Density = 2.382150 g / cm^3
# Si number density = 23.875847 Si / 1000 Ang^3
#
#
#
# Elastic Constant Matrix: (Units=GPa)
#
#
# Indices 1 2 3 4 5 6 
#
# 1 94.7785 21.6578 60.4727 0.0000 -17.5469 0.0000
# 2 21.6578 86.7008 47.7125 0.0000 4.2412 0.0000
# 3 60.4727 47.7125 201.6527 0.0000 3.9283 0.0000
# 4 0.0000 0.0000 0.0000 34.7918 0.0000 -8.3557
# 5 -17.5469 4.2412 3.9283 0.0000 48.3587 0.0000
# 6 0.0000 0.0000 0.0000 -8.3557 0.0000 12.0904
#
#
#
# Elastic Compliance Matrix: (Units=1/GPa)
#
#
# Indices 1 2 3 4 5 6 
#
# 1 0.014622 -0.001679 -0.004100 0.000000 0.005786 0.000000
# 2 -0.001679 0.013493 -0.002658 0.000000 -0.001577 0.000000
# 3 -0.004100 -0.002658 0.006853 0.000000 -0.001811 0.000000
# 4 0.000000 0.000000 0.000000 0.034462 0.000000 0.023817
# 5 0.005786 -0.001577 -0.001811 0.000000 0.023064 0.000000
# 6 0.000000 0.000000 0.000000 0.023817 0.000000 0.099170
#
#
# Mechanical properties :
#
#
# Convention : Reuss Voigt Hill
#
# Bulk Modulus (GPa) = 55.27106 71.42422 63.34764
# Shear Modulus (GPa) = 23.30234 35.93412 29.61823
#
# Velocity S-wave (km/s) = 3.12746 3.88369 3.52591
# Velocity P-wave (km/s) = 6.02004 7.07747 6.57006
#
# Compressibility (1/GPa) = 0.01809265
#
# Stress axis : x y z
#
# Youngs Moduli (GPa) = 68.39024 74.11005 145.92300
#
# Poissons Ratio (x) = 0.12444 0.59833
# Poissons Ratio (y) = 0.11484 0.38792
# Poissons Ratio (z) = 0.28042 0.19701
#
# Static dielectric constant tensor:
#      x y z
#    x 1.932920 0.000000 -0.005790 
#    y 0.000000 1.946590 0.000000 
#    z -0.005790 0.000000 1.918240 
# 
# From -- ./inp_files/5258.got.cif
#   From: 2010.05.17/outbox.cif.g08.bks.cpg/sg4_3_cif.got.tgz:5258.got - 2010.06.03 18:43:04.
