data_PCOD9118622
_publ_section_title
;
Structure prediction by ZEFSAII (Michael W. Deem and Ramdas Pophale) SiO2 
 PCOD9118622
Probable space group: P 21
;
_chemical_formula_sum "Si O2"
_cell_formula_units_Z 14
_cell_length_a 8.295387
_cell_length_b 13.502933
_cell_length_c 9.216467
_cell_angle_alpha 90.000000
_cell_angle_beta 148.293336
_cell_angle_gamma 90.000000
_cell_volume 542.575655
_symmetry_space_group_name_H-M "P 21"
_symmetry_group_IT_number 4
_symmetry_cell_setting 'monoclinic'
loop_
_space_group_symop_operation_xyz
x,y,z
-x,1/2+y,-z
loop_
_atom_site_type_symbol
_atom_site_label
_atom_site_fract_x
_atom_site_fract_y
_atom_site_fract_z
Si Si1 0.666552 0.931510 0.607065
Si Si2 0.386580 0.302997 0.197472
Si Si3 0.307687 0.023369 0.098011
Si Si4 0.560225 0.434910 0.096395
Si Si5 0.934567 0.784077 0.600022
Si Si6 0.428296 0.646279 0.142794
Si Si7 0.169191 0.687728 0.259742
O O1 0.501089 0.898456 0.624390
O O2 0.692975 0.835124 0.525166
O O3 0.516765 0.018473 0.399499
O O4 0.013353 0.957504 0.909012
O O5 0.378099 0.343921 0.028157
O O6 0.619192 0.222057 0.443744
O O7 0.036288 0.276840 0.963985
O O8 0.127875 0.122542 0.916327
O O9 0.484773 0.972390 0.102109
O O10 0.491822 0.536374 0.130929
O O11 0.890060 0.377170 0.338683
O O12 0.733569 0.710759 0.350774
O O13 0.166076 0.710110 0.860831
O O14 0.338286 0.643149 0.246110
#
# Coordination Sequence:
#
# PCOD9118622 Si02
#       7
#     2   2   2   2   2   2   2
#     4  11  21  47  72 102 144 195 243 306 362 460
#     4  12  26  45  75 110 149 193 258 315 381 446
#     4  11  26  44  74 104 149 190 251 300 389 443
#     4  11  30  46  77 115 153 202 249 324 390 464
#     4  11  25  46  76 108 152 197 247 318 381 450
#     4  12  25  49  76 106 155 201 257 307 388 453
#     4  12  25  47  76 111 144 204 255 320 367 472
#
# _framework density 25.802854
#
# number of rings (size 3 to 8) (size 9 to 14) (size 15 to 20)
#    0.000    0.571    2.857    4.286    4.000    8.000 
#    0.000    0.000    0.000    0.000    0.000    0.000 
#    0.000    0.000    0.000    0.000    0.000    0.000 
#
# Total GULP energy -78137.008719 kJ/mol
# GULP energy per Si atom -5581.214908 kJ/mol
# Density = 2.574413 g / cm^3
# Si number density = 25.802854 Si / 1000 Ang^3
#
#
#
# Elastic Constant Matrix: (Units=GPa)
#
#
# Indices 1 2 3 4 5 6 
#
# 1 87.4086 37.2761 37.9759 0.0000 -8.5823 0.0000
# 2 37.2761 136.8379 50.1287 0.0000 -9.5147 0.0000
# 3 37.9759 50.1287 121.0275 0.0000 6.6887 0.0000
# 4 0.0000 0.0000 0.0000 25.2244 0.0000 -2.7519
# 5 -8.5823 -9.5147 6.6887 0.0000 16.4907 0.0000
# 6 0.0000 0.0000 0.0000 -2.7519 0.0000 53.5347
#
#
#
# Elastic Compliance Matrix: (Units=1/GPa)
#
#
# Indices 1 2 3 4 5 6 
#
# 1 0.014985 -0.001883 -0.004392 0.000000 0.008494 0.000000
# 2 -0.001883 0.009607 -0.003724 0.000000 0.006074 0.000000
# 3 -0.004392 -0.003724 0.011690 0.000000 -0.009176 0.000000
# 4 0.000000 0.000000 0.000000 0.039868 0.000000 0.002049
# 5 0.008494 0.006074 -0.009176 0.000000 0.072287 0.000000
# 6 0.000000 0.000000 0.000000 0.002049 0.000000 0.018785
#
#
# Mechanical properties :
#
#
# Convention : Reuss Voigt Hill
#
# Bulk Modulus (GPa) = 61.40334 66.22617 63.81476
# Shear Modulus (GPa) = 25.95391 33.70949 29.83170
#
# Velocity S-wave (km/s) = 3.17496 3.61837 3.40389
# Velocity P-wave (km/s) = 6.10649 6.57105 6.34303
#
# Compressibility (1/GPa) = 0.01628576
#
# Stress axis : x y z
#
# Youngs Moduli (GPa) = 66.73126 104.08568 85.54092
#
# Poissons Ratio (x) = 0.19597 0.37567
# Poissons Ratio (y) = 0.12564 0.31858
# Poissons Ratio (z) = 0.29307 0.38764
#
# Static dielectric constant tensor:
#      x y z
#    x 2.069360 0.000000 -0.041920 
#    y 0.000000 2.297660 0.000000 
#    z -0.041920 0.000000 1.991360 
# 
# From -- ./inp_files/6699.got.cif
#   From: 2010.05.17/outbox.cif.g08.bks.cpg/sg4_4_cif.got.tgz:6699.got - 2010.06.03 18:43:04.
