data_PCOD9118214
_publ_section_title
;
Structure prediction by ZEFSAII (Michael W. Deem and Ramdas Pophale) SiO2 
 PCOD9118214
Probable space group: P 21
;
_chemical_formula_sum "Si O2"
_cell_formula_units_Z 14
_cell_length_a 8.484912
_cell_length_b 5.354702
_cell_length_c 14.889467
_cell_angle_alpha 90.000000
_cell_angle_beta 51.420673
_cell_angle_gamma 90.000000
_cell_volume 528.843541
_symmetry_space_group_name_H-M "P 21"
_symmetry_group_IT_number 4
_symmetry_cell_setting 'monoclinic'
loop_
_space_group_symop_operation_xyz
x,y,z
-x,1/2+y,-z
loop_
_atom_site_type_symbol
_atom_site_label
_atom_site_fract_x
_atom_site_fract_y
_atom_site_fract_z
Si Si1 0.096110 0.146600 0.853803
Si Si2 0.066268 0.290393 0.224438
Si Si3 0.185968 0.570781 0.350647
Si Si4 0.263607 0.753398 0.890337
Si Si5 0.299436 0.518543 0.679682
Si Si6 0.446911 0.020573 0.068370
Si Si7 0.726481 0.570824 0.581767
O O1 0.195855 0.251148 0.726888
O O2 0.959642 0.922286 0.861774
O O3 0.278168 0.035098 0.848434
O O4 0.937618 0.274208 0.976787
O O5 0.844461 0.189024 0.329785
O O6 0.176438 0.477582 0.252260
O O7 0.207962 0.048887 0.166388
O O8 0.272578 0.838139 0.348788
O O9 0.948782 0.570663 0.461229
O O10 0.291519 0.343502 0.366786
O O11 0.260798 0.596907 0.798659
O O12 0.432175 0.627842 0.890234
O O13 0.536503 0.534262 0.583216
O O14 0.493929 0.241243 0.979129
#
# Coordination Sequence:
#
# PCOD9118214 Si02
#       7
#     2   2   2   2   2   2   2
#     4  11  23  41  62  93 135 180 225 276 337 401
#     4  11  26  43  64 103 138 175 230 290 341 397
#     4  10  24  49  74 101 137 174 226 289 337 417
#     4  11  23  40  63  90 134 181 225 270 334 401
#     4  11  25  42  68  97 133 183 227 280 341 414
#     4  12  27  41  64  96 133 180 228 280 332 400
#     4  10  24  48  75 102 132 181 227 273 354 416
#
# _framework density 26.472856
#
# number of rings (size 3 to 8) (size 9 to 14) (size 15 to 20)
#    0.000    1.143    2.857    1.714   12.000    0.000 
#    2.571    0.000    0.000    0.000    0.000    0.000 
#    0.000    0.000    0.000    0.000    0.000    0.000 
#
# Total GULP energy -78281.324432 kJ/mol
# GULP energy per Si atom -5591.523174 kJ/mol
# Density = 2.641260 g / cm^3
# Si number density = 26.472856 Si / 1000 Ang^3
#
#
#
# Elastic Constant Matrix: (Units=GPa)
#
#
# Indices 1 2 3 4 5 6 
#
# 1 70.7762 10.5808 3.8824 0.0000 -24.0081 0.0000
# 2 10.5808 97.1621 21.1470 0.0000 -13.2181 0.0000
# 3 3.8824 21.1470 48.6601 0.0000 -27.4849 0.0000
# 4 0.0000 0.0000 0.0000 30.9023 0.0000 -0.5468
# 5 -24.0081 -13.2181 -27.4849 0.0000 46.8839 0.0000
# 6 0.0000 0.0000 0.0000 -0.5468 0.0000 35.1355
#
#
#
# Elastic Compliance Matrix: (Units=1/GPa)
#
#
# Indices 1 2 3 4 5 6 
#
# 1 0.018328 -0.001669 0.006426 0.000000 0.012682 0.000000
# 2 -0.001669 0.011526 -0.005267 0.000000 -0.000693 0.000000
# 3 0.006426 -0.005267 0.034905 0.000000 0.022268 0.000000
# 4 0.000000 0.000000 0.000000 0.032369 0.000000 0.000504
# 5 0.012682 -0.000693 0.022268 0.000000 0.040682 0.000000
# 6 0.000000 0.000000 0.000000 0.000504 0.000000 0.028469
#
#
# Mechanical properties :
#
#
# Convention : Reuss Voigt Hill
#
# Bulk Modulus (GPa) = 15.68911 31.97987 23.83449
# Shear Modulus (GPa) = 26.51871 34.65021 30.58446
#
# Velocity S-wave (km/s) = 3.16845 3.62179 3.40268
# Velocity P-wave (km/s) = 4.39600 5.44025 4.94576
#
# Compressibility (1/GPa) = 0.06373848
#
# Stress axis : x y z
#
# Youngs Moduli (GPa) = 54.56134 86.76042 28.64921
#
# Poissons Ratio (x) = 0.14483 -0.18411
# Poissons Ratio (y) = 0.09108 0.15091
# Poissons Ratio (z) = -0.35063 0.45700
#
# Static dielectric constant tensor:
#      x y z
#    x 2.043210 0.000000 -0.028670 
#    y 0.000000 2.417630 0.000000 
#    z -0.028670 0.000000 2.126310 
# 
# From -- ./inp_files/7147.got.cif
#   From: 2010.05.17/outbox.cif.g08.bks.cpg/sg4_4_cif.got.tgz:7147.got - 2010.06.03 18:43:04.
