data_PCOD9118395
_publ_section_title
;
Structure prediction by ZEFSAII (Michael W. Deem and Ramdas Pophale) SiO2 
 PCOD9118395
Probable space group: P 21
;
_chemical_formula_sum "Si O2"
_cell_formula_units_Z 16
_cell_length_a 8.642791
_cell_length_b 11.661053
_cell_length_c 12.227256
_cell_angle_alpha 90.000000
_cell_angle_beta 37.196571
_cell_angle_gamma 90.000000
_cell_volume 744.996183
_symmetry_space_group_name_H-M "P 21"
_symmetry_group_IT_number 4
_symmetry_cell_setting 'monoclinic'
loop_
_space_group_symop_operation_xyz
x,y,z
-x,1/2+y,-z
loop_
_atom_site_type_symbol
_atom_site_label
_atom_site_fract_x
_atom_site_fract_y
_atom_site_fract_z
Si Si1 0.744752 0.982110 0.666865
Si Si2 0.481483 0.738778 0.789036
Si Si3 0.684393 0.511776 0.608875
Si Si4 0.338847 0.662137 0.467364
Si Si5 0.081993 0.775476 0.823288
Si Si6 0.282691 0.654906 0.131644
Si Si7 0.221561 0.029862 0.672822
Si Si8 0.490045 0.812944 0.183572
O O1 0.590809 0.866810 0.732192
O O2 0.776343 0.059373 0.540592
O O3 0.621508 0.058112 0.834823
O O4 0.034083 0.958516 0.540283
O O5 0.685121 0.647615 0.628200
O O6 0.236950 0.736515 0.844659
O O7 0.425743 0.693034 0.941723
O O8 0.600329 0.497023 0.531313
O O9 0.509558 0.448874 0.796427
O O10 0.186164 0.705650 0.659224
O O11 0.613898 0.612621 0.345570
O O12 0.386175 0.763720 0.355892
O O13 0.140333 0.910837 0.772976
O O14 0.775414 0.766850 0.002566
O O15 0.299399 0.768832 0.197268
O O16 0.015989 0.602291 0.240137
#
# Coordination Sequence:
#
# PCOD9118395 Si02
#       8
#     2   2   2   2   2   2   2   2
#     4  10  26  44  69 102 138 185 237 289 355 418
#     4  12  25  45  70 104 140 189 236 292 357 417
#     4  11  25  41  71 100 140 186 233 292 350 423
#     4  11  23  47  69 102 140 182 234 294 351 422
#     4  12  25  44  74 102 142 189 232 295 352 422
#     4  10  26  43  70  99 141 184 230 294 342 422
#     4  11  22  46  69 102 143 180 236 291 353 420
#     4  11  26  44  70 105 140 187 236 289 354 416
#
# _framework density 21.476621000000002
#
# number of rings (size 3 to 8) (size 9 to 14) (size 15 to 20)
#    0.000    1.000    3.750    1.500   12.250    0.000 
#    0.000    0.000    0.000    0.000    0.000    0.000 
#    0.000    0.000    0.000    0.000    0.000    0.000 
#
# Total GULP energy -89314.714824 kJ/mol
# GULP energy per Si atom -5582.169677 kJ/mol
# Density = 2.142774 g / cm^3
# Si number density = 21.476621 Si / 1000 Ang^3
#
#
#
# Elastic Constant Matrix: (Units=GPa)
#
#
# Indices 1 2 3 4 5 6 
#
# 1 79.5624 17.2810 3.7289 0.0000 6.4430 0.0000
# 2 17.2810 94.1223 17.8539 0.0000 0.9186 0.0000
# 3 3.7289 17.8539 57.1719 0.0000 7.1942 0.0000
# 4 0.0000 0.0000 0.0000 19.4393 0.0000 -1.4495
# 5 6.4430 0.9186 7.1942 0.0000 31.1847 0.0000
# 6 0.0000 0.0000 0.0000 -1.4495 0.0000 28.0466
#
#
#
# Elastic Compliance Matrix: (Units=1/GPa)
#
#
# Indices 1 2 3 4 5 6 
#
# 1 0.013314 -0.002464 0.000245 0.000000 -0.002735 0.000000
# 2 -0.002464 0.011757 -0.003637 0.000000 0.001002 0.000000
# 3 0.000245 -0.003637 0.019160 0.000000 -0.004364 0.000000
# 4 0.000000 0.000000 0.000000 0.051641 0.000000 0.002669
# 5 -0.002735 0.001002 -0.004364 0.000000 0.033609 0.000000
# 6 0.000000 0.000000 0.000000 0.002669 0.000000 0.035793
#
#
# Mechanical properties :
#
#
# Convention : Reuss Voigt Hill
#
# Bulk Modulus (GPa) = 30.75106 34.28714 32.51910
# Shear Modulus (GPa) = 26.62044 28.53364 27.57704
#
# Velocity S-wave (km/s) = 3.52448 3.64894 3.58725
# Velocity P-wave (km/s) = 5.55987 5.80969 5.68615
#
# Compressibility (1/GPa) = 0.03251920
#
# Stress axis : x y z
#
# Youngs Moduli (GPa) = 75.10906 85.05557 52.19224
#
# Poissons Ratio (x) = 0.20960 -0.01280
# Poissons Ratio (y) = 0.18509 0.18982
# Poissons Ratio (z) = -0.01843 0.30934
#
# Static dielectric constant tensor:
#      x y z
#    x 1.776510 0.000000 0.034340 
#    y 0.000000 1.805410 0.000000 
#    z 0.034340 0.000000 1.809410 
# 
# From -- ./inp_files/11239.got.cif
#   From: 2010.05.17/outbox.cif.g08.bks.cpg/sg4_6_cif.got.tgz:11239.got - 2010.06.03 18:43:04.
