data_PCOD9118950
_publ_section_title
;
Structure prediction by ZEFSAII (Michael W. Deem and Ramdas Pophale) SiO2 
 PCOD9118950
Probable space group: P 21
;
_chemical_formula_sum "Si O2"
_cell_formula_units_Z 10
_cell_length_a 11.005474
_cell_length_b 7.331840
_cell_length_c 7.340723
_cell_angle_alpha 90.000000
_cell_angle_beta 140.880840
_cell_angle_gamma 90.000000
_cell_volume 373.719177
_symmetry_space_group_name_H-M "P 21"
_symmetry_group_IT_number 4
_symmetry_cell_setting 'monoclinic'
loop_
_space_group_symop_operation_xyz
x,y,z
-x,1/2+y,-z
loop_
_atom_site_type_symbol
_atom_site_label
_atom_site_fract_x
_atom_site_fract_y
_atom_site_fract_z
Si Si1 0.397961 0.912050 0.163763
Si Si2 0.477025 0.821174 0.655702
Si Si3 0.984276 0.048441 0.785197
Si Si4 0.948405 0.462831 0.737947
Si Si5 0.234594 0.579230 0.801916
O O1 0.493597 0.821120 0.453927
O O2 0.489618 0.111727 0.244261
O O3 0.356987 0.768142 0.953303
O O4 0.178985 0.946286 0.971380
O O5 0.276365 0.923122 0.478707
O O6 0.639150 0.944078 0.932808
O O7 0.016106 0.258946 0.776804
O O8 0.815921 0.994353 0.452251
O O9 0.949480 0.032979 0.959251
O O10 0.025747 0.585722 0.662796
#
# Coordination Sequence:
#
# PCOD9118950 Si02
#       5
#     2   2   2   2   2
#     4  11  23  45  77 107 156 199 247 316 390 441
#     4  11  24  46  74 115 150 206 252 315 385 464
#     4  11  25  47  77 110 149 203 252 313 383 458
#     4  11  25  49  76 109 151 201 254 314 386 452
#     4  12  25  51  76 109 156 199 255 320 374 459
#
# _framework density 26.758058999999999
#
# number of rings (size 3 to 8) (size 9 to 14) (size 15 to 20)
#    0.000    0.800    4.000    3.600    0.000    0.000 
#   14.400    0.000    0.000    0.000    0.000    0.000 
#    0.000    0.000    0.000    0.000    0.000    0.000 
#
# Total GULP energy -55973.504214 kJ/mol
# GULP energy per Si atom -5597.350421 kJ/mol
# Density = 2.669716 g / cm^3
# Si number density = 26.758059 Si / 1000 Ang^3
#
#
#
# Elastic Constant Matrix: (Units=GPa)
#
#
# Indices 1 2 3 4 5 6 
#
# 1 69.4212 -6.0204 16.6028 0.0000 -6.4100 0.0000
# 2 -6.0204 83.6616 10.8431 0.0000 12.6861 0.0000
# 3 16.6028 10.8431 122.4341 0.0000 -21.2085 0.0000
# 4 0.0000 0.0000 0.0000 -2.8537 0.0000 31.7114
# 5 -6.4100 12.6861 -21.2085 0.0000 37.4117 0.0000
# 6 0.0000 0.0000 0.0000 31.7114 0.0000 -3.5325
#
#
#
# Elastic Compliance Matrix: (Units=1/GPa)
#
#
# Indices 1 2 3 4 5 6 
#
# 1 0.015075 0.001177 -0.001963 0.000000 0.001071 0.000000
# 2 0.001177 0.013178 -0.002291 0.000000 -0.005566 0.000000
# 3 -0.001963 -0.002291 0.009662 0.000000 0.005918 0.000000
# 4 0.000000 0.000000 0.000000 0.003548 0.000000 0.031854
# 5 0.001071 -0.005566 0.005918 0.000000 0.032155 0.000000
# 6 0.000000 0.000000 0.000000 0.031854 0.000000 0.002866
#
#
# Mechanical properties :
#
#
# Convention : Reuss Voigt Hill
#
# Bulk Modulus (GPa) = 31.48456 35.37420 33.42938
# Shear Modulus (GPa) = 53.63271 23.14454 38.38862
#
# Velocity S-wave (km/s) = 4.48186 2.94420 3.79180
# Velocity P-wave (km/s) = 6.21085 4.98061 5.62944
#
# Compressibility (1/GPa) = 0.03176160
#
# Stress axis : x y z
#
# Youngs Moduli (GPa) = 66.33385 75.88124 103.50011
#
# Poissons Ratio (x) = -0.08930 0.20317
# Poissons Ratio (y) = -0.07806 0.23710
# Poissons Ratio (z) = 0.13021 0.17383
#
# Static dielectric constant tensor:
#      x y z
#    x 2.223210 0.000000 0.302190 
#    y 0.000000 2.027020 0.000000 
#    z 0.302190 0.000000 3.128370 
# 
# From -- ./inp_files/9209.got.cif
#   From: 2010.05.17/outbox.cif.g08.bks.cpg/sg4_5_cif.got.tgz:9209.got - 2010.06.03 18:43:04.
