data_PCOD9118955
_publ_section_title
;
Structure prediction by ZEFSAII (Michael W. Deem and Ramdas Pophale) SiO2 
 PCOD9118955
Probable space group: P 21
;
_chemical_formula_sum "Si O2"
_cell_formula_units_Z 14
_cell_length_a 6.966121
_cell_length_b 5.410438
_cell_length_c 16.615337
_cell_angle_alpha 90.000000
_cell_angle_beta 73.797694
_cell_angle_gamma 90.000000
_cell_volume 601.355915
_symmetry_space_group_name_H-M "P 21"
_symmetry_group_IT_number 4
_symmetry_cell_setting 'monoclinic'
loop_
_space_group_symop_operation_xyz
x,y,z
-x,1/2+y,-z
loop_
_atom_site_type_symbol
_atom_site_label
_atom_site_fract_x
_atom_site_fract_y
_atom_site_fract_z
Si Si1 0.357810 0.563810 0.902510
Si Si2 0.643889 0.910454 0.912380
Si Si3 0.732644 0.329893 0.328267
Si Si4 0.983970 0.112977 0.170156
Si Si5 0.897371 0.319922 0.478661
Si Si6 0.731026 0.311703 0.772260
Si Si7 0.529162 0.324458 0.629240
O O1 0.423190 0.848927 0.904893
O O2 0.152838 0.502351 0.883524
O O3 0.534843 0.458721 0.826638
O O4 0.371073 0.485121 0.993555
O O5 0.809049 0.695315 0.893523
O O6 0.732542 0.086206 0.833878
O O7 0.846198 0.316080 0.229639
O O8 0.889816 0.318905 0.383078
O O9 0.614120 0.586581 0.351280
O O10 0.589007 0.085370 0.348457
O O11 0.059733 0.943819 0.234405
O O12 0.666386 0.327487 0.534250
O O13 0.002983 0.567421 0.500145
O O14 0.685289 0.280831 0.684421
#
# Coordination Sequence:
#
# PCOD9118955 Si02
#       7
#     2   2   2   2   2   2   2
#     4  11  23  46  61 100 134 186 233 301 357 421
#     4  11  25  40  68  93 139 181 241 295 361 422
#     4  12  26  48  73 106 145 191 237 288 360 428
#     4  11  27  41  68 102 136 184 242 293 359 424
#     4  12  26  46  76 110 147 183 238 296 348 429
#     4  11  25  44  69  96 139 184 238 294 356 423
#     4  12  26  47  75 103 146 191 237 289 359 427
#
# _framework density 23.280725
#
# number of rings (size 3 to 8) (size 9 to 14) (size 15 to 20)
#    0.000    0.571    2.857    4.286    8.000    1.143 
#    0.000    0.000    0.000    0.000    0.000    0.000 
#    0.000    0.000    0.000    0.000    0.000    0.000 
#
# Total GULP energy -78199.359990 kJ/mol
# GULP energy per Si atom -5585.668571 kJ/mol
# Density = 2.322774 g / cm^3
# Si number density = 23.280725 Si / 1000 Ang^3
#
#
#
# Elastic Constant Matrix: (Units=GPa)
#
#
# Indices 1 2 3 4 5 6 
#
# 1 117.9393 39.8501 -24.0722 0.0000 21.3214 0.0000
# 2 39.8501 94.0936 -10.4247 0.0000 4.5056 0.0000
# 3 -24.0722 -10.4247 109.0098 0.0000 35.8571 0.0000
# 4 0.0000 0.0000 0.0000 30.8390 0.0000 -5.4649
# 5 21.3214 4.5056 35.8571 0.0000 59.4563 0.0000
# 6 0.0000 0.0000 0.0000 -5.4649 0.0000 40.6751
#
#
#
# Elastic Compliance Matrix: (Units=1/GPa)
#
#
# Indices 1 2 3 4 5 6 
#
# 1 0.012041 -0.004288 0.004444 0.000000 -0.006673 0.000000
# 2 -0.004288 0.012423 0.000056 0.000000 0.000562 0.000000
# 3 0.004444 0.000056 0.013330 0.000000 -0.009637 0.000000
# 4 0.000000 0.000000 0.000000 0.033217 0.000000 0.004463
# 5 -0.006673 0.000562 -0.009637 0.000000 0.024982 0.000000
# 6 0.000000 0.000000 0.000000 0.004463 0.000000 0.025185
#
#
# Mechanical properties :
#
#
# Convention : Reuss Voigt Hill
#
# Bulk Modulus (GPa) = 26.16472 36.86099 31.51285
# Shear Modulus (GPa) = 37.45528 47.24007 42.34767
#
# Velocity S-wave (km/s) = 4.01540 4.50949 4.26960
# Velocity P-wave (km/s) = 5.72373 6.55604 6.15398
#
# Compressibility (1/GPa) = 0.03821940
#
# Stress axis : x y z
#
# Youngs Moduli (GPa) = 83.04847 80.49635 75.01752
#
# Poissons Ratio (x) = 0.34514 -0.33338
# Poissons Ratio (y) = 0.35609 -0.00422
# Poissons Ratio (z) = -0.36907 -0.00453
#
# Static dielectric constant tensor:
#      x y z
#    x 1.855610 0.000000 0.015430 
#    y 0.000000 1.934920 0.000000 
#    z 0.015430 0.000000 1.828750 
# 
# From -- ./inp_files/3328.got.cif
#   From: 2010.05.17/outbox.cif.g08.bks.cpg/sg4_2_cif.got.tgz:3328.got - 2010.06.03 18:43:04.
