data_PCOD9118419
_publ_section_title
;
Structure prediction by ZEFSAII (Michael W. Deem and Ramdas Pophale) SiO2 
 PCOD9118419
Probable space group: P 21
;
_chemical_formula_sum "Si O2"
_cell_formula_units_Z 16
_cell_length_a 12.067114
_cell_length_b 12.597513
_cell_length_c 5.361678
_cell_angle_alpha 90.000000
_cell_angle_beta 55.372081
_cell_angle_gamma 90.000000
_cell_volume 670.678965
_symmetry_space_group_name_H-M "P 21"
_symmetry_group_IT_number 4
_symmetry_cell_setting 'monoclinic'
loop_
_space_group_symop_operation_xyz
x,y,z
-x,1/2+y,-z
loop_
_atom_site_type_symbol
_atom_site_label
_atom_site_fract_x
_atom_site_fract_y
_atom_site_fract_z
Si Si1 0.115399 0.221580 0.237554
Si Si2 0.105299 0.834974 0.203649
Si Si3 0.767239 0.528220 0.086702
Si Si4 0.676843 0.859339 0.960293
Si Si5 0.481070 0.875272 0.601150
Si Si6 0.604996 0.675457 0.683279
Si Si7 0.626773 0.048289 0.744839
Si Si8 0.163571 0.729714 0.629705
O O1 0.215820 0.308647 0.988510
O O2 0.040080 0.282579 0.556588
O O3 0.990226 0.191623 0.218967
O O4 0.196984 0.113318 0.170788
O O5 0.173510 0.817775 0.391952
O O6 0.173653 0.768489 0.897788
O O7 0.101848 0.952223 0.089043
O O8 0.656801 0.436993 0.181230
O O9 0.702551 0.602145 0.387131
O O10 0.676434 0.767326 0.753934
O O11 0.708853 0.976820 0.836978
O O12 0.525665 0.867633 0.257040
O O13 0.502787 0.754432 0.662003
O O14 0.584544 0.960034 0.594698
O O15 0.508974 0.599313 0.968732
O O16 0.723534 0.142115 0.544844
#
# Coordination Sequence:
#
# PCOD9118419 Si02
#       8
#     2   2   2   2   2   2   2   2
#     4  10  26  47  68 108 145 193 245 310 358 453
#     4  10  27  47  72 108 147 194 257 302 366 454
#     4  12  24  47  75 107 146 206 240 315 389 441
#     4  11  24  44  66 105 146 183 248 310 374 445
#     4  11  25  43  69 105 145 186 249 312 379 452
#     4  11  25  42  71 107 145 188 252 311 379 456
#     4  11  25  42  73 104 140 199 241 314 380 446
#     4  10  26  48  72 108 148 195 252 314 361 451
#
# _framework density 23.856421999999998
#
# number of rings (size 3 to 8) (size 9 to 14) (size 15 to 20)
#    0.750    0.500    2.500    1.500    7.000    2.000 
#    0.000    0.000    0.000    0.000    0.000    0.000 
#    0.000    0.000    0.000    0.000    0.000    0.000 
#
# Total GULP energy -89084.745122 kJ/mol
# GULP energy per Si atom -5567.796570 kJ/mol
# Density = 2.380212 g / cm^3
# Si number density = 23.856422 Si / 1000 Ang^3
#
#
#
# Elastic Constant Matrix: (Units=GPa)
#
#
# Indices 1 2 3 4 5 6 
#
# 1 45.7738 16.9443 21.3944 0.0000 -18.2940 0.0000
# 2 16.9443 147.8462 77.5575 0.0000 -24.5557 0.0000
# 3 21.3944 77.5575 104.0833 0.0000 -12.7342 0.0000
# 4 0.0000 0.0000 0.0000 52.7146 0.0000 -5.2974
# 5 -18.2940 -24.5557 -12.7342 0.0000 22.5892 0.0000
# 6 0.0000 0.0000 0.0000 -5.2974 0.0000 36.0940
#
#
#
# Elastic Compliance Matrix: (Units=1/GPa)
#
#
# Indices 1 2 3 4 5 6 
#
# 1 0.035247 0.004549 -0.007021 0.000000 0.029532 0.000000
# 2 0.004549 0.013204 -0.009202 0.000000 0.012850 0.000000
# 3 -0.007021 -0.009202 0.017172 0.000000 -0.006008 0.000000
# 4 0.000000 0.000000 0.000000 0.019254 0.000000 0.002826
# 5 0.029532 0.012850 -0.006008 0.000000 0.078766 0.000000
# 6 0.000000 0.000000 0.000000 0.002826 0.000000 0.028120
#
#
# Mechanical properties :
#
#
# Convention : Reuss Voigt Hill
#
# Bulk Modulus (GPa) = 23.65491 58.83284 41.24388
# Shear Modulus (GPa) = 21.81465 34.40003 28.10734
#
# Velocity S-wave (km/s) = 3.02721 3.80144 3.43620
# Velocity P-wave (km/s) = 4.70699 6.63194 5.75058
#
# Compressibility (1/GPa) = 0.04227451
#
# Stress axis : x y z
#
# Youngs Moduli (GPa) = 28.37110 75.73681 58.23327
#
# Poissons Ratio (x) = -0.34449 0.40888
# Poissons Ratio (y) = -0.12905 0.53583
# Poissons Ratio (z) = 0.19920 0.69689
#
# Static dielectric constant tensor:
#      x y z
#    x 2.186660 0.000000 0.014580 
#    y 0.000000 1.918020 0.000000 
#    z 0.014580 0.000000 1.984830 
# 
# From -- ./inp_files/3763.got.cif
#   From: 2010.05.17/outbox.cif.g08.bks.cpg/sg4_2_cif.got.tgz:3763.got - 2010.06.03 18:43:04.
