data_PCOD9118615
_publ_section_title
;
Structure prediction by ZEFSAII (Michael W. Deem and Ramdas Pophale) SiO2 
 PCOD9118615
Probable space group: P 21
;
_chemical_formula_sum "Si O2"
_cell_formula_units_Z 16
_cell_length_a 17.647318
_cell_length_b 8.805561
_cell_length_c 11.645696
_cell_angle_alpha 90.000000
_cell_angle_beta 21.632409
_cell_angle_gamma 90.000000
_cell_volume 667.138369
_symmetry_space_group_name_H-M "P 21"
_symmetry_group_IT_number 4
_symmetry_cell_setting 'monoclinic'
loop_
_space_group_symop_operation_xyz
x,y,z
-x,1/2+y,-z
loop_
_atom_site_type_symbol
_atom_site_label
_atom_site_fract_x
_atom_site_fract_y
_atom_site_fract_z
Si Si1 0.160434 0.923880 0.831581
Si Si2 0.249776 0.502527 0.888786
Si Si3 0.880725 0.710608 0.799782
Si Si4 0.583472 0.646120 0.030366
Si Si5 0.519759 0.154009 0.256367
Si Si6 0.187668 0.607635 0.732439
Si Si7 0.355077 0.804699 0.148029
Si Si8 0.356362 0.933539 0.779340
O O1 0.119034 0.780008 0.812159
O O2 0.249825 0.851627 0.822080
O O3 0.328406 0.040529 0.544375
O O4 0.949591 0.006061 0.156544
O O5 0.268056 0.585306 0.986909
O O6 0.127420 0.548462 0.946133
O O7 0.477395 0.535720 0.519635
O O8 0.221720 0.328167 0.965572
O O9 0.118676 0.751047 0.474472
O O10 0.777616 0.725776 0.818740
O O11 0.815141 0.537987 0.921545
O O12 0.422688 0.608652 0.360133
O O13 0.467012 0.759473 0.108277
O O14 0.633732 0.484356 0.899194
O O15 0.514784 0.315245 0.328379
O O16 0.535821 0.202731 0.102783
#
# Coordination Sequence:
#
# PCOD9118615 Si02
#       8
#     2   2   2   2   2   2   2   2
#     4  11  27  42  77 116 151 198 251 322 410 460
#     4  11  23  42  79 107 146 191 248 323 394 448
#     4  12  27  49  79 112 153 205 265 313 388 473
#     4  12  29  53  76 111 163 201 267 324 382 468
#     4  11  24  47  72 106 150 200 257 309 384 461
#     4  12  26  48  73 120 157 194 256 334 399 461
#     4  12  31  51  77 111 157 219 258 314 381 474
#     4  11  21  46  71 107 143 192 246 323 382 451
#
# _framework density 23.983031
#
# number of rings (size 3 to 8) (size 9 to 14) (size 15 to 20)
#    0.000    0.500    3.750    3.750   12.250    0.000 
#    2.250    0.000    0.000    0.000    0.000    0.000 
#    0.000    0.000    0.000    0.000    0.000    0.000 
#
# Total GULP energy -89300.116802 kJ/mol
# GULP energy per Si atom -5581.257300 kJ/mol
# Density = 2.392844 g / cm^3
# Si number density = 23.983031 Si / 1000 Ang^3
#
#
#
# Elastic Constant Matrix: (Units=GPa)
#
#
# Indices 1 2 3 4 5 6 
#
# 1 102.7973 22.4766 3.0239 0.0000 -3.7727 0.0000
# 2 22.4766 116.6919 13.9585 0.0000 -3.2678 0.0000
# 3 3.0239 13.9585 36.4967 0.0000 -18.7503 0.0000
# 4 0.0000 0.0000 0.0000 25.5147 0.0000 -8.0145
# 5 -3.7727 -3.2678 -18.7503 0.0000 28.3003 0.0000
# 6 0.0000 0.0000 0.0000 -8.0145 0.0000 30.9757
#
#
#
# Elastic Compliance Matrix: (Units=1/GPa)
#
#
# Indices 1 2 3 4 5 6 
#
# 1 0.010205 -0.002011 0.000763 0.000000 0.001634 0.000000
# 2 -0.002011 0.009443 -0.004582 0.000000 -0.002214 0.000000
# 3 0.000763 -0.004582 0.043767 0.000000 0.028570 0.000000
# 4 0.000000 0.000000 0.000000 0.042660 0.000000 0.011038
# 5 0.001634 -0.002214 0.028570 0.000000 0.054227 0.000000
# 6 0.000000 0.000000 0.000000 0.011038 0.000000 0.035139
#
#
# Mechanical properties :
#
#
# Convention : Reuss Voigt Hill
#
# Bulk Modulus (GPa) = 19.32202 37.21156 28.26679
# Shear Modulus (GPa) = 22.28623 31.39327 26.83975
#
# Velocity S-wave (km/s) = 3.05167 3.62191 3.34895
# Velocity P-wave (km/s) = 4.52669 5.74808 5.17355
#
# Compressibility (1/GPa) = 0.05175443
#
# Stress axis : x y z
#
# Youngs Moduli (GPa) = 97.98990 105.89752 22.84820
#
# Poissons Ratio (x) = 0.21298 -0.01743
# Poissons Ratio (y) = 0.19708 0.10470
# Poissons Ratio (z) = -0.07476 0.48525
#
# Static dielectric constant tensor:
#      x y z
#    x 2.050000 0.000000 -0.000480 
#    y 0.000000 1.959040 0.000000 
#    z -0.000480 0.000000 1.917080 
# 
# From -- ./inp_files/12904.got.cif
#   From: 2010.05.17/outbox.cif.g08.bks.cpg/sg4_7_cif.got.tgz:12904.got - 2010.06.03 18:43:04.
