data_PCOD9118028
_publ_section_title
;
Structure prediction by ZEFSAII (Michael W. Deem and Ramdas Pophale) SiO2 
 PCOD9118028
Probable space group: P 21
;
_chemical_formula_sum "Si O2"
_cell_formula_units_Z 12
_cell_length_a 13.490630
_cell_length_b 4.711051
_cell_length_c 8.939821
_cell_angle_alpha 90.000000
_cell_angle_beta 129.684551
_cell_angle_gamma 90.000000
_cell_volume 437.248153
_symmetry_space_group_name_H-M "P 21"
_symmetry_group_IT_number 4
_symmetry_cell_setting 'monoclinic'
loop_
_space_group_symop_operation_xyz
x,y,z
-x,1/2+y,-z
loop_
_atom_site_type_symbol
_atom_site_label
_atom_site_fract_x
_atom_site_fract_y
_atom_site_fract_z
Si Si1 0.341735 0.505840 0.769260
Si Si2 0.960411 0.803178 0.056531
Si Si3 0.423346 0.061011 0.636722
Si Si4 0.050988 0.520733 0.454979
Si Si5 0.316743 0.303029 0.243580
Si Si6 0.615922 0.462758 0.959211
O O1 0.198029 0.413210 0.580429
O O2 0.630263 0.298560 0.322774
O O3 0.387923 0.236396 0.940342
O O4 0.321086 0.715712 0.891960
O O5 0.003824 0.665664 0.254735
O O6 0.818465 0.941655 0.921858
O O7 0.951559 0.549168 0.926638
O O8 0.332474 0.193967 0.425832
O O9 0.466522 0.339582 0.780986
O O10 0.554076 0.972740 0.677291
O O11 0.032916 0.757074 0.567238
O O12 0.324243 0.038066 0.138914
#
# Coordination Sequence:
#
# PCOD9118028 Si02
#       6
#     2   2   2   2   2   2
#     4  10  25  46  69 110 145 185 247 301 378 429
#     4  12  30  50  79 110 153 205 253 309 367 455
#     4  10  24  43  74 108 144 187 235 320 368 438
#     4  12  28  51  77 108 154 207 252 306 369 455
#     4  12  24  47  76 108 148 189 254 296 386 439
#     4  10  25  41  71 106 142 187 231 316 362 434
#
# _framework density 27.444365000000001
#
# number of rings (size 3 to 8) (size 9 to 14) (size 15 to 20)
#    1.000    0.000    1.667    3.000    7.000    4.000 
#    0.000    0.000    0.000    0.000    0.000    0.000 
#    0.000    0.000    0.000    0.000    0.000    0.000 
#
# Total GULP energy -67097.917541 kJ/mol
# GULP energy per Si atom -5591.493128 kJ/mol
# Density = 2.738190 g / cm^3
# Si number density = 27.444365 Si / 1000 Ang^3
#
#
#
# Elastic Constant Matrix: (Units=GPa)
#
#
# Indices 1 2 3 4 5 6 
#
# 1 138.5496 53.4798 77.7674 0.0000 7.1739 0.0000
# 2 53.4798 140.3602 36.4719 0.0000 -27.4559 0.0000
# 3 77.7674 36.4719 171.8946 0.0000 0.8880 0.0000
# 4 0.0000 0.0000 0.0000 33.4128 0.0000 -7.0316
# 5 7.1739 -27.4559 0.8880 0.0000 57.1654 0.0000
# 6 0.0000 0.0000 0.0000 -7.0316 0.0000 56.4380
#
#
#
# Elastic Compliance Matrix: (Units=1/GPa)
#
#
# Indices 1 2 3 4 5 6 
#
# 1 0.011239 -0.003794 -0.004263 0.000000 -0.003166 0.000000
# 2 -0.003794 0.009666 -0.000361 0.000000 0.005124 0.000000
# 3 -0.004263 -0.000361 0.007822 0.000000 0.000240 0.000000
# 4 0.000000 0.000000 0.000000 0.030735 0.000000 0.003829
# 5 -0.003166 0.005124 0.000240 0.000000 0.020348 0.000000
# 6 0.000000 0.000000 0.000000 0.003829 0.000000 0.018196
#
#
# Mechanical properties :
#
#
# Convention : Reuss Voigt Hill
#
# Bulk Modulus (GPa) = 84.10094 87.36027 85.73061
# Shear Modulus (GPa) = 42.08585 48.27559 45.18072
#
# Velocity S-wave (km/s) = 3.92024 4.19863 4.06182
# Velocity P-wave (km/s) = 7.15554 7.44349 7.30093
#
# Compressibility (1/GPa) = 0.01189047
#
# Stress axis : x y z
#
# Youngs Moduli (GPa) = 88.97604 103.45311 127.84980
#
# Poissons Ratio (x) = 0.39248 0.54507
# Poissons Ratio (y) = 0.33756 0.04616
# Poissons Ratio (z) = 0.37934 0.03735
#
# Static dielectric constant tensor:
#      x y z
#    x 2.125860 0.000000 0.031570 
#    y 0.000000 2.151820 0.000000 
#    z 0.031570 0.000000 2.139370 
# 
# From -- ./inp_files/9062.got.cif
#   From: 2010.05.17/outbox.cif.g08.bks.cpg/sg4_5_cif.got.tgz:9062.got - 2010.06.03 18:43:04.
