data_PCOD9118195
_publ_section_title
;
Structure prediction by ZEFSAII (Michael W. Deem and Ramdas Pophale) SiO2 
 PCOD9118195
Probable space group: P 21
;
_chemical_formula_sum "Si O2"
_cell_formula_units_Z 14
_cell_length_a 4.949103
_cell_length_b 16.424463
_cell_length_c 7.261226
_cell_angle_alpha 90.000000
_cell_angle_beta 110.124778
_cell_angle_gamma 90.000000
_cell_volume 554.201927
_symmetry_space_group_name_H-M "P 21"
_symmetry_group_IT_number 4
_symmetry_cell_setting 'monoclinic'
loop_
_space_group_symop_operation_xyz
x,y,z
-x,1/2+y,-z
loop_
_atom_site_type_symbol
_atom_site_label
_atom_site_fract_x
_atom_site_fract_y
_atom_site_fract_z
Si Si1 0.459386 0.812070 0.241612
Si Si2 0.581162 0.983327 0.362137
Si Si3 0.917600 0.395752 0.311452
Si Si4 0.007923 0.077314 0.237590
Si Si5 0.952106 0.695839 0.058437
Si Si6 0.929142 0.724339 0.484757
Si Si7 0.692499 0.847732 0.918416
O O1 0.397408 0.899314 0.311407
O O2 0.596336 0.752646 0.424915
O O3 0.687971 0.842020 0.139183
O O4 0.223380 0.755949 0.093034
O O5 0.865779 0.961238 0.549033
O O6 0.327806 0.044524 0.360075
O O7 0.740049 0.018565 0.217797
O O8 0.935396 0.311829 0.433900
O O9 0.047232 0.382533 0.138100
O O10 0.578075 0.402026 0.205185
O O11 0.012200 0.110012 0.030229
O O12 0.963550 0.155904 0.355430
O O13 0.702888 0.748496 0.895453
O O14 0.932314 0.692223 0.274816
#
# Coordination Sequence:
#
# PCOD9118195 Si02
#       7
#     2   2   2   2   2   2   2
#     4  10  24  47  74 107 140 191 245 294 345 439
#     4  11  29  47  69 104 152 188 230 309 372 409
#     4  11  23  44  73 101 140 189 240 286 346 438
#     4  12  27  50  68 108 151 186 234 305 370 418
#     4  11  25  44  79 108 139 192 247 293 353 431
#     4  10  25  41  78 100 139 186 247 279 350 434
#     4  11  21  41  75 104 131 180 249 284 338 415
#
# _framework density 25.261548999999999
#
# number of rings (size 3 to 8) (size 9 to 14) (size 15 to 20)
#    0.000    1.143    2.857    0.857   18.000    0.000 
#    7.714    0.000    0.000    0.000    0.000    0.000 
#    0.000    0.000    0.000    0.000    0.000    0.000 
#
# Total GULP energy -78038.808407 kJ/mol
# GULP energy per Si atom -5574.200600 kJ/mol
# Density = 2.520405 g / cm^3
# Si number density = 25.261549 Si / 1000 Ang^3
#
#
#
# Elastic Constant Matrix: (Units=GPa)
#
#
# Indices 1 2 3 4 5 6 
#
# 1 106.3569 16.3003 1.0218 0.0000 4.1435 0.0000
# 2 16.3003 65.0771 4.6813 0.0000 6.9728 0.0000
# 3 1.0218 4.6813 67.4502 0.0000 1.7181 0.0000
# 4 0.0000 0.0000 0.0000 21.1941 0.0000 -0.9440
# 5 4.1435 6.9728 1.7181 0.0000 36.0525 0.0000
# 6 0.0000 0.0000 0.0000 -0.9440 0.0000 34.8070
#
#
#
# Elastic Compliance Matrix: (Units=1/GPa)
#
#
# Indices 1 2 3 4 5 6 
#
# 1 0.009793 -0.002384 0.000034 0.000000 -0.000666 0.000000
# 2 -0.002384 0.016341 -0.001026 0.000000 -0.002838 0.000000
# 3 0.000034 -0.001026 0.014910 0.000000 -0.000516 0.000000
# 4 0.000000 0.000000 0.000000 0.047240 0.000000 0.001281
# 5 -0.000666 -0.002838 -0.000516 0.000000 0.028387 0.000000
# 6 0.000000 0.000000 0.000000 0.001281 0.000000 0.028765
#
#
# Mechanical properties :
#
#
# Convention : Reuss Voigt Hill
#
# Bulk Modulus (GPa) = 29.16070 31.43233 30.29651
# Shear Modulus (GPa) = 30.55889 32.86945 31.71417
#
# Velocity S-wave (km/s) = 3.48185 3.61108 3.54705
# Velocity P-wave (km/s) = 5.26621 5.46409 5.36606
#
# Compressibility (1/GPa) = 0.03429273
#
# Stress axis : x y z
#
# Youngs Moduli (GPa) = 102.11053 61.19435 67.07098
#
# Poissons Ratio (x) = 0.14589 -0.00229
# Poissons Ratio (y) = 0.24344 0.06880
# Poissons Ratio (z) = -0.00348 0.06277
#
# Static dielectric constant tensor:
#      x y z
#    x 2.110880 0.000000 0.021100 
#    y 0.000000 2.059180 0.000000 
#    z 0.021100 0.000000 2.074200 
# 
# From -- ./inp_files/4838.got.cif
#   From: 2010.05.17/outbox.cif.g08.bks.cpg/sg4_3_cif.got.tgz:4838.got - 2010.06.03 18:43:04.
