data_PCOD9118030
_publ_section_title
;
Structure prediction by ZEFSAII (Michael W. Deem and Ramdas Pophale) SiO2 
 PCOD9118030
Probable space group: P 21
;
_chemical_formula_sum "Si O2"
_cell_formula_units_Z 14
_cell_length_a 14.159530
_cell_length_b 7.626099
_cell_length_c 8.658563
_cell_angle_alpha 90.000000
_cell_angle_beta 145.951492
_cell_angle_gamma 90.000000
_cell_volume 523.483945
_symmetry_space_group_name_H-M "P 21"
_symmetry_group_IT_number 4
_symmetry_cell_setting 'monoclinic'
loop_
_space_group_symop_operation_xyz
x,y,z
-x,1/2+y,-z
loop_
_atom_site_type_symbol
_atom_site_label
_atom_site_fract_x
_atom_site_fract_y
_atom_site_fract_z
Si Si1 0.388307 0.986230 0.614310
Si Si2 0.633901 0.829208 0.308454
Si Si3 0.777991 0.215719 0.812596
Si Si4 0.777053 0.092463 0.145489
Si Si5 0.860930 0.824617 0.823555
Si Si6 0.681422 0.541394 0.147836
Si Si7 0.064732 0.221009 0.731574
O O1 0.367723 0.834976 0.463653
O O2 0.311081 0.186913 0.474152
O O3 0.289599 0.956950 0.641648
O O4 0.580681 0.043033 0.908213
O O5 0.814430 0.904956 0.568420
O O6 0.609404 0.726338 0.118310
O O7 0.780138 0.007721 0.782059
O O8 0.474477 0.938641 0.134320
O O9 0.776663 0.217860 0.995438
O O10 0.943745 0.296269 0.961544
O O11 0.874621 0.189197 0.414351
O O12 0.876087 0.915321 0.241204
O O13 0.883685 0.714690 0.021013
O O14 0.823458 0.589836 0.222190
#
# Coordination Sequence:
#
# PCOD9118030 Si02
#       7
#     2   2   2   2   2   2   2
#     4  10  26  47  79 117 155 211 267 327 406 474
#     4  10  24  43  76 111 156 210 265 325 411 450
#     4  11  26  49  82 113 169 203 277 325 406 476
#     4  11  27  49  79 117 160 216 263 338 388 488
#     4  11  26  48  77 122 158 216 262 344 390 485
#     4  10  24  47  77 107 162 205 270 331 385 503
#     4  11  27  47  78 117 158 211 274 320 414 462
#
# _framework density 26.743894000000001
#
# number of rings (size 3 to 8) (size 9 to 14) (size 15 to 20)
#    0.857    0.571    0.000    2.571   10.000    6.857 
#    2.571    0.000    0.000    0.000    0.000    0.000 
#    0.000    0.000    0.000    0.000    0.000    0.000 
#
# Total GULP energy -77992.595878 kJ/mol
# GULP energy per Si atom -5570.899706 kJ/mol
# Density = 2.668302 g / cm^3
# Si number density = 26.743894 Si / 1000 Ang^3
#
#
#
# Elastic Constant Matrix: (Units=GPa)
#
#
# Indices 1 2 3 4 5 6 
#
# 1 127.9866 53.6840 83.5714 0.0000 -3.4936 0.0000
# 2 53.6840 107.1574 97.4322 0.0000 -17.0970 0.0000
# 3 83.5714 97.4322 194.5451 0.0000 -7.8456 0.0000
# 4 0.0000 0.0000 0.0000 59.7835 0.0000 -7.9556
# 5 -3.4936 -17.0970 -7.8456 0.0000 32.1449 0.0000
# 6 0.0000 0.0000 0.0000 -7.9556 0.0000 44.3922
#
#
#
# Elastic Compliance Matrix: (Units=1/GPa)
#
#
# Indices 1 2 3 4 5 6 
#
# 1 0.011178 -0.002488 -0.003595 0.000000 -0.000986 0.000000
# 2 -0.002488 0.019453 -0.008349 0.000000 0.008038 0.000000
# 3 -0.003595 -0.008349 0.010777 0.000000 -0.002201 0.000000
# 4 0.000000 0.000000 0.000000 0.017136 0.000000 0.003071
# 5 -0.000986 0.008038 -0.002201 0.000000 0.034740 0.000000
# 6 0.000000 0.000000 0.000000 0.003071 0.000000 0.023077
#
#
# Mechanical properties :
#
#
# Convention : Reuss Voigt Hill
#
# Bulk Modulus (GPa) = 79.73068 99.89601 89.81335
# Shear Modulus (GPa) = 33.46580 40.26421 36.86500
#
# Velocity S-wave (km/s) = 3.54127 3.88435 3.71677
# Velocity P-wave (km/s) = 6.82629 7.58627 7.21629
#
# Compressibility (1/GPa) = 0.01254222
#
# Stress axis : x y z
#
# Youngs Moduli (GPa) = 89.46413 51.40705 92.78734
#
# Poissons Ratio (x) = 0.12791 0.33359
# Poissons Ratio (y) = 0.22260 0.77470
# Poissons Ratio (z) = 0.32165 0.42921
#
# Static dielectric constant tensor:
#      x y z
#    x 2.115820 0.000000 -0.119460 
#    y 0.000000 2.396420 0.000000 
#    z -0.119460 0.000000 2.168170 
# 
# From -- ./inp_files/9218.got.cif
#   From: 2010.05.17/outbox.cif.g08.bks.cpg/sg4_5_cif.got.tgz:9218.got - 2010.06.03 18:43:04.
