data_PCOD9118481
_publ_section_title
;
Structure prediction by ZEFSAII (Michael W. Deem and Ramdas Pophale) SiO2 
 PCOD9118481
Probable space group: P 21
;
_chemical_formula_sum "Si O2"
_cell_formula_units_Z 16
_cell_length_a 8.734447
_cell_length_b 11.935719
_cell_length_c 8.014491
_cell_angle_alpha 90.000000
_cell_angle_beta 52.786761
_cell_angle_gamma 90.000000
_cell_volume 665.404678
_symmetry_space_group_name_H-M "P 21"
_symmetry_group_IT_number 4
_symmetry_cell_setting 'monoclinic'
loop_
_space_group_symop_operation_xyz
x,y,z
-x,1/2+y,-z
loop_
_atom_site_type_symbol
_atom_site_label
_atom_site_fract_x
_atom_site_fract_y
_atom_site_fract_z
Si Si1 0.762691 0.095210 0.509353
Si Si2 0.339380 0.036755 0.188177
Si Si3 0.262154 0.586624 0.098404
Si Si4 0.434469 0.796903 0.532463
Si Si5 0.871133 0.747682 0.647860
Si Si6 0.730908 0.333604 0.014460
Si Si7 0.154294 0.357421 0.701132
Si Si8 0.920698 0.450578 0.344944
O O1 0.695359 0.056181 0.736219
O O2 0.619653 0.174735 0.500847
O O3 0.940442 0.175227 0.435193
O O4 0.823916 0.986429 0.367385
O O5 0.314000 0.944282 0.061378
O O6 0.174556 0.006900 0.429812
O O7 0.297714 0.167252 0.175314
O O8 0.555339 0.035365 0.117428
O O9 0.267648 0.720681 0.093043
O O10 0.053519 0.545323 0.172287
O O11 0.650067 0.824393 0.335878
O O12 0.265444 0.885008 0.598553
O O13 0.420632 0.808569 0.741096
O O14 0.856675 0.783284 0.462997
O O15 0.914710 0.861288 0.716824
O O16 0.952847 0.343944 0.929881
#
# Coordination Sequence:
#
# PCOD9118481 Si02
#       8
#     2   2   2   2   2   2   2   2
#     4  11  22  47  68 101 143 190 237 303 357 422
#     4  12  24  41  77 104 133 187 250 297 350 433
#     4  12  24  42  76 102 137 184 250 296 352 427
#     4  11  29  43  66 104 151 186 233 289 377 425
#     4  11  19  44  74  97 136 184 238 298 355 413
#     4  12  24  44  66 107 140 186 237 296 354 434
#     4  12  22  45  73  97 146 187 236 303 364 419
#     4  11  24  48  66 102 140 186 237 304 355 427
#
# _framework density 24.045518999999999
#
# number of rings (size 3 to 8) (size 9 to 14) (size 15 to 20)
#    0.000    0.500    6.250    2.250    1.750    5.000 
#    4.500    0.000    0.000    0.000    0.000    0.000 
#    0.000    0.000    0.000    0.000    0.000    0.000 
#
# Total GULP energy -89394.077002 kJ/mol
# GULP energy per Si atom -5587.129813 kJ/mol
# Density = 2.399079 g / cm^3
# Si number density = 24.045519 Si / 1000 Ang^3
#
#
#
# Elastic Constant Matrix: (Units=GPa)
#
#
# Indices 1 2 3 4 5 6 
#
# 1 72.4047 36.1565 17.7981 0.0000 -35.9249 0.0000
# 2 36.1565 114.3858 21.2188 0.0000 -16.3983 0.0000
# 3 17.7981 21.2188 42.1562 0.0000 -32.4268 0.0000
# 4 0.0000 0.0000 0.0000 18.9776 0.0000 3.9330
# 5 -35.9249 -16.3983 -32.4268 0.0000 39.2787 0.0000
# 6 0.0000 0.0000 0.0000 3.9330 0.0000 40.0921
#
#
#
# Elastic Compliance Matrix: (Units=1/GPa)
#
#
# Indices 1 2 3 4 5 6 
#
# 1 0.042855 -0.011190 0.038621 0.000000 0.066408 0.000000
# 2 -0.011190 0.012565 -0.014898 0.000000 -0.017289 0.000000
# 3 0.038621 -0.014898 0.102202 0.000000 0.113477 0.000000
# 4 0.000000 0.000000 0.000000 0.053787 0.000000 -0.005277
# 5 0.066408 -0.017289 0.113477 0.000000 0.172661 0.000000
# 6 0.000000 0.000000 0.000000 -0.005277 0.000000 0.025460
#
#
# Mechanical properties :
#
#
# Convention : Reuss Voigt Hill
#
# Bulk Modulus (GPa) = 5.47388 42.14373 23.80881
# Shear Modulus (GPa) = 11.22685 29.92123 20.57404
#
# Velocity S-wave (km/s) = 2.16313 3.53137 2.92829
# Velocity P-wave (km/s) = 2.91895 5.84741 4.62128
#
# Compressibility (1/GPa) = 0.18268563
#
# Stress axis : x y z
#
# Youngs Moduli (GPa) = 23.33436 79.58814 9.78457
#
# Poissons Ratio (x) = 0.89061 -0.37789
# Poissons Ratio (y) = 0.26112 0.14577
# Poissons Ratio (z) = -0.90119 1.18573
#
# Static dielectric constant tensor:
#      x y z
#    x 1.971000 0.000000 0.020630 
#    y 0.000000 1.967260 0.000000 
#    z 0.020630 0.000000 1.980140 
# 
# From -- ./inp_files/6383.got.cif
#   From: 2010.05.17/outbox.cif.g08.bks.cpg/sg4_4_cif.got.tgz:6383.got - 2010.06.03 18:43:04.
