data_PCOD9118801
_publ_section_title
;
Structure prediction by ZEFSAII (Michael W. Deem and Ramdas Pophale) SiO2 
 PCOD9118801
Probable space group: P 21
;
_chemical_formula_sum "Si O2"
_cell_formula_units_Z 12
_cell_length_a 12.684484
_cell_length_b 4.913597
_cell_length_c 17.151307
_cell_angle_alpha 90.000000
_cell_angle_beta 24.737508
_cell_angle_gamma 90.000000
_cell_volume 447.327197
_symmetry_space_group_name_H-M "P 21"
_symmetry_group_IT_number 4
_symmetry_cell_setting 'monoclinic'
loop_
_space_group_symop_operation_xyz
x,y,z
-x,1/2+y,-z
loop_
_atom_site_type_symbol
_atom_site_label
_atom_site_fract_x
_atom_site_fract_y
_atom_site_fract_z
Si Si1 0.598937 0.598730 0.231513
Si Si2 0.275052 0.373862 0.224285
Si Si3 0.554880 0.865143 0.072430
Si Si4 0.735436 0.553941 0.546033
Si Si5 0.147193 0.460010 0.802385
Si Si6 0.121350 0.966706 0.724532
O O1 0.401225 0.346357 0.371423
O O2 0.449961 0.840728 0.287517
O O3 0.707227 0.787353 0.230216
O O4 0.857629 0.477331 0.023972
O O5 0.321840 0.075953 0.227415
O O6 0.006131 0.523073 0.404976
O O7 0.471787 0.556320 0.139128
O O8 0.358832 0.368587 0.078020
O O9 0.820989 0.937764 0.931701
O O10 0.789039 0.425946 0.423673
O O11 0.176084 0.276953 0.707068
O O12 0.226952 0.759896 0.719512
#
# Coordination Sequence:
#
# PCOD9118801 Si02
#       6
#     2   2   2   2   2   2
#     4  12  25  44  64  86 123 171 212 251 315 387
#     4   9  17  32  57  90 125 158 194 242 305 372
#     4   9  17  32  57  90 125 158 194 242 305 372
#     4  11  23  40  67  98 124 157 209 267 309 353
#     4  12  25  44  64  86 123 171 212 251 315 387
#     4  11  23  40  67  98 124 157 209 267 309 353
#
# _framework density 26.825998999999999
#
# number of rings (size 3 to 8) (size 9 to 14) (size 15 to 20)
#    0.000    1.333    0.000    7.000    0.000    8.000 
#    0.000    1.667    0.000   20.000    0.000    0.000 
#    0.000    0.000    0.000    0.000    0.000    0.000 
#
# Total GULP energy -67115.137545 kJ/mol
# GULP energy per Si atom -5592.928129 kJ/mol
# Density = 2.676494 g / cm^3
# Si number density = 26.825999 Si / 1000 Ang^3
#
#
#
# Elastic Constant Matrix: (Units=GPa)
#
#
# Indices 1 2 3 4 5 6 
#
# 1 51.4341 17.6246 12.0570 0.0000 -16.5232 0.0000
# 2 17.6246 156.9131 40.3048 0.0000 -24.4662 0.0000
# 3 12.0570 40.3048 152.3865 0.0000 -24.6932 0.0000
# 4 0.0000 0.0000 0.0000 44.8497 0.0000 -5.1948
# 5 -16.5232 -24.4662 -24.6932 0.0000 46.3065 0.0000
# 6 0.0000 0.0000 0.0000 -5.1948 0.0000 45.5054
#
#
#
# Elastic Compliance Matrix: (Units=1/GPa)
#
#
# Indices 1 2 3 4 5 6 
#
# 1 0.022237 -0.001325 -0.000259 0.000000 0.007097 0.000000
# 2 -0.001325 0.007291 -0.001397 0.000000 0.002635 0.000000
# 3 -0.000259 -0.001397 0.007462 0.000000 0.003149 0.000000
# 4 0.000000 0.000000 0.000000 0.022595 0.000000 0.002579
# 5 0.007097 0.002635 0.003149 0.000000 0.027199 0.000000
# 6 0.000000 0.000000 0.000000 0.002579 0.000000 0.022270
#
#
# Mechanical properties :
#
#
# Convention : Reuss Voigt Hill
#
# Bulk Modulus (GPa) = 32.22716 55.63406 43.93061
# Shear Modulus (GPa) = 39.88551 46.71546 43.30049
#
# Velocity S-wave (km/s) = 3.86012 4.17757 4.02197
# Velocity P-wave (km/s) = 5.64861 6.63726 6.16280
#
# Compressibility (1/GPa) = 0.03102973
#
# Stress axis : x y z
#
# Youngs Moduli (GPa) = 44.97058 137.14892 134.00428
#
# Poissons Ratio (x) = 0.18166 0.03472
# Poissons Ratio (y) = 0.05957 0.18717
# Poissons Ratio (z) = 0.01165 0.19156
#
# Static dielectric constant tensor:
#      x y z
#    x 2.214110 0.000000 0.073780 
#    y 0.000000 1.996470 0.000000 
#    z 0.073780 0.000000 2.101830 
# 
# From -- ./inp_files/15725.got.cif
#   From: 2010.05.17/outbox.cif.g08.bks.cpg/sg4_8_cif.got.tgz:15725.got - 2010.06.03 18:43:04.
