data_PCOD9118191
_publ_section_title
;
Structure prediction by ZEFSAII (Michael W. Deem and Ramdas Pophale) SiO2 
 PCOD9118191
Probable space group: P 21
;
_chemical_formula_sum "Si O2"
_cell_formula_units_Z 14
_cell_length_a 16.581504
_cell_length_b 7.307164
_cell_length_c 10.955324
_cell_angle_alpha 90.000000
_cell_angle_beta 156.270130
_cell_angle_gamma 90.000000
_cell_volume 534.174368
_symmetry_space_group_name_H-M "P 21"
_symmetry_group_IT_number 4
_symmetry_cell_setting 'monoclinic'
loop_
_space_group_symop_operation_xyz
x,y,z
-x,1/2+y,-z
loop_
_atom_site_type_symbol
_atom_site_label
_atom_site_fract_x
_atom_site_fract_y
_atom_site_fract_z
Si Si1 0.199907 0.722220 0.443401
Si Si2 0.560175 0.378248 0.555321
Si Si3 0.720517 0.163531 0.169586
Si Si4 0.007047 0.337639 0.168043
Si Si5 0.114638 0.255042 0.581536
Si Si6 0.579203 0.600356 0.816145
Si Si7 0.305161 0.109161 0.471779
O O1 0.248802 0.746663 0.653943
O O2 0.033593 0.557994 0.213550
O O3 0.387761 0.628580 0.635838
O O4 0.201657 0.922907 0.382912
O O5 0.540972 0.437251 0.668198
O O6 0.402069 0.269165 0.254243
O O7 0.599565 0.556701 0.525795
O O8 0.776408 0.278991 0.845459
O O9 0.886388 0.246982 0.310036
O O10 0.775809 0.948517 0.247283
O O11 0.491223 0.174476 0.811662
O O12 0.104504 0.242121 0.421836
O O13 0.133365 0.260092 0.231518
O O14 0.236845 0.114161 0.835410
#
# Coordination Sequence:
#
# PCOD9118191 Si02
#       7
#     2   2   2   2   2   2   2
#     4  10  24  47  73 103 145 187 243 308 352 434
#     4  11  27  47  70 110 144 194 242 290 383 435
#     4  11  24  45  72 108 140 191 243 302 370 414
#     4  11  27  46  77 108 138 198 246 293 379 429
#     4  11  24  46  71 106 142 185 252 300 354 434
#     4  11  24  49  71 103 152 187 241 311 356 436
#     4  11  26  48  72 106 147 192 243 302 368 442
#
# _framework density 26.208673000000001
#
# number of rings (size 3 to 8) (size 9 to 14) (size 15 to 20)
#    0.000    1.143    2.857    2.571   12.000    1.143 
#    2.571    0.000    0.000    0.000    0.000    0.000 
#    0.000    0.000    0.000    0.000    0.000    0.000 
#
# Total GULP energy -78364.206111 kJ/mol
# GULP energy per Si atom -5597.443294 kJ/mol
# Density = 2.614902 g / cm^3
# Si number density = 26.208673 Si / 1000 Ang^3
#
#
#
# Elastic Constant Matrix: (Units=GPa)
#
#
# Indices 1 2 3 4 5 6 
#
# 1 105.1242 7.3646 6.1201 0.0000 -11.8069 0.0000
# 2 7.3646 66.7734 13.6938 0.0000 -7.7270 0.0000
# 3 6.1201 13.6938 95.6083 0.0000 -11.1471 0.0000
# 4 0.0000 0.0000 0.0000 41.7132 0.0000 0.7441
# 5 -11.8069 -7.7270 -11.1471 0.0000 46.2301 0.0000
# 6 0.0000 0.0000 0.0000 0.7441 0.0000 47.5663
#
#
#
# Elastic Compliance Matrix: (Units=1/GPa)
#
#
# Indices 1 2 3 4 5 6 
#
# 1 0.009842 -0.000765 -0.000249 0.000000 0.002326 0.000000
# 2 -0.000765 0.015690 -0.001971 0.000000 0.001952 0.000000
# 3 -0.000249 -0.001971 0.011022 0.000000 0.002264 0.000000
# 4 0.000000 0.000000 0.000000 0.023980 0.000000 -0.000375
# 5 0.002326 0.001952 0.002264 0.000000 0.023097 0.000000
# 6 0.000000 0.000000 0.000000 -0.000375 0.000000 0.021029
#
#
# Mechanical properties :
#
#
# Convention : Reuss Voigt Hill
#
# Bulk Modulus (GPa) = 32.69750 35.76255 34.23003
# Shear Modulus (GPa) = 41.38214 43.12376 42.25295
#
# Velocity S-wave (km/s) = 3.97791 4.06075 4.01955
# Velocity P-wave (km/s) = 5.79666 5.97170 5.88483
#
# Compressibility (1/GPa) = 0.03058337
#
# Stress axis : x y z
#
# Youngs Moduli (GPa) = 101.60672 63.73302 90.73104
#
# Poissons Ratio (x) = 0.04877 0.02262
# Poissons Ratio (y) = 0.07775 0.17881
# Poissons Ratio (z) = 0.02533 0.12560
#
# Static dielectric constant tensor:
#      x y z
#    x 1.998580 0.000000 -0.007970 
#    y 0.000000 2.157920 0.000000 
#    z -0.007970 0.000000 2.048010 
# 
# From -- ./inp_files/12932.got.cif
#   From: 2010.05.17/outbox.cif.g08.bks.cpg/sg4_7_cif.got.tgz:12932.got - 2010.06.03 18:43:04.
