data_PCOD9118547
_publ_section_title
;
Structure prediction by ZEFSAII (Michael W. Deem and Ramdas Pophale) SiO2 
 PCOD9118547
Probable space group: P 21
;
_chemical_formula_sum "Si O2"
_cell_formula_units_Z 14
_cell_length_a 11.406370
_cell_length_b 5.569067
_cell_length_c 9.125538
_cell_angle_alpha 90.000000
_cell_angle_beta 105.051103
_cell_angle_gamma 90.000000
_cell_volume 559.793920
_symmetry_space_group_name_H-M "P 21"
_symmetry_group_IT_number 4
_symmetry_cell_setting 'monoclinic'
loop_
_space_group_symop_operation_xyz
x,y,z
-x,1/2+y,-z
loop_
_atom_site_type_symbol
_atom_site_label
_atom_site_fract_x
_atom_site_fract_y
_atom_site_fract_z
Si Si1 0.904246 0.132070 0.870169
Si Si2 0.824235 0.831837 0.079552
Si Si3 0.133696 0.261629 0.358519
Si Si4 0.527543 0.127670 0.425620
Si Si5 0.776955 0.336493 0.545976
Si Si6 0.448216 0.164682 0.058872
Si Si7 0.112944 0.576171 0.626932
O O1 0.827360 0.283072 0.728366
O O2 0.047045 0.189413 0.900905
O O3 0.875955 0.862363 0.804539
O O4 0.850323 0.097106 0.013661
O O5 0.812247 0.904680 0.245936
O O6 0.698475 0.705225 0.996374
O O7 0.106293 0.476350 0.460130
O O8 0.020081 0.088068 0.349624
O O9 0.252301 0.116167 0.437876
O O10 0.498902 0.374217 0.505387
O O11 0.672354 0.152214 0.477762
O O12 0.482579 0.142500 0.242666
O O13 0.840612 0.337030 0.403501
O O14 0.508011 0.413797 0.008285
#
# Coordination Sequence:
#
# PCOD9118547 Si02
#       7
#     2   2   2   2   2   2   2
#     4  11  26  43  67 114 141 196 233 321 395 457
#     4  12  26  45  74 105 160 189 252 314 399 472
#     4  11  21  40  65 102 141 175 240 283 379 444
#     4  12  29  51  81 111 149 211 274 328 380 465
#     4  11  25  43  74  98 147 183 253 305 375 454
#     4  12  30  55  79 116 162 219 273 328 398 474
#     4  11  21  39  64 106 134 189 225 301 366 458
#
# _framework density 25.009202999999999
#
# number of rings (size 3 to 8) (size 9 to 14) (size 15 to 20)
#    0.000    0.571    2.857    4.286    8.000    2.286 
#    0.000    0.000    0.000    0.000    0.000    0.000 
#    0.000    0.000    0.000    0.000    0.000    0.000 
#
# Total GULP energy -77974.852335 kJ/mol
# GULP energy per Si atom -5569.632310 kJ/mol
# Density = 2.495228 g / cm^3
# Si number density = 25.009203 Si / 1000 Ang^3
#
#
#
# Elastic Constant Matrix: (Units=GPa)
#
#
# Indices 1 2 3 4 5 6 
#
# 1 88.3477 21.7430 14.0274 0.0000 11.0408 0.0000
# 2 21.7430 105.1881 33.1184 0.0000 -11.7911 0.0000
# 3 14.0274 33.1184 101.2126 0.0000 -4.5822 0.0000
# 4 0.0000 0.0000 0.0000 717.7445 0.0000 -253.2966
# 5 11.0408 -11.7911 -4.5822 0.0000 30.4143 0.0000
# 6 0.0000 0.0000 0.0000 -253.2966 0.0000 138.0343
#
#
#
# Elastic Compliance Matrix: (Units=1/GPa)
#
#
# Indices 1 2 3 4 5 6 
#
# 1 0.012991 -0.003022 -0.001086 0.000000 -0.006051 0.000000
# 2 -0.003022 0.011711 -0.003180 0.000000 0.005158 0.000000
# 3 -0.001086 -0.003180 0.011109 0.000000 0.000835 0.000000
# 4 0.000000 0.000000 0.000000 0.003954 0.000000 0.007255
# 5 -0.006051 0.005158 0.000835 0.000000 0.037201 0.000000
# 6 0.000000 0.000000 0.000000 0.007255 0.000000 0.020557
#
#
# Mechanical properties :
#
#
# Convention : Reuss Voigt Hill
#
# Bulk Modulus (GPa) = 47.08856 48.05844 47.57350
# Shear Modulus (GPa) = 41.95474 192.29594 117.12534
#
# Velocity S-wave (km/s) = 4.10026 8.77821 6.85088
# Velocity P-wave (km/s) = 6.42538 11.04539 9.03566
#
# Compressibility (1/GPa) = 0.02123658
#
# Stress axis : x y z
#
# Youngs Moduli (GPa) = 76.97523 85.39207 90.01809
#
# Poissons Ratio (x) = 0.25804 0.09773
# Poissons Ratio (y) = 0.23261 0.28622
# Poissons Ratio (z) = 0.08357 0.27151
#
# Static dielectric constant tensor:
#      x y z
#    x -2.822990 0.000000 1.918700 
#    y 0.000000 2.222970 0.000000 
#    z 1.918700 0.000000 1.244640 
# 
# From -- ./inp_files/7081.got.cif
#   From: 2010.05.17/outbox.cif.g08.bks.cpg/sg4_4_cif.got.tgz:7081.got - 2010.06.03 18:43:04.
