data_PCOD9118599
_publ_section_title
;
Structure prediction by ZEFSAII (Michael W. Deem and Ramdas Pophale) SiO2 
 PCOD9118599
Probable space group: P 21
;
_chemical_formula_sum "Si O2"
_cell_formula_units_Z 16
_cell_length_a 6.794972
_cell_length_b 11.775207
_cell_length_c 7.903517
_cell_angle_alpha 90.000000
_cell_angle_beta 80.392684
_cell_angle_gamma 90.000000
_cell_volume 623.508531
_symmetry_space_group_name_H-M "P 21"
_symmetry_group_IT_number 4
_symmetry_cell_setting 'monoclinic'
loop_
_space_group_symop_operation_xyz
x,y,z
-x,1/2+y,-z
loop_
_atom_site_type_symbol
_atom_site_label
_atom_site_fract_x
_atom_site_fract_y
_atom_site_fract_z
Si Si1 0.888552 0.944990 0.665805
Si Si2 0.958541 0.044490 0.093977
Si Si3 0.307434 0.813518 0.540304
Si Si4 0.619346 0.965518 0.369661
Si Si5 0.272650 0.115963 0.311318
Si Si6 0.114551 0.804971 0.040971
Si Si7 0.530965 0.809326 0.866339
Si Si8 0.023316 0.691827 0.383561
O O1 0.762857 0.956926 0.509679
O O2 0.720308 0.891222 0.814443
O O3 0.099174 0.883422 0.593408
O O4 0.955765 0.070897 0.709229
O O5 0.104608 0.046614 0.237514
O O6 0.743893 0.002363 0.189232
O O7 0.934819 0.181271 0.044914
O O8 0.043706 0.929896 0.984971
O O9 0.483311 0.853333 0.391362
O O10 0.405471 0.811762 0.709189
O O11 0.218396 0.701184 0.472786
O O12 0.436353 0.054135 0.399658
O O13 0.375652 0.184878 0.145844
O O14 0.159266 0.195377 0.461215
O O15 0.019564 0.785099 0.238964
O O16 0.353946 0.819573 0.024543
#
# Coordination Sequence:
#
# PCOD9118599 Si02
#       8
#     2   2   2   2   2   2   2   2
#     4  11  23  41  77 107 146 196 262 323 379 463
#     4  12  28  53  75 112 163 213 256 334 399 473
#     4  11  23  44  74 109 150 196 264 322 392 466
#     4  11  21  44  77 110 145 201 263 324 390 464
#     4  12  23  46  82 102 150 207 270 327 392 465
#     4  12  30  50  75 113 162 206 261 319 409 473
#     4  11  26  45  73 109 149 208 252 312 400 481
#     4  12  24  45  73 112 147 199 264 335 377 465
#
# _framework density 25.661235000000001
#
# number of rings (size 3 to 8) (size 9 to 14) (size 15 to 20)
#    0.000    0.500    5.000    3.000    3.500    1.000 
#    9.000    0.000    0.000    0.000    0.000    0.000 
#    0.000    0.000    0.000    0.000    0.000    0.000 
#
# Total GULP energy -89291.010255 kJ/mol
# GULP energy per Si atom -5580.688141 kJ/mol
# Density = 2.560283 g / cm^3
# Si number density = 25.661235 Si / 1000 Ang^3
#
#
#
# Elastic Constant Matrix: (Units=GPa)
#
#
# Indices 1 2 3 4 5 6 
#
# 1 150.5990 49.5597 27.3691 0.0000 -10.9932 0.0000
# 2 49.5597 136.2998 22.6479 0.0000 -9.6931 0.0000
# 3 27.3691 22.6479 66.2761 0.0000 0.1929 0.0000
# 4 0.0000 0.0000 0.0000 35.8335 0.0000 -5.0611
# 5 -10.9932 -9.6931 0.1929 0.0000 38.8943 0.0000
# 6 0.0000 0.0000 0.0000 -5.0611 0.0000 58.3554
#
#
#
# Elastic Compliance Matrix: (Units=1/GPa)
#
#
# Indices 1 2 3 4 5 6 
#
# 1 0.007998 -0.002374 -0.002496 0.000000 0.001681 0.000000
# 2 -0.002374 0.008634 -0.001975 0.000000 0.001491 0.000000
# 3 -0.002496 -0.001975 0.016798 0.000000 -0.001281 0.000000
# 4 0.000000 0.000000 0.000000 0.028253 0.000000 0.002450
# 5 0.001681 0.001491 -0.001281 0.000000 0.026564 0.000000
# 6 0.000000 0.000000 0.000000 0.002450 0.000000 0.017349
#
#
# Mechanical properties :
#
#
# Convention : Reuss Voigt Hill
#
# Bulk Modulus (GPa) = 50.65813 61.36981 56.01397
# Shear Modulus (GPa) = 39.72530 43.52318 41.62424
#
# Velocity S-wave (km/s) = 3.93882 4.12280 4.03186
# Velocity P-wave (km/s) = 6.36158 6.82866 6.59925
#
# Compressibility (1/GPa) = 0.01974017
#
# Stress axis : x y z
#
# Youngs Moduli (GPa) = 125.03584 115.82200 59.53162
#
# Poissons Ratio (x) = 0.27492 0.14862
# Poissons Ratio (y) = 0.29679 0.11755
# Poissons Ratio (z) = 0.31215 0.22869
#
# Static dielectric constant tensor:
#      x y z
#    x 1.946380 0.000000 0.012960 
#    y 0.000000 2.157490 0.000000 
#    z 0.012960 0.000000 2.138850 
# 
# From -- ./inp_files/4627.got.cif
#   From: 2010.05.17/outbox.cif.g08.bks.cpg/sg4_3_cif.got.tgz:4627.got - 2010.06.03 18:43:04.
