data_PCOD9118895
_publ_section_title
;
Structure prediction by ZEFSAII (Michael W. Deem and Ramdas Pophale) SiO2 
 PCOD9118895
Probable space group: P 21
;
_chemical_formula_sum "Si O2"
_cell_formula_units_Z 16
_cell_length_a 6.626168
_cell_length_b 9.292055
_cell_length_c 17.751339
_cell_angle_alpha 90.000000
_cell_angle_beta 43.641884
_cell_angle_gamma 90.000000
_cell_volume 754.306814
_symmetry_space_group_name_H-M "P 21"
_symmetry_group_IT_number 4
_symmetry_cell_setting 'monoclinic'
loop_
_space_group_symop_operation_xyz
x,y,z
-x,1/2+y,-z
loop_
_atom_site_type_symbol
_atom_site_label
_atom_site_fract_x
_atom_site_fract_y
_atom_site_fract_z
Si Si1 0.109886 0.436140 0.423027
Si Si2 0.774659 0.496331 0.236970
Si Si3 0.340950 0.114506 0.964210
Si Si4 0.922677 0.915199 0.997818
Si Si5 0.041572 0.742645 0.238525
Si Si6 0.211799 0.222068 0.525944
Si Si7 0.882869 0.272276 0.341655
Si Si8 0.309329 0.051800 0.147275
O O1 0.441193 0.463940 0.307059
O O2 0.132538 0.360026 0.497320
O O3 0.935836 0.584051 0.471763
O O4 0.959741 0.334742 0.402084
O O5 0.855644 0.402471 0.288709
O O6 0.981233 0.452395 0.112960
O O7 0.813998 0.663651 0.245504
O O8 0.665994 0.144686 0.846548
O O9 0.151471 0.246681 0.981786
O O10 0.345443 0.115708 0.053576
O O11 0.186278 0.968521 0.978975
O O12 0.624905 0.003857 0.094174
O O13 0.912772 0.740249 0.356845
O O14 0.128520 0.902694 0.191200
O O15 0.561168 0.202772 0.431947
O O16 0.129477 0.162911 0.246418
#
# Coordination Sequence:
#
# PCOD9118895 Si02
#       8
#     2   2   2   2   2   2   2   2
#     4  11  27  45  73 102 138 183 234 288 345 423
#     4  11  23  44  68 100 134 185 225 278 352 410
#     4  11  25  45  64 105 135 183 226 284 350 407
#     4  11  25  40  69  96 138 179 228 278 346 414
#     4  11  25  46  72 100 141 182 234 288 343 413
#     4  11  27  46  70 106 136 188 232 287 352 407
#     4  11  26  46  71  97 143 184 225 290 350 412
#     4  11  26  44  69 102 139 180 230 287 344 418
#
# _framework density 21.211525999999999
#
# number of rings (size 3 to 8) (size 9 to 14) (size 15 to 20)
#    0.000    1.000    3.750    0.750    8.750    0.000 
#    2.250    0.000    0.000    0.000    0.000    0.000 
#    0.000    0.000    0.000    0.000    0.000    0.000 
#
# Total GULP energy -89550.929749 kJ/mol
# GULP energy per Si atom -5596.933109 kJ/mol
# Density = 2.116325 g / cm^3
# Si number density = 21.211526 Si / 1000 Ang^3
#
#
#
# Elastic Constant Matrix: (Units=GPa)
#
#
# Indices 1 2 3 4 5 6 
#
# 1 27.1410 0.4106 -0.3258 0.0000 -7.2952 0.0000
# 2 0.4106 55.8186 15.9100 0.0000 -23.9758 0.0000
# 3 -0.3258 15.9100 108.5774 0.0000 -5.4442 0.0000
# 4 0.0000 0.0000 0.0000 34.1300 0.0000 -7.4684
# 5 -7.2952 -23.9758 -5.4442 0.0000 25.0889 0.0000
# 6 0.0000 0.0000 0.0000 -7.4684 0.0000 40.9414
#
#
#
# Elastic Compliance Matrix: (Units=1/GPa)
#
#
# Indices 1 2 3 4 5 6 
#
# 1 0.042174 0.008439 -0.000092 0.000000 0.020308 0.000000
# 2 0.008439 0.033097 -0.003150 0.000000 0.033398 0.000000
# 3 -0.000092 -0.003150 0.009624 0.000000 -0.000948 0.000000
# 4 0.000000 0.000000 0.000000 0.030518 0.000000 0.005567
# 5 0.020308 0.033398 -0.000948 0.000000 0.077474 0.000000
# 6 0.000000 0.000000 0.000000 0.005567 0.000000 0.025441
#
#
# Mechanical properties :
#
#
# Convention : Reuss Voigt Hill
#
# Bulk Modulus (GPa) = 10.49440 24.83628 17.66534
# Shear Modulus (GPa) = 20.85976 31.73487 26.29731
#
# Velocity S-wave (km/s) = 3.13935 3.87216 3.52485
# Velocity P-wave (km/s) = 4.25428 5.63256 4.99123
#
# Compressibility (1/GPa) = 0.09528892
#
# Stress axis : x y z
#
# Youngs Moduli (GPa) = 23.71111 30.21465 103.90981
#
# Poissons Ratio (x) = -0.25497 0.00953
# Poissons Ratio (y) = -0.20009 0.32729
# Poissons Ratio (z) = 0.00217 0.09517
#
# Static dielectric constant tensor:
#      x y z
#    x 1.739060 0.000000 -0.014200 
#    y 0.000000 1.757830 0.000000 
#    z -0.014200 0.000000 1.721730 
# 
# From -- ./inp_files/2567.got.cif
#   From: 2010.05.17/outbox.cif.g08.bks.cpg/sg4_2_cif.got.tgz:2567.got - 2010.06.03 18:43:04.
