data_PCOD9118202
_publ_section_title
;
Structure prediction by ZEFSAII (Michael W. Deem and Ramdas Pophale) SiO2 
 PCOD9118202
Probable space group: P 21
;
_chemical_formula_sum "Si O2"
_cell_formula_units_Z 16
_cell_length_a 14.595806
_cell_length_b 6.125461
_cell_length_c 10.651162
_cell_angle_alpha 90.000000
_cell_angle_beta 43.090279
_cell_angle_gamma 90.000000
_cell_volume 650.548754
_symmetry_space_group_name_H-M "P 21"
_symmetry_group_IT_number 4
_symmetry_cell_setting 'monoclinic'
loop_
_space_group_symop_operation_xyz
x,y,z
-x,1/2+y,-z
loop_
_atom_site_type_symbol
_atom_site_label
_atom_site_fract_x
_atom_site_fract_y
_atom_site_fract_z
Si Si1 0.821666 0.379360 0.211551
Si Si2 0.520292 0.153935 0.149489
Si Si3 0.027652 0.989624 0.525972
Si Si4 0.671296 0.999933 0.234577
Si Si5 0.034930 0.511765 0.799381
Si Si6 0.679955 0.488573 0.843980
Si Si7 0.694356 0.776602 0.462246
Si Si8 0.169178 0.264311 0.120141
O O1 0.748587 0.224377 0.183846
O O2 0.881550 0.231864 0.262053
O O3 0.715526 0.541142 0.378759
O O4 0.950353 0.474692 0.010460
O O5 0.565111 0.031987 0.231039
O O6 0.450588 0.016659 0.110610
O O7 0.398304 0.301476 0.324434
O O8 0.644656 0.287678 0.970179
O O9 0.990621 0.745657 0.500280
O O10 0.923044 0.964751 0.744866
O O11 0.188301 0.963335 0.373873
O O12 0.631944 0.920445 0.411950
O O13 0.771507 0.821906 0.074606
O O14 0.151735 0.339884 0.661710
O O15 0.928221 0.555113 0.797664
O O16 0.716162 0.694857 0.897072
#
# Coordination Sequence:
#
# PCOD9118202 Si02
#       8
#     2   2   2   2   2   2   2   2
#     4  11  21  42  66 105 147 181 240 300 389 451
#     4  12  28  48  74 101 155 203 256 310 362 475
#     4  10  24  47  77 110 150 196 265 328 391 456
#     4  11  25  44  72 109 144 193 244 305 384 460
#     4  11  21  39  70 106 144 183 231 309 380 466
#     4  11  27  50  72 109 148 211 262 315 383 457
#     4  11  27  44  71 109 147 191 241 312 388 455
#     4  11  23  44  78 109 147 194 247 327 391 466
#
# _framework density 24.594619999999999
#
# number of rings (size 3 to 8) (size 9 to 14) (size 15 to 20)
#    0.000    1.000    2.500    3.000    3.500    7.000 
#    4.500    0.000    0.000    0.000    0.000    0.000 
#    0.000    0.000    0.000    0.000    0.000    0.000 
#
# Total GULP energy -89352.781695 kJ/mol
# GULP energy per Si atom -5584.548856 kJ/mol
# Density = 2.453864 g / cm^3
# Si number density = 24.594620 Si / 1000 Ang^3
#
#
#
# Elastic Constant Matrix: (Units=GPa)
#
#
# Indices 1 2 3 4 5 6 
#
# 1 111.0586 26.8384 7.7473 0.0000 -13.2467 0.0000
# 2 26.8384 68.7904 9.9028 0.0000 -8.0060 0.0000
# 3 7.7473 9.9028 76.9910 0.0000 -6.7348 0.0000
# 4 0.0000 0.0000 0.0000 26.6650 0.0000 -0.3145
# 5 -13.2467 -8.0060 -6.7348 0.0000 32.6942 0.0000
# 6 0.0000 0.0000 0.0000 -0.3145 0.0000 28.8031
#
#
#
# Elastic Compliance Matrix: (Units=1/GPa)
#
#
# Indices 1 2 3 4 5 6 
#
# 1 0.010277 -0.003593 -0.000290 0.000000 0.003225 0.000000
# 2 -0.003593 0.016424 -0.001554 0.000000 0.002246 0.000000
# 3 -0.000290 -0.001554 0.013416 0.000000 0.002265 0.000000
# 4 0.000000 0.000000 0.000000 0.037507 0.000000 0.000410
# 5 0.003225 0.002246 0.002265 0.000000 0.032910 0.000000
# 6 0.000000 0.000000 0.000000 0.000410 0.000000 0.034723
#
#
# Mechanical properties :
#
#
# Convention : Reuss Voigt Hill
#
# Bulk Modulus (GPa) = 34.19664 38.42409 36.31037
# Shear Modulus (GPa) = 30.14257 31.78922 30.96589
#
# Velocity S-wave (km/s) = 3.50462 3.59907 3.55216
# Velocity P-wave (km/s) = 5.50552 5.73829 5.62311
#
# Compressibility (1/GPa) = 0.02924264
#
# Stress axis : x y z
#
# Youngs Moduli (GPa) = 97.30184 60.88745 74.53881
#
# Poissons Ratio (x) = 0.21875 0.02162
# Poissons Ratio (y) = 0.34957 0.11587
# Poissons Ratio (z) = 0.02822 0.09465
#
# Static dielectric constant tensor:
#      x y z
#    x 1.988910 0.000000 0.005060 
#    y 0.000000 2.011100 0.000000 
#    z 0.005060 0.000000 1.953010 
# 
# From -- ./inp_files/12468.got.cif
#   From: 2010.05.17/outbox.cif.g08.bks.cpg/sg4_7_cif.got.tgz:12468.got - 2010.06.03 18:43:04.
