data_PCOD9118021
_publ_section_title
;
Structure prediction by ZEFSAII (Michael W. Deem and Ramdas Pophale) SiO2 
 PCOD9118021
Probable space group: P 21
;
_chemical_formula_sum "Si O2"
_cell_formula_units_Z 12
_cell_length_a 6.913710
_cell_length_b 10.081282
_cell_length_c 7.808461
_cell_angle_alpha 90.000000
_cell_angle_beta 77.822047
_cell_angle_gamma 90.000000
_cell_volume 531.995382
_symmetry_space_group_name_H-M "P 21"
_symmetry_group_IT_number 4
_symmetry_cell_setting 'monoclinic'
loop_
_space_group_symop_operation_xyz
x,y,z
-x,1/2+y,-z
loop_
_atom_site_type_symbol
_atom_site_label
_atom_site_fract_x
_atom_site_fract_y
_atom_site_fract_z
Si Si1 0.555894 0.958330 0.917459
Si Si2 0.904499 0.947325 0.623936
Si Si3 0.143325 0.843718 0.892378
Si Si4 0.232559 0.315930 0.829145
Si Si5 0.617814 0.097575 0.241419
Si Si6 0.210882 0.166866 0.506406
O O1 0.587350 0.630954 0.629090
O O2 0.683254 0.985654 0.724306
O O3 0.648205 0.835543 0.014145
O O4 0.577491 0.077357 0.046714
O O5 0.044631 0.054849 0.509672
O O6 0.883043 0.805334 0.539041
O O7 0.015051 0.927627 0.784713
O O8 0.225498 0.715191 0.777750
O O9 0.332882 0.923042 0.919699
O O10 0.996569 0.809151 0.074548
O O11 0.291115 0.454936 0.724111
O O12 0.270702 0.196533 0.692879
#
# Coordination Sequence:
#
# PCOD9118021 Si02
#       6
#     2   2   2   2   2   2
#     4   9  22  47  69 102 133 194 235 286 340 431
#     4  11  27  45  72 105 144 188 236 290 357 418
#     4  11  22  46  74  97 137 189 240 286 344 430
#     4   9  25  44  71 100 139 183 234 293 353 412
#     4  10  24  43  72 103 137 188 235 293 350 414
#     4  12  26  47  70 111 146 184 232 300 358 417
#
# _framework density 22.556588000000001
#
# number of rings (size 3 to 8) (size 9 to 14) (size 15 to 20)
#    1.000    0.667    1.667    1.000    7.000    1.333 
#    0.000    0.000    0.000    0.000    0.000    0.000 
#    0.000    0.000    0.000    0.000    0.000    0.000 
#
# Total GULP energy -67001.925379 kJ/mol
# GULP energy per Si atom -5583.493782 kJ/mol
# Density = 2.250525 g / cm^3
# Si number density = 22.556588 Si / 1000 Ang^3
#
#
#
# Elastic Constant Matrix: (Units=GPa)
#
#
# Indices 1 2 3 4 5 6 
#
# 1 86.7884 13.9128 25.9148 0.0000 -24.3031 0.0000
# 2 13.9128 74.1464 33.0349 0.0000 -32.8420 0.0000
# 3 25.9148 33.0349 70.2981 0.0000 -39.2683 0.0000
# 4 0.0000 0.0000 0.0000 45.4801 0.0000 -3.8675
# 5 -24.3031 -32.8420 -39.2683 0.0000 41.5419 0.0000
# 6 0.0000 0.0000 0.0000 -3.8675 0.0000 26.7305
#
#
#
# Elastic Compliance Matrix: (Units=1/GPa)
#
#
# Indices 1 2 3 4 5 6 
#
# 1 0.013950 0.001590 -0.001332 0.000000 0.008158 0.000000
# 2 0.001590 0.020987 -0.001400 0.000000 0.016199 0.000000
# 3 -0.001332 -0.001400 0.030342 0.000000 0.026795 0.000000
# 4 0.000000 0.000000 0.000000 0.022262 0.000000 0.003221
# 5 0.008158 0.016199 0.026795 0.000000 0.066980 0.000000
# 6 0.000000 0.000000 0.000000 0.003221 0.000000 0.037876
#
#
# Mechanical properties :
#
#
# Convention : Reuss Voigt Hill
#
# Bulk Modulus (GPa) = 15.87457 41.88421 28.87939
# Shear Modulus (GPa) = 23.18254 33.30851 28.24553
#
# Velocity S-wave (km/s) = 3.20933 3.84691 3.54249
# Velocity P-wave (km/s) = 4.55917 6.19196 5.43721
#
# Compressibility (1/GPa) = 0.06299384
#
# Stress axis : x y z
#
# Youngs Moduli (GPa) = 71.68549 47.64806 32.95791
#
# Poissons Ratio (x) = -0.07575 0.04391
# Poissons Ratio (y) = -0.11396 0.04614
# Poissons Ratio (z) = 0.09550 0.06670
#
# Static dielectric constant tensor:
#      x y z
#    x 1.844850 0.000000 0.063170 
#    y 0.000000 1.862490 0.000000 
#    z 0.063170 0.000000 1.886950 
# 
# From -- ./inp_files/5328.got.cif
#   From: 2010.05.17/outbox.cif.g08.bks.cpg/sg4_3_cif.got.tgz:5328.got - 2010.06.03 18:43:04.
