data_PCOD9118645
_publ_section_title
;
Structure prediction by ZEFSAII (Michael W. Deem and Ramdas Pophale) SiO2 
 PCOD9118645
Probable space group: P 21
;
_chemical_formula_sum "Si O2"
_cell_formula_units_Z 14
_cell_length_a 8.782923
_cell_length_b 5.097378
_cell_length_c 18.637248
_cell_angle_alpha 90.000000
_cell_angle_beta 36.948375
_cell_angle_gamma 90.000000
_cell_volume 501.546207
_symmetry_space_group_name_H-M "P 21"
_symmetry_group_IT_number 4
_symmetry_cell_setting 'monoclinic'
loop_
_space_group_symop_operation_xyz
x,y,z
-x,1/2+y,-z
loop_
_atom_site_type_symbol
_atom_site_label
_atom_site_fract_x
_atom_site_fract_y
_atom_site_fract_z
Si Si1 0.498292 0.477320 0.476894
Si Si2 0.711349 0.639047 0.631428
Si Si3 0.005090 0.793851 0.379516
Si Si4 0.213073 0.346651 0.826830
Si Si5 0.907904 0.345488 0.209466
Si Si6 0.428790 0.224679 0.070071
Si Si7 0.481806 0.020789 0.825690
O O1 0.386383 0.769061 0.508706
O O2 0.232792 0.297576 0.583468
O O3 0.644194 0.369465 0.352182
O O4 0.889652 0.679435 0.496703
O O5 0.507410 0.409461 0.694927
O O6 0.888711 0.568492 0.631967
O O7 0.543056 0.872261 0.727911
O O8 0.254589 0.662144 0.254748
O O9 0.069932 0.129236 0.834224
O O10 0.260483 0.225307 0.888043
O O11 0.087196 0.620343 0.852516
O O12 0.126145 0.268145 0.183205
O O13 0.558127 0.315809 0.095395
O O14 0.485185 0.930532 0.024014
#
# Coordination Sequence:
#
# PCOD9118645 Si02
#       7
#     2   2   2   2   2   2   2
#     4  12  27  40  63 104 151 196 237 284 361 457
#     4  11  22  39  71 109 152 194 236 288 364 450
#     4  11  23  37  69 108 152 191 232 284 356 451
#     4  11  23  45  76 109 147 189 238 306 373 445
#     4  12  25  48  76 106 150 193 245 316 385 434
#     4  12  31  55  80 104 145 201 261 321 383 439
#     4  11  25  46  77 110 151 198 253 299 364 452
#
# _framework density 27.913681
#
# number of rings (size 3 to 8) (size 9 to 14) (size 15 to 20)
#    0.000    0.571    4.286    2.571   10.000    0.000 
#    0.000    2.857    0.000    0.000    0.000    0.000 
#    0.000    0.000    0.000    0.000    0.000    0.000 
#
# Total GULP energy -78225.874642 kJ/mol
# GULP energy per Si atom -5587.562474 kJ/mol
# Density = 2.785015 g / cm^3
# Si number density = 27.913681 Si / 1000 Ang^3
#
#
#
# Elastic Constant Matrix: (Units=GPa)
#
#
# Indices 1 2 3 4 5 6 
#
# 1 134.2136 51.7069 -34.5069 0.0000 13.6083 0.0000
# 2 51.7069 200.8614 -6.0513 0.0000 13.4398 0.0000
# 3 -34.5069 -6.0513 116.2184 0.0000 21.6067 0.0000
# 4 0.0000 0.0000 0.0000 43.1548 0.0000 3.0930
# 5 13.6083 13.4398 21.6067 0.0000 30.6441 0.0000
# 6 0.0000 0.0000 0.0000 3.0930 0.0000 -10.1414
#
#
#
# Elastic Compliance Matrix: (Units=1/GPa)
#
#
# Indices 1 2 3 4 5 6 
#
# 1 0.009898 -0.002002 0.004015 0.000000 -0.006348 0.000000
# 2 -0.002002 0.005598 -0.000014 0.000000 -0.001556 0.000000
# 3 0.004015 -0.000014 0.011654 0.000000 -0.009994 0.000000
# 4 0.000000 0.000000 0.000000 0.022677 0.000000 0.006916
# 5 -0.006348 -0.001556 -0.009994 0.000000 0.043181 0.000000
# 6 0.000000 0.000000 0.000000 0.006916 0.000000 -0.096496
#
#
# Mechanical properties :
#
#
# Convention : Reuss Voigt Hill
#
# Bulk Modulus (GPa) = 32.10555 52.62120 42.36338
# Shear Modulus (GPa) = 1726.81297 42.07448 884.44373
#
# Velocity S-wave (km/s) = 24.89918 3.88662 17.81958
# Velocity P-wave (km/s) = 28.95086 6.24767 20.94261
#
# Compressibility (1/GPa) = 0.03114726
#
# Stress axis : x y z
#
# Youngs Moduli (GPa) = 101.02938 178.64432 85.80861
#
# Poissons Ratio (x) = 0.35770 -0.34451
# Poissons Ratio (y) = 0.20229 0.00118
# Poissons Ratio (z) = -0.40562 0.00245
#
# Static dielectric constant tensor:
#      x y z
#    x 2.882600 0.000000 -0.201140 
#    y 0.000000 1.804680 0.000000 
#    z -0.201140 0.000000 2.184720 
# 
# From -- ./inp_files/7079.got.cif
#   From: 2010.05.17/outbox.cif.g08.bks.cpg/sg4_4_cif.got.tgz:7079.got - 2010.06.03 18:43:04.
