data_PCOD9118318
_publ_section_title
;
Structure prediction by ZEFSAII (Michael W. Deem and Ramdas Pophale) SiO2 
 PCOD9118318
Probable space group: P 21
;
_chemical_formula_sum "Si O2"
_cell_formula_units_Z 12
_cell_length_a 7.264813
_cell_length_b 12.821942
_cell_length_c 8.220338
_cell_angle_alpha 90.000000
_cell_angle_beta 140.087893
_cell_angle_gamma 90.000000
_cell_volume 491.292591
_symmetry_space_group_name_H-M "P 21"
_symmetry_group_IT_number 4
_symmetry_cell_setting 'monoclinic'
loop_
_space_group_symop_operation_xyz
x,y,z
-x,1/2+y,-z
loop_
_atom_site_type_symbol
_atom_site_label
_atom_site_fract_x
_atom_site_fract_y
_atom_site_fract_z
Si Si1 0.989320 0.737100 0.607188
Si Si2 0.720119 0.559296 0.612823
Si Si3 0.228436 0.662712 0.450642
Si Si4 0.929016 0.492639 0.063915
Si Si5 0.463660 0.354301 0.915909
Si Si6 0.426757 0.374328 0.270953
O O1 0.794955 0.669025 0.590738
O O2 0.797685 0.822204 0.379534
O O3 0.096385 0.659547 0.538132
O O4 0.277656 0.770516 0.894857
O O5 0.480177 0.582062 0.585440
O O6 0.616395 0.479024 0.408904
O O7 0.949051 0.506197 0.882411
O O8 0.370039 0.777755 0.533051
O O9 0.996899 0.609925 0.173676
O O10 0.174957 0.400016 0.232351
O O11 0.649375 0.449957 0.967808
O O12 0.359990 0.357478 0.034232
#
# Coordination Sequence:
#
# PCOD9118318 Si02
#       6
#     2   2   2   2   2   2
#     4  11  27  46  73 105 146 192 242 300 365 441
#     4  11  26  43  73 105 148 187 250 306 367 442
#     4  10  25  46  70 105 144 196 240 306 366 441
#     4  11  26  43  76 106 147 194 250 311 366 449
#     4  11  27  46  74 104 146 193 243 300 364 440
#     4  10  25  46  70 103 147 194 243 307 368 439
#
# _framework density 24.425363000000001
#
# number of rings (size 3 to 8) (size 9 to 14) (size 15 to 20)
#    0.000    1.333    0.000    2.000   21.000    1.333 
#    0.000    0.000    0.000    0.000    0.000    0.000 
#    0.000    0.000    0.000    0.000    0.000    0.000 
#
# Total GULP energy -66865.492266 kJ/mol
# GULP energy per Si atom -5572.124356 kJ/mol
# Density = 2.436977 g / cm^3
# Si number density = 24.425363 Si / 1000 Ang^3
#
#
#
# Elastic Constant Matrix: (Units=GPa)
#
#
# Indices 1 2 3 4 5 6 
#
# 1 95.3602 28.2588 -0.6955 0.0000 -10.1497 0.0000
# 2 28.2588 74.6891 4.6991 0.0000 3.3861 0.0000
# 3 -0.6955 4.6991 29.5945 0.0000 -5.7575 0.0000
# 4 0.0000 0.0000 0.0000 35.8938 0.0000 -6.2146
# 5 -10.1497 3.3861 -5.7575 0.0000 9.4971 0.0000
# 6 0.0000 0.0000 0.0000 -6.2146 0.0000 48.4380
#
#
#
# Elastic Compliance Matrix: (Units=1/GPa)
#
#
# Indices 1 2 3 4 5 6 
#
# 1 0.014940 -0.007008 0.005732 0.000000 0.021941 0.000000
# 2 -0.007008 0.017227 -0.006295 0.000000 -0.017448 0.000000
# 3 0.005732 -0.006295 0.041440 0.000000 0.033493 0.000000
# 4 0.000000 0.000000 0.000000 0.028493 0.000000 0.003656
# 5 0.021941 -0.017448 0.033493 0.000000 0.155270 0.000000
# 6 0.000000 0.000000 0.000000 0.003656 0.000000 0.021114
#
#
# Mechanical properties :
#
#
# Convention : Reuss Voigt Hill
#
# Bulk Modulus (GPa) = 17.10348 29.35207 23.22777
# Shear Modulus (GPa) = 15.96861 29.92455 22.94658
#
# Velocity S-wave (km/s) = 2.55967 3.50400 3.06838
# Velocity P-wave (km/s) = 3.96906 5.33046 4.69932
#
# Compressibility (1/GPa) = 0.05846765
#
# Stress axis : x y z
#
# Youngs Moduli (GPa) = 66.93259 58.04698 24.13108
#
# Poissons Ratio (x) = 0.40680 -0.13833
# Poissons Ratio (y) = 0.46907 0.15189
# Poissons Ratio (z) = -0.38369 0.36538
#
# Static dielectric constant tensor:
#      x y z
#    x 1.946800 0.000000 0.109080 
#    y 0.000000 1.928770 0.000000 
#    z 0.109080 0.000000 2.390930 
# 
# From -- ./inp_files/6492.got.cif
#   From: 2010.05.17/outbox.cif.g08.bks.cpg/sg4_4_cif.got.tgz:6492.got - 2010.06.03 18:43:04.
