data_PCOD9118587
_publ_section_title
;
Structure prediction by ZEFSAII (Michael W. Deem and Ramdas Pophale) SiO2 
 PCOD9118587
Probable space group: P 21
;
_chemical_formula_sum "Si O2"
_cell_formula_units_Z 16
_cell_length_a 11.458236
_cell_length_b 9.148473
_cell_length_c 9.726366
_cell_angle_alpha 90.000000
_cell_angle_beta 40.134273
_cell_angle_gamma 90.000000
_cell_volume 657.195423
_symmetry_space_group_name_H-M "P 21"
_symmetry_group_IT_number 4
_symmetry_cell_setting 'monoclinic'
loop_
_space_group_symop_operation_xyz
x,y,z
-x,1/2+y,-z
loop_
_atom_site_type_symbol
_atom_site_label
_atom_site_fract_x
_atom_site_fract_y
_atom_site_fract_z
Si Si1 0.382596 0.013750 0.692752
Si Si2 0.788756 0.040219 0.273716
Si Si3 0.850084 0.613602 0.595149
Si Si4 0.059858 0.848902 0.866129
Si Si5 0.236858 0.257169 0.036900
Si Si6 0.516330 0.005981 0.089532
Si Si7 0.378217 0.838229 0.957205
Si Si8 0.959609 0.919183 0.390081
O O1 0.573981 0.049734 0.453376
O O2 0.224765 0.959893 0.734276
O O3 0.303578 0.144201 0.859621
O O4 0.427034 0.881332 0.758550
O O5 0.850352 0.010974 0.375878
O O6 0.871777 0.191663 0.145622
O O7 0.891215 0.910506 0.104142
O O8 0.769298 0.675829 0.812034
O O9 0.691928 0.516123 0.674555
O O10 0.882145 0.758206 0.480008
O O11 0.020273 0.516014 0.489296
O O12 0.965663 0.816166 0.806500
O O13 0.370370 0.392917 0.924230
O O14 0.499633 0.935181 0.952120
O O15 0.595383 0.169010 0.028715
O O16 0.167932 0.885296 0.160212
#
# Coordination Sequence:
#
# PCOD9118587 Si02
#       8
#     2   2   2   2   2   2   2   2
#     4  12  26  50  77 111 150 203 262 318 389 452
#     4  12  28  49  83 106 151 205 256 332 381 460
#     4  11  23  44  70 113 152 202 252 306 391 456
#     4  12  26  54  75 110 157 197 264 320 388 449
#     4  12  25  49  73 109 161 199 252 324 380 460
#     4  11  23  40  70 106 143 204 237 312 377 445
#     4  11  21  43  69 105 155 193 256 313 378 452
#     4  11  24  45  69 110 155 201 247 321 380 456
#
# _framework density 24.345879
#
# number of rings (size 3 to 8) (size 9 to 14) (size 15 to 20)
#    0.000    0.500    7.500    0.750    5.250    2.000 
#    0.000    1.250    0.000    0.000    0.000    0.000 
#    0.000    0.000    0.000    0.000    0.000    0.000 
#
# Total GULP energy -89575.400212 kJ/mol
# GULP energy per Si atom -5598.462513 kJ/mol
# Density = 2.429047 g / cm^3
# Si number density = 24.345879 Si / 1000 Ang^3
#
#
#
# Elastic Constant Matrix: (Units=GPa)
#
#
# Indices 1 2 3 4 5 6 
#
# 1 91.6175 43.8092 29.0558 0.0000 -32.1345 0.0000
# 2 43.8092 105.9596 15.3384 0.0000 -7.4588 0.0000
# 3 29.0558 15.3384 76.5695 0.0000 -18.8028 0.0000
# 4 0.0000 0.0000 0.0000 35.7897 0.0000 -13.3810
# 5 -32.1345 -7.4588 -18.8028 0.0000 34.5214 0.0000
# 6 0.0000 0.0000 0.0000 -13.3810 0.0000 40.8527
#
#
#
# Elastic Compliance Matrix: (Units=1/GPa)
#
#
# Indices 1 2 3 4 5 6 
#
# 1 0.020920 -0.007128 -0.002432 0.000000 0.016609 0.000000
# 2 -0.007128 0.012192 -0.000831 0.000000 -0.004454 0.000000
# 3 -0.002432 -0.000831 0.015641 0.000000 0.006076 0.000000
# 4 0.000000 0.000000 0.000000 0.031840 0.000000 0.010429
# 5 0.016609 -0.004454 0.006076 0.000000 0.046775 0.000000
# 6 0.000000 0.000000 0.000000 0.010429 0.000000 0.027894
#
#
# Mechanical properties :
#
#
# Convention : Reuss Voigt Hill
#
# Bulk Modulus (GPa) = 35.75187 50.06150 42.90668
# Shear Modulus (GPa) = 26.97316 34.62897 30.80107
#
# Velocity S-wave (km/s) = 3.33215 3.77553 3.56075
# Velocity P-wave (km/s) = 5.43333 6.29392 5.87939
#
# Compressibility (1/GPa) = 0.02797057
#
# Stress axis : x y z
#
# Youngs Moduli (GPa) = 47.80004 82.02390 63.93276
#
# Poissons Ratio (x) = 0.58470 0.15549
# Poissons Ratio (y) = 0.34074 0.05312
# Poissons Ratio (z) = 0.11626 0.06816
#
# Static dielectric constant tensor:
#      x y z
#    x 1.973190 0.000000 0.015560 
#    y 0.000000 1.926290 0.000000 
#    z 0.015560 0.000000 1.961960 
# 
# From -- ./inp_files/12102.got.cif
#   From: 2010.05.17/outbox.cif.g08.bks.cpg/sg4_7_cif.got.tgz:12102.got - 2010.06.03 18:43:04.
