data_PCOD9118736
_publ_section_title
;
Structure prediction by ZEFSAII (Michael W. Deem and Ramdas Pophale) SiO2 
 PCOD9118736
Probable space group: P 21
;
_chemical_formula_sum "Si O2"
_cell_formula_units_Z 14
_cell_length_a 9.559586
_cell_length_b 9.579095
_cell_length_c 7.843729
_cell_angle_alpha 90.000000
_cell_angle_beta 48.953653
_cell_angle_gamma 90.000000
_cell_volume 541.701920
_symmetry_space_group_name_H-M "P 21"
_symmetry_group_IT_number 4
_symmetry_cell_setting 'monoclinic'
loop_
_space_group_symop_operation_xyz
x,y,z
-x,1/2+y,-z
loop_
_atom_site_type_symbol
_atom_site_label
_atom_site_fract_x
_atom_site_fract_y
_atom_site_fract_z
Si Si1 0.764879 0.232520 0.861592
Si Si2 0.714884 0.620109 0.384711
Si Si3 0.676583 0.687883 0.780347
Si Si4 0.456807 0.377888 0.605464
Si Si5 0.824118 0.918664 0.867372
Si Si6 0.168892 0.735617 0.591136
Si Si7 0.887156 0.521003 0.904958
O O1 0.806385 0.257560 0.630150
O O2 0.847918 0.358216 0.906281
O O3 0.849249 0.082423 0.836086
O O4 0.542941 0.213127 0.059486
O O5 0.747075 0.602130 0.560150
O O6 0.531973 0.527153 0.489957
O O7 0.674369 0.784662 0.405566
O O8 0.848929 0.574092 0.126249
O O9 0.769579 0.838943 0.736582
O O10 0.740056 0.599100 0.895371
O O11 0.642304 0.286321 0.477958
O O12 0.348241 0.393200 0.869116
O O13 0.005104 0.837713 0.784586
O O14 0.088314 0.581801 0.692559
#
# Coordination Sequence:
#
# PCOD9118736 Si02
#       7
#     2   2   2   2   2   2   2
#     4  12  21  41  75 113 147 199 253 312 389 452
#     4  12  25  47  77 113 149 203 259 316 392 459
#     4  11  22  44  79 105 146 204 249 315 379 460
#     4  12  25  50  74 108 156 198 258 321 383 462
#     4  11  24  47  75 111 151 199 256 312 386 462
#     4  11  24  48  75 107 157 195 254 319 374 472
#     4  11  25  47  75 113 156 196 259 319 385 463
#
# _framework density 25.844474000000002
#
# number of rings (size 3 to 8) (size 9 to 14) (size 15 to 20)
#    0.000    0.571    5.714    3.429    0.000    2.286 
#    2.571    8.571    0.000    0.000    0.000    0.000 
#    0.000    0.000    0.000    0.000    0.000    0.000 
#
# Total GULP energy -78483.172087 kJ/mol
# GULP energy per Si atom -5605.940863 kJ/mol
# Density = 2.578565 g / cm^3
# Si number density = 25.844474 Si / 1000 Ang^3
#
#
#
# Elastic Constant Matrix: (Units=GPa)
#
#
# Indices 1 2 3 4 5 6 
#
# 1 72.7638 43.7609 37.6888 0.0000 -5.5214 0.0000
# 2 43.7609 193.4729 31.9694 0.0000 -2.8307 0.0000
# 3 37.6888 31.9694 132.0555 0.0000 -5.8261 0.0000
# 4 0.0000 0.0000 0.0000 34.4922 0.0000 -6.2944
# 5 -5.5214 -2.8307 -5.8261 0.0000 49.3354 0.0000
# 6 0.0000 0.0000 0.0000 -6.2944 0.0000 7.3417
#
#
#
# Elastic Compliance Matrix: (Units=1/GPa)
#
#
# Indices 1 2 3 4 5 6 
#
# 1 0.018088 -0.003363 -0.004290 0.000000 0.001325 0.000000
# 2 -0.003363 0.006011 -0.000499 0.000000 -0.000090 0.000000
# 3 -0.004290 -0.000499 0.008942 0.000000 0.000547 0.000000
# 4 0.000000 0.000000 0.000000 0.034370 0.000000 0.029467
# 5 0.001325 -0.000090 0.000547 0.000000 0.020477 0.000000
# 6 0.000000 0.000000 0.000000 0.029467 0.000000 0.161473
#
#
# Mechanical properties :
#
#
# Convention : Reuss Voigt Hill
#
# Bulk Modulus (GPa) = 59.75007 69.45893 64.60450
# Shear Modulus (GPa) = 18.43365 37.22540 27.82952
#
# Velocity S-wave (km/s) = 2.67358 3.79933 3.28503
# Velocity P-wave (km/s) = 5.71839 6.79563 6.28015
#
# Compressibility (1/GPa) = 0.01673638
#
# Stress axis : x y z
#
# Youngs Moduli (GPa) = 55.28491 166.37459 111.83331
#
# Poissons Ratio (x) = 0.55953 0.47974
# Poissons Ratio (y) = 0.18593 0.05583
# Poissons Ratio (z) = 0.23716 0.08307
#
# Static dielectric constant tensor:
#      x y z
#    x 2.094550 0.000000 0.018840 
#    y 0.000000 2.039720 0.000000 
#    z 0.018840 0.000000 2.039990 
# 
# From -- ./inp_files/7922.got.cif
#   From: 2010.05.17/outbox.cif.g08.bks.cpg/sg4_4_cif.got.tgz:7922.got - 2010.06.03 18:43:04.
