data_PCOD9118647
_publ_section_title
;
Structure prediction by ZEFSAII (Michael W. Deem and Ramdas Pophale) SiO2 
 PCOD9118647
Probable space group: P 21
;
_chemical_formula_sum "Si O2"
_cell_formula_units_Z 14
_cell_length_a 11.673416
_cell_length_b 10.977312
_cell_length_c 7.286678
_cell_angle_alpha 90.000000
_cell_angle_beta 147.121449
_cell_angle_gamma 90.000000
_cell_volume 506.887367
_symmetry_space_group_name_H-M "P 21"
_symmetry_group_IT_number 4
_symmetry_cell_setting 'monoclinic'
loop_
_space_group_symop_operation_xyz
x,y,z
-x,1/2+y,-z
loop_
_atom_site_type_symbol
_atom_site_label
_atom_site_fract_x
_atom_site_fract_y
_atom_site_fract_z
Si Si1 0.635388 0.388650 0.510905
Si Si2 0.271083 0.230426 0.127268
Si Si3 0.140894 0.995266 0.777568
Si Si4 0.851196 0.803328 0.440035
Si Si5 0.405156 0.819943 0.923896
Si Si6 0.061512 0.103807 0.177485
Si Si7 0.274059 0.588757 0.981162
O O1 0.487015 0.306327 0.452443
O O2 0.641931 0.292034 0.351580
O O3 0.845490 0.474523 0.764376
O O4 0.465042 0.495636 0.242721
O O5 0.118362 0.203308 0.094943
O O6 0.162233 0.292165 0.800053
O O7 0.288781 0.090532 0.079043
O O8 0.062190 0.873667 0.780953
O O9 0.267046 0.935087 0.785648
O O10 0.917058 0.046610 0.410044
O O11 0.835484 0.669507 0.505672
O O12 0.646082 0.862600 0.249937
O O13 0.355381 0.709806 0.990818
O O14 0.827188 0.093593 0.949480
#
# Coordination Sequence:
#
# PCOD9118647 Si02
#       7
#     2   2   2   2   2   2   2
#     4  11  25  46  71 107 152 193 249 308 362 450
#     4  11  26  44  72 111 140 199 252 291 384 438
#     4  12  22  43  71 108 142 182 251 302 370 442
#     4  11  23  45  72 102 144 191 244 308 370 434
#     4  11  22  39  73 102 137 191 243 295 372 440
#     4  12  25  47  71 103 157 190 245 314 359 441
#     4  12  23  42  74 105 140 196 242 304 381 433
#
# _framework density 27.619548000000002
#
# number of rings (size 3 to 8) (size 9 to 14) (size 15 to 20)
#    0.000    0.571    8.571    0.000    2.000    2.286 
#    0.000    5.714    0.000    0.000    0.000    0.000 
#    0.000    0.000    0.000    0.000    0.000    0.000 
#
# Total GULP energy -78075.285205 kJ/mol
# GULP energy per Si atom -5576.806086 kJ/mol
# Density = 2.755669 g / cm^3
# Si number density = 27.619548 Si / 1000 Ang^3
#
#
#
# Elastic Constant Matrix: (Units=GPa)
#
#
# Indices 1 2 3 4 5 6 
#
# 1 176.1872 70.0233 19.3994 0.0000 11.3086 0.0000
# 2 70.0233 133.1787 29.9299 0.0000 17.2903 0.0000
# 3 19.3994 29.9299 38.4859 0.0000 13.5963 0.0000
# 4 0.0000 0.0000 0.0000 46.1980 0.0000 11.6026
# 5 11.3086 17.2903 13.5963 0.0000 53.2857 0.0000
# 6 0.0000 0.0000 0.0000 11.6026 0.0000 53.6551
#
#
#
# Elastic Compliance Matrix: (Units=1/GPa)
#
#
# Indices 1 2 3 4 5 6 
#
# 1 0.007198 -0.003588 -0.000780 0.000000 -0.000164 0.000000
# 2 -0.003588 0.010965 -0.006299 0.000000 -0.001189 0.000000
# 3 -0.000780 -0.006299 0.033516 0.000000 -0.006342 0.000000
# 4 0.000000 0.000000 0.000000 0.022889 0.000000 -0.004950
# 5 -0.000164 -0.001189 -0.006342 0.000000 0.020806 0.000000
# 6 0.000000 0.000000 0.000000 -0.004950 0.000000 0.019708
#
#
# Mechanical properties :
#
#
# Convention : Reuss Voigt Hill
#
# Bulk Modulus (GPa) = 32.95348 65.17301 49.06325
# Shear Modulus (GPa) = 34.12255 45.86103 39.99179
#
# Velocity S-wave (km/s) = 3.51871 4.07929 3.80933
# Velocity P-wave (km/s) = 5.33531 6.77018 6.09512
#
# Compressibility (1/GPa) = 0.03034581
#
# Stress axis : x y z
#
# Youngs Moduli (GPa) = 138.92256 91.19733 29.83680
#
# Poissons Ratio (x) = 0.32723 0.02327
# Poissons Ratio (y) = 0.49847 0.18793
# Poissons Ratio (z) = 0.10834 0.57442
#
# Static dielectric constant tensor:
#      x y z
#    x 2.191750 0.000000 -0.087670 
#    y 0.000000 2.298110 0.000000 
#    z -0.087670 0.000000 2.214970 
# 
# From -- ./inp_files/8453.got.cif
#   From: 2010.05.17/outbox.cif.g08.bks.cpg/sg4_5_cif.got.tgz:8453.got - 2010.06.03 18:43:04.
