data_PCOD9118739
_publ_section_title
;
Structure prediction by ZEFSAII (Michael W. Deem and Ramdas Pophale) SiO2 
 PCOD9118739
Probable space group: P 21
;
_chemical_formula_sum "Si O2"
_cell_formula_units_Z 16
_cell_length_a 18.409103
_cell_length_b 9.984585
_cell_length_c 5.672862
_cell_angle_alpha 90.000000
_cell_angle_beta 42.394743
_cell_angle_gamma 90.000000
_cell_volume 703.033338
_symmetry_space_group_name_H-M "P 21"
_symmetry_group_IT_number 4
_symmetry_cell_setting 'monoclinic'
loop_
_space_group_symop_operation_xyz
x,y,z
-x,1/2+y,-z
loop_
_atom_site_type_symbol
_atom_site_label
_atom_site_fract_x
_atom_site_fract_y
_atom_site_fract_z
Si Si1 0.793606 0.503830 0.564205
Si Si2 0.348408 0.764671 0.221646
Si Si3 0.009595 0.559195 0.274477
Si Si4 0.909925 0.847157 0.588347
Si Si5 0.773677 0.994262 0.513839
Si Si6 0.530483 0.305063 0.569891
Si Si7 0.601700 0.587636 0.338311
Si Si8 0.268805 0.243390 0.615901
O O1 0.743062 0.379323 0.549547
O O2 0.916631 0.489163 0.343285
O O3 0.781318 0.638150 0.443688
O O4 0.715468 0.525226 0.977624
O O5 0.293810 0.625448 0.283296
O O6 0.404804 0.767739 0.344506
O O7 0.418623 0.793067 0.818351
O O8 0.978890 0.715642 0.358493
O O9 0.016542 0.469379 0.493856
O O10 0.127572 0.541519 0.885797
O O11 0.832599 0.914824 0.581454
O O12 0.827233 0.786420 0.978569
O O13 0.697944 0.883365 0.576827
O O14 0.520476 0.467325 0.597136
O O15 0.438615 0.191801 0.763130
O O16 0.633232 0.673731 0.488227
#
# Coordination Sequence:
#
# PCOD9118739 Si02
#       8
#     2   2   2   2   2   2   2   2
#     4  11  24  46  72 101 143 190 235 297 358 441
#     4  11  28  48  72 110 145 190 243 300 365 426
#     4  11  26  41  69 100 141 188 237 292 364 431
#     4  11  26  43  64 105 136 191 237 294 357 427
#     4  11  27  42  70 103 144 186 242 296 360 429
#     4  11  28  47  76 110 143 192 240 301 367 434
#     4  11  25  46  74 106 145 184 238 298 369 431
#     4  11  22  45  69  99 141 185 236 294 362 425
#
# _framework density 22.758523
#
# number of rings (size 3 to 8) (size 9 to 14) (size 15 to 20)
#    0.000    1.000    3.750    0.000   12.250    2.000 
#    0.000    0.000    0.000    0.000    0.000    0.000 
#    0.000    0.000    0.000    0.000    0.000    0.000 
#
# Total GULP energy -89348.422085 kJ/mol
# GULP energy per Si atom -5584.276380 kJ/mol
# Density = 2.270672 g / cm^3
# Si number density = 22.758523 Si / 1000 Ang^3
#
#
#
# Elastic Constant Matrix: (Units=GPa)
#
#
# Indices 1 2 3 4 5 6 
#
# 1 109.6608 34.6067 4.0061 0.0000 4.6378 0.0000
# 2 34.6067 112.8471 16.6715 0.0000 -9.7675 0.0000
# 3 4.0061 16.6715 40.4578 0.0000 6.8758 0.0000
# 4 0.0000 0.0000 0.0000 23.9753 0.0000 3.4394
# 5 4.6378 -9.7675 6.8758 0.0000 23.6572 0.0000
# 6 0.0000 0.0000 0.0000 3.4394 0.0000 46.3560
#
#
#
# Elastic Compliance Matrix: (Units=1/GPa)
#
#
# Indices 1 2 3 4 5 6 
#
# 1 0.010410 -0.003702 0.001158 0.000000 -0.003906 0.000000
# 2 -0.003702 0.011426 -0.005540 0.000000 0.007053 0.000000
# 3 0.001158 -0.005540 0.028732 0.000000 -0.010865 0.000000
# 4 0.000000 0.000000 0.000000 0.042158 0.000000 -0.003128
# 5 -0.003906 0.007053 -0.010865 0.000000 0.049106 0.000000
# 6 0.000000 0.000000 0.000000 -0.003128 0.000000 0.021804
#
#
# Mechanical properties :
#
#
# Convention : Reuss Voigt Hill
#
# Bulk Modulus (GPa) = 29.06943 41.50382 35.28662
# Shear Modulus (GPa) = 26.14093 32.64312 29.39202
#
# Velocity S-wave (km/s) = 3.39281 3.79136 3.59761
# Velocity P-wave (km/s) = 5.30556 6.11899 5.72673
#
# Compressibility (1/GPa) = 0.03440040
#
# Stress axis : x y z
#
# Youngs Moduli (GPa) = 96.06101 87.52169 34.80434
#
# Poissons Ratio (x) = 0.32397 -0.04031
# Poissons Ratio (y) = 0.35558 0.19283
# Poissons Ratio (z) = -0.11127 0.48491
#
# Static dielectric constant tensor:
#      x y z
#    x 1.838810 0.000000 0.020980 
#    y 0.000000 1.869960 0.000000 
#    z 0.020980 0.000000 1.908240 
# 
# From -- ./inp_files/2573.got.cif
#   From: 2010.05.17/outbox.cif.g08.bks.cpg/sg4_2_cif.got.tgz:2573.got - 2010.06.03 18:43:04.
