data_PCOD9118068
_publ_section_title
;
Structure prediction by ZEFSAII (Michael W. Deem and Ramdas Pophale) SiO2 
 PCOD9118068
Probable space group: P 21
;
_chemical_formula_sum "Si O2"
_cell_formula_units_Z 16
_cell_length_a 9.290154
_cell_length_b 9.514331
_cell_length_c 11.736782
_cell_angle_alpha 90.000000
_cell_angle_beta 142.456369
_cell_angle_gamma 90.000000
_cell_volume 632.161430
_symmetry_space_group_name_H-M "P 21"
_symmetry_group_IT_number 4
_symmetry_cell_setting 'monoclinic'
loop_
_space_group_symop_operation_xyz
x,y,z
-x,1/2+y,-z
loop_
_atom_site_type_symbol
_atom_site_label
_atom_site_fract_x
_atom_site_fract_y
_atom_site_fract_z
Si Si1 0.777271 0.539410 0.528544
Si Si2 0.142429 0.997516 0.891473
Si Si3 0.358639 0.738991 0.589222
Si Si4 0.138910 0.241562 0.212800
Si Si5 0.702133 0.089879 0.883065
Si Si6 0.583137 0.823378 0.186205
Si Si7 0.032436 0.485810 0.453930
Si Si8 0.306938 0.305367 0.006153
O O1 0.774301 0.371781 0.550563
O O2 0.878705 0.646304 0.684320
O O3 0.498675 0.574191 0.337992
O O4 0.912551 0.544612 0.492700
O O5 0.155983 0.163178 0.915835
O O6 0.927787 0.903678 0.804648
O O7 0.148791 0.958628 0.761260
O O8 0.384671 0.936912 0.094874
O O9 0.603480 0.719561 0.676225
O O10 0.199336 0.603217 0.501231
O O11 0.444789 0.777378 0.771741
O O12 0.931908 0.180945 0.002932
O O13 0.551721 0.176165 0.883731
O O14 0.783068 0.939965 0.981251
O O15 0.805411 0.855137 0.406437
O O16 0.660703 0.840837 0.105409
#
# Coordination Sequence:
#
# PCOD9118068 Si02
#       8
#     2   2   2   2   2   2   2   2
#     4  11  26  47  75 109 149 196 253 318 378 452
#     4  11  25  42  74 103 148 193 248 306 382 447
#     4  11  28  48  72 112 153 194 258 306 386 467
#     4  11  27  50  72 106 151 202 247 314 380 460
#     4  10  24  44  72 102 147 190 253 305 374 452
#     4  11  22  43  69 109 144 190 243 314 376 440
#     4  12  26  44  75 110 146 195 254 316 378 448
#     4  11  22  44  69 109 146 192 246 313 368 450
#
# _framework density 25.309991
#
# number of rings (size 3 to 8) (size 9 to 14) (size 15 to 20)
#    0.000    1.000    1.250    4.500   12.250    2.000 
#    0.000    0.000    0.000    0.000    0.000    0.000 
#    0.000    0.000    0.000    0.000    0.000    0.000 
#
# Total GULP energy -89618.656370 kJ/mol
# GULP energy per Si atom -5601.166023 kJ/mol
# Density = 2.525238 g / cm^3
# Si number density = 25.309991 Si / 1000 Ang^3
#
#
#
# Elastic Constant Matrix: (Units=GPa)
#
#
# Indices 1 2 3 4 5 6 
#
# 1 94.8580 27.6187 12.7298 0.0000 22.8626 0.0000
# 2 27.6187 149.2951 36.5713 0.0000 18.4601 0.0000
# 3 12.7298 36.5713 93.5733 0.0000 6.3865 0.0000
# 4 0.0000 0.0000 0.0000 50.3213 0.0000 11.9974
# 5 22.8626 18.4601 6.3865 0.0000 38.2448 0.0000
# 6 0.0000 0.0000 0.0000 11.9974 0.0000 24.3124
#
#
#
# Elastic Compliance Matrix: (Units=1/GPa)
#
#
# Indices 1 2 3 4 5 6 
#
# 1 0.012668 -0.001319 -0.000743 0.000000 -0.006812 0.000000
# 2 -0.001319 0.007934 -0.002745 0.000000 -0.002583 0.000000
# 3 -0.000743 -0.002745 0.011875 0.000000 -0.000214 0.000000
# 4 0.000000 0.000000 0.000000 0.022522 0.000000 -0.011114
# 5 -0.006812 -0.002583 -0.000214 0.000000 0.031502 0.000000
# 6 0.000000 0.000000 0.000000 -0.011114 0.000000 0.046616
#
#
# Mechanical properties :
#
#
# Convention : Reuss Voigt Hill
#
# Bulk Modulus (GPa) = 43.73936 54.61844 49.17890
# Shear Modulus (GPa) = 33.25539 39.96282 36.60911
#
# Velocity S-wave (km/s) = 3.62874 3.97789 3.80732
# Velocity P-wave (km/s) = 5.90559 6.53642 6.22900
#
# Compressibility (1/GPa) = 0.02286271
#
# Stress axis : x y z
#
# Youngs Moduli (GPa) = 78.94125 126.04054 84.20815
#
# Poissons Ratio (x) = 0.16627 0.06255
# Poissons Ratio (y) = 0.10414 0.23116
# Poissons Ratio (z) = 0.05864 0.34599
#
# Static dielectric constant tensor:
#      x y z
#    x 1.974010 0.000000 -0.014010 
#    y 0.000000 2.009250 0.000000 
#    z -0.014010 0.000000 2.000290 
# 
# From -- ./inp_files/11109.got.cif
#   From: 2010.05.17/outbox.cif.g08.bks.cpg/sg4_6_cif.got.tgz:11109.got - 2010.06.03 18:43:04.
