data_PCOD9118524
_publ_section_title
;
Structure prediction by ZEFSAII (Michael W. Deem and Ramdas Pophale) SiO2 
 PCOD9118524
Probable space group: P 21
;
_chemical_formula_sum "Si O2"
_cell_formula_units_Z 16
_cell_length_a 11.460996
_cell_length_b 11.596650
_cell_length_c 8.347036
_cell_angle_alpha 90.000000
_cell_angle_beta 40.509405
_cell_angle_gamma 90.000000
_cell_volume 720.634530
_symmetry_space_group_name_H-M "P 21"
_symmetry_group_IT_number 4
_symmetry_cell_setting 'monoclinic'
loop_
_space_group_symop_operation_xyz
x,y,z
-x,1/2+y,-z
loop_
_atom_site_type_symbol
_atom_site_label
_atom_site_fract_x
_atom_site_fract_y
_atom_site_fract_z
Si Si1 0.437252 0.630530 0.281949
Si Si2 0.164586 0.230009 0.779089
Si Si3 0.837365 0.167759 0.707994
Si Si4 0.669538 0.373969 0.461691
Si Si5 0.855458 0.369407 0.925539
Si Si6 0.655742 0.947347 0.348439
Si Si7 0.858772 0.634518 0.845638
Si Si8 0.986059 0.510625 0.214473
O O1 0.318909 0.624986 0.245886
O O2 0.381226 0.747005 0.430713
O O3 0.396658 0.527532 0.448615
O O4 0.648251 0.637730 0.025475
O O5 0.335798 0.312465 0.609777
O O6 0.151955 0.106701 0.709958
O O7 0.026497 0.304112 0.819340
O O8 0.113327 0.199573 0.014986
O O9 0.784265 0.281532 0.864628
O O10 0.013218 0.191970 0.417249
O O11 0.906806 0.066337 0.751827
O O12 0.489641 0.452206 0.643539
O O13 0.842203 0.409801 0.386999
O O14 0.730446 0.379912 0.212268
O O15 0.901084 0.497865 0.819082
O O16 0.854965 0.979617 0.076338
#
# Coordination Sequence:
#
# PCOD9118524 Si02
#       8
#     2   2   2   2   2   2   2   2
#     4  12  26  47  71 109 146 186 233 298 357 423
#     4  11  20  44  74 105 130 182 240 289 345 410
#     4  11  28  45  69 101 148 190 228 283 369 433
#     4  12  24  45  77 102 141 180 245 302 342 411
#     4  11  23  46  72 100 143 187 231 297 350 413
#     4  12  24  42  78 106 132 186 242 298 349 409
#     4  12  24  47  70 105 148 186 237 292 356 421
#     4  11  25  46  69 104 138 181 238 293 348 422
#
# _framework density 22.202656999999999
#
# number of rings (size 3 to 8) (size 9 to 14) (size 15 to 20)
#    0.000    0.500    5.000    3.750    1.750    1.000 
#    4.500    0.000    0.000    0.000    0.000    0.000 
#    0.000    0.000    0.000    0.000    0.000    0.000 
#
# Total GULP energy -89404.345679 kJ/mol
# GULP energy per Si atom -5587.771605 kJ/mol
# Density = 2.215212 g / cm^3
# Si number density = 22.202657 Si / 1000 Ang^3
#
#
#
# Elastic Constant Matrix: (Units=GPa)
#
#
# Indices 1 2 3 4 5 6 
#
# 1 97.2153 31.8275 -0.6669 0.0000 1.0996 0.0000
# 2 31.8275 95.7340 13.6235 0.0000 0.1848 0.0000
# 3 -0.6669 13.6235 28.4014 0.0000 -8.3787 0.0000
# 4 0.0000 0.0000 0.0000 19.9655 0.0000 0.4560
# 5 1.0996 0.1848 -8.3787 0.0000 36.7698 0.0000
# 6 0.0000 0.0000 0.0000 0.4560 0.0000 38.2809
#
#
#
# Elastic Compliance Matrix: (Units=1/GPa)
#
#
# Indices 1 2 3 4 5 6 
#
# 1 0.011682 -0.004220 0.002360 0.000000 0.000210 0.000000
# 2 -0.004220 0.012800 -0.006669 0.000000 -0.001458 0.000000
# 3 0.002360 -0.006669 0.041224 0.000000 0.009357 0.000000
# 4 0.000000 0.000000 0.000000 0.050100 0.000000 -0.000597
# 5 0.000210 -0.001458 0.009357 0.000000 0.029329 0.000000
# 6 0.000000 0.000000 0.000000 -0.000597 0.000000 0.026130
#
#
# Mechanical properties :
#
#
# Convention : Reuss Voigt Hill
#
# Bulk Modulus (GPa) = 20.55542 34.54655 27.55099
# Shear Modulus (GPa) = 24.44509 30.77434 27.60972
#
# Velocity S-wave (km/s) = 3.32173 3.72703 3.53020
# Velocity P-wave (km/s) = 4.89796 5.84076 5.39001
#
# Compressibility (1/GPa) = 0.04864896
#
# Stress axis : x y z
#
# Youngs Moduli (GPa) = 85.60269 78.12201 24.25749
#
# Poissons Ratio (x) = 0.32968 -0.05726
# Poissons Ratio (y) = 0.36125 0.16178
# Poissons Ratio (z) = -0.20206 0.52102
#
# Static dielectric constant tensor:
#      x y z
#    x 1.894120 0.000000 -0.052270 
#    y 0.000000 1.870170 0.000000 
#    z -0.052270 0.000000 1.844560 
# 
# From -- ./inp_files/8147.got.cif
#   From: 2010.05.17/outbox.cif.g08.bks.cpg/sg4_5_cif.got.tgz:8147.got - 2010.06.03 18:43:04.
