data_PCOD9118594
_publ_section_title
;
Structure prediction by ZEFSAII (Michael W. Deem and Ramdas Pophale) SiO2 
 PCOD9118594
Probable space group: P 21
;
_chemical_formula_sum "Si O2"
_cell_formula_units_Z 16
_cell_length_a 14.939154
_cell_length_b 6.800206
_cell_length_c 15.985847
_cell_angle_alpha 90.000000
_cell_angle_beta 152.471883
_cell_angle_gamma 90.000000
_cell_volume 750.582589
_symmetry_space_group_name_H-M "P 21"
_symmetry_group_IT_number 4
_symmetry_cell_setting 'monoclinic'
loop_
_space_group_symop_operation_xyz
x,y,z
-x,1/2+y,-z
loop_
_atom_site_type_symbol
_atom_site_label
_atom_site_fract_x
_atom_site_fract_y
_atom_site_fract_z
Si Si1 0.630531 0.304810 0.919811
Si Si2 0.680598 0.965447 0.089695
Si Si3 0.666818 0.127756 0.364581
Si Si4 0.537646 0.799404 0.646995
Si Si5 0.089665 0.071931 0.738850
Si Si6 0.235384 0.980308 0.272227
Si Si7 0.823987 0.154959 0.915060
Si Si8 0.262239 0.815334 0.749872
O O1 0.436945 0.434830 0.758453
O O2 0.702160 0.261752 0.886267
O O3 0.789588 0.435014 0.099331
O O4 0.620891 0.100685 0.961789
O O5 0.820468 0.788200 0.182334
O O6 0.777971 0.109872 0.237200
O O7 0.480780 0.874983 0.958554
O O8 0.522973 0.225378 0.311612
O O9 0.726692 0.274022 0.339078
O O10 0.865271 0.070406 0.573779
O O11 0.352318 0.898940 0.448591
O O12 0.617302 0.619835 0.657192
O O13 0.707739 0.958615 0.795201
O O14 0.124957 0.981127 0.675132
O O15 0.172222 0.798299 0.161319
O O16 0.038303 0.100853 0.125217
#
# Coordination Sequence:
#
# PCOD9118594 Si02
#       8
#     2   2   2   2   2   2   2   2
#     4  11  26  45  69 103 141 184 236 292 351 424
#     4  11  21  44  71  97 138 187 228 296 353 406
#     4  12  27  45  71 104 144 187 236 299 355 426
#     4  12  27  48  71 111 145 182 238 304 353 424
#     4  11  27  44  67 104 143 183 242 294 352 423
#     4  12  26  47  77 107 146 187 235 293 362 427
#     4  12  26  46  77 105 141 192 235 288 364 431
#     4  11  22  43  69  97 136 186 234 288 354 419
#
# _framework density 21.316773999999999
#
# number of rings (size 3 to 8) (size 9 to 14) (size 15 to 20)
#    0.000    0.500    6.250    1.500    3.500    3.000 
#    4.500    0.000    0.000    0.000    0.000    0.000 
#    0.000    0.000    0.000    0.000    0.000    0.000 
#
# Total GULP energy -89539.197740 kJ/mol
# GULP energy per Si atom -5596.199859 kJ/mol
# Density = 2.126826 g / cm^3
# Si number density = 21.316774 Si / 1000 Ang^3
#
#
#
# Elastic Constant Matrix: (Units=GPa)
#
#
# Indices 1 2 3 4 5 6 
#
# 1 34.3548 9.8798 -13.3838 0.0000 -9.1664 0.0000
# 2 9.8798 102.2322 22.5890 0.0000 -3.6906 0.0000
# 3 -13.3838 22.5890 65.9565 0.0000 9.8381 0.0000
# 4 0.0000 0.0000 0.0000 17.4442 0.0000 -8.8098
# 5 -9.1664 -3.6906 9.8381 0.0000 33.4676 0.0000
# 6 0.0000 0.0000 0.0000 -8.8098 0.0000 32.7561
#
#
#
# Elastic Compliance Matrix: (Units=1/GPa)
#
#
# Indices 1 2 3 4 5 6 
#
# 1 0.035402 -0.004907 0.007843 0.000000 0.006850 0.000000
# 2 -0.004907 0.011440 -0.005126 0.000000 0.001424 0.000000
# 3 0.007843 -0.005126 0.019110 0.000000 -0.004035 0.000000
# 4 0.000000 0.000000 0.000000 0.066336 0.000000 0.017841
# 5 0.006850 0.001424 -0.004035 0.000000 0.033099 0.000000
# 6 0.000000 0.000000 0.000000 0.017841 0.000000 0.035327
#
#
# Mechanical properties :
#
#
# Convention : Reuss Voigt Hill
#
# Bulk Modulus (GPa) = 16.24134 26.74593 21.49363
# Shear Modulus (GPa) = 22.16129 28.96417 25.56273
#
# Velocity S-wave (km/s) = 3.22781 3.69012 3.46668
# Velocity P-wave (km/s) = 4.63975 5.54348 5.11162
#
# Compressibility (1/GPa) = 0.06157129
#
# Stress axis : x y z
#
# Youngs Moduli (GPa) = 28.24702 87.41302 52.32761
#
# Poissons Ratio (x) = 0.42892 -0.41038
# Poissons Ratio (y) = 0.13860 0.26824
# Poissons Ratio (z) = -0.22153 0.44809
#
# Static dielectric constant tensor:
#      x y z
#    x 1.760360 0.000000 -0.026690 
#    y 0.000000 1.763110 0.000000 
#    z -0.026690 0.000000 1.751030 
# 
# From -- ./inp_files/14062.got.cif
#   From: 2010.05.17/outbox.cif.g08.bks.cpg/sg4_8_cif.got.tgz:14062.got - 2010.06.03 18:43:04.
