data_PCOD9118634
_publ_section_title
;
Structure prediction by ZEFSAII (Michael W. Deem and Ramdas Pophale) SiO2 
 PCOD9118634
Probable space group: P 21
;
_chemical_formula_sum "Si O2"
_cell_formula_units_Z 12
_cell_length_a 15.118587
_cell_length_b 7.584470
_cell_length_c 8.552966
_cell_angle_alpha 90.000000
_cell_angle_beta 26.214424
_cell_angle_gamma 90.000000
_cell_volume 433.223267
_symmetry_space_group_name_H-M "P 21"
_symmetry_group_IT_number 4
_symmetry_cell_setting 'monoclinic'
loop_
_space_group_symop_operation_xyz
x,y,z
-x,1/2+y,-z
loop_
_atom_site_type_symbol
_atom_site_label
_atom_site_fract_x
_atom_site_fract_y
_atom_site_fract_z
Si Si1 0.887918 0.978380 0.337660
Si Si2 0.453404 0.962684 0.192990
Si Si3 0.407302 0.758246 0.800912
Si Si4 0.972234 0.762141 0.652661
Si Si5 0.346717 0.616325 0.550648
Si Si6 0.903865 0.615687 0.446124
O O1 0.973903 0.786315 0.237806
O O2 0.017066 0.123212 0.224981
O O3 0.852646 0.030840 0.215644
O O4 0.665437 0.965781 0.767077
O O5 0.471932 0.103817 0.302667
O O6 0.277039 0.025027 0.358262
O O7 0.402140 0.770128 0.338562
O O8 0.377882 0.711049 0.667516
O O9 0.516320 0.942706 0.652154
O O10 0.192893 0.768575 0.225940
O O11 0.841533 0.695902 0.715070
O O12 0.937232 0.961215 0.762779
#
# Coordination Sequence:
#
# PCOD9118634 Si02
#       6
#     2   2   2   2   2   2
#     4  11  22  38  65  94 123 163 210 258 306 365
#     4  11  22  38  65  94 123 163 210 258 306 365
#     4  11  24  40  62  95 129 165 205 255 319 372
#     4  11  24  40  62  95 129 165 205 255 319 372
#     4  12  22  40  65  95 126 160 209 263 307 365
#     4  12  22  40  65  95 126 160 209 263 307 365
#
# _framework density 27.699342999999999
#
# number of rings (size 3 to 8) (size 9 to 14) (size 15 to 20)
#    0.000    0.667    6.667    3.000    0.000    0.000 
#    0.000    1.667    0.000    0.000    0.000    0.000 
#    0.000    0.000    0.000    0.000    0.000    0.000 
#
# Total GULP energy -67424.731635 kJ/mol
# GULP energy per Si atom -5618.727636 kJ/mol
# Density = 2.763630 g / cm^3
# Si number density = 27.699343 Si / 1000 Ang^3
#
#
#
# Elastic Constant Matrix: (Units=GPa)
#
#
# Indices 1 2 3 4 5 6 
#
# 1 252.6455 119.2548 26.5645 0.0000 14.3654 0.0000
# 2 119.2548 270.6157 24.4085 0.0000 15.0585 0.0000
# 3 26.5645 24.4085 42.8850 0.0000 8.1969 0.0000
# 4 0.0000 0.0000 0.0000 41.7973 0.0000 5.1555
# 5 14.3654 15.0585 8.1969 0.0000 43.9740 0.0000
# 6 0.0000 0.0000 0.0000 5.1555 0.0000 82.8864
#
#
#
# Elastic Compliance Matrix: (Units=1/GPa)
#
#
# Indices 1 2 3 4 5 6 
#
# 1 0.005172 -0.002073 -0.001905 0.000000 -0.000625 0.000000
# 2 -0.002073 0.004765 -0.001292 0.000000 -0.000714 0.000000
# 3 -0.001905 -0.001292 0.025954 0.000000 -0.003773 0.000000
# 4 0.000000 0.000000 0.000000 0.024110 0.000000 -0.001500
# 5 -0.000625 -0.000714 -0.003773 0.000000 0.023893 0.000000
# 6 0.000000 0.000000 0.000000 -0.001500 0.000000 0.012158
#
#
# Mechanical properties :
#
#
# Convention : Reuss Voigt Hill
#
# Bulk Modulus (GPa) = 39.44249 100.73355 70.08802
# Shear Modulus (GPa) = 43.46250 60.12608 51.79429
#
# Velocity S-wave (km/s) = 3.96546 4.66410 4.32890
# Velocity P-wave (km/s) = 5.93607 8.09017 7.09534
#
# Compressibility (1/GPa) = 0.02535337
#
# Stress axis : x y z
#
# Youngs Moduli (GPa) = 193.33707 209.86707 38.52907
#
# Poissons Ratio (x) = 0.43500 0.07339
# Poissons Ratio (y) = 0.40074 0.04977
# Poissons Ratio (z) = 0.36826 0.27107
#
# Static dielectric constant tensor:
#      x y z
#    x 2.088410 0.000000 -0.003060 
#    y 0.000000 2.072180 0.000000 
#    z -0.003060 0.000000 2.213210 
# 
# From -- ./inp_files/9117.got.cif
#   From: 2010.05.17/outbox.cif.g08.bks.cpg/sg4_5_cif.got.tgz:9117.got - 2010.06.03 18:43:04.
