data_PCOD9118095
_publ_section_title
;
Structure prediction by ZEFSAII (Michael W. Deem and Ramdas Pophale) SiO2 
 PCOD9118095
Probable space group: P 21
;
_chemical_formula_sum "Si O2"
_cell_formula_units_Z 14
_cell_length_a 4.908077
_cell_length_b 8.062473
_cell_length_c 13.459153
_cell_angle_alpha 90.000000
_cell_angle_beta 68.473383
_cell_angle_gamma 90.000000
_cell_volume 495.445338
_symmetry_space_group_name_H-M "P 21"
_symmetry_group_IT_number 4
_symmetry_cell_setting 'monoclinic'
loop_
_space_group_symop_operation_xyz
x,y,z
-x,1/2+y,-z
loop_
_atom_site_type_symbol
_atom_site_label
_atom_site_fract_x
_atom_site_fract_y
_atom_site_fract_z
Si Si1 0.283442 0.236770 0.176423
Si Si2 0.681854 0.902210 0.332990
Si Si3 0.388743 0.417100 0.893852
Si Si4 0.316261 0.207270 0.407297
Si Si5 0.724468 0.084774 0.589625
Si Si6 0.852341 0.183001 0.785260
Si Si7 0.145123 0.930803 0.887545
O O1 0.260719 0.208385 0.296615
O O2 0.975945 0.287498 0.170212
O O3 0.530816 0.378814 0.124157
O O4 0.410890 0.073790 0.107957
O O5 0.656213 0.923522 0.217965
O O6 0.498032 0.739466 0.391238
O O7 0.014767 0.841416 0.292976
O O8 0.572404 0.073904 0.393092
O O9 0.579093 0.251285 0.883337
O O10 0.084911 0.426712 0.992018
O O11 0.373455 0.399195 0.428104
O O12 0.028914 0.136181 0.498994
O O13 0.778510 0.069244 0.701346
O O14 0.080075 0.093546 0.828936
#
# Coordination Sequence:
#
# PCOD9118095 Si02
#       7
#     2   2   2   2   2   2   2
#     4  11  27  47  70 112 149 193 248 315 366 455
#     4  10  24  45  69 107 145 189 251 311 367 455
#     4  10  26  43  74 103 149 195 248 304 375 444
#     4  11  22  47  73 102 146 192 249 305 384 439
#     4  11  22  47  72 105 145 196 247 313 377 452
#     4  11  25  47  71 106 149 190 254 311 375 447
#     4  12  26  46  77 107 153 195 253 303 380 442
#
# _framework density 28.257401999999999
#
# number of rings (size 3 to 8) (size 9 to 14) (size 15 to 20)
#    0.000    1.143    2.857    1.714   10.000    0.000 
#    7.714    0.000    0.000    0.000    0.000    0.000 
#    0.000    0.000    0.000    0.000    0.000    0.000 
#
# Total GULP energy -78620.757092 kJ/mol
# GULP energy per Si atom -5615.768364 kJ/mol
# Density = 2.819309 g / cm^3
# Si number density = 28.257402 Si / 1000 Ang^3
#
#
#
# Elastic Constant Matrix: (Units=GPa)
#
#
# Indices 1 2 3 4 5 6 
#
# 1 80.8384 38.9257 25.8149 0.0000 -7.8004 0.0000
# 2 38.9257 222.3607 74.9720 0.0000 -11.0092 0.0000
# 3 25.8149 74.9720 165.7043 0.0000 -24.4441 0.0000
# 4 0.0000 0.0000 0.0000 52.6892 0.0000 -9.0163
# 5 -7.8004 -11.0092 -24.4441 0.0000 46.2261 0.0000
# 6 0.0000 0.0000 0.0000 -9.0163 0.0000 56.6875
#
#
#
# Elastic Compliance Matrix: (Units=1/GPa)
#
#
# Indices 1 2 3 4 5 6 
#
# 1 0.013793 -0.001995 -0.001055 0.000000 0.001294 0.000000
# 2 -0.001995 0.005595 -0.002249 0.000000 -0.000193 0.000000
# 3 -0.001055 -0.002249 0.007713 0.000000 0.003365 0.000000
# 4 0.000000 0.000000 0.000000 0.019510 0.000000 0.003103
# 5 0.001294 -0.000193 0.003365 0.000000 0.023585 0.000000
# 6 0.000000 0.000000 0.000000 0.003103 0.000000 0.018134
#
#
# Mechanical properties :
#
#
# Convention : Reuss Voigt Hill
#
# Bulk Modulus (GPa) = 60.59617 83.14763 71.87190
# Shear Modulus (GPa) = 47.87914 53.06660 50.47287
#
# Velocity S-wave (km/s) = 4.12077 4.33826 4.23091
# Velocity P-wave (km/s) = 6.64318 7.38803 7.02548
#
# Compressibility (1/GPa) = 0.01650269
#
# Stress axis : x y z
#
# Youngs Moduli (GPa) = 72.50195 178.72549 129.64553
#
# Poissons Ratio (x) = 0.35648 0.13682
# Poissons Ratio (y) = 0.14461 0.29161
# Poissons Ratio (z) = 0.07652 0.40201
#
# Static dielectric constant tensor:
#      x y z
#    x 2.153490 0.000000 0.015380 
#    y 0.000000 2.271810 0.000000 
#    z 0.015380 0.000000 2.146750 
# 
# From -- ./inp_files/2558.got.cif
#   From: 2010.05.17/outbox.cif.g08.bks.cpg/sg4_2_cif.got.tgz:2558.got - 2010.06.03 18:43:04.
