data_PCOD9118923
_publ_section_title
;
Structure prediction by ZEFSAII (Michael W. Deem and Ramdas Pophale) SiO2 
 PCOD9118923
Probable space group: P 21
;
_chemical_formula_sum "Si O2"
_cell_formula_units_Z 16
_cell_length_a 9.095120
_cell_length_b 8.031260
_cell_length_c 10.947825
_cell_angle_alpha 90.000000
_cell_angle_beta 128.838284
_cell_angle_gamma 90.000000
_cell_volume 622.891382
_symmetry_space_group_name_H-M "P 21"
_symmetry_group_IT_number 4
_symmetry_cell_setting 'monoclinic'
loop_
_space_group_symop_operation_xyz
x,y,z
-x,1/2+y,-z
loop_
_atom_site_type_symbol
_atom_site_label
_atom_site_fract_x
_atom_site_fract_y
_atom_site_fract_z
Si Si1 0.213234 0.974720 0.667895
Si Si2 0.861013 0.980635 0.305093
Si Si3 0.876391 0.616453 0.900888
Si Si4 0.057680 0.770308 0.210508
Si Si5 0.569294 0.113080 0.577115
Si Si6 0.520215 0.770025 0.694419
Si Si7 0.845691 0.292435 0.126139
Si Si8 0.528868 0.786524 0.229431
O O1 0.335199 0.821780 0.673057
O O2 0.132393 0.929366 0.757766
O O3 0.044697 0.017853 0.485268
O O4 0.366485 0.119963 0.763139
O O5 0.681368 0.930384 0.291233
O O6 0.917952 0.830762 0.242999
O O7 0.808431 0.127914 0.187077
O O8 0.892557 0.437099 0.843417
O O9 0.693668 0.707745 0.865907
O O10 0.968583 0.744820 0.852185
O O11 0.011460 0.626610 0.088904
O O12 0.238950 0.694548 0.370750
O O13 0.452452 0.123660 0.392757
O O14 0.502476 0.240994 0.646268
O O15 0.566734 0.936924 0.641393
O O16 0.665626 0.319565 0.943875
#
# Coordination Sequence:
#
# PCOD9118923 Si02
#       8
#     2   2   2   2   2   2   2   2
#     4  11  25  45  67  97 134 175 225 273 336 396
#     4  11  25  44  69  95 135 177 220 279 330 398
#     4  11  25  41  70  98 134 177 217 279 332 399
#     4  11  23  45  66  98 135 170 225 272 337 395
#     4  11  23  45  66  98 135 170 225 272 337 395
#     4  11  25  41  70  98 134 177 217 279 332 399
#     4  11  25  45  67  97 134 175 225 273 336 396
#     4  11  25  44  69  95 135 177 220 279 330 398
#
# _framework density 25.686661000000001
#
# number of rings (size 3 to 8) (size 9 to 14) (size 15 to 20)
#    0.000    1.000    2.500    3.000   14.000    4.000 
#    0.000    0.000    0.000    0.000    0.000    0.000 
#    0.000    0.000    0.000    0.000    0.000    0.000 
#
# Total GULP energy -89497.613390 kJ/mol
# GULP energy per Si atom -5593.600837 kJ/mol
# Density = 2.562820 g / cm^3
# Si number density = 25.686661 Si / 1000 Ang^3
#
#
#
# Elastic Constant Matrix: (Units=GPa)
#
#
# Indices 1 2 3 4 5 6 
#
# 1 97.0069 11.9870 15.0623 0.0000 -4.7098 0.0000
# 2 11.9870 74.2405 -16.5240 0.0000 -3.1975 0.0000
# 3 15.0623 -16.5240 22.4254 0.0000 -4.3956 0.0000
# 4 0.0000 0.0000 0.0000 36.7338 0.0000 -6.9921
# 5 -4.7098 -3.1975 -4.3956 0.0000 38.9822 0.0000
# 6 0.0000 0.0000 0.0000 -6.9921 0.0000 51.5477
#
#
#
# Elastic Compliance Matrix: (Units=1/GPa)
#
#
# Indices 1 2 3 4 5 6 
#
# 1 0.012773 -0.004773 -0.012139 0.000000 -0.000217 0.000000
# 2 -0.004773 0.018183 0.017163 0.000000 0.002850 0.000000
# 3 -0.012139 0.017163 0.066858 0.000000 0.007480 0.000000
# 4 0.000000 0.000000 0.000000 0.027944 0.000000 0.003790
# 5 -0.000217 0.002850 0.007480 0.000000 0.026704 0.000000
# 6 0.000000 0.000000 0.000000 0.003790 0.000000 0.019914
#
#
# Mechanical properties :
#
#
# Convention : Reuss Voigt Hill
#
# Bulk Modulus (GPa) = 10.17135 23.85815 17.01475
# Shear Modulus (GPa) = 24.43252 37.66261 31.04756
#
# Velocity S-wave (km/s) = 3.08746 3.83330 3.48041
# Velocity P-wave (km/s) = 4.08390 5.37592 4.77382
#
# Compressibility (1/GPa) = 0.09831536
#
# Stress axis : x y z
#
# Youngs Moduli (GPa) = 78.29256 54.99576 14.95713
#
# Poissons Ratio (x) = 0.26252 0.18156
# Poissons Ratio (y) = 0.37372 -0.25671
# Poissons Ratio (z) = 0.95036 -0.94389
#
# Static dielectric constant tensor:
#      x y z
#    x 1.977370 0.000000 0.020930 
#    y 0.000000 2.075220 0.000000 
#    z 0.020930 0.000000 1.916640 
# 
# From -- ./inp_files/5416.got.cif
#   From: 2010.05.17/outbox.cif.g08.bks.cpg/sg4_3_cif.got.tgz:5416.got - 2010.06.03 18:43:04.
