data_PCOD9118893
_publ_section_title
;
Structure prediction by ZEFSAII (Michael W. Deem and Ramdas Pophale) SiO2 
 PCOD9118893
Probable space group: P 21
;
_chemical_formula_sum "Si O2"
_cell_formula_units_Z 16
_cell_length_a 14.383546
_cell_length_b 9.976316
_cell_length_c 15.075425
_cell_angle_alpha 90.000000
_cell_angle_beta 160.532494
_cell_angle_gamma 90.000000
_cell_volume 720.949470
_symmetry_space_group_name_H-M "P 21"
_symmetry_group_IT_number 4
_symmetry_cell_setting 'monoclinic'
loop_
_space_group_symop_operation_xyz
x,y,z
-x,1/2+y,-z
loop_
_atom_site_type_symbol
_atom_site_label
_atom_site_fract_x
_atom_site_fract_y
_atom_site_fract_z
Si Si1 0.544696 0.547000 0.206724
Si Si2 0.881869 0.152615 0.037579
Si Si3 0.508415 0.569597 0.461353
Si Si4 0.214529 0.917806 0.938753
Si Si5 0.195815 0.339755 0.582588
Si Si6 0.487386 0.274782 0.381130
Si Si7 0.904831 0.720811 0.135875
Si Si8 0.115576 0.396294 0.715942
O O1 0.692961 0.689633 0.330311
O O2 0.800853 0.446518 0.450003
O O3 0.322082 0.561251 0.085793
O O4 0.349913 0.507764 0.948691
O O5 0.853454 0.301941 0.051083
O O6 0.199336 0.102710 0.325553
O O7 0.748955 0.140281 0.820784
O O8 0.453242 0.410522 0.408196
O O9 0.541804 0.641945 0.585322
O O10 0.068796 0.869965 0.716653
O O11 0.099094 0.060585 0.863266
O O12 0.545249 0.928566 0.219488
O O13 0.135404 0.359647 0.631246
O O14 0.792610 0.273992 0.615113
O O15 0.283116 0.268168 0.114536
O O16 0.818155 0.779669 0.153573
#
# Coordination Sequence:
#
# PCOD9118893 Si02
#       8
#     2   2   2   2   2   2   2   2
#     4  11  23  44  66  99 130 177 233 281 338 419
#     4  11  23  44  75  96 135 179 233 279 354 407
#     4  12  26  45  76 104 138 181 234 291 347 421
#     4  11  25  45  70 101 142 179 231 285 346 419
#     4  11  25  42  66 104 132 183 229 285 333 423
#     4  12  28  46  72 105 144 177 241 284 357 416
#     4  12  27  46  69 102 144 183 227 289 357 409
#     4  12  25  40  72  93 141 181 226 286 346 404
#
# _framework density 22.192955000000001
#
# number of rings (size 3 to 8) (size 9 to 14) (size 15 to 20)
#    0.000    0.500    0.000    9.750    7.000    0.000 
#    0.000    0.000    0.000    0.000    0.000    0.000 
#    0.000    0.000    0.000    0.000    0.000    0.000 
#
# Total GULP energy -89607.598278 kJ/mol
# GULP energy per Si atom -5600.474892 kJ/mol
# Density = 2.214244 g / cm^3
# Si number density = 22.192955 Si / 1000 Ang^3
#
#
#
# Elastic Constant Matrix: (Units=GPa)
#
#
# Indices 1 2 3 4 5 6 
#
# 1 40.0450 22.0777 -2.8881 0.0000 -1.2279 0.0000
# 2 22.0777 83.6486 12.9974 0.0000 -19.6321 0.0000
# 3 -2.8881 12.9974 117.7436 0.0000 -7.4312 0.0000
# 4 0.0000 0.0000 0.0000 26.9179 0.0000 -0.0439
# 5 -1.2279 -19.6321 -7.4312 0.0000 19.3290 0.0000
# 6 0.0000 0.0000 0.0000 -0.0439 0.0000 23.8631
#
#
#
# Elastic Compliance Matrix: (Units=1/GPa)
#
#
# Indices 1 2 3 4 5 6 
#
# 1 0.030372 -0.010047 0.001365 0.000000 -0.007751 0.000000
# 2 -0.010047 0.019084 -0.001199 0.000000 0.018284 0.000000
# 3 0.001365 -0.001199 0.008801 0.000000 0.002252 0.000000
# 4 0.000000 0.000000 0.000000 0.037150 0.000000 0.000068
# 5 -0.007751 0.018284 0.002252 0.000000 0.070680 0.000000
# 6 0.000000 0.000000 0.000000 0.000068 0.000000 0.041906
#
#
# Mechanical properties :
#
#
# Convention : Reuss Voigt Hill
#
# Bulk Modulus (GPa) = 25.97800 33.97901 29.97850
# Shear Modulus (GPa) = 20.78246 27.97202 24.37724
#
# Velocity S-wave (km/s) = 3.06346 3.55406 3.31784
# Velocity P-wave (km/s) = 4.92382 5.67325 5.31177
#
# Compressibility (1/GPa) = 0.03849411
#
# Stress axis : x y z
#
# Youngs Moduli (GPa) = 32.92510 52.39961 113.62301
#
# Poissons Ratio (x) = 0.52647 -0.15509
# Poissons Ratio (y) = 0.33081 0.13625
# Poissons Ratio (z) = -0.04494 0.06283
#
# Static dielectric constant tensor:
#      x y z
#    x 1.819460 0.000000 -0.009450 
#    y 0.000000 1.823240 0.000000 
#    z -0.009450 0.000000 1.780960 
# 
# From -- ./inp_files/14214.got.cif
#   From: 2010.05.17/outbox.cif.g08.bks.cpg/sg4_8_cif.got.tgz:14214.got - 2010.06.03 18:43:04.
