data_PCOD9118108
_publ_section_title
;
Structure prediction by ZEFSAII (Michael W. Deem and Ramdas Pophale) SiO2 
 PCOD9118108
Probable space group: P 21
;
_chemical_formula_sum "Si O2"
_cell_formula_units_Z 16
_cell_length_a 5.954428
_cell_length_b 11.166747
_cell_length_c 9.961456
_cell_angle_alpha 90.000000
_cell_angle_beta 99.402450
_cell_angle_gamma 90.000000
_cell_volume 653.454462
_symmetry_space_group_name_H-M "P 21"
_symmetry_group_IT_number 4
_symmetry_cell_setting 'monoclinic'
loop_
_space_group_symop_operation_xyz
x,y,z
-x,1/2+y,-z
loop_
_atom_site_type_symbol
_atom_site_label
_atom_site_fract_x
_atom_site_fract_y
_atom_site_fract_z
Si Si1 0.134077 0.161570 0.252771
Si Si2 0.577560 0.307155 0.615685
Si Si3 0.011915 0.650690 0.243624
Si Si4 0.626921 0.843693 0.138890
Si Si5 0.512302 0.882676 0.673379
Si Si6 0.965127 0.000153 0.015013
Si Si7 0.281648 0.088315 0.550571
Si Si8 0.256331 0.809185 0.895696
O O1 0.293968 0.281747 0.279368
O O2 0.186646 0.081339 0.389584
O O3 0.877155 0.211733 0.205983
O O4 0.142899 0.075955 0.122960
O O5 0.789570 0.236204 0.690224
O O6 0.489841 0.385425 0.732765
O O7 0.639477 0.342171 0.469570
O O8 0.356683 0.225672 0.568389
O O9 0.810435 0.740332 0.182052
O O10 0.914283 0.570860 0.357320
O O11 0.090035 0.576341 0.122158
O O12 0.751393 0.955264 0.080402
O O13 0.447263 0.779605 0.022607
O O14 0.381957 0.891324 0.799818
O O15 0.516177 0.018787 0.616469
O O16 0.075085 0.880754 0.965515
#
# Coordination Sequence:
#
# PCOD9118108 Si02
#       8
#     2   2   2   2   2   2   2   2
#     4  11  27  48  69 110 149 189 249 305 363 449
#     4  10  24  45  73 102 144 182 239 308 358 444
#     4  11  23  47  71 104 142 187 245 298 369 436
#     4  11  26  43  70 107 139 195 244 299 364 437
#     4  11  24  47  75 105 143 186 247 299 370 436
#     4  12  25  43  72 104 148 191 238 297 377 429
#     4  10  24  45  74 106 139 192 238 301 375 428
#     4  12  25  46  70 104 144 190 238 309 362 439
#
# _framework density 24.485258000000002
#
# number of rings (size 3 to 8) (size 9 to 14) (size 15 to 20)
#    0.000    1.000    1.250    4.500    7.000    2.000 
#    4.500    0.000    0.000    0.000    0.000    0.000 
#    0.000    0.000    0.000    0.000    0.000    0.000 
#
# Total GULP energy -89218.525344 kJ/mol
# GULP energy per Si atom -5576.157834 kJ/mol
# Density = 2.442953 g / cm^3
# Si number density = 24.485258 Si / 1000 Ang^3
#
#
#
# Elastic Constant Matrix: (Units=GPa)
#
#
# Indices 1 2 3 4 5 6 
#
# 1 70.9120 16.9548 53.7222 0.0000 15.1455 0.0000
# 2 16.9548 39.2271 21.8559 0.0000 -1.3221 0.0000
# 3 53.7222 21.8559 172.0673 0.0000 4.2519 0.0000
# 4 0.0000 0.0000 0.0000 47.4806 0.0000 5.3077
# 5 15.1455 -1.3221 4.2519 0.0000 29.5347 0.0000
# 6 0.0000 0.0000 0.0000 5.3077 0.0000 32.3228
#
#
#
# Elastic Compliance Matrix: (Units=1/GPa)
#
#
# Indices 1 2 3 4 5 6 
#
# 1 0.022564 -0.006835 -0.005904 0.000000 -0.011027 0.000000
# 2 -0.006835 0.029593 -0.001751 0.000000 0.005082 0.000000
# 3 -0.005904 -0.001751 0.007832 0.000000 0.001822 0.000000
# 4 0.000000 0.000000 0.000000 0.021455 0.000000 -0.003523
# 5 -0.011027 0.005082 0.001822 0.000000 0.039478 0.000000
# 6 0.000000 0.000000 0.000000 -0.003523 0.000000 0.031516
#
#
# Mechanical properties :
#
#
# Convention : Reuss Voigt Hill
#
# Bulk Modulus (GPa) = 32.24684 51.91913 42.08299
# Shear Modulus (GPa) = 26.07478 34.51253 30.29365
#
# Velocity S-wave (km/s) = 3.26685 3.75843 3.52123
# Velocity P-wave (km/s) = 5.23720 6.33125 5.81003
#
# Compressibility (1/GPa) = 0.03101079
#
# Stress axis : x y z
#
# Youngs Moduli (GPa) = 44.31766 33.79141 127.67408
#
# Poissons Ratio (x) = 0.23096 0.75383
# Poissons Ratio (y) = 0.30290 0.22350
# Poissons Ratio (z) = 0.26167 0.05915
#
# Static dielectric constant tensor:
#      x y z
#    x 1.926880 0.000000 -0.018080 
#    y 0.000000 2.160900 0.000000 
#    z -0.018080 0.000000 1.964460 
# 
# From -- ./inp_files/2810.got.cif
#   From: 2010.05.17/outbox.cif.g08.bks.cpg/sg4_2_cif.got.tgz:2810.got - 2010.06.03 18:43:04.
