data_PCOD9118125
_publ_section_title
;
Structure prediction by ZEFSAII (Michael W. Deem and Ramdas Pophale) SiO2 
 PCOD9118125
Probable space group: P 21
;
_chemical_formula_sum "Si O2"
_cell_formula_units_Z 14
_cell_length_a 13.855835
_cell_length_b 7.905535
_cell_length_c 10.853420
_cell_angle_alpha 90.000000
_cell_angle_beta 147.356063
_cell_angle_gamma 90.000000
_cell_volume 641.290685
_symmetry_space_group_name_H-M "P 21"
_symmetry_group_IT_number 4
_symmetry_cell_setting 'monoclinic'
loop_
_space_group_symop_operation_xyz
x,y,z
-x,1/2+y,-z
loop_
_atom_site_type_symbol
_atom_site_label
_atom_site_fract_x
_atom_site_fract_y
_atom_site_fract_z
Si Si1 0.140421 0.879740 0.392169
Si Si2 0.036770 0.081137 0.673439
Si Si3 0.698833 0.198921 0.212847
Si Si4 0.374815 0.405182 0.471237
Si Si5 0.720285 0.257608 0.719004
Si Si6 0.568451 0.482042 0.925038
Si Si7 0.041311 0.258654 0.251391
O O1 0.277525 0.840373 0.652530
O O2 0.229438 0.847086 0.355545
O O3 0.000056 0.726560 0.264592
O O4 0.054745 0.064316 0.307199
O O5 0.899740 0.128932 0.417121
O O6 0.242799 0.075903 0.861819
O O7 0.972790 0.901263 0.658395
O O8 0.615341 0.288010 0.006009
O O9 0.572932 0.055375 0.131373
O O10 0.522981 0.310601 0.550554
O O11 0.278456 0.555983 0.296547
O O12 0.222418 0.290748 0.368291
O O13 0.482811 0.493478 0.699181
O O14 0.869896 0.296280 0.981606
#
# Coordination Sequence:
#
# PCOD9118125 Si02
#       7
#     2   2   2   2   2   2   2
#     4  10  24  46  67 103 140 186 236 286 359 424
#     4  10  24  49  68 100 147 180 242 296 351 429
#     4  10  26  46  71 102 145 185 239 297 356 421
#     4  12  25  44  72 107 145 185 246 288 354 433
#     4  12  24  45  70 105 145 193 229 301 355 422
#     4  12  24  48  75 101 145 189 233 308 352 419
#     4  12  23  44  73 100 145 186 235 292 363 418
#
# _framework density 21.830971999999999
#
# number of rings (size 3 to 8) (size 9 to 14) (size 15 to 20)
#    0.857    0.000    5.714    1.714    2.000    4.571 
#    5.143    0.000    0.000    0.000    0.000    0.000 
#    0.000    0.000    0.000    0.000    0.000    0.000 
#
# Total GULP energy -78243.530548 kJ/mol
# GULP energy per Si atom -5588.823611 kJ/mol
# Density = 2.178128 g / cm^3
# Si number density = 21.830972 Si / 1000 Ang^3
#
#
#
# Elastic Constant Matrix: (Units=GPa)
#
#
# Indices 1 2 3 4 5 6 
#
# 1 54.1550 9.5002 17.0433 0.0000 15.2921 0.0000
# 2 9.5002 101.3558 8.7837 0.0000 1.4476 0.0000
# 3 17.0433 8.7837 58.2472 0.0000 10.0974 0.0000
# 4 0.0000 0.0000 0.0000 38.3296 0.0000 -1.0243
# 5 15.2921 1.4476 10.0974 0.0000 20.1953 0.0000
# 6 0.0000 0.0000 0.0000 -1.0243 0.0000 26.0144
#
#
#
# Elastic Compliance Matrix: (Units=1/GPa)
#
#
# Indices 1 2 3 4 5 6 
#
# 1 0.024735 -0.001726 -0.004108 0.000000 -0.016552 0.000000
# 2 -0.001726 0.010117 -0.001228 0.000000 0.001196 0.000000
# 3 -0.004108 -0.001228 0.019709 0.000000 -0.006656 0.000000
# 4 0.000000 0.000000 0.000000 0.026117 0.000000 0.001028
# 5 -0.016552 0.001196 -0.006656 0.000000 0.065292 0.000000
# 6 0.000000 0.000000 0.000000 0.001028 0.000000 0.038481
#
#
# Mechanical properties :
#
#
# Convention : Reuss Voigt Hill
#
# Bulk Modulus (GPa) = 24.72934 31.60139 28.16537
# Shear Modulus (GPa) = 23.57887 28.80324 26.19106
#
# Velocity S-wave (km/s) = 3.29000 3.63626 3.46746
# Velocity P-wave (km/s) = 5.07783 5.66893 5.38150
#
# Compressibility (1/GPa) = 0.04043779
#
# Stress axis : x y z
#
# Youngs Moduli (GPa) = 40.42849 98.84005 50.73775
#
# Poissons Ratio (x) = 0.17060 0.20843
# Poissons Ratio (y) = 0.06978 0.06230
# Poissons Ratio (z) = 0.16608 0.12137
#
# Static dielectric constant tensor:
#      x y z
#    x 1.788050 0.000000 -0.004290 
#    y 0.000000 1.790300 0.000000 
#    z -0.004290 0.000000 1.763460 
# 
# From -- ./inp_files/12573.got.cif
#   From: 2010.05.17/outbox.cif.g08.bks.cpg/sg4_7_cif.got.tgz:12573.got - 2010.06.03 18:43:04.
