data_PCOD9118373
_publ_section_title
;
Structure prediction by ZEFSAII (Michael W. Deem and Ramdas Pophale) SiO2 
 PCOD9118373
Probable space group: P 21
;
_chemical_formula_sum "Si O2"
_cell_formula_units_Z 14
_cell_length_a 23.683203
_cell_length_b 5.138226
_cell_length_c 9.018014
_cell_angle_alpha 90.000000
_cell_angle_beta 28.422851
_cell_angle_gamma 90.000000
_cell_volume 522.334468
_symmetry_space_group_name_H-M "P 21"
_symmetry_group_IT_number 4
_symmetry_cell_setting 'monoclinic'
loop_
_space_group_symop_operation_xyz
x,y,z
-x,1/2+y,-z
loop_
_atom_site_type_symbol
_atom_site_label
_atom_site_fract_x
_atom_site_fract_y
_atom_site_fract_z
Si Si1 0.104255 0.048700 0.320681
Si Si2 0.080718 0.512741 0.827634
Si Si3 0.746263 0.221891 0.800362
Si Si4 0.440639 0.039813 0.316645
Si Si5 0.393924 0.036708 0.103893
Si Si6 0.153636 0.684546 0.978540
Si Si7 0.311139 0.398975 0.826955
O O1 0.966714 0.067690 0.670040
O O2 0.159366 0.832604 0.300718
O O3 0.134754 0.977726 0.080150
O O4 0.184433 0.292652 0.174226
O O5 0.185500 0.530339 0.467279
O O6 0.140219 0.609568 0.841516
O O7 0.018936 0.232046 0.979023
O O8 0.699321 0.460252 0.807981
O O9 0.648070 0.076329 0.129864
O O10 0.527466 0.277201 0.078134
O O11 0.380347 0.148288 0.606306
O O12 0.523097 0.782546 0.130606
O O13 0.355107 0.045549 0.367172
O O14 0.275032 0.578548 0.769833
#
# Coordination Sequence:
#
# PCOD9118373 Si02
#       7
#     2   2   2   2   2   2   2
#     4  11  23  44  67 106 154 200 258 305 386 458
#     4  12  28  44  71 113 160 211 263 317 383 469
#     4  11  27  47  74 115 158 205 261 332 394 467
#     4  10  25  50  80 113 145 201 264 325 404 479
#     4  10  25  50  81 110 152 195 261 338 398 469
#     4  11  24  41  72 104 155 211 248 319 374 474
#     4  11  26  46  77 109 154 205 265 318 399 474
#
# _framework density 26.802748000000001
#
# number of rings (size 3 to 8) (size 9 to 14) (size 15 to 20)
#    0.000    1.143    2.857    0.857   12.000    2.286 
#    2.571    0.000    0.000    0.000    0.000    0.000 
#    0.000    0.000    0.000    0.000    0.000    0.000 
#
# Total GULP energy -78338.971310 kJ/mol
# GULP energy per Si atom -5595.640808 kJ/mol
# Density = 2.674174 g / cm^3
# Si number density = 26.802748 Si / 1000 Ang^3
#
#
#
# Elastic Constant Matrix: (Units=GPa)
#
#
# Indices 1 2 3 4 5 6 
#
# 1 135.1630 28.9361 49.1471 0.0000 21.4417 0.0000
# 2 28.9361 126.7927 32.6820 0.0000 1.9806 0.0000
# 3 49.1471 32.6820 112.8917 0.0000 17.9019 0.0000
# 4 0.0000 0.0000 0.0000 19.7864 0.0000 -20.2491
# 5 21.4417 1.9806 17.9019 0.0000 38.2004 0.0000
# 6 0.0000 0.0000 0.0000 -20.2491 0.0000 15.9490
#
#
#
# Elastic Compliance Matrix: (Units=1/GPa)
#
#
# Indices 1 2 3 4 5 6 
#
# 1 0.009405 -0.001281 -0.003129 0.000000 -0.003746 0.000000
# 2 -0.001281 0.008719 -0.002170 0.000000 0.001284 0.000000
# 3 -0.003129 -0.002170 0.011399 0.000000 -0.003473 0.000000
# 4 0.000000 0.000000 0.000000 -0.168856 0.000000 -0.214383
# 5 -0.003746 0.001284 -0.003473 0.000000 0.029841 0.000000
# 6 0.000000 0.000000 0.000000 -0.214383 0.000000 -0.209484
#
#
# Mechanical properties :
#
#
# Convention : Reuss Voigt Hill
#
# Bulk Modulus (GPa) = 61.11807 66.26420 63.69113
# Shear Modulus (GPa) = -16.64661 32.39264 7.87301
#
# Velocity S-wave (km/s) = -2.49485 3.48020 1.71574
# Velocity P-wave (km/s) = 3.81489 6.39732 5.26683
#
# Compressibility (1/GPa) = 0.01636177
#
# Stress axis : x y z
#
# Youngs Moduli (GPa) = 106.32736 114.69843 87.72416
#
# Poissons Ratio (x) = 0.14695 0.27453
# Poissons Ratio (y) = 0.13622 0.19035
# Poissons Ratio (z) = 0.33275 0.24888
#
# Static dielectric constant tensor:
#      x y z
#    x 2.201430 0.000000 0.007500 
#    y 0.000000 2.181390 0.000000 
#    z 0.007500 0.000000 2.125890 
# 
# From -- ./inp_files/9958.got.cif
#   From: 2010.05.17/outbox.cif.g08.bks.cpg/sg4_5_cif.got.tgz:9958.got - 2010.06.03 18:43:04.
