data_PCOD9118326
_publ_section_title
;
Structure prediction by ZEFSAII (Michael W. Deem and Ramdas Pophale) SiO2 
 PCOD9118326
Probable space group: P 21
;
_chemical_formula_sum "Si O2"
_cell_formula_units_Z 10
_cell_length_a 7.647965
_cell_length_b 7.060504
_cell_length_c 6.643787
_cell_angle_alpha 90.000000
_cell_angle_beta 102.985973
_cell_angle_gamma 90.000000
_cell_volume 349.579343
_symmetry_space_group_name_H-M "P 21"
_symmetry_group_IT_number 4
_symmetry_cell_setting 'monoclinic'
loop_
_space_group_symop_operation_xyz
x,y,z
-x,1/2+y,-z
loop_
_atom_site_type_symbol
_atom_site_label
_atom_site_fract_x
_atom_site_fract_y
_atom_site_fract_z
Si Si1 0.410907 0.264450 0.294040
Si Si2 0.955462 0.076743 0.693207
Si Si3 0.128387 0.963560 0.132771
Si Si4 0.650425 0.919654 0.318465
Si Si5 0.656560 0.536999 0.165264
O O1 0.456156 0.300625 0.539719
O O2 0.476939 0.460625 0.215660
O O3 0.217845 0.158207 0.238911
O O4 0.550518 0.111880 0.241066
O O5 0.916498 0.298108 0.725841
O O6 0.154595 0.025691 0.663607
O O7 0.818583 0.988791 0.498516
O O8 0.967616 0.006786 0.932404
O O9 0.285107 0.912396 0.012703
O O10 0.668076 0.766378 0.145317
#
# Coordination Sequence:
#
# PCOD9118326 Si02
#       5
#     2   2   2   2   2
#     4  12  25  45  74 105 149 194 250 308 382 448
#     4  10  25  46  75 106 149 195 257 311 375 448
#     4  10  25  46  75 106 149 195 257 311 375 448
#     4  12  25  45  74 105 149 194 250 308 382 448
#     4  10  28  44  72 110 144 198 244 316 368 462
#
# _framework density 28.605808
#
# number of rings (size 3 to 8) (size 9 to 14) (size 15 to 20)
#    1.200    0.000    2.000    2.400    5.600    1.600 
#    0.000    0.000    0.000    0.000    0.000    0.000 
#    0.000    0.000    0.000    0.000    0.000    0.000 
#
# Total GULP energy -55731.499568 kJ/mol
# GULP energy per Si atom -5573.149957 kJ/mol
# Density = 2.854070 g / cm^3
# Si number density = 28.605808 Si / 1000 Ang^3
#
#
#
# Elastic Constant Matrix: (Units=GPa)
#
#
# Indices 1 2 3 4 5 6 
#
# 1 81.5754 40.7517 45.3320 0.0000 16.6775 0.0000
# 2 40.7517 170.3931 84.3726 0.0000 8.7424 0.0000
# 3 45.3320 84.3726 109.1859 0.0000 18.9152 0.0000
# 4 0.0000 0.0000 0.0000 75.8299 0.0000 -0.7700
# 5 16.6775 8.7424 18.9152 0.0000 50.7341 0.0000
# 6 0.0000 0.0000 0.0000 -0.7700 0.0000 61.4786
#
#
#
# Elastic Compliance Matrix: (Units=1/GPa)
#
#
# Indices 1 2 3 4 5 6 
#
# 1 0.016483 -0.001075 -0.005459 0.000000 -0.003198 0.000000
# 2 -0.001075 0.009642 -0.007246 0.000000 0.001393 0.000000
# 3 -0.005459 -0.007246 0.017636 0.000000 -0.003532 0.000000
# 4 0.000000 0.000000 0.000000 0.013189 0.000000 0.000165
# 5 -0.003198 0.001393 -0.003532 0.000000 0.021839 0.000000
# 6 0.000000 0.000000 0.000000 0.000165 0.000000 0.016268
#
#
# Mechanical properties :
#
#
# Convention : Reuss Voigt Hill
#
# Bulk Modulus (GPa) = 61.72106 78.00745 69.86426
# Shear Modulus (GPa) = 39.05710 50.32173 44.68941
#
# Velocity S-wave (km/s) = 3.69908 4.19876 3.95682
# Velocity P-wave (km/s) = 6.31407 7.12988 6.73434
#
# Compressibility (1/GPa) = 0.01620193
#
# Stress axis : x y z
#
# Youngs Moduli (GPa) = 60.66919 103.70798 56.70106
#
# Poissons Ratio (x) = 0.11150 0.30951
# Poissons Ratio (y) = 0.06523 0.41087
# Poissons Ratio (z) = 0.33117 0.75149
#
# Static dielectric constant tensor:
#      x y z
#    x 2.279290 0.000000 0.057310 
#    y 0.000000 2.183920 0.000000 
#    z 0.057310 0.000000 2.380320 
# 
# From -- ./inp_files/5170.got.cif
#   From: 2010.05.17/outbox.cif.g08.bks.cpg/sg4_3_cif.got.tgz:5170.got - 2010.06.03 18:43:04.
