data_PCOD9118110
_publ_section_title
;
Structure prediction by ZEFSAII (Michael W. Deem and Ramdas Pophale) SiO2 
 PCOD9118110
Probable space group: P 21
;
_chemical_formula_sum "Si O2"
_cell_formula_units_Z 12
_cell_length_a 11.980867
_cell_length_b 8.867676
_cell_length_c 5.151902
_cell_angle_alpha 90.000000
_cell_angle_beta 111.062022
_cell_angle_gamma 90.000000
_cell_volume 510.783243
_symmetry_space_group_name_H-M "P 21"
_symmetry_group_IT_number 4
_symmetry_cell_setting 'monoclinic'
loop_
_space_group_symop_operation_xyz
x,y,z
-x,1/2+y,-z
loop_
_atom_site_type_symbol
_atom_site_label
_atom_site_fract_x
_atom_site_fract_y
_atom_site_fract_z
Si Si1 0.218156 0.630160 0.827597
Si Si2 0.149111 0.219326 0.244217
Si Si3 0.983421 0.239724 0.608805
Si Si4 0.575101 0.213227 0.373573
Si Si5 0.644256 0.909677 0.714857
Si Si6 0.207553 0.882056 0.239685
O O1 0.342612 0.686553 0.808168
O O2 0.112304 0.603040 0.529921
O O3 0.259417 0.482989 0.011249
O O4 0.172502 0.757967 0.992320
O O5 0.071056 0.229790 0.439415
O O6 0.268477 0.315636 0.396900
O O7 0.194653 0.056535 0.180668
O O8 0.061337 0.258003 0.931736
O O9 0.877764 0.360934 0.578345
O O10 0.448651 0.293291 0.235852
O O11 0.657034 0.333088 0.595527
O O12 0.578745 0.052238 0.524595
#
# Coordination Sequence:
#
# PCOD9118110 Si02
#       6
#     2   2   2   2   2   2
#     4  10  24  45  73 102 145 192 239 308 362 429
#     4  12  28  42  77 106 147 193 245 295 372 429
#     4  11  26  44  70 109 147 189 240 301 357 440
#     4  10  24  47  73 100 151 186 251 299 367 430
#     4  11  26  46  71 110 143 196 245 304 368 435
#     4  10  24  46  70 103 143 190 242 301 364 423
#
# _framework density 23.49333
#
# number of rings (size 3 to 8) (size 9 to 14) (size 15 to 20)
#    0.000    1.333    1.667    1.000    9.333    6.667 
#    0.000    0.000    0.000    0.000    0.000    0.000 
#    0.000    0.000    0.000    0.000    0.000    0.000 
#
# Total GULP energy -66873.166942 kJ/mol
# GULP energy per Si atom -5572.763912 kJ/mol
# Density = 2.343986 g / cm^3
# Si number density = 23.493330 Si / 1000 Ang^3
#
#
#
# Elastic Constant Matrix: (Units=GPa)
#
#
# Indices 1 2 3 4 5 6 
#
# 1 118.9304 87.3464 12.1614 0.0000 -31.3396 0.0000
# 2 87.3464 62.5431 10.8313 0.0000 30.6709 0.0000
# 3 12.1614 10.8313 62.7508 0.0000 -16.4663 0.0000
# 4 0.0000 0.0000 0.0000 10.9784 0.0000 3.2496
# 5 -31.3396 30.6709 -16.4663 0.0000 20.2805 0.0000
# 6 0.0000 0.0000 0.0000 3.2496 0.0000 17.7131
#
#
#
# Elastic Compliance Matrix: (Units=1/GPa)
#
#
# Indices 1 2 3 4 5 6 
#
# 1 0.000451 0.006718 -0.004740 0.000000 -0.013311 0.000000
# 2 0.006718 -0.003115 0.004061 0.000000 0.018389 0.000000
# 3 -0.004740 0.004061 0.016037 0.000000 -0.000446 0.000000
# 4 0.000000 0.000000 0.000000 0.096319 0.000000 -0.017671
# 5 -0.013311 0.018389 -0.000446 0.000000 0.000566 0.000000
# 6 0.000000 0.000000 0.000000 -0.017671 0.000000 0.059697
#
#
# Mechanical properties :
#
#
# Convention : Reuss Voigt Hill
#
# Bulk Modulus (GPa) = 39.28983 51.65582 45.47282
# Shear Modulus (GPa) = 30.05512 18.72008 24.38760
#
# Velocity S-wave (km/s) = 3.58062 2.82587 3.22540
# Velocity P-wave (km/s) = 5.81847 5.71687 5.76789
#
# Compressibility (1/GPa) = 0.02545188
#
# Stress axis : x y z
#
# Youngs Moduli (GPa) = 2215.27365 -321.05807 62.35693
#
# Poissons Ratio (x) = 2.15689 0.29557
# Poissons Ratio (y) = -14.88236 -0.25324
# Poissons Ratio (z) = 10.50031 1.30386
#
# Static dielectric constant tensor:
#      x y z
#    x 1.848710 0.000000 -0.017990 
#    y 0.000000 2.014250 0.000000 
#    z -0.017990 0.000000 1.998690 
# 
# From -- ./inp_files/2413.got.cif
#   From: 2010.05.17/outbox.cif.g08.bks.cpg/sg4_2_cif.got.tgz:2413.got - 2010.06.03 18:43:04.
