data_PCOD9118482
_publ_section_title
;
Structure prediction by ZEFSAII (Michael W. Deem and Ramdas Pophale) SiO2 
 PCOD9118482
Probable space group: P 21
;
_chemical_formula_sum "Si O2"
_cell_formula_units_Z 14
_cell_length_a 12.423732
_cell_length_b 5.562160
_cell_length_c 14.522280
_cell_angle_alpha 90.000000
_cell_angle_beta 34.234385
_cell_angle_gamma 90.000000
_cell_volume 564.565537
_symmetry_space_group_name_H-M "P 21"
_symmetry_group_IT_number 4
_symmetry_cell_setting 'monoclinic'
loop_
_space_group_symop_operation_xyz
x,y,z
-x,1/2+y,-z
loop_
_atom_site_type_symbol
_atom_site_label
_atom_site_fract_x
_atom_site_fract_y
_atom_site_fract_z
Si Si1 0.283281 0.544120 0.473184
Si Si2 0.252923 0.210815 0.339439
Si Si3 0.014833 0.441770 0.360701
Si Si4 0.607295 0.443204 0.914194
Si Si5 0.912943 0.475017 0.865314
Si Si6 0.574905 0.545189 0.408776
Si Si7 0.019129 0.485931 0.138710
O O1 0.358459 0.355574 0.343735
O O2 0.155584 0.746765 0.514601
O O3 0.473278 0.636718 0.387720
O O4 0.126886 0.470362 0.664835
O O5 0.334581 0.975193 0.234187
O O6 0.194376 0.351985 0.289577
O O7 0.056833 0.170371 0.533405
O O8 0.035174 0.488937 0.239399
O O9 0.766344 0.476230 0.882632
O O10 0.531153 0.173721 0.977769
O O11 0.883808 0.241454 0.949984
O O12 0.902602 0.718568 0.933144
O O13 0.486976 0.273517 0.483243
O O14 0.800967 0.507630 0.259326
#
# Coordination Sequence:
#
# PCOD9118482 Si02
#       7
#     2   2   2   2   2   2   2
#     4  11  22  34  58  93 122 162 185 243 311 367
#     4  12  22  36  60  84 126 158 197 246 309 371
#     4  11  20  33  59  90 119 160 191 242 306 377
#     4  12  28  43  59  86 123 167 212 255 293 356
#     4  11  20  39  59  85 121 157 205 235 305 354
#     4  12  20  34  53  91 139 156 189 233 299 385
#     4  11  20  35  58  91 126 158 189 240 299 378
#
# _framework density 24.797829
#
# number of rings (size 3 to 8) (size 9 to 14) (size 15 to 20)
#    0.000    0.571   10.000    0.857    2.000    0.000 
#    0.000    0.000    0.000    0.000    0.000    4.000 
#    0.000    0.000    0.000    0.000    0.000    0.000 
#
# Total GULP energy -78027.831138 kJ/mol
# GULP energy per Si atom -5573.416510 kJ/mol
# Density = 2.474139 g / cm^3
# Si number density = 24.797829 Si / 1000 Ang^3
#
#
#
# Elastic Constant Matrix: (Units=GPa)
#
#
# Indices 1 2 3 4 5 6 
#
# 1 60.9574 5.4151 13.3569 0.0000 -27.9372 0.0000
# 2 5.4151 154.0596 19.2012 0.0000 -15.4540 0.0000
# 3 13.3569 19.2012 19.1610 0.0000 -9.8500 0.0000
# 4 0.0000 0.0000 0.0000 35.1674 0.0000 -19.4612
# 5 -27.9372 -15.4540 -9.8500 0.0000 23.6235 0.0000
# 6 0.0000 0.0000 0.0000 -19.4612 0.0000 16.7563
#
#
#
# Elastic Compliance Matrix: (Units=1/GPa)
#
#
# Indices 1 2 3 4 5 6 
#
# 1 0.038186 0.004104 -0.007811 0.000000 0.044587 0.000000
# 2 0.004104 0.007952 -0.007205 0.000000 0.007051 0.000000
# 3 -0.007811 -0.007205 0.073420 0.000000 0.016663 0.000000
# 4 0.000000 0.000000 0.000000 0.079588 0.000000 0.092435
# 5 0.044587 0.007051 0.016663 0.000000 0.106620 0.000000
# 6 0.000000 0.000000 0.000000 0.092435 0.000000 0.167035
#
#
# Mechanical properties :
#
#
# Convention : Reuss Voigt Hill
#
# Bulk Modulus (GPa) = 10.23178 34.45826 22.34502
# Shear Modulus (GPa) = 9.48402 28.18978 18.83690
#
# Velocity S-wave (km/s) = 1.95776 3.37528 2.75911
# Velocity P-wave (km/s) = 3.04064 5.39591 4.37958
#
# Compressibility (1/GPa) = 0.09773472
#
# Stress axis : x y z
#
# Youngs Moduli (GPa) = 26.18730 125.75411 13.62031
#
# Poissons Ratio (x) = -0.51608 0.10639
# Poissons Ratio (y) = -0.10747 0.09813
# Poissons Ratio (z) = 0.20455 0.90601
#
# Static dielectric constant tensor:
#      x y z
#    x 2.065770 0.000000 0.011340 
#    y 0.000000 2.195260 0.000000 
#    z 0.011340 0.000000 2.051030 
# 
# From -- ./inp_files/12495.got.cif
#   From: 2010.05.17/outbox.cif.g08.bks.cpg/sg4_7_cif.got.tgz:12495.got - 2010.06.03 18:43:04.
