data_PCOD9118376
_publ_section_title
;
Structure prediction by ZEFSAII (Michael W. Deem and Ramdas Pophale) SiO2 
 PCOD9118376
Probable space group: P 21
;
_chemical_formula_sum "Si O2"
_cell_formula_units_Z 12
_cell_length_a 6.929742
_cell_length_b 8.679780
_cell_length_c 11.871863
_cell_angle_alpha 90.000000
_cell_angle_beta 137.177271
_cell_angle_gamma 90.000000
_cell_volume 485.380784
_symmetry_space_group_name_H-M "P 21"
_symmetry_group_IT_number 4
_symmetry_cell_setting 'monoclinic'
loop_
_space_group_symop_operation_xyz
x,y,z
-x,1/2+y,-z
loop_
_atom_site_type_symbol
_atom_site_label
_atom_site_fract_x
_atom_site_fract_y
_atom_site_fract_z
Si Si1 0.940612 0.617070 0.527788
Si Si2 0.994005 0.934389 0.658543
Si Si3 0.272174 0.875129 0.012758
Si Si4 0.139415 0.099362 0.153165
Si Si5 0.495346 0.732569 0.485664
Si Si6 0.107195 0.366756 0.777382
O O1 0.956252 0.570617 0.406475
O O2 0.618831 0.638160 0.432858
O O3 0.063513 0.476308 0.650645
O O4 0.085250 0.775467 0.631964
O O5 0.144569 0.941590 0.842170
O O6 0.662310 0.895839 0.539743
O O7 0.061446 0.741736 0.965846
O O8 0.576090 0.807435 0.104886
O O9 0.280688 0.007813 0.110982
O O10 0.368356 0.167444 0.340687
O O11 0.938740 0.980489 0.136163
O O12 0.164538 0.756659 0.334065
#
# Coordination Sequence:
#
# PCOD9118376 Si02
#       6
#     2   2   2   2   2   2
#     4   9  21  46  78 107 153 205 262 314 382 464
#     4   9  21  50  75 112 153 204 262 315 390 457
#     4  11  25  51  82 116 160 206 254 330 392 465
#     4  10  25  54  74 116 162 206 257 319 395 467
#     4   8  21  47  75 110 153 202 263 316 374 463
#     4  11  23  48  80 111 155 203 264 320 387 460
#
# _framework density 24.722859
#
# number of rings (size 3 to 8) (size 9 to 14) (size 15 to 20)
#    1.000    1.333    1.667    0.000    2.333    2.667 
#   21.000    8.333    0.000    0.000    0.000    0.000 
#    0.000    0.000    0.000    0.000    0.000    0.000 
#
# Total GULP energy -67122.758060 kJ/mol
# GULP energy per Si atom -5593.563172 kJ/mol
# Density = 2.466659 g / cm^3
# Si number density = 24.722859 Si / 1000 Ang^3
#
#
#
# Elastic Constant Matrix: (Units=GPa)
#
#
# Indices 1 2 3 4 5 6 
#
# 1 150.7589 56.6951 72.0195 0.0000 -9.0050 0.0000
# 2 56.6951 71.4910 43.7471 0.0000 0.6155 0.0000
# 3 72.0195 43.7471 89.6586 0.0000 27.8841 0.0000
# 4 0.0000 0.0000 0.0000 35.3551 0.0000 1.2282
# 5 -9.0050 0.6155 27.8841 0.0000 44.8697 0.0000
# 6 0.0000 0.0000 0.0000 1.2282 0.0000 61.4504
#
#
#
# Elastic Compliance Matrix: (Units=1/GPa)
#
#
# Indices 1 2 3 4 5 6 
#
# 1 0.015788 -0.003570 -0.014802 0.000000 0.012416 0.000000
# 2 -0.003570 0.022793 -0.009834 0.000000 0.005082 0.000000
# 3 -0.014802 -0.009834 0.035605 0.000000 -0.024962 0.000000
# 4 0.000000 0.000000 0.000000 0.028304 0.000000 -0.000566
# 5 0.012416 0.005082 -0.024962 0.000000 0.040222 0.000000
# 6 0.000000 0.000000 0.000000 -0.000566 0.000000 0.016285
#
#
# Mechanical properties :
#
#
# Convention : Reuss Voigt Hill
#
# Bulk Modulus (GPa) = 56.26163 72.98133 64.62148
# Shear Modulus (GPa) = 22.59038 37.63146 30.11092
#
# Velocity S-wave (km/s) = 3.02610 3.90568 3.49368
# Velocity P-wave (km/s) = 5.91744 7.06562 6.51687
#
# Compressibility (1/GPa) = 0.01777410
#
# Stress axis : x y z
#
# Youngs Moduli (GPa) = 63.33830 43.87287 28.08613
#
# Poissons Ratio (x) = 0.15663 0.41572
# Poissons Ratio (y) = 0.22613 0.27621
# Poissons Ratio (z) = 0.93751 0.43146
#
# Static dielectric constant tensor:
#      x y z
#    x 1.956220 0.000000 0.026590 
#    y 0.000000 2.070460 0.000000 
#    z 0.026590 0.000000 1.936760 
# 
# From -- ./inp_files/14987.got.cif
#   From: 2010.05.17/outbox.cif.g08.bks.cpg/sg4_8_cif.got.tgz:14987.got - 2010.06.03 18:43:04.
