data_PCOD9118334
_publ_section_title
;
Structure prediction by ZEFSAII (Michael W. Deem and Ramdas Pophale) SiO2 
 PCOD9118334
Probable space group: P 21
;
_chemical_formula_sum "Si O2"
_cell_formula_units_Z 16
_cell_length_a 12.311882
_cell_length_b 5.060122
_cell_length_c 15.313789
_cell_angle_alpha 90.000000
_cell_angle_beta 40.519995
_cell_angle_gamma 90.000000
_cell_volume 619.854699
_symmetry_space_group_name_H-M "P 21"
_symmetry_group_IT_number 4
_symmetry_cell_setting 'monoclinic'
loop_
_space_group_symop_operation_xyz
x,y,z
-x,1/2+y,-z
loop_
_atom_site_type_symbol
_atom_site_label
_atom_site_fract_x
_atom_site_fract_y
_atom_site_fract_z
Si Si1 0.589280 0.946240 0.453639
Si Si2 0.267539 0.245782 0.810482
Si Si3 0.930127 0.447174 0.825063
Si Si4 0.750295 0.532355 0.659584
Si Si5 0.594569 0.916706 0.648747
Si Si6 0.069607 0.703869 0.570244
Si Si7 0.967701 0.947666 0.916674
Si Si8 0.395770 0.805771 0.081722
O O1 0.427884 0.761851 0.528633
O O2 0.701419 0.877711 0.302937
O O3 0.617971 0.835660 0.533099
O O4 0.129893 0.021433 0.873733
O O5 0.435853 0.109607 0.743077
O O6 0.191710 0.460290 0.922166
O O7 0.969487 0.155250 0.836117
O O8 0.746993 0.415563 0.895603
O O9 0.043591 0.585255 0.681505
O O10 0.948173 0.653601 0.892029
O O11 0.588349 0.684440 0.722241
O O12 0.859412 0.486130 0.503022
O O13 0.677430 0.325238 0.775433
O O14 0.892907 0.671449 0.631069
O O15 0.769492 0.052642 0.566464
O O16 0.548610 0.011132 0.976914
#
# Coordination Sequence:
#
# PCOD9118334 Si02
#       8
#     2   2   2   2   2   2   2   2
#     4  10  25  47  70 110 150 192 257 334 391 458
#     4  11  28  49  77 110 156 209 272 334 395 478
#     4  11  28  48  80 111 161 214 261 326 414 471
#     4  11  26  45  79 112 160 198 263 328 403 480
#     4  11  26  46  77 111 149 205 260 328 403 474
#     4  11  25  46  76 118 154 204 256 333 405 478
#     4  12  27  51  74 113 160 215 272 327 399 482
#     4  11  27  50  75 115 162 209 267 326 384 485
#
# _framework density 25.812503
#
# number of rings (size 3 to 8) (size 9 to 14) (size 15 to 20)
#    0.000    1.000    1.250    2.250   10.500    9.000 
#    2.250    0.000    0.000    0.000    0.000    0.000 
#    0.000    0.000    0.000    0.000    0.000    0.000 
#
# Total GULP energy -89382.303878 kJ/mol
# GULP energy per Si atom -5586.393992 kJ/mol
# Density = 2.575375 g / cm^3
# Si number density = 25.812503 Si / 1000 Ang^3
#
#
#
# Elastic Constant Matrix: (Units=GPa)
#
#
# Indices 1 2 3 4 5 6 
#
# 1 91.1810 26.7270 30.8647 0.0000 -0.6604 0.0000
# 2 26.7270 46.9854 20.8546 0.0000 -7.5924 0.0000
# 3 30.8647 20.8546 112.3719 0.0000 2.4219 0.0000
# 4 0.0000 0.0000 0.0000 37.3916 0.0000 7.9488
# 5 -0.6604 -7.5924 2.4219 0.0000 32.5586 0.0000
# 6 0.0000 0.0000 0.0000 7.9488 0.0000 30.8098
#
#
#
# Elastic Compliance Matrix: (Units=1/GPa)
#
#
# Indices 1 2 3 4 5 6 
#
# 1 0.013839 -0.006956 -0.002485 0.000000 -0.001156 0.000000
# 2 -0.006956 0.027812 -0.003393 0.000000 0.006597 0.000000
# 3 -0.002485 -0.003393 0.010246 0.000000 -0.001604 0.000000
# 4 0.000000 0.000000 0.000000 0.028296 0.000000 -0.007300
# 5 -0.001156 0.006597 -0.001604 0.000000 0.032348 0.000000
# 6 0.000000 0.000000 0.000000 -0.007300 0.000000 0.034341
#
#
# Mechanical properties :
#
#
# Convention : Reuss Voigt Hill
#
# Bulk Modulus (GPa) = 38.12670 45.27009 41.69840
# Shear Modulus (GPa) = 27.57967 31.62480 29.60224
#
# Velocity S-wave (km/s) = 3.27228 3.50405 3.39014
# Velocity P-wave (km/s) = 5.39257 5.82643 5.61369
#
# Compressibility (1/GPa) = 0.02622834
#
# Stress axis : x y z
#
# Youngs Moduli (GPa) = 72.25957 35.95564 97.59982
#
# Poissons Ratio (x) = 0.25010 0.24256
# Poissons Ratio (y) = 0.50263 0.33117
# Poissons Ratio (z) = 0.17958 0.12200
#
# Static dielectric constant tensor:
#      x y z
#    x 2.013710 0.000000 -0.044330 
#    y 0.000000 2.701550 0.000000 
#    z -0.044330 0.000000 2.181960 
# 
# From -- ./inp_files/13836.got.cif
#   From: 2010.05.17/outbox.cif.g08.bks.cpg/sg4_7_cif.got.tgz:13836.got - 2010.06.03 18:43:04.
