data_PCOD9118740
_publ_section_title
;
Structure prediction by ZEFSAII (Michael W. Deem and Ramdas Pophale) SiO2 
 PCOD9118740
Probable space group: P 21
;
_chemical_formula_sum "Si O2"
_cell_formula_units_Z 16
_cell_length_a 7.671730
_cell_length_b 9.653954
_cell_length_c 16.136011
_cell_angle_alpha 90.000000
_cell_angle_beta 145.338788
_cell_angle_gamma 90.000000
_cell_volume 679.665727
_symmetry_space_group_name_H-M "P 21"
_symmetry_group_IT_number 4
_symmetry_cell_setting 'monoclinic'
loop_
_space_group_symop_operation_xyz
x,y,z
-x,1/2+y,-z
loop_
_atom_site_type_symbol
_atom_site_label
_atom_site_fract_x
_atom_site_fract_y
_atom_site_fract_z
Si Si1 0.117554 0.788090 0.552255
Si Si2 0.700471 0.565076 0.426114
Si Si3 0.386189 0.963071 0.879243
Si Si4 0.402429 0.214320 0.141492
Si Si5 0.598296 0.934955 0.146089
Si Si6 0.308229 0.668609 0.118919
Si Si7 0.679604 0.404057 0.583959
Si Si8 0.784687 0.112113 0.570752
O O1 0.460826 0.774702 0.720542
O O2 0.092886 0.706179 0.456859
O O3 0.892607 0.702225 0.523264
O O4 0.068082 0.950612 0.523763
O O5 0.455388 0.611754 0.261759
O O6 0.584632 0.473700 0.458004
O O7 0.649300 0.049791 0.933904
O O8 0.067012 0.031250 0.723907
O O9 0.442960 0.808025 0.869162
O O10 0.419671 0.962720 0.990595
O O11 0.522386 0.060325 0.176586
O O12 0.038267 0.212564 0.999343
O O13 0.487950 0.797296 0.149041
O O14 0.958137 0.928927 0.265275
O O15 0.643745 0.238180 0.571504
O O16 0.468176 0.501016 0.557733
#
# Coordination Sequence:
#
# PCOD9118740 Si02
#       8
#     2   2   2   2   2   2   2   2
#     4  11  22  45  70 101 141 185 240 300 349 427
#     4  11  23  45  73  97 145 183 242 299 353 421
#     4  12  26  50  71 103 151 191 236 305 362 426
#     4  12  27  43  74 108 135 197 245 290 366 427
#     4  12  27  47  71 106 148 187 243 299 362 436
#     4  12  25  49  71 104 144 193 242 299 357 427
#     4  11  26  45  70 107 140 193 240 296 364 429
#     4  11  26  46  72 104 144 191 240 298 365 425
#
# _framework density 23.540984000000002
#
# number of rings (size 3 to 8) (size 9 to 14) (size 15 to 20)
#    0.000    0.500    5.000    2.250    5.250    2.000 
#    0.000    0.000    0.000    0.000    0.000    0.000 
#    0.000    0.000    0.000    0.000    0.000    0.000 
#
# Total GULP energy -89490.350551 kJ/mol
# GULP energy per Si atom -5593.146909 kJ/mol
# Density = 2.348740 g / cm^3
# Si number density = 23.540984 Si / 1000 Ang^3
#
#
#
# Elastic Constant Matrix: (Units=GPa)
#
#
# Indices 1 2 3 4 5 6 
#
# 1 40.6246 -0.1510 32.1372 0.0000 15.3313 0.0000
# 2 -0.1510 106.0579 22.2328 0.0000 19.3222 0.0000
# 3 32.1372 22.2328 114.4247 0.0000 12.7104 0.0000
# 4 0.0000 0.0000 0.0000 34.8749 0.0000 4.1252
# 5 15.3313 19.3222 12.7104 0.0000 43.7299 0.0000
# 6 0.0000 0.0000 0.0000 4.1252 0.0000 36.7208
#
#
#
# Elastic Compliance Matrix: (Units=1/GPa)
#
#
# Indices 1 2 3 4 5 6 
#
# 1 0.036985 0.004312 -0.009893 0.000000 -0.011997 0.000000
# 2 0.004312 0.011026 -0.002733 0.000000 -0.005589 0.000000
# 3 -0.009893 -0.002733 0.011914 0.000000 0.001213 0.000000
# 4 0.000000 0.000000 0.000000 0.029060 0.000000 -0.003265
# 5 -0.011997 -0.005589 0.001213 0.000000 0.029191 0.000000
# 6 0.000000 0.000000 0.000000 -0.003265 0.000000 0.027599
#
#
# Mechanical properties :
#
#
# Convention : Reuss Voigt Hill
#
# Bulk Modulus (GPa) = 23.09550 41.06059 32.07805
# Shear Modulus (GPa) = 28.27500 36.85767 32.56634
#
# Velocity S-wave (km/s) = 3.46944 3.96116 3.72343
# Velocity P-wave (km/s) = 5.08738 6.19686 5.66933
#
# Compressibility (1/GPa) = 0.04329847
#
# Stress axis : x y z
#
# Youngs Moduli (GPa) = 27.03801 90.69399 83.93436
#
# Poissons Ratio (x) = -0.39108 0.83035
# Poissons Ratio (y) = -0.11659 0.22936
# Poissons Ratio (z) = 0.26748 0.24783
#
# Static dielectric constant tensor:
#      x y z
#    x 1.991220 0.000000 -0.014550 
#    y 0.000000 1.891000 0.000000 
#    z -0.014550 0.000000 1.878950 
# 
# From -- ./inp_files/5755.got.cif
#   From: 2010.05.17/outbox.cif.g08.bks.cpg/sg4_3_cif.got.tgz:5755.got - 2010.06.03 18:43:04.
