data_PCOD9118113
_publ_section_title
;
Structure prediction by ZEFSAII (Michael W. Deem and Ramdas Pophale) SiO2 
 PCOD9118113
Probable space group: P 21
;
_chemical_formula_sum "Si O2"
_cell_formula_units_Z 16
_cell_length_a 8.382873
_cell_length_b 9.484084
_cell_length_c 7.966359
_cell_angle_alpha 90.000000
_cell_angle_beta 83.922563
_cell_angle_gamma 90.000000
_cell_volume 629.796740
_symmetry_space_group_name_H-M "P 21"
_symmetry_group_IT_number 4
_symmetry_cell_setting 'monoclinic'
loop_
_space_group_symop_operation_xyz
x,y,z
-x,1/2+y,-z
loop_
_atom_site_type_symbol
_atom_site_label
_atom_site_fract_x
_atom_site_fract_y
_atom_site_fract_z
Si Si1 0.276667 0.525290 0.595683
Si Si2 0.602528 0.534527 0.360839
Si Si3 0.710217 0.851526 0.929368
Si Si4 0.600573 0.248757 0.159691
Si Si5 0.065393 0.522006 0.328847
Si Si6 0.068087 0.307131 0.793824
Si Si7 0.819515 0.423211 0.582736
Si Si8 0.451364 0.786005 0.187018
O O1 0.436394 0.504689 0.472771
O O2 0.316904 0.632975 0.737240
O O3 0.142306 0.588326 0.487656
O O4 0.209527 0.377243 0.668018
O O5 0.639723 0.398751 0.241625
O O6 0.978586 0.647273 0.241498
O O7 0.731002 0.553872 0.497180
O O8 0.595734 0.742624 0.838779
O O9 0.788406 0.959137 0.792470
O O10 0.568895 0.897259 0.077747
O O11 0.862840 0.809720 0.025648
O O12 0.655215 0.238653 0.960324
O O13 0.950835 0.400494 0.419640
O O14 0.921711 0.408571 0.744191
O O15 0.434222 0.163046 0.758881
O O16 0.662274 0.334018 0.650784
#
# Coordination Sequence:
#
# PCOD9118113 Si02
#       8
#     2   2   2   2   2   2   2   2
#     4  11  24  46  78 112 158 204 270 336 390 478
#     4  12  22  44  76 109 149 211 268 328 388 473
#     4  10  24  49  75 110 154 210 260 325 392 477
#     4  10  25  42  77 111 148 202 271 323 395 454
#     4  11  24  51  75 112 161 208 267 320 410 480
#     4  11  25  46  77 110 162 213 252 328 413 480
#     4  11  26  43  71 112 149 202 257 331 391 470
#     4  10  24  45  73 112 151 202 269 333 391 466
#
# _framework density 25.405021999999999
#
# number of rings (size 3 to 8) (size 9 to 14) (size 15 to 20)
#    0.750    0.500    1.250    3.750    1.750    2.000 
#    2.250    5.000    0.000    0.000    6.500    0.000 
#    0.000    0.000    0.000    0.000    0.000    0.000 
#
# Total GULP energy -89195.030691 kJ/mol
# GULP energy per Si atom -5574.689418 kJ/mol
# Density = 2.534720 g / cm^3
# Si number density = 25.405022 Si / 1000 Ang^3
#
#
#
# Elastic Constant Matrix: (Units=GPa)
#
#
# Indices 1 2 3 4 5 6 
#
# 1 118.3315 33.5599 42.2010 0.0000 29.7523 0.0000
# 2 33.5599 81.2351 57.0085 0.0000 -5.8623 0.0000
# 3 42.2010 57.0085 97.8370 0.0000 3.0087 0.0000
# 4 0.0000 0.0000 0.0000 38.3581 0.0000 3.6318
# 5 29.7523 -5.8623 3.0087 0.0000 68.3289 0.0000
# 6 0.0000 0.0000 0.0000 3.6318 0.0000 43.0967
#
#
#
# Elastic Compliance Matrix: (Units=1/GPa)
#
#
# Indices 1 2 3 4 5 6 
#
# 1 0.011746 -0.003025 -0.003143 0.000000 -0.005236 0.000000
# 2 -0.003025 0.021980 -0.011617 0.000000 0.003714 0.000000
# 3 -0.003143 -0.011617 0.018359 0.000000 -0.000436 0.000000
# 4 0.000000 0.000000 0.000000 0.026280 0.000000 -0.002215
# 5 -0.005236 0.003714 -0.000436 0.000000 0.017253 0.000000
# 6 0.000000 0.000000 0.000000 -0.002215 0.000000 0.023390
#
#
# Mechanical properties :
#
#
# Convention : Reuss Voigt Hill
#
# Bulk Modulus (GPa) = 60.54803 62.54917 61.54860
# Shear Modulus (GPa) = 31.23377 40.93235 36.08306
#
# Velocity S-wave (km/s) = 3.51013 4.01832 3.77279
# Velocity P-wave (km/s) = 6.34924 6.79731 6.57709
#
# Compressibility (1/GPa) = 0.01651581
#
# Stress axis : x y z
#
# Youngs Moduli (GPa) = 85.13555 45.49579 54.46794
#
# Poissons Ratio (x) = 0.13761 0.17120
# Poissons Ratio (y) = 0.25750 0.63276
# Poissons Ratio (z) = 0.26759 0.52853
#
# Static dielectric constant tensor:
#      x y z
#    x 2.112980 0.000000 0.036100 
#    y 0.000000 2.093270 0.000000 
#    z 0.036100 0.000000 2.006280 
# 
# From -- ./inp_files/6733.got.cif
#   From: 2010.05.17/outbox.cif.g08.bks.cpg/sg4_4_cif.got.tgz:6733.got - 2010.06.03 18:43:04.
