data_PCOD9118979
_publ_section_title
;
Structure prediction by ZEFSAII (Michael W. Deem and Ramdas Pophale) SiO2 
 PCOD9118979
Probable space group: P 21
;
_chemical_formula_sum "Si O2"
_cell_formula_units_Z 16
_cell_length_a 8.185934
_cell_length_b 12.278907
_cell_length_c 8.258952
_cell_angle_alpha 90.000000
_cell_angle_beta 125.961252
_cell_angle_gamma 90.000000
_cell_volume 671.929599
_symmetry_space_group_name_H-M "P 21"
_symmetry_group_IT_number 4
_symmetry_cell_setting 'monoclinic'
loop_
_space_group_symop_operation_xyz
x,y,z
-x,1/2+y,-z
loop_
_atom_site_type_symbol
_atom_site_label
_atom_site_fract_x
_atom_site_fract_y
_atom_site_fract_z
Si Si1 0.233446 0.455060 0.341133
Si Si2 0.892742 0.321992 0.027221
Si Si3 0.149220 0.628541 0.749326
Si Si4 0.233660 0.087763 0.672299
Si Si5 0.411383 0.445228 0.082897
Si Si6 0.521990 0.780278 0.352640
Si Si7 0.787176 0.724948 0.028903
Si Si8 0.583375 0.167690 0.387959
O O1 0.003268 0.428748 0.160246
O O2 0.344818 0.446976 0.232610
O O3 0.296383 0.360652 0.502594
O O4 0.316433 0.562497 0.472318
O O5 0.021734 0.279766 0.947141
O O6 0.911396 0.220113 0.158709
O O7 0.658758 0.334985 0.850758
O O8 0.275651 0.688754 0.683121
O O9 0.952907 0.573874 0.556021
O O10 0.287996 0.536895 0.913103
O O11 0.356214 0.979458 0.785815
O O12 0.394301 0.170590 0.680557
O O13 0.161412 0.148947 0.791584
O O14 0.349433 0.325946 0.987466
O O15 0.430287 0.752933 0.475524
O O16 0.644133 0.661555 0.816904
#
# Coordination Sequence:
#
# PCOD9118979 Si02
#       8
#     2   2   2   2   2   2   2   2
#     4  11  25  45  71 108 141 188 240 287 352 429
#     4  11  23  47  71 103 138 188 235 291 353 419
#     4  12  25  44  72  99 143 185 234 296 348 418
#     4  12  24  46  72 102 140 190 230 293 357 417
#     4  11  24  45  69 106 140 182 241 285 350 424
#     4  12  23  46  75  99 147 185 230 295 354 421
#     4  11  25  47  74 103 145 185 237 294 355 424
#     4  12  23  48  72 106 144 187 235 293 355 422
#
# _framework density 23.812017999999998
#
# number of rings (size 3 to 8) (size 9 to 14) (size 15 to 20)
#    0.000    0.500    7.500    0.750    1.750    2.000 
#   11.250    0.000    0.000    0.000    0.000    0.000 
#    0.000    0.000    0.000    0.000    0.000    0.000 
#
# Total GULP energy -89601.962514 kJ/mol
# GULP energy per Si atom -5600.122657 kJ/mol
# Density = 2.375782 g / cm^3
# Si number density = 23.812018 Si / 1000 Ang^3
#
#
#
# Elastic Constant Matrix: (Units=GPa)
#
#
# Indices 1 2 3 4 5 6 
#
# 1 70.2032 1.1856 9.0668 0.0000 2.5580 0.0000
# 2 1.1856 47.7568 13.9063 0.0000 -9.0568 0.0000
# 3 9.0668 13.9063 128.0208 0.0000 16.6688 0.0000
# 4 0.0000 0.0000 0.0000 26.4644 0.0000 2.0729
# 5 2.5580 -9.0568 16.6688 0.0000 34.7465 0.0000
# 6 0.0000 0.0000 0.0000 2.0729 0.0000 21.7198
#
#
#
# Elastic Compliance Matrix: (Units=1/GPa)
#
#
# Indices 1 2 3 4 5 6 
#
# 1 0.014390 -0.000223 -0.000906 0.000000 -0.000683 0.000000
# 2 -0.000223 0.023466 -0.003554 0.000000 0.007838 0.000000
# 3 -0.000906 -0.003554 0.008931 0.000000 -0.005144 0.000000
# 4 0.000000 0.000000 0.000000 0.038071 0.000000 -0.003633
# 5 -0.000683 0.007838 -0.005144 0.000000 0.033341 0.000000
# 6 0.000000 0.000000 0.000000 -0.003633 0.000000 0.046388
#
#
# Mechanical properties :
#
#
# Convention : Reuss Voigt Hill
#
# Bulk Modulus (GPa) = 26.72219 32.69977 29.71098
# Shear Modulus (GPa) = 26.82024 31.37430 29.09727
#
# Velocity S-wave (km/s) = 3.35973 3.63379 3.49944
# Velocity P-wave (km/s) = 5.12805 5.60073 5.36959
#
# Compressibility (1/GPa) = 0.03742209
#
# Stress axis : x y z
#
# Youngs Moduli (GPa) = 69.49259 42.61455 111.96690
#
# Poissons Ratio (x) = 0.00950 0.10144
# Poissons Ratio (y) = 0.01549 0.39790
# Poissons Ratio (z) = 0.06296 0.15144
#
# Static dielectric constant tensor:
#      x y z
#    x 1.914420 0.000000 0.000870 
#    y 0.000000 1.887760 0.000000 
#    z 0.000870 0.000000 1.881500 
# 
# From -- ./inp_files/6473.got.cif
#   From: 2010.05.17/outbox.cif.g08.bks.cpg/sg4_4_cif.got.tgz:6473.got - 2010.06.03 18:43:04.
