data_PCOD9118660
_publ_section_title
;
Structure prediction by ZEFSAII (Michael W. Deem and Ramdas Pophale) SiO2 
 PCOD9118660
Probable space group: P 21
;
_chemical_formula_sum "Si O2"
_cell_formula_units_Z 16
_cell_length_a 11.153816
_cell_length_b 9.535807
_cell_length_c 6.332908
_cell_angle_alpha 90.000000
_cell_angle_beta 96.303078
_cell_angle_gamma 90.000000
_cell_volume 669.500423
_symmetry_space_group_name_H-M "P 21"
_symmetry_group_IT_number 4
_symmetry_cell_setting 'monoclinic'
loop_
_space_group_symop_operation_xyz
x,y,z
-x,1/2+y,-z
loop_
_atom_site_type_symbol
_atom_site_label
_atom_site_fract_x
_atom_site_fract_y
_atom_site_fract_z
Si Si1 0.701780 0.561170 0.731818
Si Si2 0.776249 0.226389 0.425949
Si Si3 0.883244 0.422977 0.099393
Si Si4 0.549849 0.360224 0.400758
Si Si5 0.071958 0.653401 0.148529
Si Si6 0.335340 0.267976 0.612198
Si Si7 0.484070 0.073344 0.942277
Si Si8 0.753288 0.997426 0.109815
O O1 0.633492 0.452091 0.570128
O O2 0.742309 0.678996 0.571155
O O3 0.799528 0.487533 0.898238
O O4 0.597344 0.611621 0.872514
O O5 0.808699 0.356284 0.278792
O O6 0.631394 0.221257 0.425096
O O7 0.854764 0.224666 0.649033
O O8 0.810016 0.086345 0.310062
O O9 0.958765 0.558052 0.188312
O O10 0.950770 0.285012 0.014702
O O11 0.417692 0.363526 0.475727
O O12 0.544837 0.419949 0.162497
O O13 0.158985 0.534073 0.063751
O O14 0.437552 0.174720 0.748661
O O15 0.267768 0.346744 0.788365
O O16 0.624501 0.064581 0.020663
#
# Coordination Sequence:
#
# PCOD9118660 Si02
#       8
#     2   2   2   2   2   2   2   2
#     4  11  23  44  70 103 145 192 234 300 360 432
#     4  11  24  45  74 102 137 186 240 300 363 428
#     4  11  26  50  76 105 138 192 248 303 379 434
#     4  11  22  41  68 103 143 185 230 285 357 429
#     4  11  27  50  77 101 143 191 244 315 365 436
#     4  11  26  38  68 111 148 191 238 293 357 449
#     4  11  24  40  67 103 147 191 231 288 362 435
#     4  11  26  42  68 108 145 190 239 288 365 433
#
# _framework density 23.898413999999999
#
# number of rings (size 3 to 8) (size 9 to 14) (size 15 to 20)
#    0.000    1.000    3.750    1.500    8.750    4.000 
#    0.000    0.000    0.000    0.000    0.000    0.000 
#    0.000    0.000    0.000    0.000    0.000    0.000 
#
# Total GULP energy -89332.645906 kJ/mol
# GULP energy per Si atom -5583.290369 kJ/mol
# Density = 2.384402 g / cm^3
# Si number density = 23.898414 Si / 1000 Ang^3
#
#
#
# Elastic Constant Matrix: (Units=GPa)
#
#
# Indices 1 2 3 4 5 6 
#
# 1 30.5076 27.1577 6.2678 0.0000 -0.6581 0.0000
# 2 27.1577 80.2243 25.7185 0.0000 -0.1096 0.0000
# 3 6.2678 25.7185 99.9759 0.0000 1.2692 0.0000
# 4 0.0000 0.0000 0.0000 41.4234 0.0000 3.4022
# 5 -0.6581 -0.1096 1.2692 0.0000 17.9363 0.0000
# 6 0.0000 0.0000 0.0000 3.4022 0.0000 33.1895
#
#
#
# Elastic Compliance Matrix: (Units=1/GPa)
#
#
# Indices 1 2 3 4 5 6 
#
# 1 0.047103 -0.016338 0.001230 0.000000 0.001541 0.000000
# 2 -0.016338 0.019254 -0.003926 0.000000 -0.000204 0.000000
# 3 0.001230 -0.003926 0.010945 0.000000 -0.000753 0.000000
# 4 0.000000 0.000000 0.000000 0.024346 0.000000 -0.002496
# 5 0.001541 -0.000204 -0.000753 0.000000 0.055862 0.000000
# 6 0.000000 0.000000 0.000000 -0.002496 0.000000 0.030386
#
#
# Mechanical properties :
#
#
# Convention : Reuss Voigt Hill
#
# Bulk Modulus (GPa) = 25.48770 36.55506 31.02138
# Shear Modulus (GPa) = 20.91695 28.61410 24.76552
#
# Velocity S-wave (km/s) = 2.96166 3.46399 3.22263
# Velocity P-wave (km/s) = 4.73111 5.59716 5.18226
#
# Compressibility (1/GPa) = 0.03923462
#
# Stress axis : x y z
#
# Youngs Moduli (GPa) = 21.23011 51.93699 91.36717
#
# Poissons Ratio (x) = 0.84853 -0.11240
# Poissons Ratio (y) = 0.34685 0.35873
# Poissons Ratio (z) = -0.02612 0.20392
#
# Static dielectric constant tensor:
#      x y z
#    x 1.928610 0.000000 -0.051760 
#    y 0.000000 2.067620 0.000000 
#    z -0.051760 0.000000 1.890000 
# 
# From -- ./inp_files/2666.got.cif
#   From: 2010.05.17/outbox.cif.g08.bks.cpg/sg4_2_cif.got.tgz:2666.got - 2010.06.03 18:43:04.
