data_PCOD9118614
_publ_section_title
;
Structure prediction by ZEFSAII (Michael W. Deem and Ramdas Pophale) SiO2 
 PCOD9118614
Probable space group: P 21
;
_chemical_formula_sum "Si O2"
_cell_formula_units_Z 16
_cell_length_a 9.161775
_cell_length_b 15.291345
_cell_length_c 6.586799
_cell_angle_alpha 90.000000
_cell_angle_beta 129.701195
_cell_angle_gamma 90.000000
_cell_volume 709.976756
_symmetry_space_group_name_H-M "P 21"
_symmetry_group_IT_number 4
_symmetry_cell_setting 'monoclinic'
loop_
_space_group_symop_operation_xyz
x,y,z
-x,1/2+y,-z
loop_
_atom_site_type_symbol
_atom_site_label
_atom_site_fract_x
_atom_site_fract_y
_atom_site_fract_z
Si Si1 0.684913 0.921150 0.545934
Si Si2 0.197195 0.055000 0.908431
Si Si3 0.356085 0.804295 0.372285
Si Si4 0.968922 0.310377 0.228122
Si Si5 0.737403 0.407243 0.335500
Si Si6 0.958961 0.984096 0.085213
Si Si7 0.580602 0.125093 0.360642
Si Si8 0.900372 0.133227 0.327906
O O1 0.510253 0.854810 0.372040
O O2 0.859284 0.877072 0.579857
O O3 0.636406 0.023299 0.462553
O O4 0.788857 0.923624 0.857336
O O5 0.036695 0.096696 0.625476
O O6 0.308476 0.985647 0.861150
O O7 0.355932 0.121729 0.123711
O O8 0.089511 0.012439 0.006913
O O9 0.387496 0.858346 0.609262
O O10 0.381241 0.701460 0.440594
O O11 0.147008 0.815748 0.086729
O O12 0.814691 0.333562 0.258279
O O13 0.014289 0.211252 0.320029
O O14 0.904519 0.444485 0.625317
O O15 0.866083 0.065838 0.116205
O O16 0.703898 0.149470 0.271828
#
# Coordination Sequence:
#
# PCOD9118614 Si02
#       8
#     2   2   2   2   2   2   2   2
#     4  12  25  46  75 103 143 204 242 298 382 434
#     4  11  25  47  70 106 146 187 244 302 362 447
#     4  12  28  46  72 109 150 193 247 312 362 447
#     4  12  25  48  69 104 148 186 248 307 360 443
#     4  11  21  46  70  98 142 186 233 304 360 417
#     4  11  22  45  74  99 140 191 236 297 362 440
#     4  12  26  48  73 109 150 191 251 305 372 440
#     4  11  26  44  73 104 143 192 239 303 370 440
#
# _framework density 22.535947
#
# number of rings (size 3 to 8) (size 9 to 14) (size 15 to 20)
#    0.000    0.500    5.000    3.000    3.500    2.000 
#    6.750    0.000    0.000    0.000    0.000    0.000 
#    0.000    0.000    0.000    0.000    0.000    0.000 
#
# Total GULP energy -89207.959466 kJ/mol
# GULP energy per Si atom -5575.497467 kJ/mol
# Density = 2.248465 g / cm^3
# Si number density = 22.535947 Si / 1000 Ang^3
#
#
#
# Elastic Constant Matrix: (Units=GPa)
#
#
# Indices 1 2 3 4 5 6 
#
# 1 70.5308 30.2112 22.5363 0.0000 1.4970 0.0000
# 2 30.2112 89.3090 23.4817 0.0000 1.7398 0.0000
# 3 22.5363 23.4817 79.2911 0.0000 -7.6161 0.0000
# 4 0.0000 0.0000 0.0000 39.5700 0.0000 -4.7757
# 5 1.4970 1.7398 -7.6161 0.0000 28.1413 0.0000
# 6 0.0000 0.0000 0.0000 -4.7757 0.0000 28.4672
#
#
#
# Elastic Compliance Matrix: (Units=1/GPa)
#
#
# Indices 1 2 3 4 5 6 
#
# 1 0.017493 -0.004921 -0.003670 0.000000 -0.001620 0.000000
# 2 -0.004921 0.013613 -0.002760 0.000000 -0.001327 0.000000
# 3 -0.003670 -0.002760 0.014895 0.000000 0.004397 0.000000
# 4 0.000000 0.000000 0.000000 0.025794 0.000000 0.004327
# 5 -0.001620 -0.001327 0.004397 0.000000 0.036893 0.000000
# 6 0.000000 0.000000 0.000000 0.004327 0.000000 0.035854
#
#
# Mechanical properties :
#
#
# Convention : Reuss Voigt Hill
#
# Bulk Modulus (GPa) = 42.92181 43.50995 43.21588
# Shear Modulus (GPa) = 28.56956 30.09581 29.33269
#
# Velocity S-wave (km/s) = 3.56439 3.65836 3.61168
# Velocity P-wave (km/s) = 6.00226 6.09865 6.05065
#
# Compressibility (1/GPa) = 0.02329818
#
# Stress axis : x y z
#
# Youngs Moduli (GPa) = 57.16523 73.45731 67.13804
#
# Poissons Ratio (x) = 0.36148 0.24641
# Poissons Ratio (y) = 0.28131 0.18532
# Poissons Ratio (z) = 0.20981 0.20277
#
# Static dielectric constant tensor:
#      x y z
#    x 1.848020 0.000000 -0.017410 
#    y 0.000000 1.959480 0.000000 
#    z -0.017410 0.000000 1.809900 
# 
# From -- ./inp_files/1967.got.cif
#   From: 2010.05.17/outbox.cif.g08.bks.cpg/sg4_1_cif.got.tgz:1967.got - 2010.06.03 18:43:04.
