data_PCOD9118605
_publ_section_title
;
Structure prediction by ZEFSAII (Michael W. Deem and Ramdas Pophale) SiO2 
 PCOD9118605
Probable space group: P 21
;
_chemical_formula_sum "Si O2"
_cell_formula_units_Z 16
_cell_length_a 12.401235
_cell_length_b 9.526125
_cell_length_c 18.129950
_cell_angle_alpha 90.000000
_cell_angle_beta 17.979855
_cell_angle_gamma 90.000000
_cell_volume 661.134699
_symmetry_space_group_name_H-M "P 21"
_symmetry_group_IT_number 4
_symmetry_cell_setting 'monoclinic'
loop_
_space_group_symop_operation_xyz
x,y,z
-x,1/2+y,-z
loop_
_atom_site_type_symbol
_atom_site_label
_atom_site_fract_x
_atom_site_fract_y
_atom_site_fract_z
Si Si1 0.622537 0.109640 0.872742
Si Si2 0.675859 0.559017 0.093868
Si Si3 0.527075 0.748968 0.312589
Si Si4 0.296402 0.988304 0.364000
Si Si5 0.432456 0.702120 0.619767
Si Si6 0.187295 0.912795 0.662051
Si Si7 0.383178 0.918874 0.154793
Si Si8 0.711673 0.248079 0.122120
O O1 0.436593 0.097606 0.914662
O O2 0.692777 0.274054 0.837553
O O3 0.978364 0.023611 0.625889
O O4 0.406600 0.042220 0.079872
O O5 0.438725 0.624814 0.313633
O O6 0.703127 0.394705 0.087385
O O7 0.053863 0.627918 0.860829
O O8 0.265526 0.804723 0.544119
O O9 0.552040 0.882864 0.241299
O O10 0.884714 0.714118 0.122344
O O11 0.508477 0.129542 0.210376
O O12 0.155809 0.932436 0.377164
O O13 0.401838 0.839888 0.588850
O O14 0.689728 0.573768 0.431138
O O15 0.471426 0.750750 0.678541
O O16 0.771651 0.911711 0.938047
#
# Coordination Sequence:
#
# PCOD9118605 Si02
#       8
#     2   2   2   2   2   2   2   2
#     4  12  28  51  70 105 145 189 248 289 356 422
#     4  11  24  43  70 102 140 188 240 289 351 430
#     4  11  21  45  72  99 147 184 231 293 356 422
#     4  12  26  49  75 104 144 193 237 293 360 420
#     4  11  24  43  67 106 144 182 233 293 361 422
#     4  12  24  45  69 108 145 184 233 294 365 422
#     4  12  28  49  75 100 145 191 239 302 347 424
#     4  11  23  43  70 106 136 183 239 287 354 428
#
# _framework density 24.200818999999999
#
# number of rings (size 3 to 8) (size 9 to 14) (size 15 to 20)
#    0.000    0.500    6.250    1.500    7.000    1.000 
#    2.250    0.000    0.000    0.000    0.000    0.000 
#    0.000    0.000    0.000    0.000    0.000    0.000 
#
# Total GULP energy -89554.936014 kJ/mol
# GULP energy per Si atom -5597.183501 kJ/mol
# Density = 2.414574 g / cm^3
# Si number density = 24.200819 Si / 1000 Ang^3
#
#
#
# Elastic Constant Matrix: (Units=GPa)
#
#
# Indices 1 2 3 4 5 6 
#
# 1 71.3615 0.4795 -3.1196 0.0000 12.0154 0.0000
# 2 0.4795 50.0721 -24.9809 0.0000 1.6972 0.0000
# 3 -3.1196 -24.9809 46.9749 0.0000 -0.7546 0.0000
# 4 0.0000 0.0000 0.0000 32.7413 0.0000 8.3694
# 5 12.0154 1.6972 -0.7546 0.0000 35.5977 0.0000
# 6 0.0000 0.0000 0.0000 8.3694 0.0000 53.7114
#
#
#
# Elastic Compliance Matrix: (Units=1/GPa)
#
#
# Indices 1 2 3 4 5 6 
#
# 1 0.014912 0.000656 0.001258 0.000000 -0.005038 0.000000
# 2 0.000656 0.027247 0.014514 0.000000 -0.001213 0.000000
# 3 0.001258 0.014514 0.029082 0.000000 -0.000500 0.000000
# 4 0.000000 0.000000 0.000000 0.031809 0.000000 -0.004957
# 5 -0.005038 -0.001213 -0.000500 0.000000 0.029839 0.000000
# 6 0.000000 0.000000 0.000000 -0.004957 0.000000 0.019390
#
#
# Mechanical properties :
#
#
# Convention : Reuss Voigt Hill
#
# Bulk Modulus (GPa) = 9.60657 12.57406 11.09031
# Shear Modulus (GPa) = 32.44146 37.47869 34.96008
#
# Velocity S-wave (km/s) = 3.66527 3.93956 3.80489
# Velocity P-wave (km/s) = 4.67872 5.08926 4.88830
#
# Compressibility (1/GPa) = 0.10409544
#
# Stress axis : x y z
#
# Youngs Moduli (GPa) = 67.06014 36.70138 34.38575
#
# Poissons Ratio (x) = -0.02406 -0.04326
# Poissons Ratio (y) = -0.04396 -0.49907
# Poissons Ratio (z) = -0.08436 -0.53268
#
# Static dielectric constant tensor:
#      x y z
#    x 1.913020 0.000000 0.017920 
#    y 0.000000 1.916630 0.000000 
#    z 0.017920 0.000000 1.987480 
# 
# From -- ./inp_files/12935.got.cif
#   From: 2010.05.17/outbox.cif.g08.bks.cpg/sg4_7_cif.got.tgz:12935.got - 2010.06.03 18:43:04.
