data_PCOD9118469
_publ_section_title
;
Structure prediction by ZEFSAII (Michael W. Deem and Ramdas Pophale) SiO2 
 PCOD9118469
Probable space group: P 21
;
_chemical_formula_sum "Si O2"
_cell_formula_units_Z 16
_cell_length_a 8.222316
_cell_length_b 17.184301
_cell_length_c 7.176950
_cell_angle_alpha 90.000000
_cell_angle_beta 53.547629
_cell_angle_gamma 90.000000
_cell_volume 815.664550
_symmetry_space_group_name_H-M "P 21"
_symmetry_group_IT_number 4
_symmetry_cell_setting 'monoclinic'
loop_
_space_group_symop_operation_xyz
x,y,z
-x,1/2+y,-z
loop_
_atom_site_type_symbol
_atom_site_label
_atom_site_fract_x
_atom_site_fract_y
_atom_site_fract_z
Si Si1 0.145807 0.646570 0.576110
Si Si2 0.117862 0.242438 0.491178
Si Si3 0.852355 0.409075 0.162969
Si Si4 0.558807 0.845914 0.611414
Si Si5 0.910007 0.972392 0.303594
Si Si6 0.056304 0.241108 0.975292
Si Si7 0.493496 0.764891 0.260110
Si Si8 0.812479 0.383009 0.614528
O O1 0.172255 0.555165 0.578397
O O2 0.340400 0.692213 0.363063
O O3 0.955387 0.668125 0.573342
O O4 0.089244 0.682834 0.815973
O O5 0.341587 0.279792 0.325869
O O6 0.079353 0.228313 0.738061
O O7 0.971474 0.311129 0.515570
O O8 0.639030 0.394898 0.204256
O O9 0.813883 0.420037 0.407684
O O10 0.994535 0.471977 0.967923
O O11 0.968558 0.327416 0.059301
O O12 0.737185 0.906649 0.440777
O O13 0.494560 0.799462 0.469517
O O14 0.096920 0.944452 0.304581
O O15 0.275923 0.240528 0.924156
O O16 0.398961 0.837517 0.209839
#
# Coordination Sequence:
#
# PCOD9118469 Si02
#       8
#     2   2   2   2   2   2   2   2
#     4  11  23  38  55  86 123 146 185 248 289 324
#     4   9  18  36  58  85 110 147 188 232 278 345
#     4  11  19  36  65  86 104 153 200 227 279 346
#     4   9  18  36  62  84 108 151 197 230 277 346
#     4  11  23  38  55  86 123 146 185 248 289 324
#     4  11  19  36  65  86 104 153 200 227 279 346
#     4   9  18  36  62  84 108 151 197 230 277 346
#     4   9  18  36  58  85 110 147 188 232 278 345
#
# _framework density 19.615908000000001
#
# number of rings (size 3 to 8) (size 9 to 14) (size 15 to 20)
#    0.000    2.000    7.500    0.000    0.000    3.000 
#    0.000    3.750    0.000    0.000    0.000    0.000 
#    0.000    0.000    0.000    0.000    0.000    0.000 
#
# Total GULP energy -89139.985530 kJ/mol
# GULP energy per Si atom -5571.249096 kJ/mol
# Density = 1.957126 g / cm^3
# Si number density = 19.615908 Si / 1000 Ang^3
#
#
#
# Elastic Constant Matrix: (Units=GPa)
#
#
# Indices 1 2 3 4 5 6 
#
# 1 81.9974 0.9487 15.8628 0.0000 -8.1934 0.0000
# 2 0.9487 43.9968 -2.0856 0.0000 -2.0976 0.0000
# 3 15.8628 -2.0856 59.7662 0.0000 -5.4974 0.0000
# 4 0.0000 0.0000 0.0000 21.2849 0.0000 2.0232
# 5 -8.1934 -2.0976 -5.4974 0.0000 36.2784 0.0000
# 6 0.0000 0.0000 0.0000 2.0232 0.0000 15.9872
#
#
#
# Elastic Compliance Matrix: (Units=1/GPa)
#
#
# Indices 1 2 3 4 5 6 
#
# 1 0.013073 -0.000320 -0.003256 0.000000 0.002441 0.000000
# 2 -0.000320 0.022851 0.001011 0.000000 0.001402 0.000000
# 3 -0.003256 0.001011 0.017818 0.000000 0.002023 0.000000
# 4 0.000000 0.000000 0.000000 0.047554 0.000000 -0.006018
# 5 0.002441 0.001402 0.002023 0.000000 0.028503 0.000000
# 6 0.000000 0.000000 0.000000 -0.006018 0.000000 0.063312
#
#
# Mechanical properties :
#
#
# Convention : Reuss Voigt Hill
#
# Bulk Modulus (GPa) = 20.57147 23.91249 22.24198
# Shear Modulus (GPa) = 23.31613 26.11240 24.71426
#
# Velocity S-wave (km/s) = 3.45140 3.65250 3.55337
# Velocity P-wave (km/s) = 5.13739 5.47763 5.31024
#
# Compressibility (1/GPa) = 0.04861101
#
# Stress axis : x y z
#
# Youngs Moduli (GPa) = 76.49323 43.76254 56.12442
#
# Poissons Ratio (x) = 0.01400 0.18277
# Poissons Ratio (y) = 0.02447 -0.05676
# Poissons Ratio (z) = 0.24910 -0.04426
#
# Static dielectric constant tensor:
#      x y z
#    x 1.735420 0.000000 0.001120 
#    y 0.000000 1.663290 0.000000 
#    z 0.001120 0.000000 1.752210 
# 
# From -- ./inp_files/6821.got.cif
#   From: 2010.05.17/outbox.cif.g08.bks.cpg/sg4_4_cif.got.tgz:6821.got - 2010.06.03 18:43:04.
