data_PCOD9118263
_publ_section_title
;
Structure prediction by ZEFSAII (Michael W. Deem and Ramdas Pophale) SiO2 
 PCOD9118263
Probable space group: P 21
;
_chemical_formula_sum "Si O2"
_cell_formula_units_Z 10
_cell_length_a 4.928121
_cell_length_b 8.532495
_cell_length_c 9.700660
_cell_angle_alpha 90.000000
_cell_angle_beta 75.207176
_cell_angle_gamma 90.000000
_cell_volume 394.384832
_symmetry_space_group_name_H-M "P 21"
_symmetry_group_IT_number 4
_symmetry_cell_setting 'monoclinic'
loop_
_space_group_symop_operation_xyz
x,y,z
-x,1/2+y,-z
loop_
_atom_site_type_symbol
_atom_site_label
_atom_site_fract_x
_atom_site_fract_y
_atom_site_fract_z
Si Si1 0.979518 0.595760 0.681739
Si Si2 0.840194 0.578430 0.392954
Si Si3 0.535405 0.786629 0.613263
Si Si4 0.838231 0.416984 0.973487
Si Si5 0.276425 0.573512 0.095082
O O1 0.289971 0.658645 0.666778
O O2 0.948920 0.527583 0.531069
O O3 0.772520 0.747742 0.695381
O O4 0.881164 0.481592 0.813650
O O5 0.678587 0.739938 0.448693
O O6 0.616764 0.450943 0.372373
O O7 0.094559 0.595741 0.256139
O O8 0.748113 0.237610 0.981976
O O9 0.595460 0.522961 0.072180
O O10 0.121104 0.443890 0.021846
#
# Coordination Sequence:
#
# PCOD9118263 Si02
#       5
#     2   2   2   2   2
#     4  10  26  45  76  99 151 184 249 304 367 436
#     4  10  28  44  80 104 148 189 256 300 379 436
#     4  10  25  41  76 106 142 184 248 305 365 435
#     4  12  29  51  74 114 150 208 245 323 364 467
#     4  12  30  49  80 107 159 195 264 298 395 436
#
# _framework density 25.355948999999999
#
# number of rings (size 3 to 8) (size 9 to 14) (size 15 to 20)
#    1.200    0.000    0.000    2.400   19.600    0.000 
#    0.000    0.000    0.000    0.000    0.000    0.000 
#    0.000    0.000    0.000    0.000    0.000    0.000 
#
# Total GULP energy -56084.671744 kJ/mol
# GULP energy per Si atom -5608.467174 kJ/mol
# Density = 2.529824 g / cm^3
# Si number density = 25.355949 Si / 1000 Ang^3
#
#
#
# Elastic Constant Matrix: (Units=GPa)
#
#
# Indices 1 2 3 4 5 6 
#
# 1 76.5476 4.2328 2.8825 0.0000 -3.1718 0.0000
# 2 4.2328 86.9058 9.2972 0.0000 -2.5224 0.0000
# 3 2.8825 9.2972 133.9839 0.0000 -3.2413 0.0000
# 4 0.0000 0.0000 0.0000 28.5272 0.0000 -2.5914
# 5 -3.1718 -2.5224 -3.2413 0.0000 39.6283 0.0000
# 6 0.0000 0.0000 0.0000 -2.5914 0.0000 40.7201
#
#
#
# Elastic Compliance Matrix: (Units=1/GPa)
#
#
# Indices 1 2 3 4 5 6 
#
# 1 0.013146 -0.000588 -0.000218 0.000000 0.000997 0.000000
# 2 -0.000588 0.011637 -0.000780 0.000000 0.000630 0.000000
# 3 -0.000218 -0.000780 0.007536 0.000000 0.000549 0.000000
# 4 0.000000 0.000000 0.000000 0.035258 0.000000 0.002244
# 5 0.000997 0.000630 0.000549 0.000000 0.025399 0.000000
# 6 0.000000 0.000000 0.000000 0.002244 0.000000 0.024701
#
#
# Mechanical properties :
#
#
# Convention : Reuss Voigt Hill
#
# Bulk Modulus (GPa) = 34.30833 36.69579 35.50206
# Shear Modulus (GPa) = 38.29557 40.51012 39.40284
#
# Velocity S-wave (km/s) = 3.89050 4.00141 3.94634
# Velocity P-wave (km/s) = 5.80873 5.98766 5.89887
#
# Compressibility (1/GPa) = 0.02914744
#
# Stress axis : x y z
#
# Youngs Moduli (GPa) = 76.06996 85.93254 132.70246
#
# Poissons Ratio (x) = 0.05053 0.02891
# Poissons Ratio (y) = 0.04473 0.10346
# Poissons Ratio (z) = 0.01658 0.06699
#
# Static dielectric constant tensor:
#      x y z
#    x 1.923150 0.000000 -0.009060 
#    y 0.000000 2.030040 0.000000 
#    z -0.009060 0.000000 2.011810 
# 
# From -- ./inp_files/942.got.cif
#   From: 2010.05.17/outbox.cif.g08.bks.cpg/sg4_1_cif.got.tgz:942.got - 2010.06.03 18:43:04.
