data_PCOD9118010
_publ_section_title
;
Structure prediction by ZEFSAII (Michael W. Deem and Ramdas Pophale) SiO2 
 PCOD9118010
Probable space group: P 21
;
_chemical_formula_sum "Si O2"
_cell_formula_units_Z 16
_cell_length_a 5.549023
_cell_length_b 17.541326
_cell_length_c 8.626589
_cell_angle_alpha 90.000000
_cell_angle_beta 58.109587
_cell_angle_gamma 90.000000
_cell_volume 712.945747
_symmetry_space_group_name_H-M "P 21"
_symmetry_group_IT_number 4
_symmetry_cell_setting 'monoclinic'
loop_
_space_group_symop_operation_xyz
x,y,z
-x,1/2+y,-z
loop_
_atom_site_type_symbol
_atom_site_label
_atom_site_fract_x
_atom_site_fract_y
_atom_site_fract_z
Si Si1 0.318726 0.057680 0.002611
Si Si2 0.362103 0.531592 0.779862
Si Si3 0.123112 0.754741 0.881505
Si Si4 0.356231 0.203434 0.794655
Si Si5 0.924568 0.795706 0.621004
Si Si6 0.614301 0.395870 0.094916
Si Si7 0.629286 0.671998 0.558612
Si Si8 0.589848 0.369392 0.741515
O O1 0.419545 0.134751 0.887167
O O2 0.378869 0.984811 0.872990
O O3 0.511414 0.047581 0.090668
O O4 0.969166 0.055377 0.139620
O O5 0.580136 0.582912 0.604277
O O6 0.404111 0.440691 0.743332
O O7 0.149898 0.844260 0.904577
O O8 0.416508 0.712960 0.750260
O O9 0.973793 0.751571 0.765792
O O10 0.982970 0.712305 0.072555
O O11 0.450395 0.187763 0.590235
O O12 0.445511 0.287532 0.812598
O O13 0.669100 0.854007 0.748914
O O14 0.896625 0.726069 0.505824
O O15 0.167336 0.849952 0.466375
O O16 0.671569 0.390502 0.890436
#
# Coordination Sequence:
#
# PCOD9118010 Si02
#       8
#     2   2   2   2   2   2   2   2
#     4  11  26  47  73 104 142 189 241 294 366 418
#     4  11  26  50  71 103 150 186 234 306 360 418
#     4  11  21  42  70  95 143 174 237 292 356 421
#     4  12  23  43  72 102 137 190 241 291 357 433
#     4  11  23  43  70 103 138 185 239 289 364 427
#     4  10  24  43  69  99 137 185 229 297 355 428
#     4  11  25  43  68 103 137 187 238 296 355 429
#     4  11  24  45  71 105 140 190 239 293 361 432
#
# _framework density 22.442098999999999
#
# number of rings (size 3 to 8) (size 9 to 14) (size 15 to 20)
#    0.000    1.000    3.750    2.250    3.500    3.000 
#    6.750    0.000    0.000    0.000    0.000    0.000 
#    0.000    0.000    0.000    0.000    0.000    0.000 
#
# Total GULP energy -89153.084992 kJ/mol
# GULP energy per Si atom -5572.067812 kJ/mol
# Density = 2.239102 g / cm^3
# Si number density = 22.442099 Si / 1000 Ang^3
#
#
#
# Elastic Constant Matrix: (Units=GPa)
#
#
# Indices 1 2 3 4 5 6 
#
# 1 48.0255 8.0536 -1.6450 0.0000 1.0355 0.0000
# 2 8.0536 151.7918 14.0258 0.0000 4.4755 0.0000
# 3 -1.6450 14.0258 56.8116 0.0000 -10.9135 0.0000
# 4 0.0000 0.0000 0.0000 37.7686 0.0000 0.9818
# 5 1.0355 4.4755 -10.9135 0.0000 19.3274 0.0000
# 6 0.0000 0.0000 0.0000 0.9818 0.0000 28.8657
#
#
#
# Elastic Compliance Matrix: (Units=1/GPa)
#
#
# Indices 1 2 3 4 5 6 
#
# 1 0.021057 -0.001182 0.000827 0.000000 -0.000387 0.000000
# 2 -0.001182 0.006947 -0.002295 0.000000 -0.002841 0.000000
# 3 0.000827 -0.002295 0.020511 0.000000 0.012069 0.000000
# 4 0.000000 0.000000 0.000000 0.026500 0.000000 -0.000901
# 5 -0.000387 -0.002841 0.012069 0.000000 0.059233 0.000000
# 6 0.000000 0.000000 0.000000 -0.000901 0.000000 0.034674
#
#
# Mechanical properties :
#
#
# Convention : Reuss Voigt Hill
#
# Bulk Modulus (GPa) = 23.14028 33.05530 28.09779
# Shear Modulus (GPa) = 26.50728 32.93865 29.72296
#
# Velocity S-wave (km/s) = 3.44050 3.83524 3.64322
# Velocity P-wave (km/s) = 5.11040 5.86286 5.49952
#
# Compressibility (1/GPa) = 0.04321468
#
# Stress axis : x y z
#
# Youngs Moduli (GPa) = 47.48970 143.95679 48.75431
#
# Poissons Ratio (x) = 0.17019 -0.04033
# Poissons Ratio (y) = 0.05614 0.11189
# Poissons Ratio (z) = -0.03928 0.33038
#
# Static dielectric constant tensor:
#      x y z
#    x 1.947630 0.000000 -0.087620 
#    y 0.000000 1.880290 0.000000 
#    z -0.087620 0.000000 1.825990 
# 
# From -- ./inp_files/2147.got.cif
#   From: 2010.05.17/outbox.cif.g08.bks.cpg/sg4_2_cif.got.tgz:2147.got - 2010.06.03 18:43:04.
