data_PCOD9118568
_publ_section_title
;
Structure prediction by ZEFSAII (Michael W. Deem and Ramdas Pophale) SiO2 
 PCOD9118568
Probable space group: P 21
;
_chemical_formula_sum "Si O2"
_cell_formula_units_Z 14
_cell_length_a 13.157233
_cell_length_b 5.259205
_cell_length_c 8.474168
_cell_angle_alpha 90.000000
_cell_angle_beta 99.917451
_cell_angle_gamma 90.000000
_cell_volume 577.621113
_symmetry_space_group_name_H-M "P 21"
_symmetry_group_IT_number 4
_symmetry_cell_setting 'monoclinic'
loop_
_space_group_symop_operation_xyz
x,y,z
-x,1/2+y,-z
loop_
_atom_site_type_symbol
_atom_site_label
_atom_site_fract_x
_atom_site_fract_y
_atom_site_fract_z
Si Si1 0.593291 0.064390 0.858387
Si Si2 0.949030 0.372066 0.556711
Si Si3 0.049058 0.061946 0.082385
Si Si4 0.744496 0.186027 0.342988
Si Si5 0.380368 0.294855 0.827179
Si Si6 0.251733 0.905051 0.990248
Si Si7 0.482966 0.788763 0.596586
O O1 0.489904 0.216696 0.790983
O O2 0.572125 0.813867 0.752963
O O3 0.698073 0.217182 0.867336
O O4 0.593348 0.023753 0.046037
O O5 0.958095 0.465927 0.739628
O O6 0.834307 0.271070 0.483280
O O7 0.979834 0.624051 0.462967
O O8 0.165766 0.068516 0.051519
O O9 0.997912 0.838230 0.963088
O O10 0.785531 0.255996 0.177485
O O11 0.633699 0.306761 0.364158
O O12 0.708047 0.891562 0.314858
O O13 0.335994 0.085348 0.932459
O O14 0.494556 0.523529 0.512002
#
# Coordination Sequence:
#
# PCOD9118568 Si02
#       7
#     2   2   2   2   2   2   2
#     4  11  22  41  67 107 147 202 244 306 367 444
#     4  12  29  53  83 111 152 199 254 321 391 460
#     4  12  29  54  79 116 150 196 260 322 383 455
#     4  11  26  46  72 112 148 204 250 313 383 447
#     4  11  21  41  74 106 150 193 253 302 371 455
#     4  11  25  43  77 108 151 197 254 316 376 452
#     4  12  28  44  68 104 160 205 253 306 367 455
#
# _framework density 24.237342000000002
#
# number of rings (size 3 to 8) (size 9 to 14) (size 15 to 20)
#    0.000    0.571    2.857    4.286   12.000    0.000 
#    0.000    0.000    0.000    0.000    0.000    0.000 
#    0.000    0.000    0.000    0.000    0.000    0.000 
#
# Total GULP energy -78243.305135 kJ/mol
# GULP energy per Si atom -5588.807510 kJ/mol
# Density = 2.418218 g / cm^3
# Si number density = 24.237342 Si / 1000 Ang^3
#
#
#
# Elastic Constant Matrix: (Units=GPa)
#
#
# Indices 1 2 3 4 5 6 
#
# 1 56.1749 -7.3158 9.3877 0.0000 -3.6738 0.0000
# 2 -7.3158 62.0795 -9.2044 0.0000 -5.9243 0.0000
# 3 9.3877 -9.2044 65.1592 0.0000 -3.4705 0.0000
# 4 0.0000 0.0000 0.0000 41.9699 0.0000 -2.5107
# 5 -3.6738 -5.9243 -3.4705 0.0000 34.9725 0.0000
# 6 0.0000 0.0000 0.0000 -2.5107 0.0000 28.7625
#
#
#
# Elastic Compliance Matrix: (Units=1/GPa)
#
#
# Indices 1 2 3 4 5 6 
#
# 1 0.018585 0.002050 -0.002277 0.000000 0.002074 0.000000
# 2 0.002050 0.017006 0.002284 0.000000 0.003323 0.000000
# 3 -0.002277 0.002284 0.016091 0.000000 0.001744 0.000000
# 4 0.000000 0.000000 0.000000 0.023952 0.000000 0.002091
# 5 0.002074 0.003323 0.001744 0.000000 0.029548 0.000000
# 6 0.000000 0.000000 0.000000 0.002091 0.000000 0.034950
#
#
# Mechanical properties :
#
#
# Convention : Reuss Voigt Hill
#
# Bulk Modulus (GPa) = 17.92292 18.79429 18.35860
# Shear Modulus (GPa) = 32.33833 33.84407 33.09120
#
# Velocity S-wave (km/s) = 3.65668 3.74085 3.69900
# Velocity P-wave (km/s) = 5.02387 5.14098 5.08276
#
# Compressibility (1/GPa) = 0.05579448
#
# Stress axis : x y z
#
# Youngs Moduli (GPa) = 53.80752 58.80379 62.14781
#
# Poissons Ratio (x) = -0.12057 0.14154
# Poissons Ratio (y) = -0.11032 -0.14193
# Poissons Ratio (z) = 0.12255 -0.13430
#
# Static dielectric constant tensor:
#      x y z
#    x 1.923730 0.000000 0.013570 
#    y 0.000000 2.067220 0.000000 
#    z 0.013570 0.000000 1.957150 
# 
# From -- ./inp_files/7224.got.cif
#   From: 2010.05.17/outbox.cif.g08.bks.cpg/sg4_4_cif.got.tgz:7224.got - 2010.06.03 18:43:04.
