data_PCOD9118516
_publ_section_title
;
Structure prediction by ZEFSAII (Michael W. Deem and Ramdas Pophale) SiO2 
 PCOD9118516
Probable space group: P 21
;
_chemical_formula_sum "Si O2"
_cell_formula_units_Z 16
_cell_length_a 10.723719
_cell_length_b 12.036525
_cell_length_c 10.956529
_cell_angle_alpha 90.000000
_cell_angle_beta 153.609926
_cell_angle_gamma 90.000000
_cell_volume 628.596216
_symmetry_space_group_name_H-M "P 21"
_symmetry_group_IT_number 4
_symmetry_cell_setting 'monoclinic'
loop_
_space_group_symop_operation_xyz
x,y,z
-x,1/2+y,-z
loop_
_atom_site_type_symbol
_atom_site_label
_atom_site_fract_x
_atom_site_fract_y
_atom_site_fract_z
Si Si1 0.605844 0.707010 0.645772
Si Si2 0.876112 0.354143 0.837640
Si Si3 0.087261 0.895439 0.868939
Si Si4 0.697368 0.152465 0.006797
Si Si5 0.331114 0.465228 0.703126
Si Si6 0.748608 0.544111 0.551390
Si Si7 0.614075 0.781580 0.054921
Si Si8 0.203013 0.700514 0.517326
O O1 0.428323 0.797865 0.413608
O O2 0.698548 0.613255 0.632958
O O3 0.380438 0.674205 0.551531
O O4 0.876457 0.763632 0.943764
O O5 0.955227 0.425623 0.027145
O O6 0.834500 0.423988 0.677895
O O7 0.197677 0.768221 0.962943
O O8 0.339583 0.968814 0.038197
O O9 0.829823 0.906132 0.550690
O O10 0.526135 0.069260 0.769068
O O11 0.499548 0.196551 0.941240
O O12 0.989192 0.093409 0.292248
O O13 0.307603 0.392419 0.803693
O O14 0.212279 0.587759 0.603150
O O15 0.883991 0.733921 0.225037
O O16 0.366862 0.792762 0.740282
#
# Coordination Sequence:
#
# PCOD9118516 Si02
#       8
#     2   2   2   2   2   2   2   2
#     4  12  25  46  67 103 146 184 223 296 351 428
#     4  12  25  41  67 107 143 183 223 280 374 428
#     4  11  20  41  71  98 137 175 231 294 320 423
#     4  11  22  43  70  95 135 175 235 290 338 403
#     4  11  24  43  74 102 127 190 244 279 345 405
#     4  12  23  43  68 105 137 182 225 285 363 424
#     4  11  25  47  70  98 135 183 238 296 336 410
#     4  12  26  48  69 102 144 184 233 286 357 417
#
# _framework density 25.453541999999999
#
# number of rings (size 3 to 8) (size 9 to 14) (size 15 to 20)
#    0.000    0.500    2.500    7.500    0.000    2.000 
#   13.500    0.000    0.000    0.000    0.000    0.000 
#    0.000    0.000    0.000    0.000    0.000    0.000 
#
# Total GULP energy -89652.396866 kJ/mol
# GULP energy per Si atom -5603.274804 kJ/mol
# Density = 2.539561 g / cm^3
# Si number density = 25.453542 Si / 1000 Ang^3
#
#
#
# Elastic Constant Matrix: (Units=GPa)
#
#
# Indices 1 2 3 4 5 6 
#
# 1 119.9461 14.0464 15.3281 0.0000 2.0325 0.0000
# 2 14.0464 40.0750 7.3500 0.0000 -3.1441 0.0000
# 3 15.3281 7.3500 123.1249 0.0000 -4.5796 0.0000
# 4 0.0000 0.0000 0.0000 26.3610 0.0000 -10.1618
# 5 2.0325 -3.1441 -4.5796 0.0000 44.8146 0.0000
# 6 0.0000 0.0000 0.0000 -10.1618 0.0000 22.9907
#
#
#
# Elastic Compliance Matrix: (Units=1/GPa)
#
#
# Indices 1 2 3 4 5 6 
#
# 1 0.008818 -0.002972 -0.000947 0.000000 -0.000705 0.000000
# 2 -0.002972 0.026349 -0.001133 0.000000 0.001868 0.000000
# 3 -0.000947 -0.001133 0.008338 0.000000 0.000815 0.000000
# 4 0.000000 0.000000 0.000000 0.045726 0.000000 0.020211
# 5 -0.000705 0.001868 0.000815 0.000000 0.022560 0.000000
# 6 0.000000 0.000000 0.000000 0.020211 0.000000 0.052429
#
#
# Mechanical properties :
#
#
# Convention : Reuss Voigt Hill
#
# Bulk Modulus (GPa) = 29.93987 39.62166 34.78077
# Shear Modulus (GPa) = 26.96021 35.26138 31.11080
#
# Velocity S-wave (km/s) = 3.25806 3.72603 3.49987
# Velocity P-wave (km/s) = 5.09326 5.84047 5.47962
#
# Compressibility (1/GPa) = 0.03340028
#
# Stress axis : x y z
#
# Youngs Moduli (GPa) = 113.40330 37.95139 119.93764
#
# Poissons Ratio (x) = 0.11281 0.11353
# Poissons Ratio (y) = 0.33709 0.13594
# Poissons Ratio (z) = 0.10734 0.04302
#
# Static dielectric constant tensor:
#      x y z
#    x 2.030590 0.000000 -0.044020 
#    y 0.000000 2.061140 0.000000 
#    z -0.044020 0.000000 1.922960 
# 
# From -- ./inp_files/12293.got.cif
#   From: 2010.05.17/outbox.cif.g08.bks.cpg/sg4_7_cif.got.tgz:12293.got - 2010.06.03 18:43:04.
