data_PCOD9118293
_publ_section_title
;
Structure prediction by ZEFSAII (Michael W. Deem and Ramdas Pophale) SiO2 
 PCOD9118293
Probable space group: P 21
;
_chemical_formula_sum "Si O2"
_cell_formula_units_Z 16
_cell_length_a 23.219048
_cell_length_b 4.968380
_cell_length_c 28.487251
_cell_angle_alpha 90.000000
_cell_angle_beta 169.005733
_cell_angle_gamma 90.000000
_cell_volume 626.736493
_symmetry_space_group_name_H-M "P 21"
_symmetry_group_IT_number 4
_symmetry_cell_setting 'monoclinic'
loop_
_space_group_symop_operation_xyz
x,y,z
-x,1/2+y,-z
loop_
_atom_site_type_symbol
_atom_site_label
_atom_site_fract_x
_atom_site_fract_y
_atom_site_fract_z
Si Si1 0.156510 0.180170 0.463041
Si Si2 0.241425 0.786773 0.932279
Si Si3 0.685637 0.836293 0.634810
Si Si4 0.131924 0.330204 0.611072
Si Si5 0.312835 0.462264 0.080445
Si Si6 0.775925 0.119904 0.609080
Si Si7 0.321698 0.050404 0.168654
Si Si8 0.288236 0.006186 0.826521
O O1 0.452136 0.343057 0.678641
O O2 0.936172 0.084622 0.244603
O O3 0.950061 0.374951 0.328771
O O4 0.315956 0.939598 0.619170
O O5 0.988093 0.004971 0.738065
O O6 0.535204 0.890112 0.141061
O O7 0.328478 0.704619 0.054544
O O8 0.562833 0.538122 0.542898
O O9 0.727040 0.918466 0.613612
O O10 0.003065 0.894589 0.914320
O O11 0.135683 0.109312 0.656636
O O12 0.997117 0.099131 0.469255
O O13 0.267326 0.317518 0.094581
O O14 0.995625 0.348089 0.804760
O O15 0.460621 0.144846 0.329378
O O16 0.539699 0.775449 0.018330
#
# Coordination Sequence:
#
# PCOD9118293 Si02
#       8
#     2   2   2   2   2   2   2   2
#     4  11  25  45  72 105 145 201 258 316 385 453
#     4  11  25  46  70 103 147 196 260 319 379 458
#     4  11  27  49  78 116 162 199 249 313 383 460
#     4  12  28  46  70 104 144 199 257 328 397 459
#     4  11  22  41  72 104 137 187 249 315 366 446
#     4  10  25  46  75 110 150 199 251 312 377 459
#     4  10  25  44  76 111 149 199 256 302 381 455
#     4  12  27  49  71 103 152 200 258 327 394 454
#
# _framework density 25.529067000000001
#
# number of rings (size 3 to 8) (size 9 to 14) (size 15 to 20)
#    0.000    1.000    1.250    3.750   12.250    2.000 
#    0.000    0.000    0.000    0.000    0.000    0.000 
#    0.000    0.000    0.000    0.000    0.000    0.000 
#
# Total GULP energy -89074.482486 kJ/mol
# GULP energy per Si atom -5567.155155 kJ/mol
# Density = 2.547096 g / cm^3
# Si number density = 25.529067 Si / 1000 Ang^3
#
#
#
# Elastic Constant Matrix: (Units=GPa)
#
#
# Indices 1 2 3 4 5 6 
#
# 1 217.6397 9.9490 196.3589 0.0000 -137.6222 0.0000
# 2 9.9490 72.2718 5.3594 0.0000 9.1577 0.0000
# 3 196.3589 5.3594 318.7728 0.0000 -152.3118 0.0000
# 4 0.0000 0.0000 0.0000 36.0390 0.0000 14.7747
# 5 -137.6222 9.1577 -152.3118 0.0000 178.7706 0.0000
# 6 0.0000 0.0000 0.0000 14.7747 0.0000 17.2619
#
#
#
# Elastic Compliance Matrix: (Units=1/GPa)
#
#
# Indices 1 2 3 4 5 6 
#
# 1 0.013034 -0.002113 -0.005308 0.000000 0.005620 0.000000
# 2 -0.002113 0.014450 -0.000122 0.000000 -0.002471 0.000000
# 3 -0.005308 -0.000122 0.007521 0.000000 0.002328 0.000000
# 4 0.000000 0.000000 0.000000 0.042748 0.000000 -0.036588
# 5 0.005620 -0.002471 0.002328 0.000000 0.012030 0.000000
# 6 0.000000 0.000000 0.000000 -0.036588 0.000000 0.089247
#
#
# Mechanical properties :
#
#
# Convention : Reuss Voigt Hill
#
# Bulk Modulus (GPa) = 50.20334 114.66875 82.43604
# Shear Modulus (GPa) = 24.90609 72.88211 48.89410
#
# Velocity S-wave (km/s) = 3.12684 5.34889 4.38108
# Velocity P-wave (km/s) = 5.72224 9.11932 7.61269
#
# Compressibility (1/GPa) = 0.01991899
#
# Stress axis : x y z
#
# Youngs Moduli (GPa) = 76.72355 69.20613 132.96090
#
# Poissons Ratio (x) = 0.14621 0.70576
# Poissons Ratio (y) = 0.16209 0.01622
# Poissons Ratio (z) = 0.40725 0.00844
#
# Static dielectric constant tensor:
#      x y z
#    x 2.431570 0.000000 -0.437100 
#    y 0.000000 1.657830 0.000000 
#    z -0.437100 0.000000 2.390010 
# 
# From -- ./inp_files/16573.got.cif
#   From: 2010.05.17/outbox.cif.g08.bks.cpg/sg4_9_cif.got.tgz:16573.got - 2010.06.03 18:43:04.
