data_PCOD9118514
_publ_section_title
;
Structure prediction by ZEFSAII (Michael W. Deem and Ramdas Pophale) SiO2 
 PCOD9118514
Probable space group: P 21
;
_chemical_formula_sum "Si O2"
_cell_formula_units_Z 16
_cell_length_a 10.213114
_cell_length_b 14.692206
_cell_length_c 10.306499
_cell_angle_alpha 90.000000
_cell_angle_beta 152.249777
_cell_angle_gamma 90.000000
_cell_volume 720.088843
_symmetry_space_group_name_H-M "P 21"
_symmetry_group_IT_number 4
_symmetry_cell_setting 'monoclinic'
loop_
_space_group_symop_operation_xyz
x,y,z
-x,1/2+y,-z
loop_
_atom_site_type_symbol
_atom_site_label
_atom_site_fract_x
_atom_site_fract_y
_atom_site_fract_z
Si Si1 0.523035 0.578390 0.216942
Si Si2 0.498698 0.247843 0.975078
Si Si3 0.374446 0.232466 0.473306
Si Si4 0.190780 0.013693 0.114686
Si Si5 0.804264 0.331835 0.004019
Si Si6 0.275523 0.626847 0.414930
Si Si7 0.041355 0.963549 0.272312
Si Si8 0.090602 0.770335 0.442075
O O1 0.477936 0.643316 0.053154
O O2 0.567410 0.651204 0.372977
O O3 0.797162 0.515910 0.470159
O O4 0.262924 0.510191 0.005425
O O5 0.170150 0.270748 0.687400
O O6 0.677139 0.308326 0.031624
O O7 0.622932 0.268243 0.224923
O O8 0.516603 0.201670 0.465717
O O9 0.051097 0.260592 0.187773
O O10 0.548626 0.316772 0.680723
O O11 0.188991 0.982149 0.263007
O O12 0.498618 0.050468 0.347374
O O13 0.098913 0.933332 0.937765
O O14 0.948645 0.089181 0.884735
O O15 0.096562 0.676556 0.367815
O O16 0.051892 0.857296 0.315833
#
# Coordination Sequence:
#
# PCOD9118514 Si02
#       8
#     2   2   2   2   2   2   2   2
#     4  11  22  43  73 100 131 183 233 287 332 423
#     4  11  25  49  66  98 140 186 243 269 346 427
#     4  11  20  41  70 100 133 173 226 283 365 399
#     4  12  24  44  68 110 140 170 237 291 364 427
#     4  11  24  41  72  99 131 185 226 293 334 418
#     4  12  25  43  68 100 150 176 217 299 360 422
#     4  12  23  44  72 105 135 176 238 293 351 413
#     4  12  27  47  67 102 144 189 230 287 346 419
#
# _framework density 22.219480999999998
#
# number of rings (size 3 to 8) (size 9 to 14) (size 15 to 20)
#    0.000    0.500    2.500    7.500    0.000    2.000 
#   13.500    0.000    0.000    0.000    0.000    0.000 
#    0.000    0.000    0.000    0.000    0.000    0.000 
#
# Total GULP energy -89453.987276 kJ/mol
# GULP energy per Si atom -5590.874205 kJ/mol
# Density = 2.216891 g / cm^3
# Si number density = 22.219481 Si / 1000 Ang^3
#
#
#
# Elastic Constant Matrix: (Units=GPa)
#
#
# Indices 1 2 3 4 5 6 
#
# 1 56.5736 35.7531 20.1477 0.0000 6.5203 0.0000
# 2 35.7531 79.1113 27.8895 0.0000 -2.0640 0.0000
# 3 20.1477 27.8895 74.4427 0.0000 6.3632 0.0000
# 4 0.0000 0.0000 0.0000 37.6218 0.0000 0.4679
# 5 6.5203 -2.0640 6.3632 0.0000 27.7483 0.0000
# 6 0.0000 0.0000 0.0000 0.4679 0.0000 25.8931
#
#
#
# Elastic Compliance Matrix: (Units=1/GPa)
#
#
# Indices 1 2 3 4 5 6 
#
# 1 0.026382 -0.011258 -0.002368 0.000000 -0.006494 0.000000
# 2 -0.011258 0.019524 -0.004710 0.000000 0.005178 0.000000
# 3 -0.002368 -0.004710 0.016137 0.000000 -0.003495 0.000000
# 4 0.000000 0.000000 0.000000 0.026586 0.000000 -0.000480
# 5 -0.006494 0.005178 -0.003495 0.000000 0.038751 0.000000
# 6 0.000000 0.000000 0.000000 -0.000480 0.000000 0.038629
#
#
# Mechanical properties :
#
#
# Convention : Reuss Voigt Hill
#
# Bulk Modulus (GPa) = 39.41305 41.96758 40.69032
# Shear Modulus (GPa) = 23.68118 26.67510 25.17814
#
# Velocity S-wave (km/s) = 3.26818 3.46862 3.36989
# Velocity P-wave (km/s) = 5.65843 5.91359 5.78742
#
# Compressibility (1/GPa) = 0.02537231
#
# Stress axis : x y z
#
# Youngs Moduli (GPa) = 37.90413 51.21945 61.96835
#
# Poissons Ratio (x) = 0.57662 0.14671
# Poissons Ratio (y) = 0.42672 0.29188
# Poissons Ratio (z) = 0.08974 0.24125
#
# Static dielectric constant tensor:
#      x y z
#    x 1.806250 0.000000 -0.017990 
#    y 0.000000 1.886920 0.000000 
#    z -0.017990 0.000000 1.800420 
# 
# From -- ./inp_files/12366.got.cif
#   From: 2010.05.17/outbox.cif.g08.bks.cpg/sg4_7_cif.got.tgz:12366.got - 2010.06.03 18:43:04.
