data_PCOD9118762
_publ_section_title
;
Structure prediction by ZEFSAII (Michael W. Deem and Ramdas Pophale) SiO2 
 PCOD9118762
Probable space group: P 21
;
_chemical_formula_sum "Si O2"
_cell_formula_units_Z 14
_cell_length_a 6.755849
_cell_length_b 6.257023
_cell_length_c 15.993425
_cell_angle_alpha 90.000000
_cell_angle_beta 114.977985
_cell_angle_gamma 90.000000
_cell_volume 612.833714
_symmetry_space_group_name_H-M "P 21"
_symmetry_group_IT_number 4
_symmetry_cell_setting 'monoclinic'
loop_
_space_group_symop_operation_xyz
x,y,z
-x,1/2+y,-z
loop_
_atom_site_type_symbol
_atom_site_label
_atom_site_fract_x
_atom_site_fract_y
_atom_site_fract_z
Si Si1 0.761628 0.317270 0.370840
Si Si2 0.715928 0.955783 0.130717
Si Si3 0.045883 0.278719 0.130827
Si Si4 0.215010 0.117473 0.465000
Si Si5 0.466000 0.617428 0.215980
Si Si6 0.255053 0.117097 0.005033
Si Si7 0.480146 0.917670 0.370842
O O1 0.792967 0.440624 0.464027
O O2 0.662907 0.468922 0.283541
O O3 0.996304 0.226580 0.397243
O O4 0.603454 0.117460 0.353393
O O5 0.590773 0.779943 0.171577
O O6 0.509779 0.100724 0.070281
O O7 0.779941 0.816922 0.061601
O O8 0.928967 0.117292 0.178972
O O9 0.252517 0.454809 0.171658
O O10 0.131684 0.133572 0.070626
O O11 0.843683 0.417285 0.061530
O O12 0.364889 0.294309 0.535976
O O13 0.298273 0.008395 0.397246
O O14 0.404282 0.766005 0.283547
#
# Coordination Sequence:
#
# PCOD9118762 Si02
#       7
#     2   2   2   2   2   2   2
#     4  11  24  47  74 110 147 193 257 318 380 476
#     4  12  26  49  79 111 155 201 260 332 384 474
#     4  12  26  49  79 111 155 201 260 332 384 474
#     4  11  22  46  80 103 138 196 256 313 376 462
#     4  11  30  50  68 119 164 200 254 317 426 466
#     4  12  24  48  78 110 140 202 274 304 382 476
#     4  11  24  47  74 110 147 193 257 318 380 476
#
# _framework density 22.844695000000002
#
# number of rings (size 3 to 8) (size 9 to 14) (size 15 to 20)
#    0.000    0.571    5.714    1.714    2.000    0.000 
#    7.714    0.000    0.000    0.000    0.000    0.000 
#    0.000    0.000    0.000    0.000    0.000    0.000 
#
# Total GULP energy -78026.908352 kJ/mol
# GULP energy per Si atom -5573.350597 kJ/mol
# Density = 2.279270 g / cm^3
# Si number density = 22.844695 Si / 1000 Ang^3
#
#
#
# Elastic Constant Matrix: (Units=GPa)
#
#
# Indices 1 2 3 4 5 6 
#
# 1 231.5867 80.2910 88.6822 0.0000 -2.8786 0.0000
# 2 80.2910 139.0119 61.2104 0.0000 -0.4071 0.0000
# 3 88.6822 61.2104 104.6963 0.0000 -0.2192 0.0000
# 4 0.0000 0.0000 0.0000 12.7133 0.0000 -1.3546
# 5 -2.8786 -0.4071 -0.2192 0.0000 16.3774 0.0000
# 6 0.0000 0.0000 0.0000 -1.3546 0.0000 67.3908
#
#
#
# Elastic Compliance Matrix: (Units=1/GPa)
#
#
# Indices 1 2 3 4 5 6 
#
# 1 0.006747 -0.001856 -0.004628 0.000000 0.001078 0.000000
# 2 -0.001856 0.010199 -0.004391 0.000000 -0.000131 0.000000
# 3 -0.004628 -0.004391 0.016037 0.000000 -0.000708 0.000000
# 4 0.000000 0.000000 0.000000 0.078827 0.000000 0.001584
# 5 0.001078 -0.000131 -0.000708 0.000000 0.061237 0.000000
# 6 0.000000 0.000000 0.000000 0.001584 0.000000 0.014871
#
#
# Mechanical properties :
#
#
# Convention : Reuss Voigt Hill
#
# Bulk Modulus (GPa) = 89.01852 103.96246 96.49049
# Shear Modulus (GPa) = 23.42915 35.63705 29.53310
#
# Velocity S-wave (km/s) = 3.20595 3.95393 3.59942
# Velocity P-wave (km/s) = 7.26330 8.15180 7.72035
#
# Compressibility (1/GPa) = 0.01123362
#
# Stress axis : x y z
#
# Youngs Moduli (GPa) = 148.21378 98.05227 62.35718
#
# Poissons Ratio (x) = 0.18200 0.28856
# Poissons Ratio (y) = 0.27511 0.27379
# Poissons Ratio (z) = 0.68586 0.43051
#
# Static dielectric constant tensor:
#      x y z
#    x 1.908320 0.000000 -0.003000 
#    y 0.000000 1.896840 0.000000 
#    z -0.003000 0.000000 1.813160 
# 
# From -- ./inp_files/3351.got.cif
#   From: 2010.05.17/outbox.cif.g08.bks.cpg/sg4_2_cif.got.tgz:3351.got - 2010.06.03 18:43:04.
