data_PCOD9118453
_publ_section_title
;
Structure prediction by ZEFSAII (Michael W. Deem and Ramdas Pophale) SiO2 
 PCOD9118453
Probable space group: P 21
;
_chemical_formula_sum "Si O2"
_cell_formula_units_Z 10
_cell_length_a 8.682096
_cell_length_b 7.941476
_cell_length_c 5.078257
_cell_angle_alpha 90.000000
_cell_angle_beta 80.697498
_cell_angle_gamma 90.000000
_cell_volume 345.534203
_symmetry_space_group_name_H-M "P 21"
_symmetry_group_IT_number 4
_symmetry_cell_setting 'monoclinic'
loop_
_space_group_symop_operation_xyz
x,y,z
-x,1/2+y,-z
loop_
_atom_site_type_symbol
_atom_site_label
_atom_site_fract_x
_atom_site_fract_y
_atom_site_fract_z
Si Si1 0.030837 0.048220 0.969568
Si Si2 0.465823 0.568816 0.710891
Si Si3 0.654545 0.422424 0.186690
Si Si4 0.177694 0.510330 0.468805
Si Si5 0.313241 0.258535 0.063365
O O1 0.949276 0.014906 0.268513
O O2 0.148811 0.204263 0.967719
O O3 0.908085 0.072628 0.771450
O O4 0.160007 0.902765 0.867703
O O5 0.598618 0.509838 0.468021
O O6 0.327019 0.616093 0.520066
O O7 0.376430 0.410642 0.867569
O O8 0.618059 0.562046 0.962168
O O9 0.546686 0.261064 0.162562
O O10 0.250799 0.332231 0.356315
#
# Coordination Sequence:
#
# PCOD9118453 Si02
#       5
#     2   2   2   2   2
#     4  10  28  52  79 119 166 221 273 353 412 510
#     4  12  25  53  84 120 161 231 281 349 415 509
#     4  10  27  50  82 118 171 214 288 338 430 487
#     4  12  27  51  86 120 163 225 285 340 433 489
#     4  10  27  52  77 121 173 217 279 354 412 515
#
# _framework density 28.940693
#
# number of rings (size 3 to 8) (size 9 to 14) (size 15 to 20)
#    1.200    0.000    2.000    1.200    8.400    1.600 
#    3.600    0.000    0.000    0.000    0.000    0.000 
#    0.000    0.000    0.000    0.000    0.000    0.000 
#
# Total GULP energy -56042.725176 kJ/mol
# GULP energy per Si atom -5604.272518 kJ/mol
# Density = 2.887482 g / cm^3
# Si number density = 28.940693 Si / 1000 Ang^3
#
#
#
# Elastic Constant Matrix: (Units=GPa)
#
#
# Indices 1 2 3 4 5 6 
#
# 1 90.0951 35.1177 51.8492 0.0000 -33.2624 0.0000
# 2 35.1177 161.7188 60.2045 0.0000 -1.1655 0.0000
# 3 51.8492 60.2045 237.4197 0.0000 -17.0105 0.0000
# 4 0.0000 0.0000 0.0000 51.9482 0.0000 11.9205
# 5 -33.2624 -1.1655 -17.0105 0.0000 59.7896 0.0000
# 6 0.0000 0.0000 0.0000 11.9205 0.0000 60.7901
#
#
#
# Elastic Compliance Matrix: (Units=1/GPa)
#
#
# Indices 1 2 3 4 5 6 
#
# 1 0.016647 -0.002681 -0.002344 0.000000 0.008542 0.000000
# 2 -0.002681 0.007268 -0.001382 0.000000 -0.001743 0.000000
# 3 -0.002344 -0.001382 0.005083 0.000000 0.000115 0.000000
# 4 0.000000 0.000000 0.000000 0.020157 0.000000 -0.003953
# 5 0.008542 -0.001743 0.000115 0.000000 0.021476 0.000000
# 6 0.000000 0.000000 0.000000 -0.003953 0.000000 0.017225
#
#
# Mechanical properties :
#
#
# Convention : Reuss Voigt Hill
#
# Bulk Modulus (GPa) = 61.79174 87.06403 74.42788
# Shear Modulus (GPa) = 47.14161 57.30973 52.22567
#
# Velocity S-wave (km/s) = 4.04035 4.45482 4.25264
# Velocity P-wave (km/s) = 6.56988 7.52393 7.06303
#
# Compressibility (1/GPa) = 0.01618339
#
# Stress axis : x y z
#
# Youngs Moduli (GPa) = 60.07206 137.59330 196.75121
#
# Poissons Ratio (x) = 0.36887 0.46111
# Poissons Ratio (y) = 0.16104 0.27198
# Poissons Ratio (z) = 0.14078 0.19021
#
# Static dielectric constant tensor:
#      x y z
#    x 2.699900 0.000000 0.206580 
#    y 0.000000 2.435880 0.000000 
#    z 0.206580 0.000000 2.174550 
# 
# From -- ./inp_files/1052.got.cif
#   From: 2010.05.17/outbox.cif.g08.bks.cpg/sg4_1_cif.got.tgz:1052.got - 2010.06.03 18:43:04.
