data_PCOD9118789
_publ_section_title
;
Structure prediction by ZEFSAII (Michael W. Deem and Ramdas Pophale) SiO2 
 PCOD9118789
Probable space group: P 21
;
_chemical_formula_sum "Si O2"
_cell_formula_units_Z 14
_cell_length_a 8.726209
_cell_length_b 10.016767
_cell_length_c 11.689538
_cell_angle_alpha 90.000000
_cell_angle_beta 35.880157
_cell_angle_gamma 90.000000
_cell_volume 598.847392
_symmetry_space_group_name_H-M "P 21"
_symmetry_group_IT_number 4
_symmetry_cell_setting 'monoclinic'
loop_
_space_group_symop_operation_xyz
x,y,z
-x,1/2+y,-z
loop_
_atom_site_type_symbol
_atom_site_label
_atom_site_fract_x
_atom_site_fract_y
_atom_site_fract_z
Si Si1 0.170637 0.471700 0.525879
Si Si2 0.444365 0.731397 0.737502
Si Si3 0.628197 0.062818 0.812643
Si Si4 0.253227 0.726973 0.595233
Si Si5 0.605680 0.931220 0.242577
Si Si6 0.870083 0.421214 0.927804
Si Si7 0.331085 0.311374 0.044418
O O1 0.314838 0.333718 0.409564
O O2 0.146140 0.548653 0.419417
O O3 0.332473 0.579535 0.503949
O O4 0.938627 0.433402 0.752365
O O5 0.313269 0.745532 0.692033
O O6 0.510238 0.577179 0.711217
O O7 0.247384 0.782915 0.954334
O O8 0.652178 0.940619 0.885440
O O9 0.565753 0.203513 0.908395
O O10 0.355215 0.029537 0.911208
O O11 0.408146 0.837774 0.431151
O O12 0.944191 0.740886 0.760811
O O13 0.869268 0.947185 0.157516
O O14 0.672974 0.862370 0.082698
#
# Coordination Sequence:
#
# PCOD9118789 Si02
#       7
#     2   2   2   2   2   2   2
#     4  11  23  44  70 101 143 181 226 297 347 415
#     4  11  23  39  70 114 138 180 233 287 363 419
#     4  11  27  48  69  99 143 193 235 283 354 420
#     4  12  22  45  70 106 143 182 231 296 357 412
#     4  12  25  43  73 107 143 180 237 296 351 420
#     4  11  23  43  75 100 143 180 228 295 351 410
#     4  12  27  48  69 101 143 190 236 288 353 422
#
# _framework density 23.378245
#
# number of rings (size 3 to 8) (size 9 to 14) (size 15 to 20)
#    0.000    0.571    7.143    0.000    4.000    2.286 
#    0.000    0.000    0.000    0.000    0.000    0.000 
#    0.000    0.000    0.000    0.000    0.000    0.000 
#
# Total GULP energy -78295.741662 kJ/mol
# GULP energy per Si atom -5592.552976 kJ/mol
# Density = 2.332504 g / cm^3
# Si number density = 23.378245 Si / 1000 Ang^3
#
#
#
# Elastic Constant Matrix: (Units=GPa)
#
#
# Indices 1 2 3 4 5 6 
#
# 1 58.8320 11.6837 33.3687 0.0000 18.9288 0.0000
# 2 11.6837 112.3226 34.7223 0.0000 5.7961 0.0000
# 3 33.3687 34.7223 141.7352 0.0000 35.3320 0.0000
# 4 0.0000 0.0000 0.0000 45.6334 0.0000 11.7450
# 5 18.9288 5.7961 35.3320 0.0000 36.9320 0.0000
# 6 0.0000 0.0000 0.0000 11.7450 0.0000 34.7117
#
#
#
# Elastic Compliance Matrix: (Units=1/GPa)
#
#
# Indices 1 2 3 4 5 6 
#
# 1 0.021381 -0.000948 -0.002767 0.000000 -0.008163 0.000000
# 2 -0.000948 0.009701 -0.002489 0.000000 0.001344 0.000000
# 3 -0.002767 -0.002489 0.010329 0.000000 -0.008073 0.000000
# 4 0.000000 0.000000 0.000000 0.024004 0.000000 -0.008122
# 5 -0.008163 0.001344 -0.008073 0.000000 0.038773 0.000000
# 6 0.000000 0.000000 0.000000 -0.008122 0.000000 0.031557
#
#
# Mechanical properties :
#
#
# Convention : Reuss Voigt Hill
#
# Bulk Modulus (GPa) = 34.47586 52.49326 43.48456
# Shear Modulus (GPa) = 31.68169 38.99643 35.33906
#
# Velocity S-wave (km/s) = 3.68527 4.08863 3.89218
# Velocity P-wave (km/s) = 5.73474 6.69267 6.23214
#
# Compressibility (1/GPa) = 0.02900581
#
# Stress axis : x y z
#
# Youngs Moduli (GPa) = 46.76961 103.07749 96.81643
#
# Poissons Ratio (x) = 0.09767 0.26787
# Poissons Ratio (y) = 0.04432 0.24094
# Poissons Ratio (z) = 0.12940 0.25652
#
# Static dielectric constant tensor:
#      x y z
#    x 1.879750 0.000000 0.001840 
#    y 0.000000 1.882460 0.000000 
#    z 0.001840 0.000000 1.877940 
# 
# From -- ./inp_files/7603.got.cif
#   From: 2010.05.17/outbox.cif.g08.bks.cpg/sg4_4_cif.got.tgz:7603.got - 2010.06.03 18:43:04.
