data_PCOD9118784
_publ_section_title
;
Structure prediction by ZEFSAII (Michael W. Deem and Ramdas Pophale) SiO2 
 PCOD9118784
Probable space group: P 21
;
_chemical_formula_sum "Si O2"
_cell_formula_units_Z 16
_cell_length_a 11.978769
_cell_length_b 7.010366
_cell_length_c 8.915676
_cell_angle_alpha 90.000000
_cell_angle_beta 119.513625
_cell_angle_gamma 90.000000
_cell_volume 651.546609
_symmetry_space_group_name_H-M "P 21"
_symmetry_group_IT_number 4
_symmetry_cell_setting 'monoclinic'
loop_
_space_group_symop_operation_xyz
x,y,z
-x,1/2+y,-z
loop_
_atom_site_type_symbol
_atom_site_label
_atom_site_fract_x
_atom_site_fract_y
_atom_site_fract_z
Si Si1 0.560752 0.363770 0.967679
Si Si2 0.172344 0.933875 0.730168
Si Si3 0.883322 0.980995 0.244441
Si Si4 0.624874 0.941303 0.905766
Si Si5 0.898133 0.955882 0.593118
Si Si6 0.844006 0.537600 0.632568
Si Si7 0.620063 0.677519 0.618233
Si Si8 0.619995 0.995794 0.402904
O O1 0.594158 0.167469 0.903103
O O2 0.450993 0.474234 0.802057
O O3 0.695893 0.467167 0.092444
O O4 0.492639 0.344095 0.083518
O O5 0.140976 0.707281 0.733240
O O6 0.042235 0.031188 0.708306
O O7 0.186966 0.985616 0.562829
O O8 0.016551 0.948471 0.246828
O O9 0.896078 0.892849 0.417541
O O10 0.758923 0.911319 0.078363
O O11 0.641467 0.839719 0.757206
O O12 0.877423 0.763842 0.672376
O O13 0.764911 0.073008 0.515537
O O14 0.727217 0.512525 0.671458
O O15 0.480292 0.600044 0.558387
O O16 0.625579 0.778306 0.462114
#
# Coordination Sequence:
#
# PCOD9118784 Si02
#       8
#     2   2   2   2   2   2   2   2
#     4  11  23  38  65  96 125 168 218 276 310 373
#     4   9  20  35  63  92 121 154 213 264 314 367
#     4   9  18  38  62  92 122 164 212 270 311 369
#     4  11  23  39  63  96 131 168 217 265 322 376
#     4   9  18  36  59  88 122 159 207 267 314 366
#     4   9  20  38  61  90 127 166 209 258 324 383
#     4  11  25  40  60  93 135 175 208 263 325 397
#     4  11  23  40  61  91 129 172 218 257 330 377
#
# _framework density 24.556954999999999
#
# number of rings (size 3 to 8) (size 9 to 14) (size 15 to 20)
#    0.000    2.000    1.250    1.500    7.000    1.000 
#    0.000    5.000    0.000    1.500    0.000    0.000 
#    0.000    0.000    0.000    0.000    0.000    0.000 
#
# Total GULP energy -89284.945140 kJ/mol
# GULP energy per Si atom -5580.309071 kJ/mol
# Density = 2.450106 g / cm^3
# Si number density = 24.556955 Si / 1000 Ang^3
#
#
#
# Elastic Constant Matrix: (Units=GPa)
#
#
# Indices 1 2 3 4 5 6 
#
# 1 203.6487 31.7814 56.8069 0.0000 36.6037 0.0000
# 2 31.7814 78.3791 10.5250 0.0000 6.6537 0.0000
# 3 56.8069 10.5250 80.6694 0.0000 34.1608 0.0000
# 4 0.0000 0.0000 0.0000 27.8681 0.0000 -11.2299
# 5 36.6037 6.6537 34.1608 0.0000 38.1149 0.0000
# 6 0.0000 0.0000 0.0000 -11.2299 0.0000 32.0610
#
#
#
# Elastic Compliance Matrix: (Units=1/GPa)
#
#
# Indices 1 2 3 4 5 6 
#
# 1 0.006668 -0.002015 -0.003014 0.000000 -0.003351 0.000000
# 2 -0.002015 0.013629 -0.000276 0.000000 -0.000197 0.000000
# 3 -0.003014 -0.000276 0.021449 0.000000 -0.016282 0.000000
# 4 0.000000 0.000000 0.000000 0.041780 0.000000 0.014634
# 5 -0.003351 -0.000197 -0.016282 0.000000 0.044081 0.000000
# 6 0.000000 0.000000 0.000000 0.014634 0.000000 0.036316
#
#
# Mechanical properties :
#
#
# Convention : Reuss Voigt Hill
#
# Bulk Modulus (GPa) = 32.11559 62.32487 47.22023
# Shear Modulus (GPa) = 27.03994 37.18109 32.11051
#
# Velocity S-wave (km/s) = 3.32190 3.89533 3.61999
# Velocity P-wave (km/s) = 5.27444 6.75769 6.06160
#
# Compressibility (1/GPa) = 0.03113753
#
# Stress axis : x y z
#
# Youngs Moduli (GPa) = 149.97713 73.37206 46.62178
#
# Poissons Ratio (x) = 0.14781 0.14050
# Poissons Ratio (y) = 0.30213 0.01287
# Poissons Ratio (z) = 0.45197 0.02026
#
# Static dielectric constant tensor:
#      x y z
#    x 2.013030 0.000000 0.050060 
#    y 0.000000 2.067330 0.000000 
#    z 0.050060 0.000000 1.956940 
# 
# From -- ./inp_files/8032.got.cif
#   From: 2010.05.17/outbox.cif.g08.bks.cpg/sg4_5_cif.got.tgz:8032.got - 2010.06.03 18:43:04.
