data_PCOD9118904
_publ_section_title
;
Structure prediction by ZEFSAII (Michael W. Deem and Ramdas Pophale) SiO2 
 PCOD9118904
Probable space group: P 21
;
_chemical_formula_sum "Si O2"
_cell_formula_units_Z 16
_cell_length_a 9.649226
_cell_length_b 4.985850
_cell_length_c 20.289828
_cell_angle_alpha 90.000000
_cell_angle_beta 41.229233
_cell_angle_gamma 90.000000
_cell_volume 643.344730
_symmetry_space_group_name_H-M "P 21"
_symmetry_group_IT_number 4
_symmetry_cell_setting 'monoclinic'
loop_
_space_group_symop_operation_xyz
x,y,z
-x,1/2+y,-z
loop_
_atom_site_type_symbol
_atom_site_label
_atom_site_fract_x
_atom_site_fract_y
_atom_site_fract_z
Si Si1 0.885991 0.698150 0.461709
Si Si2 0.028177 0.822595 0.123608
Si Si3 0.281684 0.927898 0.361013
Si Si4 0.464812 0.515518 0.468788
Si Si5 0.684014 0.732449 0.143253
Si Si6 0.412908 0.740757 0.906338
Si Si7 0.874598 0.320243 0.255202
Si Si8 0.883067 0.771127 0.706660
O O1 0.712364 0.565079 0.570687
O O2 0.766064 0.957956 0.477186
O O3 0.990072 0.530139 0.365382
O O4 0.088661 0.723260 0.436018
O O5 0.905891 0.754366 0.099623
O O6 0.990818 0.590396 0.190353
O O7 0.920736 0.098465 0.184137
O O8 0.273371 0.828351 0.018089
O O9 0.196767 0.107440 0.329518
O O10 0.498716 0.799885 0.261406
O O11 0.504909 0.813162 0.480189
O O12 0.640250 0.420808 0.354239
O O13 0.655084 0.432056 0.129316
O O14 0.641569 0.938678 0.098040
O O15 0.659997 0.800568 0.824125
O O16 0.964532 0.180767 0.289182
#
# Coordination Sequence:
#
# PCOD9118904 Si02
#       8
#     2   2   2   2   2   2   2   2
#     4  12  23  42  68  98 137 177 231 280 340 406
#     4  12  26  45  70 103 138 177 233 281 339 406
#     4  11  24  40  69  99 134 177 227 289 340 404
#     4  12  26  45  70  98 138 186 226 269 343 414
#     4  11  23  44  71 101 139 171 227 282 350 404
#     4  11  24  44  75 100 132 182 224 289 347 396
#     4  12  27  45  68  99 141 183 226 281 334 414
#     4  11  25  45  65  96 137 179 230 281 345 404
#
# _framework density 24.870023
#
# number of rings (size 3 to 8) (size 9 to 14) (size 15 to 20)
#    0.000    0.500    3.750    4.500    1.750    3.000 
#    0.000    0.000    0.000    0.000    0.000    0.000 
#    0.000    0.000    0.000    0.000    0.000    0.000 
#
# Total GULP energy -89524.952382 kJ/mol
# GULP energy per Si atom -5595.309524 kJ/mol
# Density = 2.481342 g / cm^3
# Si number density = 24.870023 Si / 1000 Ang^3
#
#
#
# Elastic Constant Matrix: (Units=GPa)
#
#
# Indices 1 2 3 4 5 6 
#
# 1 72.9905 -1.6464 9.5578 0.0000 -11.7753 0.0000
# 2 -1.6464 56.8782 11.0380 0.0000 -1.2790 0.0000
# 3 9.5578 11.0380 131.7454 0.0000 -41.1139 0.0000
# 4 0.0000 0.0000 0.0000 35.9839 0.0000 11.1966
# 5 -11.7753 -1.2790 -41.1139 0.0000 31.8126 0.0000
# 6 0.0000 0.0000 0.0000 11.1966 0.0000 38.0597
#
#
#
# Elastic Compliance Matrix: (Units=1/GPa)
#
#
# Indices 1 2 3 4 5 6 
#
# 1 0.014666 0.000380 0.001011 0.000000 0.006750 0.000000
# 2 0.000380 0.017961 -0.002117 0.000000 -0.001873 0.000000
# 3 0.001011 -0.002117 0.013046 0.000000 0.017150 0.000000
# 4 0.000000 0.000000 0.000000 0.030590 0.000000 -0.008999
# 5 0.006750 -0.001873 0.017150 0.000000 0.056021 0.000000
# 6 0.000000 0.000000 0.000000 -0.008999 0.000000 0.028922
#
#
# Mechanical properties :
#
#
# Convention : Reuss Voigt Hill
#
# Bulk Modulus (GPa) = 22.61381 33.27923 27.94652
# Shear Modulus (GPa) = 28.18499 37.34890 32.76694
#
# Velocity S-wave (km/s) = 3.37009 3.87946 3.63371
# Velocity P-wave (km/s) = 4.92503 5.78596 5.37276
#
# Compressibility (1/GPa) = 0.04422077
#
# Stress axis : x y z
#
# Youngs Moduli (GPa) = 68.18694 55.67578 76.64933
#
# Poissons Ratio (x) = -0.02117 -0.07746
# Poissons Ratio (y) = -0.02592 0.16226
# Poissons Ratio (z) = -0.06891 0.11786
#
# Static dielectric constant tensor:
#      x y z
#    x 1.896110 0.000000 0.005210 
#    y 0.000000 2.018190 0.000000 
#    z 0.005210 0.000000 2.034190 
# 
# From -- ./inp_files/9549.got.cif
#   From: 2010.05.17/outbox.cif.g08.bks.cpg/sg4_5_cif.got.tgz:9549.got - 2010.06.03 18:43:04.
