data_PCOD9118409
_publ_section_title
;
Structure prediction by ZEFSAII (Michael W. Deem and Ramdas Pophale) SiO2 
 PCOD9118409
Probable space group: P 21
;
_chemical_formula_sum "Si O2"
_cell_formula_units_Z 14
_cell_length_a 12.087257
_cell_length_b 8.963675
_cell_length_c 12.155899
_cell_angle_alpha 90.000000
_cell_angle_beta 154.204518
_cell_angle_gamma 90.000000
_cell_volume 573.125871
_symmetry_space_group_name_H-M "P 21"
_symmetry_group_IT_number 4
_symmetry_cell_setting 'monoclinic'
loop_
_space_group_symop_operation_xyz
x,y,z
-x,1/2+y,-z
loop_
_atom_site_type_symbol
_atom_site_label
_atom_site_fract_x
_atom_site_fract_y
_atom_site_fract_z
Si Si1 0.078056 0.915320 0.243058
Si Si2 0.357897 0.160550 0.907388
Si Si3 0.159599 0.432918 0.198108
Si Si4 0.804382 0.205436 0.457394
Si Si5 0.704195 0.136265 0.011256
Si Si6 0.044506 0.926788 0.747293
Si Si7 0.506718 0.674078 0.411247
O O1 0.198790 0.791083 0.429603
O O2 0.981321 0.871559 0.035921
O O3 0.270119 0.051918 0.398288
O O4 0.837131 0.984377 0.092608
O O5 0.569104 0.242886 0.170047
O O6 0.491111 0.123211 0.912512
O O7 0.081870 0.238813 0.651886
O O8 0.284181 0.011290 0.909023
O O9 0.283982 0.588986 0.275575
O O10 0.381122 0.318342 0.430270
O O11 0.983317 0.448294 0.146771
O O12 0.819063 0.026823 0.493677
O O13 0.585045 0.205445 0.794125
O O14 0.921460 0.252763 0.244435
#
# Coordination Sequence:
#
# PCOD9118409 Si02
#       7
#     2   2   2   2   2   2   2
#     4  11  27  45  72 105 152 185 251 306 374 442
#     4  10  27  45  78 106 152 192 246 305 370 444
#     4  11  27  46  70 110 142 201 243 311 373 444
#     4  10  27  44  73 110 142 202 238 304 366 444
#     4  11  26  47  70 111 140 198 246 309 372 438
#     4  10  26  45  73 103 150 191 255 295 376 440
#     4  11  28  44  76 101 150 193 247 312 369 448
#
# _framework density 24.427443
#
# number of rings (size 3 to 8) (size 9 to 14) (size 15 to 20)
#    0.857    0.571    1.429    0.000   16.000    1.143 
#    0.000    0.000    0.000    0.000    0.000    0.000 
#    0.000    0.000    0.000    0.000    0.000    0.000 
#
# Total GULP energy -78345.459625 kJ/mol
# GULP energy per Si atom -5596.104259 kJ/mol
# Density = 2.437185 g / cm^3
# Si number density = 24.427443 Si / 1000 Ang^3
#
#
#
# Elastic Constant Matrix: (Units=GPa)
#
#
# Indices 1 2 3 4 5 6 
#
# 1 168.2387 38.5965 15.6759 0.0000 3.5549 0.0000
# 2 38.5965 75.6095 30.2998 0.0000 3.8559 0.0000
# 3 15.6759 30.2998 102.1326 0.0000 -14.0511 0.0000
# 4 0.0000 0.0000 0.0000 30.2254 0.0000 14.0897
# 5 3.5549 3.8559 -14.0511 0.0000 26.3485 0.0000
# 6 0.0000 0.0000 0.0000 14.0897 0.0000 21.9978
#
#
#
# Elastic Compliance Matrix: (Units=1/GPa)
#
#
# Indices 1 2 3 4 5 6 
#
# 1 0.006737 -0.003377 -0.000096 0.000000 -0.000466 0.000000
# 2 -0.003377 0.017322 -0.005295 0.000000 -0.004903 0.000000
# 3 -0.000096 -0.005295 0.012395 0.000000 0.007398 0.000000
# 4 0.000000 0.000000 0.000000 0.047168 0.000000 -0.030211
# 5 -0.000466 -0.004903 0.007398 0.000000 0.042678 0.000000
# 6 0.000000 0.000000 0.000000 -0.030211 0.000000 0.064809
#
#
# Mechanical properties :
#
#
# Convention : Reuss Voigt Hill
#
# Bulk Modulus (GPa) = 52.86248 57.23612 55.04930
# Shear Modulus (GPa) = 23.26103 33.14157 28.20130
#
# Velocity S-wave (km/s) = 3.08920 3.68738 3.40147
# Velocity P-wave (km/s) = 5.86616 6.45066 6.16534
#
# Compressibility (1/GPa) = 0.01891701
#
# Stress axis : x y z
#
# Youngs Moduli (GPa) = 148.42356 57.73131 80.67999
#
# Poissons Ratio (x) = 0.19495 0.00778
# Poissons Ratio (y) = 0.50121 0.42721
# Poissons Ratio (z) = 0.01431 0.30569
#
# Static dielectric constant tensor:
#      x y z
#    x 1.921670 0.000000 0.025110 
#    y 0.000000 1.952720 0.000000 
#    z 0.025110 0.000000 1.950800 
# 
# From -- ./inp_files/12068.got.cif
#   From: 2010.05.17/outbox.cif.g08.bks.cpg/sg4_7_cif.got.tgz:12068.got - 2010.06.03 18:43:04.
