data_PCOD9118630
_publ_section_title
;
Structure prediction by ZEFSAII (Michael W. Deem and Ramdas Pophale) SiO2 
 PCOD9118630
Probable space group: P 21
;
_chemical_formula_sum "Si O2"
_cell_formula_units_Z 16
_cell_length_a 10.051140
_cell_length_b 5.954766
_cell_length_c 21.533586
_cell_angle_alpha 90.000000
_cell_angle_beta 145.696252
_cell_angle_gamma 90.000000
_cell_volume 726.360169
_symmetry_space_group_name_H-M "P 21"
_symmetry_group_IT_number 4
_symmetry_cell_setting 'monoclinic'
loop_
_space_group_symop_operation_xyz
x,y,z
-x,1/2+y,-z
loop_
_atom_site_type_symbol
_atom_site_label
_atom_site_fract_x
_atom_site_fract_y
_atom_site_fract_z
Si Si1 0.349523 0.485960 0.788746
Si Si2 0.146427 0.027839 0.356150
Si Si3 0.070702 0.373241 0.221099
Si Si4 0.446195 0.753977 0.255059
Si Si5 0.483721 0.709109 0.404079
Si Si6 0.625043 0.864387 0.855188
Si Si7 0.976637 0.562946 0.917486
Si Si8 0.584228 0.520349 0.009700
O O1 0.427400 0.367446 0.755154
O O2 0.389169 0.748882 0.788420
O O3 0.088844 0.413558 0.707924
O O4 0.523138 0.465438 0.914569
O O5 0.050671 0.221259 0.274150
O O6 0.298913 0.131399 0.470588
O O7 0.319903 0.873730 0.381852
O O8 0.318319 0.498620 0.322570
O O9 0.040338 0.212432 0.150156
O O10 0.858313 0.547573 0.132237
O O11 0.554147 0.806026 0.363824
O O12 0.435407 0.497413 0.230288
O O13 0.176915 0.841454 0.154370
O O14 0.828552 0.686978 0.914542
O O15 0.759912 0.014900 0.957872
O O16 0.481494 0.773717 0.984185
#
# Coordination Sequence:
#
# PCOD9118630 Si02
#       8
#     2   2   2   2   2   2   2   2
#     4  11  28  46  70 110 156 194 241 315 390 462
#     4  12  26  51  73 103 142 189 259 314 380 450
#     4  12  25  41  73 104 139 191 248 311 365 456
#     4  11  24  44  69 104 146 189 247 309 370 455
#     4  12  26  48  77 101 135 197 261 318 373 453
#     4  11  23  40  65 104 149 193 239 297 376 447
#     4  11  22  37  66 105 142 190 243 293 365 449
#     4  12  28  47  73 113 159 203 248 311 397 468
#
# _framework density 22.027640000000002
#
# number of rings (size 3 to 8) (size 9 to 14) (size 15 to 20)
#    0.000    0.500    6.250    1.500    7.000    1.000 
#    2.250    0.000    0.000    0.000    0.000    0.000 
#    0.000    0.000    0.000    0.000    0.000    0.000 
#
# Total GULP energy -89357.209180 kJ/mol
# GULP energy per Si atom -5584.825574 kJ/mol
# Density = 2.197750 g / cm^3
# Si number density = 22.027640 Si / 1000 Ang^3
#
#
#
# Elastic Constant Matrix: (Units=GPa)
#
#
# Indices 1 2 3 4 5 6 
#
# 1 101.4093 25.9817 39.5710 0.0000 -31.7878 0.0000
# 2 25.9817 54.4579 3.7598 0.0000 -9.2907 0.0000
# 3 39.5710 3.7598 100.8237 0.0000 -28.2952 0.0000
# 4 0.0000 0.0000 0.0000 28.7402 0.0000 -4.7641
# 5 -31.7878 -9.2907 -28.2952 0.0000 37.0193 0.0000
# 6 0.0000 0.0000 0.0000 -4.7641 0.0000 44.7547
#
#
#
# Elastic Compliance Matrix: (Units=1/GPa)
#
#
# Indices 1 2 3 4 5 6 
#
# 1 0.015509 -0.005564 -0.003226 0.000000 0.009455 0.000000
# 2 -0.005564 0.021232 0.001969 0.000000 0.002056 0.000000
# 3 -0.003226 0.001969 0.013332 0.000000 0.007914 0.000000
# 4 0.000000 0.000000 0.000000 0.035419 0.000000 0.003770
# 5 0.009455 0.002056 0.007914 0.000000 0.041697 0.000000
# 6 0.000000 0.000000 0.000000 0.003770 0.000000 0.022745
#
#
# Mechanical properties :
#
#
# Convention : Reuss Voigt Hill
#
# Bulk Modulus (GPa) = 27.44848 43.92400 35.68624
# Shear Modulus (GPa) = 28.45426 34.59473 31.52450
#
# Velocity S-wave (km/s) = 3.59800 3.96727 3.78714
# Velocity P-wave (km/s) = 5.45424 6.40073 5.94635
#
# Compressibility (1/GPa) = 0.03643189
#
# Stress axis : x y z
#
# Youngs Moduli (GPa) = 64.47803 47.09876 75.00734
#
# Poissons Ratio (x) = 0.26203 0.24197
# Poissons Ratio (y) = 0.35872 -0.14768
# Poissons Ratio (z) = 0.20800 -0.09273
#
# Static dielectric constant tensor:
#      x y z
#    x 1.888760 0.000000 -0.002490 
#    y 0.000000 1.917600 0.000000 
#    z -0.002490 0.000000 1.748490 
# 
# From -- ./inp_files/11590.got.cif
#   From: 2010.05.17/outbox.cif.g08.bks.cpg/sg4_6_cif.got.tgz:11590.got - 2010.06.03 18:43:04.
