data_PCOD9118730
_publ_section_title
;
Structure prediction by ZEFSAII (Michael W. Deem and Ramdas Pophale) SiO2 
 PCOD9118730
Probable space group: P 21
;
_chemical_formula_sum "Si O2"
_cell_formula_units_Z 16
_cell_length_a 10.818911
_cell_length_b 9.866681
_cell_length_c 10.663515
_cell_angle_alpha 90.000000
_cell_angle_beta 143.440841
_cell_angle_gamma 90.000000
_cell_volume 678.028524
_symmetry_space_group_name_H-M "P 21"
_symmetry_group_IT_number 4
_symmetry_cell_setting 'monoclinic'
loop_
_space_group_symop_operation_xyz
x,y,z
-x,1/2+y,-z
loop_
_atom_site_type_symbol
_atom_site_label
_atom_site_fract_x
_atom_site_fract_y
_atom_site_fract_z
Si Si1 0.771941 0.227700 0.903403
Si Si2 0.575868 0.673648 0.970580
Si Si3 0.308035 0.899212 0.796512
Si Si4 0.934975 0.787075 0.622761
Si Si5 0.933709 0.688678 0.084114
Si Si6 0.721971 0.074739 0.477437
Si Si7 0.333944 0.990532 0.284487
Si Si8 0.616472 0.544422 0.392653
O O1 0.617805 0.349798 0.743446
O O2 0.621680 0.097386 0.787660
O O3 0.941752 0.250637 0.930736
O O4 0.901164 0.245780 0.135189
O O5 0.484515 0.791564 0.984031
O O6 0.377683 0.612414 0.735795
O O7 0.680493 0.542251 0.119956
O O8 0.730849 0.737347 0.993063
O O9 0.085022 0.829270 0.630742
O O10 0.361233 0.934011 0.697091
O O11 0.769967 0.666845 0.476730
O O12 0.817980 0.925463 0.560388
O O13 0.098747 0.670200 0.327786
O O14 0.853089 0.551854 0.949438
O O15 0.532736 0.084692 0.421294
O O16 0.305026 0.990658 0.408881
#
# Coordination Sequence:
#
# PCOD9118730 Si02
#       8
#     2   2   2   2   2   2   2   2
#     4  12  24  44  76 108 146 183 243 313 378 440
#     4  11  28  50  72 108 147 199 253 309 368 446
#     4  12  29  51  72 105 153 204 259 301 361 450
#     4  12  25  47  73 104 144 204 245 299 372 440
#     4  11  23  43  73 107 141 180 238 306 376 436
#     4  11  22  44  76 101 143 186 235 309 379 432
#     4  11  23  42  70 111 143 182 238 302 378 443
#     4  12  28  45  72 110 151 198 245 309 370 449
#
# _framework density 23.597826000000001
#
# number of rings (size 3 to 8) (size 9 to 14) (size 15 to 20)
#    0.000    0.500    6.250    1.500    5.250    2.000 
#    2.250    0.000    0.000    0.000    0.000    0.000 
#    0.000    0.000    0.000    0.000    0.000    0.000 
#
# Total GULP energy -89373.795734 kJ/mol
# GULP energy per Si atom -5585.862233 kJ/mol
# Density = 2.354412 g / cm^3
# Si number density = 23.597826 Si / 1000 Ang^3
#
#
#
# Elastic Constant Matrix: (Units=GPa)
#
#
# Indices 1 2 3 4 5 6 
#
# 1 78.2274 8.7764 38.0498 0.0000 9.2762 0.0000
# 2 8.7764 47.8431 15.6320 0.0000 6.5758 0.0000
# 3 38.0498 15.6320 74.9450 0.0000 3.2549 0.0000
# 4 0.0000 0.0000 0.0000 32.7370 0.0000 4.4553
# 5 9.2762 6.5758 3.2549 0.0000 34.1016 0.0000
# 6 0.0000 0.0000 0.0000 4.4553 0.0000 39.5369
#
#
#
# Elastic Compliance Matrix: (Units=1/GPa)
#
#
# Indices 1 2 3 4 5 6 
#
# 1 0.017485 0.000194 -0.008746 0.000000 -0.003959 0.000000
# 2 0.000194 0.022960 -0.004712 0.000000 -0.004030 0.000000
# 3 -0.008746 -0.004712 0.018701 0.000000 0.001503 0.000000
# 4 0.000000 0.000000 0.000000 0.031022 0.000000 -0.003496
# 5 -0.003959 -0.004030 0.001503 0.000000 0.031035 0.000000
# 6 0.000000 0.000000 0.000000 -0.003496 0.000000 0.025687
#
#
# Mechanical properties :
#
#
# Convention : Reuss Voigt Hill
#
# Bulk Modulus (GPa) = 30.65827 36.21466 33.43647
# Shear Modulus (GPa) = 27.13119 30.51224 28.82172
#
# Velocity S-wave (km/s) = 3.39445 3.59975 3.49860
# Velocity P-wave (km/s) = 5.32759 5.71467 5.52452
#
# Compressibility (1/GPa) = 0.03261763
#
# Stress axis : x y z
#
# Youngs Moduli (GPa) = 57.19253 43.55449 53.47314
#
# Poissons Ratio (x) = -0.00846 0.46766
# Poissons Ratio (y) = -0.01111 0.25199
# Poissons Ratio (z) = 0.50019 0.20525
#
# Static dielectric constant tensor:
#      x y z
#    x 1.932870 0.000000 0.040800 
#    y 0.000000 1.986080 0.000000 
#    z 0.040800 0.000000 1.869930 
# 
# From -- ./inp_files/12075.got.cif
#   From: 2010.05.17/outbox.cif.g08.bks.cpg/sg4_7_cif.got.tgz:12075.got - 2010.06.03 18:43:04.
