data_PCOD9118003
_publ_section_title
;
Structure prediction by ZEFSAII (Michael W. Deem and Ramdas Pophale) SiO2 
 PCOD9118003
Probable space group: P 21
;
_chemical_formula_sum "Si O2"
_cell_formula_units_Z 14
_cell_length_a 9.296854
_cell_length_b 8.528373
_cell_length_c 12.796984
_cell_angle_alpha 90.000000
_cell_angle_beta 36.941637
_cell_angle_gamma 90.000000
_cell_volume 609.796831
_symmetry_space_group_name_H-M "P 21"
_symmetry_group_IT_number 4
_symmetry_cell_setting 'monoclinic'
loop_
_space_group_symop_operation_xyz
x,y,z
-x,1/2+y,-z
loop_
_atom_site_type_symbol
_atom_site_label
_atom_site_fract_x
_atom_site_fract_y
_atom_site_fract_z
Si Si1 0.079351 0.547270 0.653265
Si Si2 0.647427 0.299816 0.920566
Si Si3 0.769988 0.494496 0.529889
Si Si4 0.887747 0.192928 0.581395
Si Si5 0.248054 0.442495 0.760531
Si Si6 0.887281 0.882152 0.833435
Si Si7 0.117031 0.651605 0.013870
O O1 0.845251 0.436798 0.792923
O O2 0.997674 0.712150 0.750100
O O3 0.174332 0.585065 0.482466
O O4 0.264047 0.471803 0.626809
O O5 0.711360 0.188244 0.783405
O O6 0.694877 0.221576 0.007411
O O7 0.382046 0.364762 0.054510
O O8 0.879561 0.365771 0.541924
O O9 0.509931 0.434659 0.656699
O O10 0.837925 0.656488 0.544897
O O11 0.932349 0.494800 0.333964
O O12 0.091579 0.283330 0.862522
O O13 0.157890 0.604027 0.869205
O O14 0.896635 0.970058 0.937860
#
# Coordination Sequence:
#
# PCOD9118003 Si02
#       7
#     2   2   2   2   2   2   2
#     4  10  24  43  67 103 143 182 242 292 363 426
#     4  11  22  42  72 104 146 177 246 305 346 430
#     4  11  25  43  72 101 145 178 243 292 359 427
#     4  11  22  44  68 107 130 188 233 302 353 419
#     4  11  26  48  68 105 147 191 236 299 355 441
#     4  11  23  41  71 105 136 190 233 295 357 411
#     4  11  24  45  72 101 145 192 239 291 367 422
#
# _framework density 22.958465
#
# number of rings (size 3 to 8) (size 9 to 14) (size 15 to 20)
#    0.000    1.143    2.857    2.571    4.000    2.286 
#    2.571    1.429    0.000    0.000    0.000    0.000 
#    0.000    0.000    0.000    0.000    0.000    0.000 
#
# Total GULP energy -77956.543200 kJ/mol
# GULP energy per Si atom -5568.324514 kJ/mol
# Density = 2.290621 g / cm^3
# Si number density = 22.958465 Si / 1000 Ang^3
#
#
#
# Elastic Constant Matrix: (Units=GPa)
#
#
# Indices 1 2 3 4 5 6 
#
# 1 119.9760 48.1776 37.1041 0.0000 17.8540 0.0000
# 2 48.1776 82.9463 16.1112 0.0000 -2.8265 0.0000
# 3 37.1041 16.1112 60.8564 0.0000 12.2095 0.0000
# 4 0.0000 0.0000 0.0000 27.1211 0.0000 5.3234
# 5 17.8540 -2.8265 12.2095 0.0000 10.6398 0.0000
# 6 0.0000 0.0000 0.0000 5.3234 0.0000 34.9888
#
#
#
# Elastic Compliance Matrix: (Units=1/GPa)
#
#
# Indices 1 2 3 4 5 6 
#
# 1 0.018006 -0.011177 -0.001769 0.000000 -0.031155 0.000000
# 2 -0.011177 0.020415 -0.004470 0.000000 0.029308 0.000000
# 3 -0.001769 -0.004470 0.023821 0.000000 -0.025554 0.000000
# 4 0.000000 0.000000 0.000000 0.038007 0.000000 -0.005783
# 5 -0.031155 0.029308 -0.025554 0.000000 0.183377 0.000000
# 6 0.000000 0.000000 0.000000 -0.005783 0.000000 0.029460
#
#
# Mechanical properties :
#
#
# Convention : Reuss Voigt Hill
#
# Bulk Modulus (GPa) = 36.48257 51.84049 44.16153
# Shear Modulus (GPa) = 14.00344 25.37564 19.68954
#
# Velocity S-wave (km/s) = 2.47239 3.32819 2.93168
# Velocity P-wave (km/s) = 4.90668 6.11541 5.54408
#
# Compressibility (1/GPa) = 0.02741035
#
# Stress axis : x y z
#
# Youngs Moduli (GPa) = 55.53553 48.98425 41.97955
#
# Poissons Ratio (x) = 0.54748 0.07427
# Poissons Ratio (y) = 0.62070 0.18766
# Poissons Ratio (z) = 0.09825 0.21897
#
# Static dielectric constant tensor:
#      x y z
#    x 1.962340 0.000000 0.113870 
#    y 0.000000 1.887000 0.000000 
#    z 0.113870 0.000000 1.990720 
# 
# From -- ./inp_files/10993.got.cif
#   From: 2010.05.17/outbox.cif.g08.bks.cpg/sg4_6_cif.got.tgz:10993.got - 2010.06.03 18:43:04.
