data_PCOD9118977
_publ_section_title
;
Structure prediction by ZEFSAII (Michael W. Deem and Ramdas Pophale) SiO2 
 PCOD9118977
Probable space group: P 21
;
_chemical_formula_sum "Si O2"
_cell_formula_units_Z 16
_cell_length_a 8.544433
_cell_length_b 8.064733
_cell_length_c 8.375140
_cell_angle_alpha 90.000000
_cell_angle_beta 85.652343
_cell_angle_gamma 90.000000
_cell_volume 575.458224
_symmetry_space_group_name_H-M "P 21"
_symmetry_group_IT_number 4
_symmetry_cell_setting 'monoclinic'
loop_
_space_group_symop_operation_xyz
x,y,z
-x,1/2+y,-z
loop_
_atom_site_type_symbol
_atom_site_label
_atom_site_fract_x
_atom_site_fract_y
_atom_site_fract_z
Si Si1 0.829839 0.035010 0.021842
Si Si2 0.638261 0.621077 0.603113
Si Si3 0.387929 0.856618 0.944948
Si Si4 0.302225 0.448396 0.286487
Si Si5 0.243717 0.067355 0.707653
Si Si6 0.070929 0.716397 0.409072
Si Si7 0.062917 0.082113 0.259139
Si Si8 0.589338 0.887825 0.245800
O O1 0.699153 0.180937 0.027826
O O2 0.761334 0.915530 0.162217
O O3 0.986564 0.099478 0.092085
O O4 0.819146 0.942445 0.854767
O O5 0.685491 0.814701 0.570578
O O6 0.704407 0.490432 0.467241
O O7 0.751019 0.611310 0.750221
O O8 0.468489 0.548901 0.652940
O O9 0.533454 0.896701 0.812886
O O10 0.257088 0.968218 0.868905
O O11 0.467793 0.884022 0.108395
O O12 0.235818 0.621007 0.364844
O O13 0.389182 0.200476 0.698197
O O14 0.069954 0.124524 0.677082
O O15 0.057182 0.897436 0.334153
O O16 0.023201 0.696626 0.599869
#
# Coordination Sequence:
#
# PCOD9118977 Si02
#       8
#     2   2   2   2   2   2   2   2
#     4  11  25  45  72 100 141 193 236 297 363 429
#     4  11  27  44  72 110 143 192 240 303 363 440
#     4  11  26  45  72 105 138 194 234 303 360 431
#     4  11  26  47  70 105 145 185 242 298 361 437
#     4  11  26  45  73 105 144 191 239 298 368 432
#     4  11  25  48  70 104 145 189 240 305 364 436
#     4  11  26  45  73 103 145 190 244 299 366 438
#     4  11  23  47  68 102 147 182 241 291 365 435
#
# _framework density 27.803927000000002
#
# number of rings (size 3 to 8) (size 9 to 14) (size 15 to 20)
#    0.000    1.000    2.500    3.000   12.250    2.000 
#    0.000    0.000    0.000    0.000    0.000    0.000 
#    0.000    0.000    0.000    0.000    0.000    0.000 
#
# Total GULP energy -89209.037008 kJ/mol
# GULP energy per Si atom -5575.564813 kJ/mol
# Density = 2.774064 g / cm^3
# Si number density = 27.803927 Si / 1000 Ang^3
#
#
#
# Elastic Constant Matrix: (Units=GPa)
#
#
# Indices 1 2 3 4 5 6 
#
# 1 88.9062 15.2827 43.9456 0.0000 12.4734 0.0000
# 2 15.2827 96.7629 33.6283 0.0000 11.2078 0.0000
# 3 43.9456 33.6283 55.6462 0.0000 22.5861 0.0000
# 4 0.0000 0.0000 0.0000 36.3562 0.0000 6.9828
# 5 12.4734 11.2078 22.5861 0.0000 52.7437 0.0000
# 6 0.0000 0.0000 0.0000 6.9828 0.0000 38.5381
#
#
#
# Elastic Compliance Matrix: (Units=1/GPa)
#
#
# Indices 1 2 3 4 5 6 
#
# 1 0.019311 0.002929 -0.018052 0.000000 0.002541 0.000000
# 2 0.002929 0.013550 -0.010956 0.000000 0.001120 0.000000
# 3 -0.018052 -0.010956 0.043780 0.000000 -0.012150 0.000000
# 4 0.000000 0.000000 0.000000 0.028497 0.000000 -0.005163
# 5 0.002541 0.001120 -0.012150 0.000000 0.023324 0.000000
# 6 0.000000 0.000000 0.000000 -0.005163 0.000000 0.026884
#
#
# Mechanical properties :
#
#
# Convention : Reuss Voigt Hill
#
# Bulk Modulus (GPa) = 40.84576 47.44763 44.14669
# Shear Modulus (GPa) = 23.18425 35.42487 29.30456
#
# Velocity S-wave (km/s) = 2.89078 3.57332 3.25002
# Velocity P-wave (km/s) = 5.08573 5.84183 5.47684
#
# Compressibility (1/GPa) = 0.02448234
#
# Stress axis : x y z
#
# Youngs Moduli (GPa) = 51.78497 73.80129 22.84168
#
# Poissons Ratio (x) = -0.21619 0.41233
# Poissons Ratio (y) = -0.15170 0.25026
# Poissons Ratio (z) = 0.93481 0.80860
#
# Static dielectric constant tensor:
#      x y z
#    x 2.156270 0.000000 -0.014320 
#    y 0.000000 2.464980 0.000000 
#    z -0.014320 0.000000 2.229890 
# 
# From -- ./inp_files/5663.got.cif
#   From: 2010.05.17/outbox.cif.g08.bks.cpg/sg4_3_cif.got.tgz:5663.got - 2010.06.03 18:43:04.
