data_PCOD9118192
_publ_section_title
;
Structure prediction by ZEFSAII (Michael W. Deem and Ramdas Pophale) SiO2 
 PCOD9118192
Probable space group: P 21
;
_chemical_formula_sum "Si O2"
_cell_formula_units_Z 14
_cell_length_a 9.144184
_cell_length_b 5.569921
_cell_length_c 13.241193
_cell_angle_alpha 90.000000
_cell_angle_beta 103.431334
_cell_angle_gamma 90.000000
_cell_volume 655.959838
_symmetry_space_group_name_H-M "P 21"
_symmetry_group_IT_number 4
_symmetry_cell_setting 'monoclinic'
loop_
_space_group_symop_operation_xyz
x,y,z
-x,1/2+y,-z
loop_
_atom_site_type_symbol
_atom_site_label
_atom_site_fract_x
_atom_site_fract_y
_atom_site_fract_z
Si Si1 0.416121 0.964600 0.248245
Si Si2 0.293102 0.670701 0.745484
Si Si3 0.325272 0.184151 0.437103
Si Si4 0.161810 0.717138 0.946101
Si Si5 0.496356 0.540401 0.342986
Si Si6 0.996803 0.098026 0.437641
Si Si7 0.189969 0.215464 0.069090
O O1 0.386658 0.683658 0.248962
O O2 0.583847 0.961242 0.230915
O O3 0.410923 0.024562 0.366961
O O4 0.309172 0.148409 0.175040
O O5 0.232836 0.721434 0.846646
O O6 0.152577 0.609751 0.652931
O O7 0.399276 0.868551 0.708547
O O8 0.377674 0.440335 0.406005
O O9 0.378453 0.147844 0.559806
O O10 0.150262 0.129408 0.399841
O O11 0.979779 0.713506 0.914844
O O12 0.208836 0.469616 0.012869
O O13 0.203069 0.972848 0.003246
O O14 0.994772 0.337517 0.507502
#
# Coordination Sequence:
#
# PCOD9118192 Si02
#       7
#     2   2   2   2   2   2   2
#     4  11  25  42  70  99 139 186 233 291 352 417
#     4  11  26  44  67 104 141 182 239 292 354 414
#     4  11  23  41  66  96 142 185 233 280 344 416
#     4  10  24  47  74 101 140 178 230 301 347 430
#     4  11  23  42  67 101 140 190 236 286 347 421
#     4  12  27  43  67 100 140 186 232 287 343 411
#     4  10  24  47  73 105 134 181 237 283 367 417
#
# _framework density 21.342768
#
# number of rings (size 3 to 8) (size 9 to 14) (size 15 to 20)
#    0.000    1.143    2.857    1.714   10.000    1.143 
#    2.571    0.000    0.000    0.000    0.000    0.000 
#    0.000    0.000    0.000    0.000    0.000    0.000 
#
# Total GULP energy -77956.248918 kJ/mol
# GULP energy per Si atom -5568.303494 kJ/mol
# Density = 2.129419 g / cm^3
# Si number density = 21.342768 Si / 1000 Ang^3
#
#
#
# Elastic Constant Matrix: (Units=GPa)
#
#
# Indices 1 2 3 4 5 6 
#
# 1 59.6487 9.0891 36.1678 0.0000 -16.2957 0.0000
# 2 9.0891 76.0525 36.2939 0.0000 -6.6287 0.0000
# 3 36.1678 36.2939 95.7807 0.0000 -15.3525 0.0000
# 4 0.0000 0.0000 0.0000 24.4447 0.0000 8.7749
# 5 -16.2957 -6.6287 -15.3525 0.0000 38.9567 0.0000
# 6 0.0000 0.0000 0.0000 8.7749 0.0000 15.6717
#
#
#
# Elastic Compliance Matrix: (Units=1/GPa)
#
#
# Indices 1 2 3 4 5 6 
#
# 1 0.023478 0.001828 -0.008469 0.000000 0.006794 0.000000
# 2 0.001828 0.016198 -0.006686 0.000000 0.000886 0.000000
# 3 -0.008469 -0.006686 0.016462 0.000000 0.001807 0.000000
# 4 0.000000 0.000000 0.000000 0.051199 0.000000 -0.028667
# 5 0.006794 0.000886 0.001807 0.000000 0.029374 0.000000
# 6 0.000000 0.000000 0.000000 -0.028667 0.000000 0.079861
#
#
# Mechanical properties :
#
#
# Convention : Reuss Voigt Hill
#
# Bulk Modulus (GPa) = 33.91776 43.84264 38.88020
# Shear Modulus (GPa) = 19.75858 25.81004 22.78431
#
# Velocity S-wave (km/s) = 3.04595 3.48129 3.27087
# Velocity P-wave (km/s) = 5.31948 6.06184 5.70275
#
# Compressibility (1/GPa) = 0.02948308
#
# Stress axis : x y z
#
# Youngs Moduli (GPa) = 42.59382 61.73449 60.74676
#
# Poissons Ratio (x) = -0.11285 0.51447
# Poissons Ratio (y) = -0.07786 0.40617
# Poissons Ratio (z) = 0.36073 0.41277
#
# Static dielectric constant tensor:
#      x y z
#    x 1.759870 0.000000 0.037910 
#    y 0.000000 2.086960 0.000000 
#    z 0.037910 0.000000 1.776450 
# 
# From -- ./inp_files/7118.got.cif
#   From: 2010.05.17/outbox.cif.g08.bks.cpg/sg4_4_cif.got.tgz:7118.got - 2010.06.03 18:43:04.
