data_PCOD9118082
_publ_section_title
;
Structure prediction by ZEFSAII (Michael W. Deem and Ramdas Pophale) SiO2 
 PCOD9118082
Probable space group: P 21
;
_chemical_formula_sum "Si O2"
_cell_formula_units_Z 16
_cell_length_a 9.494728
_cell_length_b 11.501742
_cell_length_c 9.357638
_cell_angle_alpha 90.000000
_cell_angle_beta 54.467744
_cell_angle_gamma 90.000000
_cell_volume 831.618078
_symmetry_space_group_name_H-M "P 21"
_symmetry_group_IT_number 4
_symmetry_cell_setting 'monoclinic'
loop_
_space_group_symop_operation_xyz
x,y,z
-x,1/2+y,-z
loop_
_atom_site_type_symbol
_atom_site_label
_atom_site_fract_x
_atom_site_fract_y
_atom_site_fract_z
Si Si1 0.303862 0.493240 0.768537
Si Si2 0.842087 0.234517 0.236788
Si Si3 0.693696 0.426259 0.527877
Si Si4 0.011726 0.121348 0.653127
Si Si5 0.860746 0.700620 0.725390
Si Si6 0.708548 0.950752 0.883987
Si Si7 0.016557 0.842063 0.130940
Si Si8 0.684227 0.463942 0.863302
O O1 0.264573 0.628558 0.766424
O O2 0.499659 0.466686 0.607022
O O3 0.159700 0.416025 0.773543
O O4 0.287761 0.463175 0.946089
O O5 0.739265 0.312915 0.410437
O O6 0.002434 0.181391 0.229286
O O7 0.914977 0.315568 0.068156
O O8 0.697205 0.407721 0.697384
O O9 0.839019 0.524328 0.410758
O O10 0.013398 0.218663 0.774062
O O11 0.050297 0.182490 0.479809
O O12 0.828735 0.054505 0.755987
O O13 0.789829 0.829688 0.786046
O O14 0.716632 0.601182 0.822535
O O15 0.507247 0.950353 0.961254
O O16 0.165675 0.909784 0.128942
#
# Coordination Sequence:
#
# PCOD9118082 Si02
#       8
#     2   2   2   2   2   2   2   2
#     4  11  24  43  68  98 133 173 216 270 337 386
#     4  12  23  44  68  95 135 174 215 272 331 387
#     4  10  24  45  65  95 137 169 217 272 325 389
#     4  11  24  41  68  95 130 175 218 271 326 383
#     4  11  23  42  69  93 134 172 217 272 329 387
#     4  11  23  46  68  96 133 176 215 274 328 386
#     4  12  24  41  68  94 132 169 221 269 324 392
#     4  10  25  44  66 100 128 172 227 264 324 398
#
# _framework density 19.239601
#
# number of rings (size 3 to 8) (size 9 to 14) (size 15 to 20)
#    0.000    1.000    5.000    0.750    5.250    1.000 
#    2.250    0.000    0.000    0.000    0.000    0.000 
#    0.000    0.000    0.000    0.000    0.000    0.000 
#
# Total GULP energy -89432.670170 kJ/mol
# GULP energy per Si atom -5589.541886 kJ/mol
# Density = 1.919581 g / cm^3
# Si number density = 19.239601 Si / 1000 Ang^3
#
#
#
# Elastic Constant Matrix: (Units=GPa)
#
#
# Indices 1 2 3 4 5 6 
#
# 1 101.7925 16.1105 35.7969 0.0000 -15.7976 0.0000
# 2 16.1105 79.9791 42.6944 0.0000 -0.2795 0.0000
# 3 35.7969 42.6944 86.8153 0.0000 -10.4371 0.0000
# 4 0.0000 0.0000 0.0000 27.3201 0.0000 8.3715
# 5 -15.7976 -0.2795 -10.4371 0.0000 30.6151 0.0000
# 6 0.0000 0.0000 0.0000 8.3715 0.0000 29.2966
#
#
#
# Elastic Compliance Matrix: (Units=1/GPa)
#
#
# Indices 1 2 3 4 5 6 
#
# 1 0.012117 -0.000085 -0.004383 0.000000 0.004758 0.000000
# 2 -0.000085 0.017188 -0.008764 0.000000 -0.002874 0.000000
# 3 -0.004383 -0.008764 0.018096 0.000000 0.003828 0.000000
# 4 0.000000 0.000000 0.000000 0.040116 0.000000 -0.011463
# 5 0.004758 -0.002874 0.003828 0.000000 0.036397 0.000000
# 6 0.000000 0.000000 0.000000 -0.011463 0.000000 0.037409
#
#
# Mechanical properties :
#
#
# Convention : Reuss Voigt Hill
#
# Bulk Modulus (GPa) = 47.75704 50.86561 49.31132
# Shear Modulus (GPa) = 25.67199 29.04538 27.35868
#
# Velocity S-wave (km/s) = 3.65681 3.88966 3.77503
# Velocity P-wave (km/s) = 6.53497 6.83139 6.68483
#
# Compressibility (1/GPa) = 0.02093932
#
# Stress axis : x y z
#
# Youngs Moduli (GPa) = 82.52966 58.17847 55.26137
#
# Poissons Ratio (x) = 0.00492 0.24219
# Poissons Ratio (y) = 0.00698 0.48429
# Poissons Ratio (z) = 0.36170 0.50986
#
# Static dielectric constant tensor:
#      x y z
#    x 1.663710 0.000000 -0.005070 
#    y 0.000000 1.657400 0.000000 
#    z -0.005070 0.000000 1.660340 
# 
# From -- ./inp_files/6190.got.cif
#   From: 2010.05.17/outbox.cif.g08.bks.cpg/sg4_4_cif.got.tgz:6190.got - 2010.06.03 18:43:04.
