data_PCOD9118848
_publ_section_title
;
Structure prediction by ZEFSAII (Michael W. Deem and Ramdas Pophale) SiO2 
 PCOD9118848
Probable space group: P 21
;
_chemical_formula_sum "Si O2"
_cell_formula_units_Z 14
_cell_length_a 16.913803
_cell_length_b 4.865928
_cell_length_c 11.230842
_cell_angle_alpha 90.000000
_cell_angle_beta 33.492899
_cell_angle_gamma 90.000000
_cell_volume 510.067239
_symmetry_space_group_name_H-M "P 21"
_symmetry_group_IT_number 4
_symmetry_cell_setting 'monoclinic'
loop_
_space_group_symop_operation_xyz
x,y,z
-x,1/2+y,-z
loop_
_atom_site_type_symbol
_atom_site_label
_atom_site_fract_x
_atom_site_fract_y
_atom_site_fract_z
Si Si1 0.611206 0.637800 0.077936
Si Si2 0.967074 0.879939 0.211412
Si Si3 0.412645 0.449423 0.642756
Si Si4 0.806277 0.637345 0.219153
Si Si5 0.083147 0.002286 0.530500
Si Si6 0.706295 0.275558 0.539783
Si Si7 0.207971 0.605069 0.177401
O O1 0.614922 0.810457 0.195704
O O2 0.445951 0.636174 0.245316
O O3 0.677502 0.335903 0.006259
O O4 0.707993 0.841629 0.873382
O O5 0.936974 0.644078 0.151506
O O6 0.936151 0.808022 0.386773
O O7 0.833894 0.071491 0.345979
O O8 0.120916 0.994125 0.986071
O O9 0.464167 0.760342 0.572492
O O10 0.273948 0.396830 0.735937
O O11 0.691218 0.481670 0.447019
O O12 0.221437 0.918768 0.437112
O O13 0.111834 0.804484 0.381960
O O14 0.909094 0.956090 0.761175
#
# Coordination Sequence:
#
# PCOD9118848 Si02
#       7
#     2   2   2   2   2   2   2
#     4  12  28  49  78 119 161 206 268 320 414 469
#     4  11  24  44  76 111 153 210 259 330 391 486
#     4  12  25  43  73 108 160 210 247 318 391 480
#     4  11  23  42  72 113 157 205 260 313 398 476
#     4  11  29  50  82 108 152 206 279 332 403 465
#     4  11  26  48  76 116 162 210 262 335 396 493
#     4  12  29  52  81 113 153 209 269 344 393 479
#
# _framework density 27.447362999999999
#
# number of rings (size 3 to 8) (size 9 to 14) (size 15 to 20)
#    0.000    0.571    2.857    3.429   12.000    1.143 
#    0.000    0.000    0.000    0.000    0.000    0.000 
#    0.000    0.000    0.000    0.000    0.000    0.000 
#
# Total GULP energy -78054.008708 kJ/mol
# GULP energy per Si atom -5575.286336 kJ/mol
# Density = 2.738489 g / cm^3
# Si number density = 27.447363 Si / 1000 Ang^3
#
#
#
# Elastic Constant Matrix: (Units=GPa)
#
#
# Indices 1 2 3 4 5 6 
#
# 1 90.4050 26.0193 13.9165 0.0000 -7.4901 0.0000
# 2 26.0193 106.4810 39.3799 0.0000 -8.4437 0.0000
# 3 13.9165 39.3799 95.1164 0.0000 -23.9641 0.0000
# 4 0.0000 0.0000 0.0000 54.8665 0.0000 -4.2931
# 5 -7.4901 -8.4437 -23.9641 0.0000 53.3669 0.0000
# 6 0.0000 0.0000 0.0000 -4.2931 0.0000 38.1416
#
#
#
# Elastic Compliance Matrix: (Units=1/GPa)
#
#
# Indices 1 2 3 4 5 6 
#
# 1 0.011987 -0.002711 -0.000356 0.000000 0.001094 0.000000
# 2 -0.002711 0.011708 -0.004600 0.000000 -0.000594 0.000000
# 3 -0.000356 -0.004600 0.013840 0.000000 0.005437 0.000000
# 4 0.000000 0.000000 0.000000 0.018388 0.000000 0.002070
# 5 0.001094 -0.000594 0.005437 0.000000 0.021239 0.000000
# 6 0.000000 0.000000 0.000000 0.002070 0.000000 0.026451
#
#
# Mechanical properties :
#
#
# Convention : Reuss Voigt Hill
#
# Bulk Modulus (GPa) = 45.04339 50.07042 47.55691
# Shear Modulus (GPa) = 39.57346 43.45411 41.51378
#
# Velocity S-wave (km/s) = 3.80122 3.98324 3.89329
# Velocity P-wave (km/s) = 5.97596 6.27988 6.12980
#
# Compressibility (1/GPa) = 0.02220082
#
# Stress axis : x y z
#
# Youngs Moduli (GPa) = 83.42444 85.41189 72.25467
#
# Poissons Ratio (x) = 0.23152 0.02572
# Poissons Ratio (y) = 0.22614 0.33239
# Poissons Ratio (z) = 0.02970 0.39292
#
# Static dielectric constant tensor:
#      x y z
#    x 2.253330 0.000000 0.099790 
#    y 0.000000 2.456730 0.000000 
#    z 0.099790 0.000000 2.296760 
# 
# From -- ./inp_files/7090.got.cif
#   From: 2010.05.17/outbox.cif.g08.bks.cpg/sg4_4_cif.got.tgz:7090.got - 2010.06.03 18:43:04.
