data_PCOD9118764
_publ_section_title
;
Structure prediction by ZEFSAII (Michael W. Deem and Ramdas Pophale) SiO2 
 PCOD9118764
Probable space group: P 21
;
_chemical_formula_sum "Si O2"
_cell_formula_units_Z 16
_cell_length_a 7.785891
_cell_length_b 12.222715
_cell_length_c 7.787165
_cell_angle_alpha 90.000000
_cell_angle_beta 115.960071
_cell_angle_gamma 90.000000
_cell_volume 666.289629
_symmetry_space_group_name_H-M "P 21"
_symmetry_group_IT_number 4
_symmetry_cell_setting 'monoclinic'
loop_
_space_group_symop_operation_xyz
x,y,z
-x,1/2+y,-z
loop_
_atom_site_type_symbol
_atom_site_label
_atom_site_fract_x
_atom_site_fract_y
_atom_site_fract_z
Si Si1 0.421021 0.307540 0.046795
Si Si2 0.180636 0.524369 0.923010
Si Si3 0.582059 0.652191 0.629885
Si Si4 0.768369 0.431875 0.719082
Si Si5 0.140129 0.150144 0.788575
Si Si6 0.186810 0.907294 0.681912
Si Si7 0.755006 0.186404 0.769835
Si Si8 0.969961 0.706053 0.616782
O O1 0.388292 0.245986 0.215480
O O2 0.637152 0.342720 0.159509
O O3 0.306271 0.416965 0.945350
O O4 0.337193 0.214433 0.887495
O O5 0.974361 0.471441 0.876220
O O6 0.118375 0.617439 0.758070
O O7 0.294301 0.594161 0.113708
O O8 0.620529 0.527353 0.704904
O O9 0.376534 0.659111 0.451732
O O10 0.757531 0.672025 0.576476
O O11 0.787051 0.418904 0.516020
O O12 0.718386 0.314947 0.777799
O O13 0.018011 0.198913 0.580539
O O14 0.987547 0.172506 0.871907
O O15 0.171984 0.025316 0.758692
O O16 0.010301 0.832900 0.666232
#
# Coordination Sequence:
#
# PCOD9118764 Si02
#       8
#     2   2   2   2   2   2   2   2
#     4  12  26  47  71 102 143 186 239 295 353 421
#     4  11  25  42  72 100 138 183 237 294 346 422
#     4  11  25  45  73 104 144 188 239 289 355 423
#     4  11  22  47  68 103 143 181 231 297 346 417
#     4  12  25  46  72 104 141 190 233 295 360 417
#     4  12  25  46  73 102 148 185 236 296 354 422
#     4  12  25  45  75 102 143 188 239 291 358 419
#     4  11  25  44  70 105 142 185 238 289 356 417
#
# _framework density 24.013582
#
# number of rings (size 3 to 8) (size 9 to 14) (size 15 to 20)
#    0.000    0.500    6.250    2.250    3.500    1.000 
#    0.000    0.000    0.000    0.000    0.000    0.000 
#    0.000    0.000    0.000    0.000    0.000    0.000 
#
# Total GULP energy -89370.170542 kJ/mol
# GULP energy per Si atom -5585.635659 kJ/mol
# Density = 2.395893 g / cm^3
# Si number density = 24.013582 Si / 1000 Ang^3
#
#
#
# Elastic Constant Matrix: (Units=GPa)
#
#
# Indices 1 2 3 4 5 6 
#
# 1 37.7519 35.4632 15.3205 0.0000 19.7241 0.0000
# 2 35.4632 155.8586 16.2300 0.0000 21.5062 0.0000
# 3 15.3205 16.2300 82.9484 0.0000 9.6893 0.0000
# 4 0.0000 0.0000 0.0000 43.3916 0.0000 10.9713
# 5 19.7241 21.5062 9.6893 0.0000 17.3280 0.0000
# 6 0.0000 0.0000 0.0000 10.9713 0.0000 396.9695
#
#
#
# Elastic Compliance Matrix: (Units=1/GPa)
#
#
# Indices 1 2 3 4 5 6 
#
# 1 0.070589 -0.005885 -0.003588 0.000000 -0.071039 0.000000
# 2 -0.005885 0.008246 -0.000121 0.000000 -0.003468 0.000000
# 3 -0.003588 -0.000121 0.013103 0.000000 -0.003092 0.000000
# 4 0.000000 0.000000 0.000000 0.023208 0.000000 -0.000641
# 5 -0.071039 -0.003468 -0.003092 0.000000 0.144605 0.000000
# 6 0.000000 0.000000 0.000000 -0.000641 0.000000 0.002537
#
#
# Mechanical properties :
#
#
# Convention : Reuss Voigt Hill
#
# Bulk Modulus (GPa) = 13.74592 45.62070 29.68331
# Shear Modulus (GPa) = 16.35442 105.50749 60.93096
#
# Velocity S-wave (km/s) = 2.61252 6.63566 5.04268
# Velocity P-wave (km/s) = 3.85189 8.81751 6.80388
#
# Compressibility (1/GPa) = 0.07274883
#
# Stress axis : x y z
#
# Youngs Moduli (GPa) = 14.16654 121.26600 76.31633
#
# Poissons Ratio (x) = 0.71370 0.27382
# Poissons Ratio (y) = 0.08338 0.00927
# Poissons Ratio (z) = 0.05083 0.01472
#
# Static dielectric constant tensor:
#      x y z
#    x 1.829240 0.000000 -0.133180 
#    y 0.000000 1.958360 0.000000 
#    z -0.133180 0.000000 1.928150 
# 
# From -- ./inp_files/6429.got.cif
#   From: 2010.05.17/outbox.cif.g08.bks.cpg/sg4_4_cif.got.tgz:6429.got - 2010.06.03 18:43:04.
