data_PCOD9118443
_publ_section_title
;
Structure prediction by ZEFSAII (Michael W. Deem and Ramdas Pophale) SiO2 
 PCOD9118443
Probable space group: P 21
;
_chemical_formula_sum "Si O2"
_cell_formula_units_Z 16
_cell_length_a 10.974424
_cell_length_b 5.152494
_cell_length_c 12.768382
_cell_angle_alpha 90.000000
_cell_angle_beta 112.621699
_cell_angle_gamma 90.000000
_cell_volume 666.449426
_symmetry_space_group_name_H-M "P 21"
_symmetry_group_IT_number 4
_symmetry_cell_setting 'monoclinic'
loop_
_space_group_symop_operation_xyz
x,y,z
-x,1/2+y,-z
loop_
_atom_site_type_symbol
_atom_site_label
_atom_site_fract_x
_atom_site_fract_y
_atom_site_fract_z
Si Si1 0.187370 0.026290 0.380214
Si Si2 0.358829 0.515315 0.702831
Si Si3 0.421818 0.289547 0.948295
Si Si4 0.883446 0.229421 0.836720
Si Si5 0.165895 0.511599 0.960070
Si Si6 0.206240 0.011620 0.621999
Si Si7 0.953518 0.336128 0.245392
Si Si8 0.566941 0.849893 0.489546
O O1 0.287880 0.268529 0.422077
O O2 0.035203 0.098913 0.318172
O O3 0.209018 0.871314 0.279428
O O4 0.194582 0.908136 0.499027
O O5 0.410211 0.393751 0.826277
O O6 0.314846 0.810684 0.701973
O O7 0.445625 0.482935 0.628206
O O8 0.241859 0.313868 0.633083
O O9 0.280426 0.315902 0.961092
O O10 0.519599 0.502219 0.031291
O O11 0.016177 0.393586 0.912363
O O12 0.946901 0.989753 0.795700
O O13 0.813031 0.137036 0.919290
O O14 0.160373 0.727521 0.866828
O O15 0.090865 0.989800 0.667792
O O16 0.496050 0.571113 0.459596
#
# Coordination Sequence:
#
# PCOD9118443 Si02
#       8
#     2   2   2   2   2   2   2   2
#     4  10  27  41  67 110 135 179 243 286 351 429
#     4  11  24  48  70 102 137 185 237 283 353 418
#     4  12  28  48  74 106 142 192 248 298 347 429
#     4  11  24  44  73 105 142 185 238 307 364 428
#     4  11  24  47  71 104 143 191 240 296 376 421
#     4  11  24  43  75 100 146 181 220 294 355 426
#     4  11  24  42  73  99 144 180 232 293 362 427
#     4  11  25  47  73  96 143 191 230 287 354 426
#
# _framework density 24.007822000000001
#
# number of rings (size 3 to 8) (size 9 to 14) (size 15 to 20)
#    0.000    1.000    2.500    3.000   10.500    1.000 
#    2.250    0.000    0.000    0.000    0.000    0.000 
#    0.000    0.000    0.000    0.000    0.000    0.000 
#
# Total GULP energy -89375.094420 kJ/mol
# GULP energy per Si atom -5585.943401 kJ/mol
# Density = 2.395318 g / cm^3
# Si number density = 24.007822 Si / 1000 Ang^3
#
#
#
# Elastic Constant Matrix: (Units=GPa)
#
#
# Indices 1 2 3 4 5 6 
#
# 1 53.5633 14.4474 18.2964 0.0000 -7.2897 0.0000
# 2 14.4474 71.8217 9.0724 0.0000 2.3821 0.0000
# 3 18.2964 9.0724 128.0580 0.0000 -13.7239 0.0000
# 4 0.0000 0.0000 0.0000 43.5815 0.0000 0.4034
# 5 -7.2897 2.3821 -13.7239 0.0000 17.3303 0.0000
# 6 0.0000 0.0000 0.0000 0.4034 0.0000 35.8720
#
#
#
# Elastic Compliance Matrix: (Units=1/GPa)
#
#
# Indices 1 2 3 4 5 6 
#
# 1 0.021614 -0.004379 -0.001900 0.000000 0.008189 0.000000
# 2 -0.004379 0.015078 -0.000942 0.000000 -0.004661 0.000000
# 3 -0.001900 -0.000942 0.008824 0.000000 0.006318 0.000000
# 4 0.000000 0.000000 0.000000 0.022948 0.000000 -0.000258
# 5 0.008189 -0.004661 0.006318 0.000000 0.066791 0.000000
# 6 0.000000 0.000000 0.000000 -0.000258 0.000000 0.027880
#
#
# Mechanical properties :
#
#
# Convention : Reuss Voigt Hill
#
# Bulk Modulus (GPa) = 32.18217 37.45283 34.81750
# Shear Modulus (GPa) = 26.60479 33.46521 30.03500
#
# Velocity S-wave (km/s) = 3.33253 3.73759 3.54086
# Velocity P-wave (km/s) = 5.31429 5.85322 5.59025
#
# Compressibility (1/GPa) = 0.03107311
#
# Stress axis : x y z
#
# Youngs Moduli (GPa) = 46.26570 66.32232 113.32325
#
# Poissons Ratio (x) = 0.29045 0.21535
# Poissons Ratio (y) = 0.20262 0.10675
# Poissons Ratio (z) = 0.08792 0.06247
#
# Static dielectric constant tensor:
#      x y z
#    x 1.981360 0.000000 0.004460 
#    y 0.000000 1.950740 0.000000 
#    z 0.004460 0.000000 2.003990 
# 
# From -- ./inp_files/11787.got.cif
#   From: 2010.05.17/outbox.cif.g08.bks.cpg/sg4_6_cif.got.tgz:11787.got - 2010.06.03 18:43:04.
