data_PCOD9118181
_publ_section_title
;
Structure prediction by ZEFSAII (Michael W. Deem and Ramdas Pophale) SiO2 
 PCOD9118181
Probable space group: P 21
;
_chemical_formula_sum "Si O2"
_cell_formula_units_Z 14
_cell_length_a 11.838133
_cell_length_b 8.886114
_cell_length_c 5.325649
_cell_angle_alpha 90.000000
_cell_angle_beta 93.065431
_cell_angle_gamma 90.000000
_cell_volume 559.430017
_symmetry_space_group_name_H-M "P 21"
_symmetry_group_IT_number 4
_symmetry_cell_setting 'monoclinic'
loop_
_space_group_symop_operation_xyz
x,y,z
-x,1/2+y,-z
loop_
_atom_site_type_symbol
_atom_site_label
_atom_site_fract_x
_atom_site_fract_y
_atom_site_fract_z
Si Si1 0.062262 0.009270 0.778770
Si Si2 0.898989 0.801053 0.475066
Si Si3 0.763612 0.301282 0.376766
Si Si4 0.554075 0.429222 0.231554
Si Si5 0.119671 0.542000 0.884999
Si Si6 0.328481 0.019501 0.261341
Si Si7 0.292620 0.358070 0.232628
O O1 0.084886 0.127017 0.559070
O O2 0.182210 0.924876 0.809593
O O3 0.977538 0.877374 0.688199
O O4 0.987275 0.099510 0.969252
O O5 0.769936 0.849491 0.507648
O O6 0.931610 0.890479 0.233625
O O7 0.632427 0.281850 0.291357
O O8 0.834861 0.153576 0.325953
O O9 0.755953 0.384668 0.647672
O O10 0.601532 0.537123 0.463308
O O11 0.423146 0.397824 0.247618
O O12 0.586584 0.474995 0.952399
O O13 0.224519 0.483468 0.066321
O O14 0.277414 0.179727 0.162639
#
# Coordination Sequence:
#
# PCOD9118181 Si02
#       7
#     2   2   2   2   2   2   2
#     4  11  23  45  69 108 145 201 252 317 384 459
#     4  11  24  44  71 102 147 196 251 318 380 461
#     4  10  24  47  70 111 148 203 247 319 379 462
#     4  10  26  44  77 104 149 196 252 306 379 452
#     4  11  26  42  74 110 149 195 257 321 380 461
#     4  10  25  47  74 108 148 203 244 311 382 457
#     4  11  26  45  71 111 148 198 253 316 386 462
#
# _framework density 25.025469999999999
#
# number of rings (size 3 to 8) (size 9 to 14) (size 15 to 20)
#    0.857    0.571    1.429    1.714    8.000    5.714 
#    0.000    0.000    0.000    0.000    0.000    0.000 
#    0.000    0.000    0.000    0.000    0.000    0.000 
#
# Total GULP energy -77991.323616 kJ/mol
# GULP energy per Si atom -5570.808830 kJ/mol
# Density = 2.496851 g / cm^3
# Si number density = 25.025470 Si / 1000 Ang^3
#
#
#
# Elastic Constant Matrix: (Units=GPa)
#
#
# Indices 1 2 3 4 5 6 
#
# 1 139.4234 24.8528 39.6102 0.0000 -32.8739 0.0000
# 2 24.8528 121.7560 34.8379 0.0000 -20.9560 0.0000
# 3 39.6102 34.8379 123.9824 0.0000 -24.6299 0.0000
# 4 0.0000 0.0000 0.0000 32.0217 0.0000 -5.7649
# 5 -32.8739 -20.9560 -24.6299 0.0000 30.6544 0.0000
# 6 0.0000 0.0000 0.0000 -5.7649 0.0000 28.4126
#
#
#
# Elastic Compliance Matrix: (Units=1/GPa)
#
#
# Indices 1 2 3 4 5 6 
#
# 1 0.009756 -0.000009 -0.001234 0.000000 0.009465 0.000000
# 2 -0.000009 0.009586 -0.001655 0.000000 0.005214 0.000000
# 3 -0.001234 -0.001655 0.010040 0.000000 0.005612 0.000000
# 4 0.000000 0.000000 0.000000 0.032413 0.000000 0.006576
# 5 0.009465 0.005214 0.005612 0.000000 0.050845 0.000000
# 6 0.000000 0.000000 0.000000 0.006576 0.000000 0.036530
#
#
# Mechanical properties :
#
#
# Convention : Reuss Voigt Hill
#
# Bulk Modulus (GPa) = 42.39915 64.86263 53.63089
# Shear Modulus (GPa) = 30.70723 37.27513 33.99118
#
# Velocity S-wave (km/s) = 3.50671 3.86358 3.68946
# Velocity P-wave (km/s) = 5.77713 6.77332 6.29496
#
# Compressibility (1/GPa) = 0.02358538
#
# Stress axis : x y z
#
# Youngs Moduli (GPa) = 102.49760 104.32017 99.60383
#
# Poissons Ratio (x) = 0.00097 0.12292
# Poissons Ratio (y) = 0.00095 0.16483
# Poissons Ratio (z) = 0.12649 0.17264
#
# Static dielectric constant tensor:
#      x y z
#    x 1.986270 0.000000 0.032560 
#    y 0.000000 2.003200 0.000000 
#    z 0.032560 0.000000 2.036770 
# 
# From -- ./inp_files/2608.got.cif
#   From: 2010.05.17/outbox.cif.g08.bks.cpg/sg4_2_cif.got.tgz:2608.got - 2010.06.03 18:43:04.
