data_PCOD9118532
_publ_section_title
;
Structure prediction by ZEFSAII (Michael W. Deem and Ramdas Pophale) SiO2 
 PCOD9118532
Probable space group: P 21
;
_chemical_formula_sum "Si O2"
_cell_formula_units_Z 10
_cell_length_a 9.616710
_cell_length_b 4.839458
_cell_length_c 8.345427
_cell_angle_alpha 90.000000
_cell_angle_beta 80.368962
_cell_angle_gamma 90.000000
_cell_volume 382.919179
_symmetry_space_group_name_H-M "P 21"
_symmetry_group_IT_number 4
_symmetry_cell_setting 'monoclinic'
loop_
_space_group_symop_operation_xyz
x,y,z
-x,1/2+y,-z
loop_
_atom_site_type_symbol
_atom_site_label
_atom_site_fract_x
_atom_site_fract_y
_atom_site_fract_z
Si Si1 0.298201 0.242360 0.150424
Si Si2 0.098986 0.927744 0.949098
Si Si3 0.091860 0.211200 0.468528
Si Si4 0.702987 0.443739 0.365515
Si Si5 0.426449 0.729472 0.282657
O O1 0.164152 0.290707 0.291413
O O2 0.367188 0.542140 0.147708
O O3 0.410091 0.037198 0.215433
O O4 0.225338 0.086033 0.018306
O O5 0.180442 0.815716 0.776013
O O6 0.980093 0.168938 0.952085
O O7 0.211611 0.200788 0.577002
O O8 0.964833 0.403438 0.538940
O O9 0.570446 0.580827 0.303475
O O10 0.653475 0.262791 0.528835
#
# Coordination Sequence:
#
# PCOD9118532 Si02
#       5
#     2   2   2   2   2
#     4  11  24  43  65 100 141 181 233 291 360 425
#     4  12  27  46  72 107 149 192 235 296 371 439
#     4  11  21  36  61  90 127 175 225 278 333 405
#     4  11  25  45  72 102 141 186 243 296 351 428
#     4  11  25  44  70 101 136 186 240 295 351 415
#
# _framework density 26.115169000000002
#
# number of rings (size 3 to 8) (size 9 to 14) (size 15 to 20)
#    0.000    0.800    0.000    8.400    0.000    9.600 
#    0.000    0.000    0.000    0.000    0.000    0.000 
#    0.000    0.000    0.000    0.000    0.000    0.000 
#
# Total GULP energy -55902.260908 kJ/mol
# GULP energy per Si atom -5590.226091 kJ/mol
# Density = 2.605573 g / cm^3
# Si number density = 26.115169 Si / 1000 Ang^3
#
#
#
# Elastic Constant Matrix: (Units=GPa)
#
#
# Indices 1 2 3 4 5 6 
#
# 1 121.1462 44.9481 42.0827 0.0000 1.1337 0.0000
# 2 44.9481 108.8404 35.2233 0.0000 -7.3226 0.0000
# 3 42.0827 35.2233 19.5009 0.0000 6.1124 0.0000
# 4 0.0000 0.0000 0.0000 28.9721 0.0000 1.0746
# 5 1.1337 -7.3226 6.1124 0.0000 37.2339 0.0000
# 6 0.0000 0.0000 0.0000 1.0746 0.0000 21.6687
#
#
#
# Elastic Compliance Matrix: (Units=1/GPa)
#
#
# Indices 1 2 3 4 5 6 
#
# 1 -0.077794 -0.081416 0.336528 0.000000 -0.068888 0.000000
# 2 -0.081416 -0.057174 0.296996 0.000000 -0.057521 0.000000
# 3 0.336528 0.296996 -1.293020 0.000000 0.260427 0.000000
# 4 0.000000 0.000000 0.000000 0.034580 0.000000 -0.001715
# 5 -0.068888 -0.057521 0.260427 0.000000 -0.025110 0.000000
# 6 0.000000 0.000000 0.000000 -0.001715 0.000000 0.046235
#
#
# Mechanical properties :
#
#
# Convention : Reuss Voigt Hill
#
# Bulk Modulus (GPa) = -3.08858 54.88838 25.89990
# Shear Modulus (GPa) = -1.93467 26.05717 12.06125
#
# Velocity S-wave (km/s) = -0.86164 3.16219 2.15140
# Velocity P-wave (km/s) = 1.47484 5.86481 4.01378
#
# Compressibility (1/GPa) = -0.32377298
#
# Stress axis : x y z
#
# Youngs Moduli (GPa) = -12.85454 -17.49042 -0.77338
#
# Poissons Ratio (x) = -1.42401 0.26027
# Poissons Ratio (y) = -1.04657 0.22969
# Poissons Ratio (z) = 4.32591 5.19458
#
# Static dielectric constant tensor:
#      x y z
#    x 2.046730 0.000000 0.035730 
#    y 0.000000 1.965420 0.000000 
#    z 0.035730 0.000000 2.158190 
# 
# From -- ./inp_files/5070.got.cif
#   From: 2010.05.17/outbox.cif.g08.bks.cpg/sg4_3_cif.got.tgz:5070.got - 2010.06.03 18:43:04.
