data_PCOD9118300
_publ_section_title
;
Structure prediction by ZEFSAII (Michael W. Deem and Ramdas Pophale) SiO2 
 PCOD9118300
Probable space group: P 21
;
_chemical_formula_sum "Si O2"
_cell_formula_units_Z 16
_cell_length_a 8.481655
_cell_length_b 8.492971
_cell_length_c 10.898699
_cell_angle_alpha 90.000000
_cell_angle_beta 47.689183
_cell_angle_gamma 90.000000
_cell_volume 580.571140
_symmetry_space_group_name_H-M "P 21"
_symmetry_group_IT_number 4
_symmetry_cell_setting 'monoclinic'
loop_
_space_group_symop_operation_xyz
x,y,z
-x,1/2+y,-z
loop_
_atom_site_type_symbol
_atom_site_label
_atom_site_fract_x
_atom_site_fract_y
_atom_site_fract_z
Si Si1 0.443829 0.774210 0.255936
Si Si2 0.921166 0.089133 0.458306
Si Si3 0.278444 0.503670 0.056771
Si Si4 0.443800 0.323590 0.541045
Si Si5 0.984052 0.294904 0.909835
Si Si6 0.107103 0.809463 0.752591
Si Si7 0.706261 0.750446 0.622001
Si Si8 0.405534 0.982000 0.907155
O O1 0.208066 0.698059 0.374892
O O2 0.440689 0.847599 0.390131
O O3 0.590080 0.618194 0.194791
O O4 0.565566 0.892053 0.103779
O O5 0.865645 0.156111 0.350912
O O6 0.161387 0.120162 0.374674
O O7 0.835874 0.912082 0.517989
O O8 0.139229 0.635342 0.062614
O O9 0.448624 0.564513 0.066306
O O10 0.086424 0.399533 0.214340
O O11 0.659733 0.388238 0.355469
O O12 0.389870 0.200365 0.458411
O O13 0.205315 0.326830 0.726332
O O14 0.977842 0.295432 0.062329
O O15 0.829895 0.432930 0.940094
O O16 0.525645 0.823739 0.803905
#
# Coordination Sequence:
#
# PCOD9118300 Si02
#       8
#     2   2   2   2   2   2   2   2
#     4  10  25  47  71 105 150 195 243 302 374 440
#     4  10  25  45  71 105 147 196 245 305 363 448
#     4  12  26  47  77 109 150 194 251 308 367 442
#     4  11  26  46  73 107 147 197 244 302 369 438
#     4  12  28  47  78 113 147 193 256 304 371 441
#     4  11  25  49  71 107 151 190 245 306 370 437
#     4  11  24  45  73 106 148 196 247 301 373 437
#     4  11  25  50  72 108 152 195 245 310 369 443
#
# _framework density 27.559068
#
# number of rings (size 3 to 8) (size 9 to 14) (size 15 to 20)
#    0.000    1.000    3.750    0.750    8.750    3.000 
#    2.250    0.000    0.000    0.000    0.000    0.000 
#    0.000    0.000    0.000    0.000    0.000    0.000 
#
# Total GULP energy -89132.568152 kJ/mol
# GULP energy per Si atom -5570.785509 kJ/mol
# Density = 2.749634 g / cm^3
# Si number density = 27.559068 Si / 1000 Ang^3
#
#
#
# Elastic Constant Matrix: (Units=GPa)
#
#
# Indices 1 2 3 4 5 6 
#
# 1 81.4237 7.3330 32.5286 0.0000 -5.8967 0.0000
# 2 7.3330 70.3664 33.9602 0.0000 -4.8772 0.0000
# 3 32.5286 33.9602 173.3774 0.0000 -25.8563 0.0000
# 4 0.0000 0.0000 0.0000 31.4980 0.0000 17.9865
# 5 -5.8967 -4.8772 -25.8563 0.0000 44.3883 0.0000
# 6 0.0000 0.0000 0.0000 17.9865 0.0000 0.3263
#
#
#
# Elastic Compliance Matrix: (Units=1/GPa)
#
#
# Indices 1 2 3 4 5 6 
#
# 1 0.013284 -0.000201 -0.002402 0.000000 0.000344 0.000000
# 2 -0.000201 0.015698 -0.003049 0.000000 -0.000078 0.000000
# 3 -0.002402 -0.003049 0.007357 0.000000 0.003632 0.000000
# 4 0.000000 0.000000 0.000000 -0.001042 0.000000 0.057422
# 5 0.000344 -0.000078 0.003632 0.000000 0.024681 0.000000
# 6 0.000000 0.000000 0.000000 0.057422 0.000000 -0.100557
#
#
# Mechanical properties :
#
#
# Convention : Reuss Voigt Hill
#
# Bulk Modulus (GPa) = 39.94285 52.53458 46.23871
# Shear Modulus (GPa) = -238.89626 31.99891 -103.44868
#
# Velocity S-wave (km/s) = -9.32059 3.41119 -6.13340
# Velocity P-wave (km/s) = 10.06510 5.88378 5.77439
#
# Compressibility (1/GPa) = 0.02503577
#
# Stress axis : x y z
#
# Youngs Moduli (GPa) = 75.27910 63.70118 135.92349
#
# Poissons Ratio (x) = 0.01283 0.32643
# Poissons Ratio (y) = 0.01517 0.41439
# Poissons Ratio (z) = 0.18079 0.19421
#
# Static dielectric constant tensor:
#      x y z
#    x 2.200970 0.000000 -0.006950 
#    y 0.000000 2.271970 0.000000 
#    z -0.006950 0.000000 2.212330 
# 
# From -- ./inp_files/11008.got.cif
#   From: 2010.05.17/outbox.cif.g08.bks.cpg/sg4_6_cif.got.tgz:11008.got - 2010.06.03 18:43:04.
