data_PCOD9118567
_publ_section_title
;
Structure prediction by ZEFSAII (Michael W. Deem and Ramdas Pophale) SiO2 
 PCOD9118567
Probable space group: P 21
;
_chemical_formula_sum "Si O2"
_cell_formula_units_Z 10
_cell_length_a 8.554752
_cell_length_b 5.082315
_cell_length_c 8.513404
_cell_angle_alpha 90.000000
_cell_angle_beta 109.954455
_cell_angle_gamma 90.000000
_cell_volume 347.923336
_symmetry_space_group_name_H-M "P 21"
_symmetry_group_IT_number 4
_symmetry_cell_setting 'monoclinic'
loop_
_space_group_symop_operation_xyz
x,y,z
-x,1/2+y,-z
loop_
_atom_site_type_symbol
_atom_site_label
_atom_site_fract_x
_atom_site_fract_y
_atom_site_fract_z
Si Si1 0.776783 0.872170 0.309074
Si Si2 0.702093 0.379428 0.102813
Si Si3 0.502573 0.515901 0.296047
Si Si4 0.774157 0.185835 0.587368
Si Si5 0.908399 0.494416 0.904675
O O1 0.810730 0.596050 0.236445
O O2 0.592915 0.799746 0.317506
O O3 0.234808 0.594792 0.826247
O O4 0.862723 0.999971 0.490167
O O5 0.522280 0.417455 0.122752
O O6 0.732987 0.447577 0.934350
O O7 0.631410 0.343270 0.442800
O O8 0.325249 0.519356 0.315571
O O9 0.884112 0.398127 0.718378
O O10 0.975332 0.782585 0.964657
#
# Coordination Sequence:
#
# PCOD9118567 Si02
#       5
#     2   2   2   2   2
#     4   9  19  37  68  98 131 157 222 277 349 394
#     4   9  20  43  63  95 134 171 220 285 334 404
#     4   9  19  38  70 103 126 164 224 289 350 382
#     4  11  21  41  73 103 138 174 225 288 341 416
#     4  12  29  47  66  95 145 192 231 267 340 420
#
# _framework density 28.741962999999998
#
# number of rings (size 3 to 8) (size 9 to 14) (size 15 to 20)
#    1.200    0.800    2.000    1.200    2.800    0.000 
#    3.600   12.000    0.000    0.000    0.000    0.000 
#    0.000    0.000    0.000    0.000    0.000    0.000 
#
# Total GULP energy -55989.533288 kJ/mol
# GULP energy per Si atom -5598.953329 kJ/mol
# Density = 2.867655 g / cm^3
# Si number density = 28.741963 Si / 1000 Ang^3
#
#
#
# Elastic Constant Matrix: (Units=GPa)
#
#
# Indices 1 2 3 4 5 6 
#
# 1 62.5638 20.7304 35.9517 0.0000 -0.0071 0.0000
# 2 20.7304 169.8540 39.2009 0.0000 18.1175 0.0000
# 3 35.9517 39.2009 129.4606 0.0000 6.4819 0.0000
# 4 0.0000 0.0000 0.0000 44.0511 0.0000 -6.6172
# 5 -0.0071 18.1175 6.4819 0.0000 52.2960 0.0000
# 6 0.0000 0.0000 0.0000 -6.6172 0.0000 47.3975
#
#
#
# Elastic Compliance Matrix: (Units=1/GPa)
#
#
# Indices 1 2 3 4 5 6 
#
# 1 0.019302 -0.001313 -0.005017 0.000000 0.001079 0.000000
# 2 -0.001313 0.006627 -0.001537 0.000000 -0.002106 0.000000
# 3 -0.005017 -0.001537 0.009616 0.000000 -0.000660 0.000000
# 4 0.000000 0.000000 0.000000 0.023187 0.000000 0.003237
# 5 0.001079 -0.002106 -0.000660 0.000000 0.019933 0.000000
# 6 0.000000 0.000000 0.000000 0.003237 0.000000 0.021550
#
#
# Mechanical properties :
#
#
# Convention : Reuss Voigt Hill
#
# Bulk Modulus (GPa) = 50.47474 61.51606 55.99540
# Shear Modulus (GPa) = 40.79922 46.48193 43.64058
#
# Velocity S-wave (km/s) = 3.77171 4.02582 3.90084
# Velocity P-wave (km/s) = 6.04708 6.56194 6.30976
#
# Compressibility (1/GPa) = 0.01981189
#
# Stress axis : x y z
#
# Youngs Moduli (GPa) = 51.80911 150.90050 103.99538
#
# Poissons Ratio (x) = 0.19814 0.52170
# Poissons Ratio (y) = 0.06803 0.15980
# Poissons Ratio (z) = 0.25990 0.23187
#
# Static dielectric constant tensor:
#      x y z
#    x 2.372550 0.000000 -0.039500 
#    y 0.000000 2.206540 0.000000 
#    z -0.039500 0.000000 2.224320 
# 
# From -- ./inp_files/5126.got.cif
#   From: 2010.05.17/outbox.cif.g08.bks.cpg/sg4_3_cif.got.tgz:5126.got - 2010.06.03 18:43:04.
