data_PCOD9118972
_publ_section_title
;
Structure prediction by ZEFSAII (Michael W. Deem and Ramdas Pophale) SiO2 
 PCOD9118972
Probable space group: P 21
;
_chemical_formula_sum "Si O2"
_cell_formula_units_Z 16
_cell_length_a 9.486097
_cell_length_b 11.471489
_cell_length_c 9.173399
_cell_angle_alpha 90.000000
_cell_angle_beta 134.176434
_cell_angle_gamma 90.000000
_cell_volume 715.939428
_symmetry_space_group_name_H-M "P 21"
_symmetry_group_IT_number 4
_symmetry_cell_setting 'monoclinic'
loop_
_space_group_symop_operation_xyz
x,y,z
-x,1/2+y,-z
loop_
_atom_site_type_symbol
_atom_site_label
_atom_site_fract_x
_atom_site_fract_y
_atom_site_fract_z
Si Si1 0.951798 0.449160 0.438628
Si Si2 0.294464 0.437070 0.073521
Si Si3 0.282317 0.592813 0.781380
Si Si4 0.297656 0.168422 0.996348
Si Si5 0.286785 0.829618 0.963700
Si Si6 0.308791 0.025269 0.498989
Si Si7 0.279401 0.254620 0.657958
Si Si8 0.110347 0.984708 0.060590
O O1 0.771569 0.427281 0.198217
O O2 0.852183 0.451576 0.525425
O O3 0.098849 0.559674 0.547532
O O4 0.101342 0.343690 0.516320
O O5 0.299710 0.298056 0.063571
O O6 0.480425 0.483213 0.296071
O O7 0.301908 0.491197 0.916316
O O8 0.099608 0.479401 0.014920
O O9 0.483093 0.613660 0.838407
O O10 0.247607 0.707889 0.854143
O O11 0.142532 0.089122 0.969338
O O12 0.261258 0.186443 0.798071
O O13 0.511806 0.821287 0.178578
O O14 0.155593 0.865221 0.006875
O O15 0.283916 0.158800 0.533929
O O16 0.267982 0.006528 0.301287
#
# Coordination Sequence:
#
# PCOD9118972 Si02
#       8
#     2   2   2   2   2   2   2   2
#     4  12  24  42  76 111 141 196 262 311 372 458
#     4  12  26  48  70 106 155 194 248 321 377 445
#     4  11  23  48  78 108 146 198 261 310 373 453
#     4  11  24  45  78 103 148 195 253 317 371 447
#     4  11  26  46  77 104 154 198 252 320 377 448
#     4  12  25  44  71 104 150 202 247 313 379 458
#     4  11  23  46  77 104 145 200 255 315 381 447
#     4  12  29  45  69 112 153 195 254 307 392 450
#
# _framework density 22.348258999999999
#
# number of rings (size 3 to 8) (size 9 to 14) (size 15 to 20)
#    0.000    0.500    5.000    3.750    3.500    3.000 
#    0.000    1.250    0.000    0.000    0.000    0.000 
#    0.000    0.000    0.000    0.000    0.000    0.000 
#
# Total GULP energy -89552.802758 kJ/mol
# GULP energy per Si atom -5597.050172 kJ/mol
# Density = 2.229739 g / cm^3
# Si number density = 22.348259 Si / 1000 Ang^3
#
#
#
# Elastic Constant Matrix: (Units=GPa)
#
#
# Indices 1 2 3 4 5 6 
#
# 1 107.2942 49.0552 18.0544 0.0000 15.9257 0.0000
# 2 49.0552 121.0857 16.4458 0.0000 10.9768 0.0000
# 3 18.0544 16.4458 74.9914 0.0000 16.4288 0.0000
# 4 0.0000 0.0000 0.0000 26.9302 0.0000 5.6273
# 5 15.9257 10.9768 16.4288 0.0000 44.1488 0.0000
# 6 0.0000 0.0000 0.0000 5.6273 0.0000 41.0735
#
#
#
# Elastic Compliance Matrix: (Units=1/GPa)
#
#
# Indices 1 2 3 4 5 6 
#
# 1 0.011968 -0.004423 -0.001314 0.000000 -0.002729 0.000000
# 2 -0.004423 0.010245 -0.001060 0.000000 -0.000557 0.000000
# 3 -0.001314 -0.001060 0.014940 0.000000 -0.004822 0.000000
# 4 0.000000 0.000000 0.000000 0.038227 0.000000 -0.005237
# 5 -0.002729 -0.000557 -0.004822 0.000000 0.025568 0.000000
# 6 0.000000 0.000000 0.000000 -0.005237 0.000000 0.025064
#
#
# Mechanical properties :
#
#
# Convention : Reuss Voigt Hill
#
# Bulk Modulus (GPa) = 42.44387 52.27578 47.35982
# Shear Modulus (GPa) = 33.90768 37.08490 35.49629
#
# Velocity S-wave (km/s) = 3.89940 4.07800 3.98970
# Velocity P-wave (km/s) = 6.26953 6.75394 6.51624
#
# Compressibility (1/GPa) = 0.02356053
#
# Stress axis : x y z
#
# Youngs Moduli (GPa) = 83.55299 97.60912 66.93464
#
# Poissons Ratio (x) = 0.43172 0.08793
# Poissons Ratio (y) = 0.36955 0.07094
# Poissons Ratio (z) = 0.10976 0.10345
#
# Static dielectric constant tensor:
#      x y z
#    x 1.790190 0.000000 0.020100 
#    y 0.000000 1.880050 0.000000 
#    z 0.020100 0.000000 1.844840 
# 
# From -- ./inp_files/6479.got.cif
#   From: 2010.05.17/outbox.cif.g08.bks.cpg/sg4_4_cif.got.tgz:6479.got - 2010.06.03 18:43:04.
