data_PCOD9118876
_publ_section_title
;
Structure prediction by ZEFSAII (Michael W. Deem and Ramdas Pophale) SiO2 
 PCOD9118876
Probable space group: P 21
;
_chemical_formula_sum "Si O2"
_cell_formula_units_Z 14
_cell_length_a 18.549556
_cell_length_b 5.052770
_cell_length_c 9.381517
_cell_angle_alpha 90.000000
_cell_angle_beta 140.500351
_cell_angle_gamma 90.000000
_cell_volume 559.298193
_symmetry_space_group_name_H-M "P 21"
_symmetry_group_IT_number 4
_symmetry_cell_setting 'monoclinic'
loop_
_space_group_symop_operation_xyz
x,y,z
-x,1/2+y,-z
loop_
_atom_site_type_symbol
_atom_site_label
_atom_site_fract_x
_atom_site_fract_y
_atom_site_fract_z
Si Si1 0.670145 0.007610 0.261159
Si Si2 0.069376 0.976655 0.547525
Si Si3 0.913032 0.131442 0.690295
Si Si4 0.647335 0.529639 0.408748
Si Si5 0.576274 0.951508 0.803064
Si Si6 0.148195 0.883523 0.115940
Si Si7 0.706112 0.450502 0.925410
O O1 0.806550 0.974958 0.462746
O O2 0.654884 0.304439 0.298154
O O3 0.614759 0.805371 0.288271
O O4 0.618827 0.938177 0.031514
O O5 0.074419 0.893297 0.388901
O O6 0.196872 0.974430 0.804654
O O7 0.995303 0.745278 0.511059
O O8 0.884293 0.174736 0.812842
O O9 0.034908 0.000825 0.878782
O O10 0.558335 0.425582 0.389298
O O11 0.769250 0.573062 0.666816
O O12 0.646401 0.736019 0.820857
O O13 0.607427 0.247152 0.808701
O O14 0.225951 0.818904 0.101196
#
# Coordination Sequence:
#
# PCOD9118876 Si02
#       7
#     2   2   2   2   2   2   2
#     4  11  23  43  72 106 138 181 243 292 354 417
#     4  12  26  46  74 105 143 189 236 297 353 421
#     4  11  25  44  74 103 149 186 233 289 364 425
#     4  11  25  45  70 103 143 185 238 294 349 426
#     4  12  25  45  74 100 141 189 239 296 352 402
#     4  11  27  44  69 107 143 190 229 287 359 432
#     4  12  27  45  71 106 141 184 240 291 351 423
#
# _framework density 25.031369000000002
#
# number of rings (size 3 to 8) (size 9 to 14) (size 15 to 20)
#    0.000    0.571    2.857    4.286    4.000    3.429 
#    0.000    0.000    0.000    0.000    0.000    0.000 
#    0.000    0.000    0.000    0.000    0.000    0.000 
#
# Total GULP energy -78403.072643 kJ/mol
# GULP energy per Si atom -5600.219475 kJ/mol
# Density = 2.497440 g / cm^3
# Si number density = 25.031369 Si / 1000 Ang^3
#
#
#
# Elastic Constant Matrix: (Units=GPa)
#
#
# Indices 1 2 3 4 5 6 
#
# 1 105.7142 11.0112 24.3268 0.0000 17.5113 0.0000
# 2 11.0112 92.8887 10.8447 0.0000 7.5824 0.0000
# 3 24.3268 10.8447 97.7855 0.0000 17.9033 0.0000
# 4 0.0000 0.0000 0.0000 15.0914 0.0000 4.2762
# 5 17.5113 7.5824 17.9033 0.0000 43.0687 0.0000
# 6 0.0000 0.0000 0.0000 4.2762 0.0000 45.2208
#
#
#
# Elastic Compliance Matrix: (Units=1/GPa)
#
#
# Indices 1 2 3 4 5 6 
#
# 1 0.010536 -0.000751 -0.001924 0.000000 -0.003352 0.000000
# 2 -0.000751 0.011055 -0.000800 0.000000 -0.001309 0.000000
# 3 -0.001924 -0.000800 0.011500 0.000000 -0.003857 0.000000
# 4 0.000000 0.000000 0.000000 0.068087 0.000000 -0.006438
# 5 -0.003352 -0.001309 -0.003857 0.000000 0.026415 0.000000
# 6 0.000000 0.000000 0.000000 -0.006438 0.000000 0.022723
#
#
# Mechanical properties :
#
#
# Convention : Reuss Voigt Hill
#
# Bulk Modulus (GPa) = 38.25335 43.19487 40.72411
# Shear Modulus (GPa) = 30.12442 37.35655 33.74049
#
# Velocity S-wave (km/s) = 3.47287 3.86734 3.67540
# Velocity P-wave (km/s) = 5.60325 6.10209 5.85798
#
# Compressibility (1/GPa) = 0.02614150
#
# Stress axis : x y z
#
# Youngs Moduli (GPa) = 94.91603 90.45897 86.95597
#
# Poissons Ratio (x) = 0.06791 0.16731
# Poissons Ratio (y) = 0.07125 0.06954
# Poissons Ratio (z) = 0.18263 0.07234
#
# Static dielectric constant tensor:
#      x y z
#    x 1.972300 0.000000 -0.024260 
#    y 0.000000 1.924940 0.000000 
#    z -0.024260 0.000000 1.971190 
# 
# From -- ./inp_files/7139.got.cif
#   From: 2010.05.17/outbox.cif.g08.bks.cpg/sg4_4_cif.got.tgz:7139.got - 2010.06.03 18:43:04.
