data_PCOD9118261
_publ_section_title
;
Structure prediction by ZEFSAII (Michael W. Deem and Ramdas Pophale) SiO2 
 PCOD9118261
Probable space group: P 21
;
_chemical_formula_sum "Si O2"
_cell_formula_units_Z 14
_cell_length_a 9.790936
_cell_length_b 7.892865
_cell_length_c 8.643736
_cell_angle_alpha 90.000000
_cell_angle_beta 127.448594
_cell_angle_gamma 90.000000
_cell_volume 530.305031
_symmetry_space_group_name_H-M "P 21"
_symmetry_group_IT_number 4
_symmetry_cell_setting 'monoclinic'
loop_
_space_group_symop_operation_xyz
x,y,z
-x,1/2+y,-z
loop_
_atom_site_type_symbol
_atom_site_label
_atom_site_fract_x
_atom_site_fract_y
_atom_site_fract_z
Si Si1 0.979619 0.713020 0.243741
Si Si2 0.693512 0.695602 0.779113
Si Si3 0.217462 0.916147 0.742043
Si Si4 0.351372 0.142564 0.576929
Si Si5 0.540556 0.960984 0.180095
Si Si6 0.270736 0.589449 0.234327
Si Si7 0.152081 0.575193 0.810247
O O1 0.909141 0.569360 0.307325
O O2 0.162590 0.659383 0.302042
O O3 0.958961 0.905291 0.286382
O O4 0.845107 0.695420 0.008185
O O5 0.745835 0.615397 0.651185
O O6 0.531718 0.599489 0.747170
O O7 0.677549 0.892424 0.723806
O O8 0.111330 0.742905 0.684505
O O9 0.319904 0.980216 0.662305
O O10 0.365913 0.898458 0.976388
O O11 0.335945 0.315688 0.664147
O O12 0.546987 0.176218 0.657369
O O13 0.656478 0.034360 0.121909
O O14 0.165151 0.613020 0.002009
#
# Coordination Sequence:
#
# PCOD9118261 Si02
#       7
#     2   2   2   2   2   2   2
#     4  10  25  44  68 105 141 188 240 296 360 441
#     4  10  25  41  72 106 149 185 239 311 372 423
#     4  11  21  40  72 102 139 189 246 289 349 438
#     4  12  22  42  73 110 143 188 243 306 361 423
#     4  11  20  39  65 106 140 185 242 298 349 433
#     4  11  23  42  70 105 146 185 242 300 363 441
#     4  11  22  38  68 106 136 182 246 294 346 419
#
# _framework density 26.399898
#
# number of rings (size 3 to 8) (size 9 to 14) (size 15 to 20)
#    0.000    1.143    4.286    1.714    6.000    0.000 
#    0.000    0.000    6.286    0.000    0.000    0.000 
#    0.000    0.000    0.000    0.000    0.000    0.000 
#
# Total GULP energy -78416.571850 kJ/mol
# GULP energy per Si atom -5601.183704 kJ/mol
# Density = 2.633981 g / cm^3
# Si number density = 26.399898 Si / 1000 Ang^3
#
#
#
# Elastic Constant Matrix: (Units=GPa)
#
#
# Indices 1 2 3 4 5 6 
#
# 1 150.0236 82.7030 18.8647 0.0000 -8.0372 0.0000
# 2 82.7030 163.4800 34.6126 0.0000 8.2230 0.0000
# 3 18.8647 34.6126 102.1575 0.0000 -1.5444 0.0000
# 4 0.0000 0.0000 0.0000 30.0997 0.0000 -12.3673
# 5 -8.0372 8.2230 -1.5444 0.0000 23.6027 0.0000
# 6 0.0000 0.0000 0.0000 -12.3673 0.0000 46.5559
#
#
#
# Elastic Compliance Matrix: (Units=1/GPa)
#
#
# Indices 1 2 3 4 5 6 
#
# 1 0.009826 -0.005240 0.000039 0.000000 0.005174 0.000000
# 2 -0.005240 0.009527 -0.002340 0.000000 -0.005257 0.000000
# 3 0.000039 -0.002340 0.010597 0.000000 0.001522 0.000000
# 4 0.000000 0.000000 0.000000 0.037293 0.000000 0.009907
# 5 0.005174 -0.005257 0.001522 0.000000 0.046061 0.000000
# 6 0.000000 0.000000 0.000000 0.009907 0.000000 0.024111
#
#
# Mechanical properties :
#
#
# Convention : Reuss Voigt Hill
#
# Bulk Modulus (GPa) = 67.24952 76.44683 71.84817
# Shear Modulus (GPa) = 31.75526 38.68373 35.21949
#
# Velocity S-wave (km/s) = 3.47198 3.83207 3.65646
# Velocity P-wave (km/s) = 6.44993 6.97136 6.71571
#
# Compressibility (1/GPa) = 0.01486999
#
# Stress axis : x y z
#
# Youngs Moduli (GPa) = 101.76792 104.96033 94.36233
#
# Poissons Ratio (x) = 0.54994 -0.00367
# Poissons Ratio (y) = 0.53321 0.22080
# Poissons Ratio (z) = -0.00396 0.24560
#
# Static dielectric constant tensor:
#      x y z
#    x 2.002080 0.000000 -0.034390 
#    y 0.000000 2.102060 0.000000 
#    z -0.034390 0.000000 2.165280 
# 
# From -- ./inp_files/5849.got.cif
#   From: 2010.05.17/outbox.cif.g08.bks.cpg/sg4_3_cif.got.tgz:5849.got - 2010.06.03 18:43:04.
