data_PCOD9118414
_publ_section_title
;
Structure prediction by ZEFSAII (Michael W. Deem and Ramdas Pophale) SiO2 
 PCOD9118414
Probable space group: P 21
;
_chemical_formula_sum "Si O2"
_cell_formula_units_Z 12
_cell_length_a 11.663904
_cell_length_b 10.293589
_cell_length_c 9.347308
_cell_angle_alpha 90.000000
_cell_angle_beta 25.008755
_cell_angle_gamma 90.000000
_cell_volume 474.447167
_symmetry_space_group_name_H-M "P 21"
_symmetry_group_IT_number 4
_symmetry_cell_setting 'monoclinic'
loop_
_space_group_symop_operation_xyz
x,y,z
-x,1/2+y,-z
loop_
_atom_site_type_symbol
_atom_site_label
_atom_site_fract_x
_atom_site_fract_y
_atom_site_fract_z
Si Si1 0.496553 0.925200 0.119429
Si Si2 0.244649 0.239317 0.986009
Si Si3 0.882363 0.906335 0.437431
Si Si4 0.826586 0.121586 0.268511
Si Si5 0.980233 0.617967 0.269008
Si Si6 0.189706 0.737334 0.287589
O O1 0.654280 0.882107 0.083757
O O2 0.402277 0.782454 0.163781
O O3 0.235863 0.009679 0.446599
O O4 0.667810 0.970247 0.788271
O O5 0.510823 0.156532 0.646787
O O6 0.072311 0.198033 0.321679
O O7 0.027871 0.232663 0.103051
O O8 0.823396 0.758855 0.451341
O O9 0.129899 0.870732 0.264259
O O10 0.910820 0.998453 0.270514
O O11 0.891533 0.101578 0.030108
O O12 0.205923 0.637435 0.138720
#
# Coordination Sequence:
#
# PCOD9118414 Si02
#       6
#     2   2   2   2   2   2
#     4  11  22  47  80 108 148 196 266 312 369 445
#     4  11  25  46  76 102 145 201 247 306 374 440
#     4   9  25  42  72 107 146 193 246 309 368 444
#     4  12  26  48  72 109 155 193 243 312 387 444
#     4  10  26  46  70 117 147 201 247 315 377 459
#     4   9  22  43  74 105 141 190 259 296 367 436
#
# _framework density 25.292594999999999
#
# number of rings (size 3 to 8) (size 9 to 14) (size 15 to 20)
#    1.000    0.667    1.667    1.000    7.000    1.333 
#   12.000    0.000    0.000    0.000    0.000    0.000 
#    0.000    0.000    0.000    0.000    0.000    0.000 
#
# Total GULP energy -67059.833587 kJ/mol
# GULP energy per Si atom -5588.319466 kJ/mol
# Density = 2.523503 g / cm^3
# Si number density = 25.292595 Si / 1000 Ang^3
#
#
#
# Elastic Constant Matrix: (Units=GPa)
#
#
# Indices 1 2 3 4 5 6 
#
# 1 132.9924 24.1916 64.4550 0.0000 23.8149 0.0000
# 2 24.1916 92.1892 32.3468 0.0000 19.2828 0.0000
# 3 64.4550 32.3468 103.3943 0.0000 25.0770 0.0000
# 4 0.0000 0.0000 0.0000 33.2466 0.0000 2.0066
# 5 23.8149 19.2828 25.0770 0.0000 57.4471 0.0000
# 6 0.0000 0.0000 0.0000 2.0066 0.0000 36.4818
#
#
#
# Elastic Compliance Matrix: (Units=1/GPa)
#
#
# Indices 1 2 3 4 5 6 
#
# 1 0.010935 -0.000303 -0.006316 0.000000 -0.001674 0.000000
# 2 -0.000303 0.012583 -0.003080 0.000000 -0.002754 0.000000
# 3 -0.006316 -0.003080 0.015307 0.000000 -0.003030 0.000000
# 4 0.000000 0.000000 0.000000 0.030178 0.000000 -0.001660
# 5 -0.001674 -0.002754 -0.003030 0.000000 0.020348 0.000000
# 6 0.000000 0.000000 0.000000 -0.001660 0.000000 0.027502
#
#
# Mechanical properties :
#
#
# Convention : Reuss Voigt Hill
#
# Bulk Modulus (GPa) = 51.47185 63.39585 57.43385
# Shear Modulus (GPa) = 35.03138 39.27395 37.15267
#
# Velocity S-wave (km/s) = 3.72566 3.94481 3.83680
# Velocity P-wave (km/s) = 6.23715 6.77260 6.51039
#
# Compressibility (1/GPa) = 0.01942810
#
# Stress axis : x y z
#
# Youngs Moduli (GPa) = 91.44727 79.46963 65.32772
#
# Poissons Ratio (x) = 0.02410 0.41261
# Poissons Ratio (y) = 0.02773 0.20120
# Poissons Ratio (z) = 0.57758 0.24475
#
# Static dielectric constant tensor:
#      x y z
#    x 1.977390 0.000000 -0.076930 
#    y 0.000000 2.205020 0.000000 
#    z -0.076930 0.000000 1.975450 
# 
# From -- ./inp_files/8102.got.cif
#   From: 2010.05.17/outbox.cif.g08.bks.cpg/sg4_5_cif.got.tgz:8102.got - 2010.06.03 18:43:04.
