data_PCOD9118992
_publ_section_title
;
Structure prediction by ZEFSAII (Michael W. Deem and Ramdas Pophale) SiO2 
 PCOD9118992
Probable space group: P 21
;
_chemical_formula_sum "Si O2"
_cell_formula_units_Z 14
_cell_length_a 11.928968
_cell_length_b 5.586912
_cell_length_c 13.452736
_cell_angle_alpha 90.000000
_cell_angle_beta 42.266693
_cell_angle_gamma 90.000000
_cell_volume 603.018795
_symmetry_space_group_name_H-M "P 21"
_symmetry_group_IT_number 4
_symmetry_cell_setting 'monoclinic'
loop_
_space_group_symop_operation_xyz
x,y,z
-x,1/2+y,-z
loop_
_atom_site_type_symbol
_atom_site_label
_atom_site_fract_x
_atom_site_fract_y
_atom_site_fract_z
Si Si1 0.544859 0.880580 0.379784
Si Si2 0.768752 0.252488 0.284682
Si Si3 0.431506 0.136957 0.268188
Si Si4 0.296142 0.996413 0.869787
Si Si5 0.075506 0.124320 0.416659
Si Si6 0.560430 0.912235 0.006855
Si Si7 0.098365 0.238115 0.179112
O O1 0.407398 0.836178 0.553153
O O2 0.596829 0.671832 0.270683
O O3 0.721948 0.972217 0.306009
O O4 0.455288 0.073080 0.366782
O O5 0.799636 0.343422 0.152394
O O6 0.917469 0.317253 0.260471
O O7 0.572324 0.334015 0.157838
O O8 0.250538 0.205747 0.350312
O O9 0.482989 0.912100 0.167276
O O10 0.176347 0.108656 0.030972
O O11 0.964207 0.362045 0.511264
O O12 0.081077 0.092620 0.293409
O O13 0.239624 0.431304 0.115890
O O14 0.514531 0.654381 0.991149
#
# Coordination Sequence:
#
# PCOD9118992 Si02
#       7
#     2   2   2   2   2   2   2
#     4  11  23  47  74 105 152 205 257 314 402 468
#     4  11  26  47  73 112 150 208 259 329 390 469
#     4  11  26  45  79 101 157 201 262 312 398 477
#     4  11  26  48  74 110 149 208 263 322 388 465
#     4  12  31  50  75 118 159 205 258 325 396 473
#     4  12  26  48  76 114 154 203 255 320 394 468
#     4  12  28  47  81 114 157 202 266 334 386 470
#
# _framework density 23.216525000000001
#
# number of rings (size 3 to 8) (size 9 to 14) (size 15 to 20)
#    0.000    0.571    4.286    1.714    8.000    0.000 
#    5.143    0.000    0.000    0.000    0.000    0.000 
#    0.000    0.000    0.000    0.000    0.000    0.000 
#
# Total GULP energy -78129.822438 kJ/mol
# GULP energy per Si atom -5580.701603 kJ/mol
# Density = 2.316368 g / cm^3
# Si number density = 23.216525 Si / 1000 Ang^3
#
#
#
# Elastic Constant Matrix: (Units=GPa)
#
#
# Indices 1 2 3 4 5 6 
#
# 1 135.0313 33.2492 33.3405 0.0000 -12.5233 0.0000
# 2 33.2492 77.1101 29.5311 0.0000 7.1919 0.0000
# 3 33.3405 29.5311 95.6834 0.0000 20.9618 0.0000
# 4 0.0000 0.0000 0.0000 34.2006 0.0000 10.5078
# 5 -12.5233 7.1919 20.9618 0.0000 51.7683 0.0000
# 6 0.0000 0.0000 0.0000 10.5078 0.0000 23.5445
#
#
#
# Elastic Compliance Matrix: (Units=1/GPa)
#
#
# Indices 1 2 3 4 5 6 
#
# 1 0.009335 -0.003194 -0.003137 0.000000 0.003972 0.000000
# 2 -0.003194 0.015802 -0.003417 0.000000 -0.001585 0.000000
# 3 -0.003137 -0.003417 0.013894 0.000000 -0.005910 0.000000
# 4 0.000000 0.000000 0.000000 0.033886 0.000000 -0.015123
# 5 0.003972 -0.001585 -0.005910 0.000000 0.022891 0.000000
# 6 0.000000 0.000000 0.000000 -0.015123 0.000000 0.049222
#
#
# Mechanical properties :
#
#
# Convention : Reuss Voigt Hill
#
# Bulk Modulus (GPa) = 51.19237 55.56293 53.37765
# Shear Modulus (GPa) = 29.23323 36.01626 32.62475
#
# Velocity S-wave (km/s) = 3.55231 3.94295 3.75272
# Velocity P-wave (km/s) = 6.23883 6.68682 6.46671
#
# Compressibility (1/GPa) = 0.01953416
#
# Stress axis : x y z
#
# Youngs Moduli (GPa) = 107.12072 63.28231 71.97567
#
# Poissons Ratio (x) = 0.20214 0.22580
# Poissons Ratio (y) = 0.34218 0.24593
# Poissons Ratio (z) = 0.33606 0.21623
#
# Static dielectric constant tensor:
#      x y z
#    x 1.877680 0.000000 -0.000500 
#    y 0.000000 2.010710 0.000000 
#    z -0.000500 0.000000 1.879460 
# 
# From -- ./inp_files/7221.got.cif
#   From: 2010.05.17/outbox.cif.g08.bks.cpg/sg4_4_cif.got.tgz:7221.got - 2010.06.03 18:43:04.
