data_PCOD9118122
_publ_section_title
;
Structure prediction by ZEFSAII (Michael W. Deem and Ramdas Pophale) SiO2 
 PCOD9118122
Probable space group: P 21
;
_chemical_formula_sum "Si O2"
_cell_formula_units_Z 16
_cell_length_a 13.211997
_cell_length_b 4.894367
_cell_length_c 11.435154
_cell_angle_alpha 90.000000
_cell_angle_beta 119.840644
_cell_angle_gamma 90.000000
_cell_volume 641.405663
_symmetry_space_group_name_H-M "P 21"
_symmetry_group_IT_number 4
_symmetry_cell_setting 'monoclinic'
loop_
_space_group_symop_operation_xyz
x,y,z
-x,1/2+y,-z
loop_
_atom_site_type_symbol
_atom_site_label
_atom_site_fract_x
_atom_site_fract_y
_atom_site_fract_z
Si Si1 0.254512 0.510260 0.261935
Si Si2 0.536175 0.267692 0.769487
Si Si3 0.658706 0.051939 0.069458
Si Si4 0.051801 0.958935 0.587324
Si Si5 0.999460 0.380128 0.183232
Si Si6 0.136028 0.393738 0.967774
Si Si7 0.325149 0.044912 0.764519
Si Si8 0.549188 0.113052 0.466736
O O1 0.352284 0.687844 0.247800
O O2 0.121626 0.535568 0.229552
O O3 0.325279 0.491727 0.424827
O O4 0.216399 0.328969 0.126965
O O5 0.499833 0.556736 0.690711
O O6 0.408287 0.124950 0.705216
O O7 0.581862 0.190407 0.924330
O O8 0.643155 0.745946 0.108270
O O9 0.784776 0.042230 0.082619
O O10 0.651366 0.240680 0.177890
O O11 0.973268 0.225679 0.521822
O O12 0.012946 0.820695 0.687071
O O13 0.186488 0.055318 0.662787
O O14 0.971014 0.113511 0.086160
O O15 0.904194 0.606896 0.101633
O O16 0.467558 0.923440 0.503857
#
# Coordination Sequence:
#
# PCOD9118122 Si02
#       8
#     2   2   2   2   2   2   2   2
#     4  10  25  44  70 101 137 181 224 280 339 402
#     4  10  25  44  70 101 137 181 224 280 339 402
#     4  11  22  43  70 102 136 174 228 283 336 394
#     4  12  26  46  70 100 138 178 224 274 342 400
#     4  12  24  45  71 101 137 176 227 281 333 407
#     4  11  22  43  70 102 136 174 228 283 336 394
#     4  12  24  45  71 101 137 176 227 281 333 407
#     4  10  24  46  64  94 138 178 226 268 334 408
#
# _framework density 24.945209999999999
#
# number of rings (size 3 to 8) (size 9 to 14) (size 15 to 20)
#    0.000    1.000    2.500    3.000    1.750   10.000 
#    9.000    0.000    0.000    0.000    0.000    0.000 
#    0.000    0.000    0.000    0.000    0.000    0.000 
#
# Total GULP energy -89089.130430 kJ/mol
# GULP energy per Si atom -5568.070652 kJ/mol
# Density = 2.488843 g / cm^3
# Si number density = 24.945210 Si / 1000 Ang^3
#
#
#
# Elastic Constant Matrix: (Units=GPa)
#
#
# Indices 1 2 3 4 5 6 
#
# 1 99.9809 1.3400 0.1606 0.0000 -4.9705 0.0000
# 2 1.3400 78.3913 33.7309 0.0000 2.6502 0.0000
# 3 0.1606 33.7309 72.0024 0.0000 3.1374 0.0000
# 4 0.0000 0.0000 0.0000 24.0346 0.0000 -1.2269
# 5 -4.9705 2.6502 3.1374 0.0000 21.0237 0.0000
# 6 0.0000 0.0000 0.0000 -1.2269 0.0000 -20.9031
#
#
#
# Elastic Compliance Matrix: (Units=1/GPa)
#
#
# Indices 1 2 3 4 5 6 
#
# 1 0.010126 -0.000250 -0.000011 0.000000 0.002427 0.000000
# 2 -0.000250 0.016000 -0.007453 0.000000 -0.000964 0.000000
# 3 -0.000011 -0.007453 0.017453 0.000000 -0.001668 0.000000
# 4 0.000000 0.000000 0.000000 0.041482 0.000000 -0.002435
# 5 0.002427 -0.000964 -0.001668 0.000000 0.048510 0.000000
# 6 0.000000 0.000000 0.000000 -0.002435 0.000000 -0.047697
#
#
# Mechanical properties :
#
#
# Convention : Reuss Voigt Hill
#
# Bulk Modulus (GPa) = 35.52414 35.64862 35.58638
# Shear Modulus (GPa) = 45.17259 19.17390 32.17325
#
# Velocity S-wave (km/s) = 4.26005 2.77544 3.59521
# Velocity P-wave (km/s) = 6.20235 4.95909 5.61524
#
# Compressibility (1/GPa) = 0.02814987
#
# Stress axis : x y z
#
# Youngs Moduli (GPa) = 98.75614 62.49843 57.29776
#
# Poissons Ratio (x) = 0.01565 0.00063
# Poissons Ratio (y) = 0.02473 0.42705
# Poissons Ratio (z) = 0.00109 0.46581
#
# Static dielectric constant tensor:
#      x y z
#    x 2.043100 0.000000 -0.015150 
#    y 0.000000 1.942360 0.000000 
#    z -0.015150 0.000000 2.081670 
# 
# From -- ./inp_files/12501.got.cif
#   From: 2010.05.17/outbox.cif.g08.bks.cpg/sg4_7_cif.got.tgz:12501.got - 2010.06.03 18:43:04.
