data_PCOD9118381
_publ_section_title
;
Structure prediction by ZEFSAII (Michael W. Deem and Ramdas Pophale) SiO2 
 PCOD9118381
Probable space group: P 21
;
_chemical_formula_sum "Si O2"
_cell_formula_units_Z 14
_cell_length_a 7.859643
_cell_length_b 8.843420
_cell_length_c 8.352593
_cell_angle_alpha 90.000000
_cell_angle_beta 66.656024
_cell_angle_gamma 90.000000
_cell_volume 533.033484
_symmetry_space_group_name_H-M "P 21"
_symmetry_group_IT_number 4
_symmetry_cell_setting 'monoclinic'
loop_
_space_group_symop_operation_xyz
x,y,z
-x,1/2+y,-z
loop_
_atom_site_type_symbol
_atom_site_label
_atom_site_fract_x
_atom_site_fract_y
_atom_site_fract_z
Si Si1 0.605152 0.117110 0.644813
Si Si2 0.171991 0.880538 0.497198
Si Si3 0.684753 0.842361 0.390540
Si Si4 0.791380 0.918756 0.805068
Si Si5 0.977084 0.995601 0.070795
Si Si6 0.762701 0.287914 0.175311
Si Si7 0.365783 0.152715 0.276493
O O1 0.795450 0.212654 0.578034
O O2 0.444969 0.241678 0.678509
O O3 0.610725 0.002053 0.491583
O O4 0.620474 0.015156 0.796789
O O5 0.281754 0.988779 0.335260
O O6 0.262748 0.865457 0.641845
O O7 0.962723 0.923683 0.615197
O O8 0.873331 0.888205 0.235073
O O9 0.705803 0.736619 0.535857
O O10 0.719449 0.747164 0.836456
O O11 0.871663 0.976426 0.940154
O O12 0.932100 0.168773 0.129513
O O13 0.177281 0.922548 0.964877
O O14 0.584335 0.188923 0.196011
#
# Coordination Sequence:
#
# PCOD9118381 Si02
#       7
#     2   2   2   2   2   2   2
#     4  11  21  41  69 101 131 181 244 290 348 422
#     4  11  21  43  70 101 136 178 240 299 334 428
#     4  11  22  39  73 100 130 184 238 296 338 431
#     4  10  26  41  64  99 149 179 228 291 375 414
#     4  11  25  46  64 104 146 183 232 292 374 426
#     4  11  25  42  71 103 138 189 239 292 355 431
#     4  11  24  44  73 106 130 188 247 292 348 424
#
# _framework density 26.264768
#
# number of rings (size 3 to 8) (size 9 to 14) (size 15 to 20)
#    0.000    1.143    2.857    2.571    6.000    1.143 
#    0.000    1.429    0.000    0.000    0.000    0.000 
#    0.000    0.000    0.000    0.000    0.000    0.000 
#
# Total GULP energy -78327.934995 kJ/mol
# GULP energy per Si atom -5594.852500 kJ/mol
# Density = 2.620499 g / cm^3
# Si number density = 26.264768 Si / 1000 Ang^3
#
#
#
# Elastic Constant Matrix: (Units=GPa)
#
#
# Indices 1 2 3 4 5 6 
#
# 1 106.7696 35.7697 13.7809 0.0000 -11.0030 0.0000
# 2 35.7697 137.9795 26.1618 0.0000 -13.8303 0.0000
# 3 13.7809 26.1618 56.4881 0.0000 -9.5859 0.0000
# 4 0.0000 0.0000 0.0000 32.7970 0.0000 -8.2030
# 5 -11.0030 -13.8303 -9.5859 0.0000 26.7518 0.0000
# 6 0.0000 0.0000 0.0000 -8.2030 0.0000 42.2882
#
#
#
# Elastic Compliance Matrix: (Units=1/GPa)
#
#
# Indices 1 2 3 4 5 6 
#
# 1 0.010545 -0.002254 -0.001055 0.000000 0.002794 0.000000
# 2 -0.002254 0.008655 -0.003041 0.000000 0.002458 0.000000
# 3 -0.001055 -0.003041 0.020260 0.000000 0.005254 0.000000
# 4 0.000000 0.000000 0.000000 0.032045 0.000000 0.006216
# 5 0.002794 0.002458 0.005254 0.000000 0.041683 0.000000
# 6 0.000000 0.000000 0.000000 0.006216 0.000000 0.024853
#
#
# Mechanical properties :
#
#
# Convention : Reuss Voigt Hill
#
# Bulk Modulus (GPa) = 37.36853 50.29576 43.83214
# Shear Modulus (GPa) = 31.31633 35.40240 33.35936
#
# Velocity S-wave (km/s) = 3.45676 3.67536 3.56774
# Velocity P-wave (km/s) = 5.49461 6.09936 5.80487
#
# Compressibility (1/GPa) = 0.02676049
#
# Stress axis : x y z
#
# Youngs Moduli (GPa) = 94.83126 115.54416 49.35760
#
# Poissons Ratio (x) = 0.26040 0.05206
# Poissons Ratio (y) = 0.21372 0.15012
# Poissons Ratio (z) = 0.10001 0.35142
#
# Static dielectric constant tensor:
#      x y z
#    x 2.136700 0.000000 0.003990 
#    y 0.000000 2.085490 0.000000 
#    z 0.003990 0.000000 2.037670 
# 
# From -- ./inp_files/6037.got.cif
#   From: 2010.05.17/outbox.cif.g08.bks.cpg/sg4_4_cif.got.tgz:6037.got - 2010.06.03 18:43:04.
