data_PCOD9118988
_publ_section_title
;
Structure prediction by ZEFSAII (Michael W. Deem and Ramdas Pophale) SiO2 
 PCOD9118988
Probable space group: P 21
;
_chemical_formula_sum "Si O2"
_cell_formula_units_Z 12
_cell_length_a 7.372286
_cell_length_b 6.687338
_cell_length_c 13.752080
_cell_angle_alpha 90.000000
_cell_angle_beta 132.234188
_cell_angle_gamma 90.000000
_cell_volume 501.986910
_symmetry_space_group_name_H-M "P 21"
_symmetry_group_IT_number 4
_symmetry_cell_setting 'monoclinic'
loop_
_space_group_symop_operation_xyz
x,y,z
-x,1/2+y,-z
loop_
_atom_site_type_symbol
_atom_site_label
_atom_site_fract_x
_atom_site_fract_y
_atom_site_fract_z
Si Si1 0.035498 0.026770 0.282176
Si Si2 0.616419 0.696219 0.148007
Si Si3 0.290573 0.778773 0.516909
Si Si4 0.757041 0.519836 0.995660
Si Si5 0.783219 0.772264 0.817834
Si Si6 0.958314 0.417050 0.384841
O O1 0.072458 0.094629 0.185706
O O2 0.982761 0.224179 0.326060
O O3 0.267303 0.915081 0.413562
O O4 0.816907 0.871617 0.213158
O O5 0.722018 0.542297 0.264272
O O6 0.367935 0.811410 0.082466
O O7 0.624337 0.585815 0.047141
O O8 0.544702 0.795414 0.664681
O O9 0.086230 0.857180 0.520229
O O10 0.196049 0.556456 0.460147
O O11 0.725084 0.690318 0.903713
O O12 0.040321 0.464525 0.117201
#
# Coordination Sequence:
#
# PCOD9118988 Si02
#       6
#     2   2   2   2   2   2
#     4  11  24  48  71 106 144 183 243 306 367 419
#     4  11  26  47  77 101 141 195 248 287 351 450
#     4  11  26  42  75 101 142 186 241 302 359 433
#     4  12  27  47  75 106 149 196 240 296 360 440
#     4  12  28  45  70 110 149 185 236 305 373 416
#     4  11  23  47  72 106 133 193 246 296 358 436
#
# _framework density 23.905004999999999
#
# number of rings (size 3 to 8) (size 9 to 14) (size 15 to 20)
#    0.000    0.667    3.333    3.000    9.333    0.000 
#    0.000    0.000    0.000    0.000    0.000    0.000 
#    0.000    0.000    0.000    0.000    0.000    0.000 
#
# Total GULP energy -67244.460305 kJ/mol
# GULP energy per Si atom -5603.705025 kJ/mol
# Density = 2.385060 g / cm^3
# Si number density = 23.905005 Si / 1000 Ang^3
#
#
#
# Elastic Constant Matrix: (Units=GPa)
#
#
# Indices 1 2 3 4 5 6 
#
# 1 30.2128 -1.9339 -9.3809 0.0000 -4.4972 0.0000
# 2 -1.9339 85.5093 19.6708 0.0000 14.6453 0.0000
# 3 -9.3809 19.6708 98.3410 0.0000 18.0585 0.0000
# 4 0.0000 0.0000 0.0000 53.5292 0.0000 -8.8708
# 5 -4.4972 14.6453 18.0585 0.0000 45.7331 0.0000
# 6 0.0000 0.0000 0.0000 -8.8708 0.0000 24.1617
#
#
#
# Elastic Compliance Matrix: (Units=1/GPa)
#
#
# Indices 1 2 3 4 5 6 
#
# 1 0.034328 -0.000290 0.002906 0.000000 0.002321 0.000000
# 2 -0.000290 0.012708 -0.001959 0.000000 -0.003324 0.000000
# 3 0.002906 -0.001959 0.011504 0.000000 -0.003630 0.000000
# 4 0.000000 0.000000 0.000000 0.019892 0.000000 0.007303
# 5 0.002321 -0.003324 -0.003630 0.000000 0.024592 0.000000
# 6 0.000000 0.000000 0.000000 0.007303 0.000000 0.044069
#
#
# Mechanical properties :
#
#
# Convention : Reuss Voigt Hill
#
# Bulk Modulus (GPa) = 16.70692 25.64166 21.17429
# Shear Modulus (GPa) = 30.16957 38.39860 34.28408
#
# Velocity S-wave (km/s) = 3.55640 4.01221 3.79117
# Velocity P-wave (km/s) = 4.88549 5.67570 5.29536
#
# Compressibility (1/GPa) = 0.05985545
#
# Stress axis : x y z
#
# Youngs Moduli (GPa) = 29.13083 78.68960 86.92389
#
# Poissons Ratio (x) = 0.02280 -0.25263
# Poissons Ratio (y) = 0.00844 0.17029
# Poissons Ratio (z) = -0.08466 0.15416
#
# Static dielectric constant tensor:
#      x y z
#    x 1.926040 0.000000 0.037670 
#    y 0.000000 1.879550 0.000000 
#    z 0.037670 0.000000 1.906100 
# 
# From -- ./inp_files/8766.got.cif
#   From: 2010.05.17/outbox.cif.g08.bks.cpg/sg4_5_cif.got.tgz:8766.got - 2010.06.03 18:43:04.
