data_PCOD9118291
_publ_section_title
;
Structure prediction by ZEFSAII (Michael W. Deem and Ramdas Pophale) SiO2 
 PCOD9118291
Probable space group: P 21
;
_chemical_formula_sum "Si O2"
_cell_formula_units_Z 12
_cell_length_a 7.624088
_cell_length_b 8.566302
_cell_length_c 7.760260
_cell_angle_alpha 90.000000
_cell_angle_beta 83.604867
_cell_angle_gamma 90.000000
_cell_volume 503.670672
_symmetry_space_group_name_H-M "P 21"
_symmetry_group_IT_number 4
_symmetry_cell_setting 'monoclinic'
loop_
_space_group_symop_operation_xyz
x,y,z
-x,1/2+y,-z
loop_
_atom_site_type_symbol
_atom_site_label
_atom_site_fract_x
_atom_site_fract_y
_atom_site_fract_z
Si Si1 0.974136 0.703290 0.228896
Si Si2 0.679181 0.666724 0.810315
Si Si3 0.309126 0.666091 0.382678
Si Si4 0.452817 0.474633 0.050673
Si Si5 0.647686 0.836157 0.452490
Si Si6 0.149362 0.939620 0.969340
O O1 0.110259 0.720195 0.371889
O O2 0.786791 0.776185 0.297657
O O3 0.948230 0.524137 0.175709
O O4 0.059838 0.789390 0.056324
O O5 0.661002 0.819285 0.933782
O O6 0.687790 0.732195 0.618976
O O7 0.506324 0.559348 0.868441
O O8 0.834076 0.559135 0.868605
O O9 0.372767 0.600301 0.189576
O O10 0.446682 0.797257 0.424243
O O11 0.322759 0.515872 0.503344
O O12 0.645040 0.421610 0.103124
#
# Coordination Sequence:
#
# PCOD9118291 Si02
#       6
#     2   2   2   2   2   2
#     4  12  27  48  70 107 143 185 239 290 351 420
#     4   9  21  40  71 100 134 185 229 290 346 411
#     4  11  26  46  73 103 142 190 229 292 355 416
#     4   9  19  43  67 101 133 180 242 278 338 421
#     4  11  26  47  69 106 146 181 238 288 355 421
#     4  10  25  44  72  99 140 185 241 286 347 413
#
# _framework density 23.825091
#
# number of rings (size 3 to 8) (size 9 to 14) (size 15 to 20)
#    1.000    0.667    1.667    1.000    9.333    1.333 
#    6.000    0.000    0.000    0.000    0.000    0.000 
#    0.000    0.000    0.000    0.000    0.000    0.000 
#
# Total GULP energy -67094.282705 kJ/mol
# GULP energy per Si atom -5591.190225 kJ/mol
# Density = 2.377086 g / cm^3
# Si number density = 23.825091 Si / 1000 Ang^3
#
#
#
# Elastic Constant Matrix: (Units=GPa)
#
#
# Indices 1 2 3 4 5 6 
#
# 1 94.7421 7.3812 11.2891 0.0000 23.6696 0.0000
# 2 7.3812 52.9977 -2.3410 0.0000 3.9259 0.0000
# 3 11.2891 -2.3410 54.2805 0.0000 0.3619 0.0000
# 4 0.0000 0.0000 0.0000 42.9945 0.0000 11.1640
# 5 23.6696 3.9259 0.3619 0.0000 31.8262 0.0000
# 6 0.0000 0.0000 0.0000 11.1640 0.0000 29.7683
#
#
#
# Elastic Compliance Matrix: (Units=1/GPa)
#
#
# Indices 1 2 3 4 5 6 
#
# 1 0.013435 -0.001268 -0.002783 0.000000 -0.009803 0.000000
# 2 -0.001268 0.019200 0.001101 0.000000 -0.001438 0.000000
# 3 -0.002783 0.001101 0.019038 0.000000 0.001718 0.000000
# 4 0.000000 0.000000 0.000000 0.025768 0.000000 -0.009664
# 5 -0.009803 -0.001438 0.001718 0.000000 0.038870 0.000000
# 6 0.000000 0.000000 0.000000 -0.009664 0.000000 0.037217
#
#
# Mechanical properties :
#
#
# Convention : Reuss Voigt Hill
#
# Bulk Modulus (GPa) = 21.84689 26.07543 23.96116
# Shear Modulus (GPa) = 28.62297 33.29721 30.96009
#
# Velocity S-wave (km/s) = 3.46985 3.74246 3.60873
# Velocity P-wave (km/s) = 5.02422 5.44454 5.23860
#
# Compressibility (1/GPa) = 0.04577311
#
# Stress axis : x y z
#
# Youngs Moduli (GPa) = 74.43452 52.08198 52.52723
#
# Poissons Ratio (x) = 0.06603 0.14621
# Poissons Ratio (y) = 0.09437 -0.05785
# Poissons Ratio (z) = 0.20718 -0.05736
#
# Static dielectric constant tensor:
#      x y z
#    x 1.896640 0.000000 0.036340 
#    y 0.000000 1.879460 0.000000 
#    z 0.036340 0.000000 1.905770 
# 
# From -- ./inp_files/5532.got.cif
#   From: 2010.05.17/outbox.cif.g08.bks.cpg/sg4_3_cif.got.tgz:5532.got - 2010.06.03 18:43:04.
