data_PCOD9118633
_publ_section_title
;
Structure prediction by ZEFSAII (Michael W. Deem and Ramdas Pophale) SiO2 
 PCOD9118633
Probable space group: P 21
;
_chemical_formula_sum "Si O2"
_cell_formula_units_Z 12
_cell_length_a 9.900727
_cell_length_b 5.069468
_cell_length_c 16.975529
_cell_angle_alpha 90.000000
_cell_angle_beta 138.713719
_cell_angle_gamma 90.000000
_cell_volume 562.185222
_symmetry_space_group_name_H-M "P 21"
_symmetry_group_IT_number 4
_symmetry_cell_setting 'monoclinic'
loop_
_space_group_symop_operation_xyz
x,y,z
-x,1/2+y,-z
loop_
_atom_site_type_symbol
_atom_site_label
_atom_site_fract_x
_atom_site_fract_y
_atom_site_fract_z
Si Si1 0.649441 0.058280 0.280944
Si Si2 0.000263 0.528911 0.231072
Si Si3 0.723765 0.539468 0.614682
Si Si4 0.893942 0.550603 0.355761
Si Si5 0.421292 0.078835 0.015175
Si Si6 0.642388 0.877264 0.440254
O O1 0.749643 0.345965 0.338650
O O2 0.510306 0.077851 0.142452
O O3 0.544997 0.925313 0.311862
O O4 0.829468 0.849793 0.340200
O O5 0.153118 0.284552 0.294210
O O6 0.868484 0.483881 0.252744
O O7 0.137085 0.786507 0.306418
O O8 0.825583 0.554731 0.089724
O O9 0.506269 0.513743 0.561951
O O10 0.688376 0.602800 0.506338
O O11 0.132353 0.497668 0.473468
O O12 0.479656 0.337681 0.990491
#
# Coordination Sequence:
#
# PCOD9118633 Si02
#       6
#     2   2   2   2   2   2
#     4  12  24  40  64 100 130 166 213 277 323 389
#     4  11  22  41  67  95 128 172 225 257 323 388
#     4  11  25  42  64  92 128 180 218 268 309 397
#     4  11  22  38  63  97 131 163 210 271 332 384
#     4  12  22  42  67  97 133 170 216 265 335 392
#     4  11  25  43  65  95 132 175 218 262 332 382
#
# _framework density 21.345279999999999
#
# number of rings (size 3 to 8) (size 9 to 14) (size 15 to 20)
#    0.000    0.667    3.333    6.000    0.000    6.667 
#    0.000    1.667    0.000    0.000    0.000    0.000 
#    0.000    0.000    0.000    0.000    0.000    0.000 
#
# Total GULP energy -67038.359752 kJ/mol
# GULP energy per Si atom -5586.529979 kJ/mol
# Density = 2.129670 g / cm^3
# Si number density = 21.345280 Si / 1000 Ang^3
#
#
#
# Elastic Constant Matrix: (Units=GPa)
#
#
# Indices 1 2 3 4 5 6 
#
# 1 61.6022 6.7135 48.6789 0.0000 -3.4772 0.0000
# 2 6.7135 103.6567 25.5721 0.0000 15.4521 0.0000
# 3 48.6789 25.5721 130.9532 0.0000 -7.3860 0.0000
# 4 0.0000 0.0000 0.0000 22.5403 0.0000 10.0033
# 5 -3.4772 15.4521 -7.3860 0.0000 33.4715 0.0000
# 6 0.0000 0.0000 0.0000 10.0033 0.0000 35.7471
#
#
#
# Elastic Compliance Matrix: (Units=1/GPa)
#
#
# Indices 1 2 3 4 5 6 
#
# 1 0.023028 0.000619 -0.008670 0.000000 0.000194 0.000000
# 2 0.000619 0.011124 -0.002722 0.000000 -0.005672 0.000000
# 3 -0.008670 -0.002722 0.011555 0.000000 0.002906 0.000000
# 4 0.000000 0.000000 0.000000 0.050656 0.000000 -0.014175
# 5 0.000194 -0.005672 0.002906 0.000000 0.033156 0.000000
# 6 0.000000 0.000000 0.000000 -0.014175 0.000000 0.031941
#
#
# Mechanical properties :
#
#
# Convention : Reuss Voigt Hill
#
# Bulk Modulus (GPa) = 41.39134 50.90459 46.14797
# Shear Modulus (GPa) = 26.16978 32.70160 29.43569
#
# Velocity S-wave (km/s) = 3.50526 3.91836 3.71755
# Velocity P-wave (km/s) = 5.98464 6.66118 6.33195
#
# Compressibility (1/GPa) = 0.02415964
#
# Stress axis : x y z
#
# Youngs Moduli (GPa) = 43.42573 89.89376 86.54532
#
# Poissons Ratio (x) = -0.05561 0.75034
# Poissons Ratio (y) = -0.02686 0.23559
# Poissons Ratio (z) = 0.37650 0.24470
#
# Static dielectric constant tensor:
#      x y z
#    x 1.770010 0.000000 -0.035940 
#    y 0.000000 1.819930 0.000000 
#    z -0.035940 0.000000 1.883470 
# 
# From -- ./inp_files/13489.got.cif
#   From: 2010.05.17/outbox.cif.g08.bks.cpg/sg4_7_cif.got.tgz:13489.got - 2010.06.03 18:43:04.
