data_PCOD9118490
_publ_section_title
;
Structure prediction by ZEFSAII (Michael W. Deem and Ramdas Pophale) SiO2 
 PCOD9118490
Probable space group: P 21
;
_chemical_formula_sum "Si O2"
_cell_formula_units_Z 16
_cell_length_a 15.090758
_cell_length_b 5.467516
_cell_length_c 26.867310
_cell_angle_alpha 90.000000
_cell_angle_beta 160.645901
_cell_angle_gamma 90.000000
_cell_volume 734.657418
_symmetry_space_group_name_H-M "P 21"
_symmetry_group_IT_number 4
_symmetry_cell_setting 'monoclinic'
loop_
_space_group_symop_operation_xyz
x,y,z
-x,1/2+y,-z
loop_
_atom_site_type_symbol
_atom_site_label
_atom_site_fract_x
_atom_site_fract_y
_atom_site_fract_z
Si Si1 0.810140 0.519350 0.680735
Si Si2 0.725454 0.167958 0.552230
Si Si3 0.109689 0.228199 0.604867
Si Si4 0.971553 0.022894 0.818839
Si Si5 0.450527 0.903748 0.730834
Si Si6 0.976426 0.338153 0.354062
Si Si7 0.504145 0.484589 0.355709
Si Si8 0.482777 0.618856 0.846775
O O1 0.799142 0.424005 0.618015
O O2 0.501069 0.535197 0.535364
O O3 0.956195 0.285518 0.783227
O O4 0.918059 0.783250 0.756044
O O5 0.603690 0.234207 0.433938
O O6 0.961829 0.989481 0.663144
O O7 0.229260 0.453788 0.697584
O O8 0.834389 0.276448 0.431615
O O9 0.351079 0.168068 0.695631
O O10 0.055333 0.010593 0.614210
O O11 0.742124 0.051405 0.739343
O O12 0.255887 0.986442 0.995512
O O13 0.564426 0.774123 0.840566
O O14 0.583773 0.933600 0.747706
O O15 0.667168 0.251627 0.187125
O O16 0.239063 0.166544 0.503846
#
# Coordination Sequence:
#
# PCOD9118490 Si02
#       8
#     2   2   2   2   2   2   2   2
#     4  11  25  44  76 104 143 180 243 296 372 423
#     4  11  22  42  75 108 130 177 239 312 350 422
#     4  11  20  37  62  97 130 180 241 296 344 409
#     4  11  27  48  68 104 151 195 224 294 375 439
#     4  11  20  36  63  99 132 186 241 294 344 415
#     4  11  21  38  73  99 134 176 244 297 349 422
#     4  11  22  41  66 105 139 174 241 303 352 420
#     4  11  25  42  67  96 147 198 229 290 368 440
#
# _framework density 21.778856999999999
#
# number of rings (size 3 to 8) (size 9 to 14) (size 15 to 20)
#    0.000    1.000    5.000    2.250    5.250    0.000 
#    2.250    0.000    5.500    0.000    0.000    0.000 
#    0.000    0.000    0.000    0.000    0.000    0.000 
#
# Total GULP energy -89156.237883 kJ/mol
# GULP energy per Si atom -5572.264868 kJ/mol
# Density = 2.172929 g / cm^3
# Si number density = 21.778857 Si / 1000 Ang^3
#
#
#
# Elastic Constant Matrix: (Units=GPa)
#
#
# Indices 1 2 3 4 5 6 
#
# 1 96.8832 26.1839 24.8974 0.0000 -3.2419 0.0000
# 2 26.1839 70.8088 15.2319 0.0000 -3.2668 0.0000
# 3 24.8974 15.2319 63.6062 0.0000 3.8293 0.0000
# 4 0.0000 0.0000 0.0000 18.4181 0.0000 -0.8206
# 5 -3.2419 -3.2668 3.8293 0.0000 21.4115 0.0000
# 6 0.0000 0.0000 0.0000 -0.8206 0.0000 34.8745
#
#
#
# Elastic Compliance Matrix: (Units=1/GPa)
#
#
# Indices 1 2 3 4 5 6 
#
# 1 0.012427 -0.003613 -0.004124 0.000000 0.002068 0.000000
# 2 -0.003613 0.016125 -0.002590 0.000000 0.002377 0.000000
# 3 -0.004124 -0.002590 0.018214 0.000000 -0.004277 0.000000
# 4 0.000000 0.000000 0.000000 0.054351 0.000000 0.001279
# 5 0.002068 0.002377 -0.004277 0.000000 0.048145 0.000000
# 6 0.000000 0.000000 0.000000 0.001279 0.000000 0.028704
#
#
# Mechanical properties :
#
#
# Convention : Reuss Voigt Hill
#
# Bulk Modulus (GPa) = 38.29627 40.43605 39.36616
# Shear Modulus (GPa) = 24.11680 25.93982 25.02831
#
# Velocity S-wave (km/s) = 3.33130 3.45491 3.39367
# Velocity P-wave (km/s) = 5.69377 5.87556 5.78538
#
# Compressibility (1/GPa) = 0.02611220
#
# Stress axis : x y z
#
# Youngs Moduli (GPa) = 80.46982 62.01398 54.90375
#
# Poissons Ratio (x) = 0.22405 0.22640
# Poissons Ratio (y) = 0.29073 0.14223
# Poissons Ratio (z) = 0.33183 0.16065
#
# Static dielectric constant tensor:
#      x y z
#    x 1.872910 0.000000 -0.029110 
#    y 0.000000 1.963980 0.000000 
#    z -0.029110 0.000000 1.779360 
# 
# From -- ./inp_files/10138.got.cif
#   From: 2010.05.17/outbox.cif.g08.bks.cpg/sg4_6_cif.got.tgz:10138.got - 2010.06.03 18:43:04.
