data_PCOD9118703
_publ_section_title
;
Structure prediction by ZEFSAII (Michael W. Deem and Ramdas Pophale) SiO2 
 PCOD9118703
Probable space group: P 21
;
_chemical_formula_sum "Si O2"
_cell_formula_units_Z 14
_cell_length_a 15.120140
_cell_length_b 5.852853
_cell_length_c 19.915213
_cell_angle_alpha 90.000000
_cell_angle_beta 159.253968
_cell_angle_gamma 90.000000
_cell_volume 624.293993
_symmetry_space_group_name_H-M "P 21"
_symmetry_group_IT_number 4
_symmetry_cell_setting 'monoclinic'
loop_
_space_group_symop_operation_xyz
x,y,z
-x,1/2+y,-z
loop_
_atom_site_type_symbol
_atom_site_label
_atom_site_fract_x
_atom_site_fract_y
_atom_site_fract_z
Si Si1 0.598553 0.396680 0.865405
Si Si2 0.153816 0.282000 0.759594
Si Si3 0.000091 0.006250 0.963767
Si Si4 0.969223 0.141661 0.227848
Si Si5 0.927669 0.874315 0.557583
Si Si6 0.495705 0.133279 0.530213
Si Si7 0.375581 0.650221 0.826841
O O1 0.340051 0.286700 0.655114
O O2 0.504786 0.596497 0.848644
O O3 0.763746 0.233057 0.030441
O O4 0.773069 0.479354 0.928421
O O5 0.087600 0.393087 0.784133
O O6 0.213712 0.438023 0.738416
O O7 0.417758 0.169903 0.967583
O O8 0.916793 0.138897 0.567939
O O9 0.739601 0.059579 0.743342
O O10 0.034587 0.247301 0.029651
O O11 0.977022 0.275656 0.303833
O O12 0.239806 0.158198 0.388690
O O13 0.165329 0.846079 0.677162
O O14 0.547321 0.396812 0.543080
#
# Coordination Sequence:
#
# PCOD9118703 Si02
#       7
#     2   2   2   2   2   2   2
#     4  12  27  48  77 110 149 206 258 318 395 476
#     4  11  22  43  72 102 155 190 246 318 378 462
#     4  12  29  54  78 117 162 203 265 343 398 471
#     4  11  26  47  74 106 146 201 253 318 395 468
#     4  11  26  46  70 110 151 195 254 319 388 465
#     4  12  27  49  80 114 150 203 268 323 397 478
#     4  11  23  43  69 107 145 196 250 307 383 460
#
# _framework density 22.425329999999999
#
# number of rings (size 3 to 8) (size 9 to 14) (size 15 to 20)
#    0.000    0.571    4.286    2.571    8.000    0.000 
#    2.571    0.000    0.000    0.000    0.000    0.000 
#    0.000    0.000    0.000    0.000    0.000    0.000 
#
# Total GULP energy -77999.127300 kJ/mol
# GULP energy per Si atom -5571.366236 kJ/mol
# Density = 2.237429 g / cm^3
# Si number density = 22.425330 Si / 1000 Ang^3
#
#
#
# Elastic Constant Matrix: (Units=GPa)
#
#
# Indices 1 2 3 4 5 6 
#
# 1 219.5201 321.4104 334.2110 0.0000 -1.6146 0.0000
# 2 321.4104 814.9852 819.7340 0.0000 -71.8487 0.0000
# 3 334.2110 819.7340 996.6033 0.0000 -73.6006 0.0000
# 4 0.0000 0.0000 0.0000 32.1239 0.0000 1.5518
# 5 -1.6146 -71.8487 -73.6006 0.0000 46.1575 0.0000
# 6 0.0000 0.0000 0.0000 1.5518 0.0000 30.9755
#
#
#
# Elastic Compliance Matrix: (Units=1/GPa)
#
#
# Indices 1 2 3 4 5 6 
#
# 1 0.013509 -0.005196 -0.000928 0.000000 -0.009096 0.000000
# 2 -0.005196 0.009266 -0.005472 0.000000 0.005517 0.000000
# 3 -0.000928 -0.005472 0.005876 0.000000 0.000820 0.000000
# 4 0.000000 0.000000 0.000000 0.031205 0.000000 -0.001563
# 5 -0.009096 0.005517 0.000820 0.000000 0.031241 0.000000
# 6 0.000000 0.000000 0.000000 -0.001563 0.000000 0.032362
#
#
# Mechanical properties :
#
#
# Convention : Reuss Voigt Hill
#
# Bulk Modulus (GPa) = 183.16743 553.53548 368.35146
# Shear Modulus (GPa) = 33.67623 58.90159 46.28891
#
# Velocity S-wave (km/s) = 3.87939 5.13056 4.54820
# Velocity P-wave (km/s) = 10.09566 16.80677 13.86344
#
# Compressibility (1/GPa) = 0.00545949
#
# Stress axis : x y z
#
# Youngs Moduli (GPa) = 74.02212 107.91646 170.18055
#
# Poissons Ratio (x) = 0.56073 0.15798
# Poissons Ratio (y) = 0.38462 0.93123
# Poissons Ratio (z) = 0.06872 0.59052
#
# Static dielectric constant tensor:
#      x y z
#    x 1.848520 0.000000 0.003530 
#    y 0.000000 2.204160 0.000000 
#    z 0.003530 0.000000 1.835150 
# 
# From -- ./inp_files/14354.got.cif
#   From: 2010.05.17/outbox.cif.g08.bks.cpg/sg4_8_cif.got.tgz:14354.got - 2010.06.03 18:43:04.
