data_PCOD9118865
_publ_section_title
;
Structure prediction by ZEFSAII (Michael W. Deem and Ramdas Pophale) SiO2 
 PCOD9118865
Probable space group: P 21
;
_chemical_formula_sum "Si O2"
_cell_formula_units_Z 16
_cell_length_a 8.362183
_cell_length_b 17.576150
_cell_length_c 8.551305
_cell_angle_alpha 90.000000
_cell_angle_beta 32.179624
_cell_angle_gamma 90.000000
_cell_volume 669.355514
_symmetry_space_group_name_H-M "P 21"
_symmetry_group_IT_number 4
_symmetry_cell_setting 'monoclinic'
loop_
_space_group_symop_operation_xyz
x,y,z
-x,1/2+y,-z
loop_
_atom_site_type_symbol
_atom_site_label
_atom_site_fract_x
_atom_site_fract_y
_atom_site_fract_z
Si Si1 0.551493 0.575640 0.862978
Si Si2 0.223211 0.823916 0.910207
Si Si3 0.821012 0.993346 0.620738
Si Si4 0.243642 0.995639 0.864609
Si Si5 0.869011 0.823535 0.494686
Si Si6 0.265141 0.722319 0.574939
Si Si7 0.381336 0.578336 0.655505
Si Si8 0.363163 0.220676 0.027455
O O1 0.468379 0.600241 0.758068
O O2 0.472827 0.647552 0.036759
O O3 0.892123 0.548968 0.615160
O O4 0.336491 0.505130 0.082553
O O5 0.117154 0.911142 0.991989
O O6 0.578673 0.829845 0.627058
O O7 0.174632 0.778168 0.791771
O O8 0.110087 0.791231 0.171417
O O9 0.530365 0.007601 0.745887
O O10 0.942951 0.908934 0.488270
O O11 0.402927 0.008784 0.567734
O O12 0.957530 0.051209 0.098939
O O13 0.758638 0.775983 0.735242
O O14 0.450223 0.651861 0.492141
O O15 0.947879 0.690645 0.783445
O O16 0.439727 0.754447 0.278251
#
# Coordination Sequence:
#
# PCOD9118865 Si02
#       8
#     2   2   2   2   2   2   2   2
#     4  12  25  42  67  98 134 174 222 276 330 392
#     4  11  24  44  69  96 132 175 219 271 332 397
#     4  11  23  43  69  97 131 173 220 272 332 396
#     4  11  23  43  69  97 131 173 220 272 332 396
#     4  11  24  44  69  96 132 175 219 271 332 397
#     4  12  26  43  67  97 134 176 222 275 329 393
#     4  12  25  42  67  98 134 174 222 276 330 392
#     4  12  26  43  67  97 134 176 222 275 329 393
#
# _framework density 23.903590999999999
#
# number of rings (size 3 to 8) (size 9 to 14) (size 15 to 20)
#    0.000    0.500    0.000   10.500    0.000    5.000 
#    0.000    0.000    0.000    0.000    0.000    0.000 
#    0.000    0.000    0.000    0.000    0.000    0.000 
#
# Total GULP energy -89357.176063 kJ/mol
# GULP energy per Si atom -5584.823504 kJ/mol
# Density = 2.384919 g / cm^3
# Si number density = 23.903591 Si / 1000 Ang^3
#
#
#
# Elastic Constant Matrix: (Units=GPa)
#
#
# Indices 1 2 3 4 5 6 
#
# 1 78.4101 47.5550 29.4796 0.0000 19.9079 0.0000
# 2 47.5550 83.5461 29.3511 0.0000 12.9590 0.0000
# 3 29.4796 29.3511 146.9060 0.0000 14.4881 0.0000
# 4 0.0000 0.0000 0.0000 32.2002 0.0000 6.7685
# 5 19.9079 12.9590 14.4881 0.0000 41.4510 0.0000
# 6 0.0000 0.0000 0.0000 6.7685 0.0000 26.1681
#
#
#
# Elastic Compliance Matrix: (Units=1/GPa)
#
#
# Indices 1 2 3 4 5 6 
#
# 1 0.021427 -0.010661 -0.001537 0.000000 -0.006421 0.000000
# 2 -0.010661 0.018611 -0.001564 0.000000 -0.000152 0.000000
# 3 -0.001537 -0.001564 0.007568 0.000000 -0.001418 0.000000
# 4 0.000000 0.000000 0.000000 0.032841 0.000000 -0.008494
# 5 -0.006421 -0.000152 -0.001418 0.000000 0.027752 0.000000
# 6 0.000000 0.000000 0.000000 -0.008494 0.000000 0.040412
#
#
# Mechanical properties :
#
#
# Convention : Reuss Voigt Hill
#
# Bulk Modulus (GPa) = 49.79395 57.95929 53.87662
# Shear Modulus (GPa) = 27.34835 33.46231 30.40533
#
# Velocity S-wave (km/s) = 3.38614 3.74556 3.57038
# Velocity P-wave (km/s) = 6.01368 6.55785 6.29165
#
# Compressibility (1/GPa) = 0.02008276
#
# Stress axis : x y z
#
# Youngs Moduli (GPa) = 46.67028 53.73304 132.13926
#
# Poissons Ratio (x) = 0.57283 0.20304
# Poissons Ratio (y) = 0.49753 0.20668
# Poissons Ratio (z) = 0.07171 0.08404
#
# Static dielectric constant tensor:
#      x y z
#    x 1.952130 0.000000 0.057220 
#    y 0.000000 1.920490 0.000000 
#    z 0.057220 0.000000 1.965790 
# 
# From -- ./inp_files/6908.got.cif
#   From: 2010.05.17/outbox.cif.g08.bks.cpg/sg4_4_cif.got.tgz:6908.got - 2010.06.03 18:43:04.
