data_PCOD9118310
_publ_section_title
;
Structure prediction by ZEFSAII (Michael W. Deem and Ramdas Pophale) SiO2 
 PCOD9118310
Probable space group: P 21
;
_chemical_formula_sum "Si O2"
_cell_formula_units_Z 12
_cell_length_a 5.425844
_cell_length_b 17.291607
_cell_length_c 4.946454
_cell_angle_alpha 90.000000
_cell_angle_beta 93.085659
_cell_angle_gamma 90.000000
_cell_volume 463.411200
_symmetry_space_group_name_H-M "P 21"
_symmetry_group_IT_number 4
_symmetry_cell_setting 'monoclinic'
loop_
_space_group_symop_operation_xyz
x,y,z
-x,1/2+y,-z
loop_
_atom_site_type_symbol
_atom_site_label
_atom_site_fract_x
_atom_site_fract_y
_atom_site_fract_z
Si Si1 0.183909 0.243430 0.399494
Si Si2 0.505327 0.770580 0.060296
Si Si3 0.510739 0.526610 0.480247
Si Si4 0.148437 0.017000 0.999243
Si Si5 0.841925 0.152528 0.770126
Si Si6 0.794945 0.897965 0.811545
O O1 0.325029 0.219815 0.134277
O O2 0.373023 0.025315 0.218130
O O3 0.063669 0.326540 0.320380
O O4 0.753351 0.227689 0.930368
O O5 0.611236 0.767326 0.367210
O O6 0.984181 0.682478 0.459284
O O7 0.563487 0.855287 0.945653
O O8 0.384966 0.606744 0.381159
O O9 0.312067 0.460156 0.403531
O O10 0.028939 0.591185 0.025859
O O11 0.263115 0.011522 0.708142
O O12 0.974609 0.942611 0.025595
#
# Coordination Sequence:
#
# PCOD9118310 Si02
#       6
#     2   2   2   2   2   2
#     4  10  25  45  76 114 146 190 249 308 378 432
#     4  10  25  45  76 114 146 190 249 308 378 432
#     4  11  27  47  77 106 150 199 249 299 372 446
#     4  11  27  47  77 106 150 199 249 299 372 446
#     4  11  26  50  76 111 152 196 246 311 372 446
#     4   9  26  50  76 109 148 194 250 311 370 436
#
# _framework density 25.894932000000001
#
# number of rings (size 3 to 8) (size 9 to 14) (size 15 to 20)
#    1.000    0.667    0.000    1.000    4.667   16.000 
#    0.000    3.333    3.667    0.000    0.000    0.000 
#    0.000    0.000    0.000    0.000    0.000    0.000 
#
# Total GULP energy -67212.820579 kJ/mol
# GULP energy per Si atom -5601.068382 kJ/mol
# Density = 2.583599 g / cm^3
# Si number density = 25.894932 Si / 1000 Ang^3
#
#
#
# Elastic Constant Matrix: (Units=GPa)
#
#
# Indices 1 2 3 4 5 6 
#
# 1 58.1367 2.7570 6.0856 0.0000 -0.9265 0.0000
# 2 2.7570 120.6318 52.4208 0.0000 18.9386 0.0000
# 3 6.0856 52.4208 87.1894 0.0000 18.7638 0.0000
# 4 0.0000 0.0000 0.0000 25.8044 0.0000 5.0899
# 5 -0.9265 18.9386 18.7638 0.0000 41.1525 0.0000
# 6 0.0000 0.0000 0.0000 5.0899 0.0000 54.2252
#
#
#
# Elastic Compliance Matrix: (Units=1/GPa)
#
#
# Indices 1 2 3 4 5 6 
#
# 1 0.017369 0.000087 -0.001486 0.000000 0.001028 0.000000
# 2 0.000087 0.011424 -0.006369 0.000000 -0.002352 0.000000
# 3 -0.001486 -0.006369 0.016386 0.000000 -0.004574 0.000000
# 4 0.000000 0.000000 0.000000 0.039484 0.000000 -0.003706
# 5 0.001028 -0.002352 -0.004574 0.000000 0.027491 0.000000
# 6 0.000000 0.000000 0.000000 -0.003706 0.000000 0.018789
#
#
# Mechanical properties :
#
#
# Convention : Reuss Voigt Hill
#
# Bulk Modulus (GPa) = 33.73296 43.16496 38.44896
# Shear Modulus (GPa) = 31.97738 37.88271 34.93005
#
# Velocity S-wave (km/s) = 3.51791 3.82899 3.67674
# Velocity P-wave (km/s) = 5.43655 6.02110 5.73628
#
# Compressibility (1/GPa) = 0.02964460
#
# Stress axis : x y z
#
# Youngs Moduli (GPa) = 57.57503 87.53169 61.02612
#
# Poissons Ratio (x) = -0.00765 0.09070
# Poissons Ratio (y) = -0.00503 0.38866
# Poissons Ratio (z) = 0.08557 0.55746
#
# Static dielectric constant tensor:
#      x y z
#    x 2.008890 0.000000 0.034460 
#    y 0.000000 2.061570 0.000000 
#    z 0.034460 0.000000 1.972480 
# 
# From -- ./inp_files/6640.got.cif
#   From: 2010.05.17/outbox.cif.g08.bks.cpg/sg4_4_cif.got.tgz:6640.got - 2010.06.03 18:43:04.
