data_PCOD9118616
_publ_section_title
;
Structure prediction by ZEFSAII (Michael W. Deem and Ramdas Pophale) SiO2 
 PCOD9118616
Probable space group: P 21
;
_chemical_formula_sum "Si O2"
_cell_formula_units_Z 10
_cell_length_a 15.087793
_cell_length_b 6.758521
_cell_length_c 9.988871
_cell_angle_alpha 90.000000
_cell_angle_beta 25.406279
_cell_angle_gamma 90.000000
_cell_volume 437.004217
_symmetry_space_group_name_H-M "P 21"
_symmetry_group_IT_number 4
_symmetry_cell_setting 'monoclinic'
loop_
_space_group_symop_operation_xyz
x,y,z
-x,1/2+y,-z
loop_
_atom_site_type_symbol
_atom_site_label
_atom_site_fract_x
_atom_site_fract_y
_atom_site_fract_z
Si Si1 0.745604 0.349170 0.259945
Si Si2 0.987735 0.197288 0.176287
Si Si3 0.703217 0.850082 0.658844
Si Si4 0.454953 0.517848 0.866620
Si Si5 0.905353 0.087272 0.816342
O O1 0.929105 0.291756 0.113342
O O2 0.547163 0.383450 0.622478
O O3 0.751620 0.184553 0.137187
O O4 0.812576 0.558046 0.105700
O O5 0.023192 0.373684 0.230582
O O6 0.800886 0.050784 0.468998
O O7 0.593914 0.712285 0.698340
O O8 0.894582 0.725945 0.458053
O O9 0.546826 0.903723 0.990689
O O10 0.222506 0.574976 0.145042
#
# Coordination Sequence:
#
# PCOD9118616 Si02
#       5
#     2   2   2   2   2
#     4  11  22  43  71 104 137 182 232 289 349 417
#     4  11  21  46  72  98 148 181 229 291 358 406
#     4  11  27  48  68 103 143 188 232 296 351 417
#     4  12  27  46  74 103 142 187 240 289 353 423
#     4  11  27  45  71 104 142 188 233 293 353 419
#
# _framework density 22.883071999999999
#
# number of rings (size 3 to 8) (size 9 to 14) (size 15 to 20)
#    0.000    0.800    4.000    2.400    5.600    0.000 
#    7.200    0.000    0.000    0.000    0.000    0.000 
#    0.000    0.000    0.000    0.000    0.000    0.000 
#
# Total GULP energy -55988.156626 kJ/mol
# GULP energy per Si atom -5598.815663 kJ/mol
# Density = 2.283099 g / cm^3
# Si number density = 22.883072 Si / 1000 Ang^3
#
#
#
# Elastic Constant Matrix: (Units=GPa)
#
#
# Indices 1 2 3 4 5 6 
#
# 1 67.1873 18.6746 -17.6479 0.0000 -14.5583 0.0000
# 2 18.6746 123.6839 40.9531 0.0000 -3.9510 0.0000
# 3 -17.6479 40.9531 69.3861 0.0000 15.1636 0.0000
# 4 0.0000 0.0000 0.0000 41.2764 0.0000 1.8739
# 5 -14.5583 -3.9510 15.1636 0.0000 23.2282 0.0000
# 6 0.0000 0.0000 0.0000 1.8739 0.0000 17.8734
#
#
#
# Elastic Compliance Matrix: (Units=1/GPa)
#
#
# Indices 1 2 3 4 5 6 
#
# 1 0.019394 -0.004714 0.006105 0.000000 0.007368 0.000000
# 2 -0.004714 0.012116 -0.009512 0.000000 0.005316 0.000000
# 3 0.006105 -0.009512 0.024607 0.000000 -0.013855 0.000000
# 4 0.000000 0.000000 0.000000 0.024343 0.000000 -0.002552
# 5 0.007368 0.005316 -0.013855 0.000000 0.057618 0.000000
# 6 0.000000 0.000000 0.000000 -0.002552 0.000000 0.056217
#
#
# Mechanical properties :
#
#
# Convention : Reuss Voigt Hill
#
# Bulk Modulus (GPa) = 25.07836 38.24632 31.66234
# Shear Modulus (GPa) = 22.33844 31.02742 26.68293
#
# Velocity S-wave (km/s) = 3.12781 3.68626 3.41846
# Velocity P-wave (km/s) = 4.90177 5.90493 5.42658
#
# Compressibility (1/GPa) = 0.03987502
#
# Stress axis : x y z
#
# Youngs Moduli (GPa) = 51.56158 82.53360 40.63881
#
# Poissons Ratio (x) = 0.38910 -0.24811
# Poissons Ratio (y) = 0.24308 0.38656
# Poissons Ratio (z) = -0.31479 0.78506
#
# Static dielectric constant tensor:
#      x y z
#    x 1.797420 0.000000 0.001940 
#    y 0.000000 1.825280 0.000000 
#    z 0.001940 0.000000 1.892770 
# 
# From -- ./inp_files/5049.got.cif
#   From: 2010.05.17/outbox.cif.g08.bks.cpg/sg4_3_cif.got.tgz:5049.got - 2010.06.03 18:43:04.
