data_PCOD9118377
_publ_section_title
;
Structure prediction by ZEFSAII (Michael W. Deem and Ramdas Pophale) SiO2 
 PCOD9118377
Probable space group: P 21
;
_chemical_formula_sum "Si O2"
_cell_formula_units_Z 10
_cell_length_a 4.816036
_cell_length_b 9.993743
_cell_length_c 7.250247
_cell_angle_alpha 90.000000
_cell_angle_beta 78.733054
_cell_angle_gamma 90.000000
_cell_volume 342.230785
_symmetry_space_group_name_H-M "P 21"
_symmetry_group_IT_number 4
_symmetry_cell_setting 'monoclinic'
loop_
_space_group_symop_operation_xyz
x,y,z
-x,1/2+y,-z
loop_
_atom_site_type_symbol
_atom_site_label
_atom_site_fract_x
_atom_site_fract_y
_atom_site_fract_z
Si Si1 0.759885 0.508560 0.370993
Si Si2 0.187757 0.576913 0.013993
Si Si3 0.276921 0.699737 0.609002
Si Si4 0.065104 0.360098 0.626328
Si Si5 0.507380 0.327902 0.879134
O O1 0.420449 0.682248 0.057879
O O2 0.525147 0.601625 0.501036
O O3 0.646104 0.355503 0.339212
O O4 0.013435 0.472452 0.481155
O O5 0.155210 0.627492 0.807581
O O6 0.908761 0.574763 0.174649
O O7 0.317800 0.429194 0.017750
O O8 0.052874 0.735552 0.477324
O O9 0.820867 0.385735 0.809503
O O10 0.349618 0.336820 0.701561
#
# Coordination Sequence:
#
# PCOD9118377 Si02
#       5
#     2   2   2   2   2
#     4  10  26  57  99 134 194 253 318 398 480 570
#     4  12  29  57  96 140 191 252 324 397 482 573
#     4  10  25  58  95 136 192 250 324 393 477 576
#     4  10  28  56  90 129 189 249 313 391 479 560
#     4  12  30  58  92 137 190 250 319 401 472 579
#
# _framework density 29.220047999999998
#
# number of rings (size 3 to 8) (size 9 to 14) (size 15 to 20)
#    1.200    0.000    2.000    0.000    5.600    8.000 
#    0.000    0.000    0.000    0.000    0.000    0.000 
#    0.000    0.000    0.000    0.000    0.000    0.000 
#
# Total GULP energy -56015.948018 kJ/mol
# GULP energy per Si atom -5601.594802 kJ/mol
# Density = 2.915354 g / cm^3
# Si number density = 29.220048 Si / 1000 Ang^3
#
#
#
# Elastic Constant Matrix: (Units=GPa)
#
#
# Indices 1 2 3 4 5 6 
#
# 1 161.2020 78.0764 72.5514 0.0000 8.5445 0.0000
# 2 78.0764 234.6064 58.8465 0.0000 -2.8681 0.0000
# 3 72.5514 58.8465 171.0905 0.0000 -16.5312 0.0000
# 4 0.0000 0.0000 0.0000 59.1838 0.0000 -10.8595
# 5 8.5445 -2.8681 -16.5312 0.0000 58.1722 0.0000
# 6 0.0000 0.0000 0.0000 -10.8595 0.0000 65.0177
#
#
#
# Elastic Compliance Matrix: (Units=1/GPa)
#
#
# Indices 1 2 3 4 5 6 
#
# 1 0.008821 -0.002155 -0.003223 0.000000 -0.002318 0.000000
# 2 -0.002155 0.005195 -0.000840 0.000000 0.000334 0.000000
# 3 -0.003223 -0.000840 0.007755 0.000000 0.002636 0.000000
# 4 0.000000 0.000000 0.000000 0.017431 0.000000 0.002911
# 5 -0.002318 0.000334 0.002636 0.000000 0.018296 0.000000
# 6 0.000000 0.000000 0.000000 0.002911 0.000000 0.015867
#
#
# Mechanical properties :
#
#
# Convention : Reuss Voigt Hill
#
# Bulk Modulus (GPa) = 107.14710 109.53860 108.34285
# Shear Modulus (GPa) = 56.23449 60.30305 58.26877
#
# Velocity S-wave (km/s) = 4.39169 4.54779 4.47042
# Velocity P-wave (km/s) = 7.90345 8.07127 7.98780
#
# Compressibility (1/GPa) = 0.00933296
#
# Stress axis : x y z
#
# Youngs Moduli (GPa) = 113.36831 192.50515 128.94300
#
# Poissons Ratio (x) = 0.41493 0.41559
# Poissons Ratio (y) = 0.24436 0.10837
# Poissons Ratio (z) = 0.36540 0.16179
#
# Static dielectric constant tensor:
#      x y z
#    x 2.192520 0.000000 -0.024860 
#    y 0.000000 2.519690 0.000000 
#    z -0.024860 0.000000 2.283640 
# 
# From -- ./inp_files/4553.got.cif
#   From: 2010.05.17/outbox.cif.g08.bks.cpg/sg4_3_cif.got.tgz:4553.got - 2010.06.03 18:43:04.
