data_PCOD9118846
_publ_section_title
;
Structure prediction by ZEFSAII (Michael W. Deem and Ramdas Pophale) SiO2 
 PCOD9118846
Probable space group: P 21
;
_chemical_formula_sum "Si O2"
_cell_formula_units_Z 16
_cell_length_a 26.937458
_cell_length_b 5.159052
_cell_length_c 5.076658
_cell_angle_alpha 90.000000
_cell_angle_beta 126.097874
_cell_angle_gamma 90.000000
_cell_volume 570.062006
_symmetry_space_group_name_H-M "P 21"
_symmetry_group_IT_number 4
_symmetry_cell_setting 'monoclinic'
loop_
_space_group_symop_operation_xyz
x,y,z
-x,1/2+y,-z
loop_
_atom_site_type_symbol
_atom_site_label
_atom_site_fract_x
_atom_site_fract_y
_atom_site_fract_z
Si Si1 0.634577 0.629400 0.424827
Si Si2 0.512160 0.710363 0.217739
Si Si3 0.611365 0.121933 0.000447
Si Si4 0.035825 0.894883 0.202369
Si Si5 0.737823 0.186899 0.155364
Si Si6 0.105245 0.207478 0.778640
Si Si7 0.239271 0.984479 0.267927
Si Si8 0.131500 0.534212 0.341940
O O1 0.584356 0.661737 0.499348
O O2 0.626341 0.350298 0.259058
O O3 0.707139 0.658101 0.696734
O O4 0.617103 0.851096 0.166130
O O5 0.497259 0.486861 0.953505
O O6 0.460816 0.669415 0.282824
O O7 0.665910 0.122533 0.958456
O O8 0.947550 0.501231 0.455808
O O9 0.998882 0.628656 0.051118
O O10 0.902055 0.908004 0.009433
O O11 0.103214 0.820877 0.293227
O O12 0.744053 0.431169 0.376957
O O13 0.794643 0.022249 0.450609
O O14 0.755436 0.237264 0.909493
O O15 0.114028 0.377070 0.545323
O O16 0.170320 0.073186 0.030158
#
# Coordination Sequence:
#
# PCOD9118846 Si02
#       8
#     2   2   2   2   2   2   2   2
#     4   9  18  34  58  95 132 184 236 298 365 436
#     4   8  14  28  54  84 130 176 234 292 358 434
#     4   9  18  34  58  95 132 184 236 298 365 436
#     4  12  28  58  82 122 158 210 258 322 388 474
#     4  11  23  42  72 106 145 190 247 308 375 444
#     4  12  27  51  81 116 156 203 256 317 382 453
#     4  11  23  42  72 106 145 190 247 308 375 444
#     4  12  27  51  81 116 156 203 256 317 382 453
#
# _framework density 28.067122000000001
#
# number of rings (size 3 to 8) (size 9 to 14) (size 15 to 20)
#    0.000    1.500    2.500    2.250    0.000    2.000 
#    4.500    0.000    0.000   21.000    0.000    0.000 
#    0.000    0.000    0.000    0.000    0.000    0.000 
#
# Total GULP energy -89664.139659 kJ/mol
# GULP energy per Si atom -5604.008729 kJ/mol
# Density = 2.800324 g / cm^3
# Si number density = 28.067122 Si / 1000 Ang^3
#
#
#
# Elastic Constant Matrix: (Units=GPa)
#
#
# Indices 1 2 3 4 5 6 
#
# 1 124.2158 36.4035 40.9456 0.0000 5.6751 0.0000
# 2 36.4035 146.7655 54.7582 0.0000 -4.2272 0.0000
# 3 40.9456 54.7582 96.5965 0.0000 1.8166 0.0000
# 4 0.0000 0.0000 0.0000 45.0565 0.0000 15.0507
# 5 5.6751 -4.2272 1.8166 0.0000 56.2771 0.0000
# 6 0.0000 0.0000 0.0000 15.0507 0.0000 49.3964
#
#
#
# Elastic Compliance Matrix: (Units=1/GPa)
#
#
# Indices 1 2 3 4 5 6 
#
# 1 0.009541 -0.001130 -0.003386 0.000000 -0.000938 0.000000
# 2 -0.001130 0.008812 -0.004534 0.000000 0.000922 0.000000
# 3 -0.003386 -0.004534 0.014366 0.000000 -0.000463 0.000000
# 4 0.000000 0.000000 0.000000 0.024709 0.000000 -0.007529
# 5 -0.000938 0.000922 -0.000463 0.000000 0.017948 0.000000
# 6 0.000000 0.000000 0.000000 -0.007529 0.000000 0.022538
#
#
# Mechanical properties :
#
#
# Convention : Reuss Voigt Hill
#
# Bulk Modulus (GPa) = 68.40099 70.19916 69.30008
# Shear Modulus (GPa) = 41.36103 45.84402 43.60253
#
# Velocity S-wave (km/s) = 3.84298 4.04588 3.94573
# Velocity P-wave (km/s) = 6.64189 6.84770 6.74558
#
# Compressibility (1/GPa) = 0.01461967
#
# Stress axis : x y z
#
# Youngs Moduli (GPa) = 104.81475 113.48221 69.60798
#
# Poissons Ratio (x) = 0.12826 0.23568
# Poissons Ratio (y) = 0.11846 0.31557
# Poissons Ratio (z) = 0.35488 0.51448
#
# Static dielectric constant tensor:
#      x y z
#    x 2.252820 0.000000 0.094380 
#    y 0.000000 2.221520 0.000000 
#    z 0.094380 0.000000 2.171830 
# 
# From -- ./inp_files/4329.got.cif
#   From: 2010.05.17/outbox.cif.g08.bks.cpg/sg4_3_cif.got.tgz:4329.got - 2010.06.03 18:43:04.
