data_PCOD9118196
_publ_section_title
;
Structure prediction by ZEFSAII (Michael W. Deem and Ramdas Pophale) SiO2 
 PCOD9118196
Probable space group: P 21
;
_chemical_formula_sum "Si O2"
_cell_formula_units_Z 14
_cell_length_a 4.917101
_cell_length_b 17.043843
_cell_length_c 7.021192
_cell_angle_alpha 90.000000
_cell_angle_beta 72.393093
_cell_angle_gamma 90.000000
_cell_volume 560.855101
_symmetry_space_group_name_H-M "P 21"
_symmetry_group_IT_number 4
_symmetry_cell_setting 'monoclinic'
loop_
_space_group_symop_operation_xyz
x,y,z
-x,1/2+y,-z
loop_
_atom_site_type_symbol
_atom_site_label
_atom_site_fract_x
_atom_site_fract_y
_atom_site_fract_z
Si Si1 0.472410 0.053430 0.874817
Si Si2 0.144789 0.609844 0.894926
Si Si3 0.705839 0.877048 0.866585
Si Si4 0.001942 0.934076 0.470100
Si Si5 0.652013 0.580300 0.540156
Si Si6 0.555976 0.854182 0.305152
Si Si7 0.468187 0.741451 0.653652
O O1 0.432973 0.072217 0.661427
O O2 0.548193 0.961758 0.886714
O O3 0.722810 0.103905 0.921046
O O4 0.261122 0.893617 0.306783
O O5 0.828257 0.576901 0.964941
O O6 0.376209 0.558619 0.727898
O O7 0.191369 0.695121 0.791057
O O8 0.549982 0.807830 0.786169
O O9 0.989515 0.895985 0.684272
O O10 0.741513 0.850194 0.075683
O O11 0.717402 0.908340 0.424788
O O12 0.084376 0.023932 0.476308
O O13 0.697092 0.670358 0.589410
O O14 0.471542 0.777179 0.441365
#
# Coordination Sequence:
#
# PCOD9118196 Si02
#       7
#     2   2   2   2   2   2   2
#     4  12  25  46  76 109 145 199 248 301 370 440
#     4  10  27  46  73 109 147 191 250 304 362 446
#     4  11  26  48  79 112 149 196 253 308 367 455
#     4  11  25  47  74 111 145 193 254 300 367 451
#     4  10  24  47  75 107 151 192 245 310 365 437
#     4  11  26  49  74 106 150 199 237 312 379 433
#     4   9  25  51  73 112 153 192 247 315 372 442
#
# _framework density 24.961881000000002
#
# number of rings (size 3 to 8) (size 9 to 14) (size 15 to 20)
#    0.857    0.571    0.000    3.429    2.000   14.857 
#    5.143    0.000    0.000    0.000    0.000    0.000 
#    0.000    0.000    0.000    0.000    0.000    0.000 
#
# Total GULP energy -78327.444581 kJ/mol
# GULP energy per Si atom -5594.817470 kJ/mol
# Density = 2.490507 g / cm^3
# Si number density = 24.961881 Si / 1000 Ang^3
#
#
#
# Elastic Constant Matrix: (Units=GPa)
#
#
# Indices 1 2 3 4 5 6 
#
# 1 73.6073 3.0738 -10.4088 0.0000 4.7467 0.0000
# 2 3.0738 100.4821 6.7374 0.0000 7.4341 0.0000
# 3 -10.4088 6.7374 129.3429 0.0000 6.2698 0.0000
# 4 0.0000 0.0000 0.0000 49.7786 0.0000 -18.3351
# 5 4.7467 7.4341 6.2698 0.0000 39.1354 0.0000
# 6 0.0000 0.0000 0.0000 -18.3351 0.0000 29.6040
#
#
#
# Elastic Compliance Matrix: (Units=1/GPa)
#
#
# Indices 1 2 3 4 5 6 
#
# 1 0.013891 -0.000373 0.001225 0.000000 -0.001810 0.000000
# 2 -0.000373 0.010128 -0.000470 0.000000 -0.001803 0.000000
# 3 0.001225 -0.000470 0.007919 0.000000 -0.001328 0.000000
# 4 0.000000 0.000000 0.000000 0.026026 0.000000 0.016119
# 5 -0.001810 -0.001803 -0.001328 0.000000 0.026327 0.000000
# 6 0.000000 0.000000 0.000000 0.016119 0.000000 0.043763
#
#
# Mechanical properties :
#
#
# Convention : Reuss Voigt Hill
#
# Bulk Modulus (GPa) = 30.57930 33.58189 32.08060
# Shear Modulus (GPa) = 36.18165 43.97227 40.07696
#
# Velocity S-wave (km/s) = 3.81133 4.20167 4.01125
# Velocity P-wave (km/s) = 5.62542 6.08450 5.85946
#
# Compressibility (1/GPa) = 0.03270186
#
# Stress axis : x y z
#
# Youngs Moduli (GPa) = 71.98816 98.73244 126.28120
#
# Poissons Ratio (x) = 0.03684 -0.15470
# Poissons Ratio (y) = 0.02686 0.05938
# Poissons Ratio (z) = -0.08819 0.04642
#
# Static dielectric constant tensor:
#      x y z
#    x 1.933710 0.000000 -0.005960 
#    y 0.000000 1.984010 0.000000 
#    z -0.005960 0.000000 1.991840 
# 
# From -- ./inp_files/1971.got.cif
#   From: 2010.05.17/outbox.cif.g08.bks.cpg/sg4_1_cif.got.tgz:1971.got - 2010.06.03 18:43:04.
