data_PCOD9118009
_publ_section_title
;
Structure prediction by ZEFSAII (Michael W. Deem and Ramdas Pophale) SiO2 
 PCOD9118009
Probable space group: P 21
;
_chemical_formula_sum "Si O2"
_cell_formula_units_Z 10
_cell_length_a 8.281453
_cell_length_b 7.474450
_cell_length_c 11.830812
_cell_angle_alpha 90.000000
_cell_angle_beta 146.999409
_cell_angle_gamma 90.000000
_cell_volume 398.855879
_symmetry_space_group_name_H-M "P 21"
_symmetry_group_IT_number 4
_symmetry_cell_setting 'monoclinic'
loop_
_space_group_symop_operation_xyz
x,y,z
-x,1/2+y,-z
loop_
_atom_site_type_symbol
_atom_site_label
_atom_site_fract_x
_atom_site_fract_y
_atom_site_fract_z
Si Si1 0.286166 0.539480 0.685831
Si Si2 0.047836 0.721751 0.900956
Si Si3 0.138392 0.941950 0.371387
Si Si4 0.065754 0.138387 0.905468
Si Si5 0.345602 0.154933 0.686189
O O1 0.164733 0.470654 0.735223
O O2 0.356858 0.363130 0.653412
O O3 0.989934 0.632899 0.464942
O O4 0.574832 0.656017 0.878351
O O5 0.831476 0.596313 0.704801
O O6 0.015651 0.928690 0.853630
O O7 0.379982 0.649891 0.069216
O O8 0.024614 0.693042 0.021051
O O9 0.106263 0.759605 0.285035
O O10 0.370570 0.001443 0.604981
#
# Coordination Sequence:
#
# PCOD9118009 Si02
#       5
#     2   2   2   2   2
#     4   9  23  41  71  99 136 178 233 284 336 411
#     4  11  23  45  68  98 144 179 231 286 343 414
#     4  10  24  43  69  96 138 186 224 278 353 399
#     4  11  23  42  72 100 135 183 231 281 344 410
#     4   9  23  43  64 103 135 176 235 279 340 408
#
# _framework density 25.071712000000002
#
# number of rings (size 3 to 8) (size 9 to 14) (size 15 to 20)
#    1.200    0.800    2.000    0.000    8.400    1.600 
#    3.600    0.000    0.000    0.000    0.000    0.000 
#    0.000    0.000    0.000    0.000    0.000    0.000 
#
# Total GULP energy -55809.592583 kJ/mol
# GULP energy per Si atom -5580.959258 kJ/mol
# Density = 2.501465 g / cm^3
# Si number density = 25.071712 Si / 1000 Ang^3
#
#
#
# Elastic Constant Matrix: (Units=GPa)
#
#
# Indices 1 2 3 4 5 6 
#
# 1 58.5888 33.7086 26.8130 0.0000 -6.4036 0.0000
# 2 33.7086 156.2195 68.8700 0.0000 -34.5571 0.0000
# 3 26.8130 68.8700 53.1633 0.0000 -0.2077 0.0000
# 4 0.0000 0.0000 0.0000 48.8791 0.0000 -12.3928
# 5 -6.4036 -34.5571 -0.2077 0.0000 38.5334 0.0000
# 6 0.0000 0.0000 0.0000 -12.3928 0.0000 36.0613
#
#
#
# Elastic Compliance Matrix: (Units=1/GPa)
#
#
# Indices 1 2 3 4 5 6 
#
# 1 0.023348 0.004243 -0.017242 0.000000 0.007592 0.000000
# 2 0.004243 0.028175 -0.038538 0.000000 0.025765 0.000000
# 3 -0.017242 -0.038538 0.077285 0.000000 -0.037010 0.000000
# 4 0.000000 0.000000 0.000000 0.022411 0.000000 0.007702
# 5 0.007592 0.025765 -0.037010 0.000000 0.050120 0.000000
# 6 0.000000 0.000000 0.000000 0.007702 0.000000 0.030377
#
#
# Mechanical properties :
#
#
# Convention : Reuss Voigt Hill
#
# Bulk Modulus (GPa) = 38.86047 58.52830 48.69439
# Shear Modulus (GPa) = 14.56169 33.93342 24.24756
#
# Velocity S-wave (km/s) = 2.41260 3.68292 3.11324
# Velocity P-wave (km/s) = 4.82641 6.44052 5.69098
#
# Compressibility (1/GPa) = 0.02573309
#
# Stress axis : x y z
#
# Youngs Moduli (GPa) = 42.83096 35.49290 12.93917
#
# Poissons Ratio (x) = -0.15058 0.22309
# Poissons Ratio (y) = -0.18172 0.49865
# Poissons Ratio (z) = 0.73848 1.36782
#
# Static dielectric constant tensor:
#      x y z
#    x 2.027090 0.000000 0.067780 
#    y 0.000000 2.018140 0.000000 
#    z 0.067780 0.000000 1.976790 
# 
# From -- ./inp_files/2532.got.cif
#   From: 2010.05.17/outbox.cif.g08.bks.cpg/sg4_2_cif.got.tgz:2532.got - 2010.06.03 18:43:04.
