data_PCOD9118139
_publ_section_title
;
Structure prediction by ZEFSAII (Michael W. Deem and Ramdas Pophale) SiO2 
 PCOD9118139
Probable space group: P 21
;
_chemical_formula_sum "Si O2"
_cell_formula_units_Z 16
_cell_length_a 20.648166
_cell_length_b 6.759259
_cell_length_c 8.357995
_cell_angle_alpha 90.000000
_cell_angle_beta 37.136815
_cell_angle_gamma 90.000000
_cell_volume 704.236434
_symmetry_space_group_name_H-M "P 21"
_symmetry_group_IT_number 4
_symmetry_cell_setting 'monoclinic'
loop_
_space_group_symop_operation_xyz
x,y,z
-x,1/2+y,-z
loop_
_atom_site_type_symbol
_atom_site_label
_atom_site_fract_x
_atom_site_fract_y
_atom_site_fract_z
Si Si1 0.654927 0.353750 0.673169
Si Si2 0.127473 0.222383 0.097143
Si Si3 0.410620 0.620391 0.498296
Si Si4 0.072169 0.424832 0.516613
Si Si5 0.346163 0.193794 0.538446
Si Si6 0.571522 0.291212 0.197142
Si Si7 0.998248 0.038979 0.836532
Si Si8 0.136803 0.700925 0.634708
O O1 0.585818 0.261537 0.663926
O O2 0.655650 0.587922 0.631161
O O3 0.771515 0.254851 0.423001
O O4 0.627160 0.298414 0.911635
O O5 0.135466 0.351925 0.239458
O O6 0.093377 0.385444 0.033451
O O7 0.025580 0.077395 0.321090
O O8 0.238393 0.116846 0.836003
O O9 0.340915 0.431412 0.573626
O O10 0.524901 0.513917 0.305509
O O11 0.377735 0.717695 0.734289
O O12 0.015358 0.232518 0.700249
O O13 0.156131 0.533291 0.467317
O O14 0.463965 0.159262 0.379937
O O15 0.105373 0.908815 0.617654
O O16 0.968218 0.117586 0.069486
#
# Coordination Sequence:
#
# PCOD9118139 Si02
#       8
#     2   2   2   2   2   2   2   2
#     4  12  24  47  71 106 137 189 238 288 357 425
#     4  11  23  43  68 100 133 181 232 276 350 411
#     4  10  24  46  71 101 140 185 228 295 358 414
#     4  11  23  42  65  98 139 181 227 291 337 420
#     4  10  25  42  73 103 137 184 230 290 354 419
#     4  10  24  47  72 103 142 178 237 294 355 422
#     4  11  22  43  62  93 140 173 228 282 340 402
#     4  11  25  38  68  96 136 183 230 288 343 417
#
# _framework density 22.719642
#
# number of rings (size 3 to 8) (size 9 to 14) (size 15 to 20)
#    0.750    0.500    2.500    3.000    3.500    1.000 
#    4.500    0.000    0.000    0.000    0.000    0.000 
#    0.000    0.000    0.000    0.000    0.000    0.000 
#
# Total GULP energy -89079.658522 kJ/mol
# GULP energy per Si atom -5567.478658 kJ/mol
# Density = 2.266793 g / cm^3
# Si number density = 22.719642 Si / 1000 Ang^3
#
#
#
# Elastic Constant Matrix: (Units=GPa)
#
#
# Indices 1 2 3 4 5 6 
#
# 1 71.4825 44.1172 33.7244 0.0000 18.0857 0.0000
# 2 44.1172 97.7994 31.8253 0.0000 17.6944 0.0000
# 3 33.7244 31.8253 69.4758 0.0000 28.3789 0.0000
# 4 0.0000 0.0000 0.0000 30.5318 0.0000 18.7268
# 5 18.0857 17.6944 28.3789 0.0000 40.2625 0.0000
# 6 0.0000 0.0000 0.0000 18.7268 0.0000 35.4853
#
#
#
# Elastic Compliance Matrix: (Units=1/GPa)
#
#
# Indices 1 2 3 4 5 6 
#
# 1 0.022232 -0.007540 -0.006477 0.000000 -0.002108 0.000000
# 2 -0.007540 0.014685 -0.002548 0.000000 -0.001271 0.000000
# 3 -0.006477 -0.002548 0.023956 0.000000 -0.012856 0.000000
# 4 0.000000 0.000000 0.000000 0.048429 0.000000 -0.025557
# 5 -0.002108 -0.001271 -0.012856 0.000000 0.035404 0.000000
# 6 0.000000 0.000000 0.000000 -0.025557 0.000000 0.041668
#
#
# Mechanical properties :
#
#
# Convention : Reuss Voigt Hill
#
# Bulk Modulus (GPa) = 36.04378 50.89905 43.47142
# Shear Modulus (GPa) = 21.85785 29.86198 25.85992
#
# Velocity S-wave (km/s) = 3.10509 3.62935 3.37741
# Velocity P-wave (km/s) = 5.36232 6.32572 5.86384
#
# Compressibility (1/GPa) = 0.02774403
#
# Stress axis : x y z
#
# Youngs Moduli (GPa) = 44.98087 68.09543 41.74326
#
# Poissons Ratio (x) = 0.51342 0.27036
# Poissons Ratio (y) = 0.33914 0.10636
# Poissons Ratio (z) = 0.29133 0.17350
#
# Static dielectric constant tensor:
#      x y z
#    x 1.925970 0.000000 0.006970 
#    y 0.000000 1.853730 0.000000 
#    z 0.006970 0.000000 1.897650 
# 
# From -- ./inp_files/10004.got.cif
#   From: 2010.05.17/outbox.cif.g08.bks.cpg/sg4_6_cif.got.tgz:10004.got - 2010.06.03 18:43:04.
