data_PCOD9118444
_publ_section_title
;
Structure prediction by ZEFSAII (Michael W. Deem and Ramdas Pophale) SiO2 
 PCOD9118444
Probable space group: P 21
;
_chemical_formula_sum "Si O2"
_cell_formula_units_Z 14
_cell_length_a 11.501048
_cell_length_b 5.587106
_cell_length_c 9.733271
_cell_angle_alpha 90.000000
_cell_angle_beta 80.569600
_cell_angle_gamma 90.000000
_cell_volume 616.983840
_symmetry_space_group_name_H-M "P 21"
_symmetry_group_IT_number 4
_symmetry_cell_setting 'monoclinic'
loop_
_space_group_symop_operation_xyz
x,y,z
-x,1/2+y,-z
loop_
_atom_site_type_symbol
_atom_site_label
_atom_site_fract_x
_atom_site_fract_y
_atom_site_fract_z
Si Si1 0.624912 0.950950 0.445927
Si Si2 0.230773 0.952654 0.540255
Si Si3 0.489650 0.643138 0.274465
Si Si4 0.152344 0.549586 0.019320
Si Si5 0.696404 0.647770 0.038584
Si Si6 0.905373 0.396199 0.173363
Si Si7 0.746463 0.365268 0.774279
O O1 0.703453 0.707760 0.446538
O O2 0.545513 0.886799 0.329119
O O3 0.696137 0.205019 0.436019
O O4 0.536206 0.969896 0.592614
O O5 0.119645 0.946209 0.663899
O O6 0.204583 0.939983 0.383009
O O7 0.583793 0.563306 0.144092
O O8 0.362718 0.693813 0.236956
O O9 0.163404 0.744265 0.138051
O O10 0.037993 0.412700 0.094438
O O11 0.278420 0.426754 0.979660
O O12 0.128380 0.632889 0.869618
O O13 0.811316 0.554069 0.102559
O O14 0.694930 0.569966 0.881184
#
# Coordination Sequence:
#
# PCOD9118444 Si02
#       7
#     2   2   2   2   2   2   2
#     4  11  24  44  71 108 143 188 243 284 348 431
#     4  11  25  48  73 107 143 191 238 297 353 422
#     4  11  23  43  70 103 146 185 229 292 353 428
#     4  11  24  47  69 103 136 186 244 298 349 426
#     4  11  24  44  70 100 136 187 230 293 354 424
#     4  11  23  46  76  97 134 185 249 294 347 418
#     4  10  27  42  63 106 144 178 227 290 362 425
#
# _framework density 22.691030000000001
#
# number of rings (size 3 to 8) (size 9 to 14) (size 15 to 20)
#    0.000    1.143    2.857    2.571    6.000    0.000 
#   10.286    0.000    0.000    0.000    0.000    0.000 
#    0.000    0.000    0.000    0.000    0.000    0.000 
#
# Total GULP energy -78046.602856 kJ/mol
# GULP energy per Si atom -5574.757347 kJ/mol
# Density = 2.263938 g / cm^3
# Si number density = 22.691030 Si / 1000 Ang^3
#
#
#
# Elastic Constant Matrix: (Units=GPa)
#
#
# Indices 1 2 3 4 5 6 
#
# 1 9.5813 -8.7536 15.9207 0.0000 -15.0375 0.0000
# 2 -8.7536 57.5027 2.2650 0.0000 -11.1709 0.0000
# 3 15.9207 2.2650 148.0093 0.0000 -28.3134 0.0000
# 4 0.0000 0.0000 0.0000 26.2775 0.0000 1.3270
# 5 -15.0375 -11.1709 -28.3134 0.0000 38.3874 0.0000
# 6 0.0000 0.0000 0.0000 1.3270 0.0000 20.6315
#
#
#
# Elastic Compliance Matrix: (Units=1/GPa)
#
#
# Indices 1 2 3 4 5 6 
#
# 1 2.366176 0.565671 -0.063308 0.000000 1.044817 0.000000
# 2 0.565671 0.153761 -0.014264 0.000000 0.255814 0.000000
# 3 -0.063308 -0.014264 0.009601 0.000000 -0.021869 0.000000
# 4 0.000000 0.000000 0.000000 0.038179 0.000000 -0.002456
# 5 1.044817 0.255814 -0.021869 0.000000 0.493648 0.000000
# 6 0.000000 0.000000 0.000000 -0.002456 0.000000 0.048627
#
#
# Mechanical properties :
#
#
# Convention : Reuss Voigt Hill
#
# Bulk Modulus (GPa) = 0.28525 25.99527 13.14026
# Shear Modulus (GPa) = 1.51406 30.77004 16.14205
#
# Velocity S-wave (km/s) = 0.81774 3.68645 2.67007
# Velocity P-wave (km/s) = 1.00875 5.44067 3.91270
#
# Compressibility (1/GPa) = 3.50573486
#
# Stress axis : x y z
#
# Youngs Moduli (GPa) = 0.42262 6.50361 104.15631
#
# Poissons Ratio (x) = -3.67890 6.59394
# Poissons Ratio (y) = -0.23907 1.48569
# Poissons Ratio (z) = 0.02676 0.09277
#
# Static dielectric constant tensor:
#      x y z
#    x 1.864180 0.000000 0.012020 
#    y 0.000000 2.049350 0.000000 
#    z 0.012020 0.000000 1.823040 
# 
# From -- ./inp_files/7208.got.cif
#   From: 2010.05.17/outbox.cif.g08.bks.cpg/sg4_4_cif.got.tgz:7208.got - 2010.06.03 18:43:04.
