data_PCOD9118661
_publ_section_title
;
Structure prediction by ZEFSAII (Michael W. Deem and Ramdas Pophale) SiO2 
 PCOD9118661
Probable space group: P 21
;
_chemical_formula_sum "Si O2"
_cell_formula_units_Z 16
_cell_length_a 7.779488
_cell_length_b 9.097847
_cell_length_c 13.346863
_cell_angle_alpha 90.000000
_cell_angle_beta 136.384379
_cell_angle_gamma 90.000000
_cell_volume 651.632462
_symmetry_space_group_name_H-M "P 21"
_symmetry_group_IT_number 4
_symmetry_cell_setting 'monoclinic'
loop_
_space_group_symop_operation_xyz
x,y,z
-x,1/2+y,-z
loop_
_atom_site_type_symbol
_atom_site_label
_atom_site_fract_x
_atom_site_fract_y
_atom_site_fract_z
Si Si1 0.559634 0.333490 0.834477
Si Si2 0.168681 0.535666 0.854584
Si Si3 0.885751 0.299248 0.635387
Si Si4 0.080399 0.643873 0.139905
Si Si5 0.618963 0.353170 0.091595
Si Si6 0.708362 0.601133 0.810855
Si Si7 0.495673 0.903603 0.650802
Si Si8 0.165519 0.067338 0.662476
O O1 0.797604 0.261942 0.882528
O O2 0.509700 0.469403 0.739349
O O3 0.366887 0.199143 0.759017
O O4 0.621779 0.373993 0.973939
O O5 0.314236 0.679899 0.875203
O O6 0.071378 0.438105 0.720653
O O7 0.923732 0.577452 0.817064
O O8 0.351840 0.433357 0.000593
O O9 0.950886 0.221260 0.767189
O O10 0.607931 0.360357 0.502306
O O11 0.923561 0.169529 0.570004
O O12 0.275624 0.514126 0.243995
O O13 0.846055 0.597886 0.976088
O O14 0.810013 0.449812 0.236941
O O15 0.581012 0.756379 0.741121
O O16 0.257116 0.978155 0.604618
#
# Coordination Sequence:
#
# PCOD9118661 Si02
#       8
#     2   2   2   2   2   2   2   2
#     4  11  22  41  68 105 146 183 243 317 368 432
#     4  12  25  43  74 108 151 190 248 300 390 434
#     4  12  27  49  73 108 154 203 242 313 381 458
#     4  11  24  46  73 106 147 186 256 309 369 454
#     4  12  23  44  71 114 147 186 251 313 368 445
#     4  12  25  45  74 110 141 195 249 317 370 445
#     4  11  30  48  72 109 151 196 256 307 387 446
#     4  11  26  46  69 106 149 199 249 308 373 450
#
# _framework density 24.553719999999998
#
# number of rings (size 3 to 8) (size 9 to 14) (size 15 to 20)
#    0.000    0.500    5.000    2.250    7.000    2.000 
#    0.000    2.500    0.000    0.000    0.000    0.000 
#    0.000    0.000    0.000    0.000    0.000    0.000 
#
# Total GULP energy -89370.674250 kJ/mol
# GULP energy per Si atom -5585.667141 kJ/mol
# Density = 2.449783 g / cm^3
# Si number density = 24.553720 Si / 1000 Ang^3
#
#
#
# Elastic Constant Matrix: (Units=GPa)
#
#
# Indices 1 2 3 4 5 6 
#
# 1 71.1482 43.6739 -0.9152 0.0000 -3.0818 0.0000
# 2 43.6739 162.9435 40.1208 0.0000 3.3735 0.0000
# 3 -0.9152 40.1208 83.9599 0.0000 10.5636 0.0000
# 4 0.0000 0.0000 0.0000 16.9581 0.0000 -3.6660
# 5 -3.0818 3.3735 10.5636 0.0000 9.1097 0.0000
# 6 0.0000 0.0000 0.0000 -3.6660 0.0000 44.8193
#
#
#
# Elastic Compliance Matrix: (Units=1/GPa)
#
#
# Indices 1 2 3 4 5 6 
#
# 1 0.017597 -0.005334 0.002041 0.000000 0.005561 0.000000
# 2 -0.005334 0.008590 -0.004140 0.000000 -0.000185 0.000000
# 3 0.002041 -0.004140 0.015960 0.000000 -0.016283 0.000000
# 4 0.000000 0.000000 0.000000 0.060030 0.000000 0.004910
# 5 0.005561 -0.000185 -0.016283 0.000000 0.130605 0.000000
# 6 0.000000 0.000000 0.000000 0.004910 0.000000 0.022713
#
#
# Mechanical properties :
#
#
# Convention : Reuss Voigt Hill
#
# Bulk Modulus (GPa) = 36.65593 53.75673 45.20633
# Shear Modulus (GPa) = 17.89206 29.85558 23.87382
#
# Velocity S-wave (km/s) = 2.70235 3.49080 3.12157
# Velocity P-wave (km/s) = 4.96973 6.17969 5.60744
#
# Compressibility (1/GPa) = 0.02728072
#
# Stress axis : x y z
#
# Youngs Moduli (GPa) = 56.82907 116.41565 62.65849
#
# Poissons Ratio (x) = 0.62098 -0.12789
# Poissons Ratio (y) = 0.30313 0.25938
# Poissons Ratio (z) = -0.11599 0.48191
#
# Static dielectric constant tensor:
#      x y z
#    x 2.038860 0.000000 0.027200 
#    y 0.000000 2.008640 0.000000 
#    z 0.027200 0.000000 1.945240 
# 
# From -- ./inp_files/13699.got.cif
#   From: 2010.05.17/outbox.cif.g08.bks.cpg/sg4_7_cif.got.tgz:13699.got - 2010.06.03 18:43:04.
