data_PCOD9118743
_publ_section_title
;
Structure prediction by ZEFSAII (Michael W. Deem and Ramdas Pophale) SiO2 
 PCOD9118743
Probable space group: P 21
;
_chemical_formula_sum "Si O2"
_cell_formula_units_Z 14
_cell_length_a 14.031334
_cell_length_b 6.535202
_cell_length_c 18.381809
_cell_angle_alpha 90.000000
_cell_angle_beta 21.916602
_cell_angle_gamma 90.000000
_cell_volume 629.149336
_symmetry_space_group_name_H-M "P 21"
_symmetry_group_IT_number 4
_symmetry_cell_setting 'monoclinic'
loop_
_space_group_symop_operation_xyz
x,y,z
-x,1/2+y,-z
loop_
_atom_site_type_symbol
_atom_site_label
_atom_site_fract_x
_atom_site_fract_y
_atom_site_fract_z
Si Si1 0.105944 0.274830 0.028288
Si Si2 0.757555 0.877469 0.306033
Si Si3 0.110685 0.237944 0.267009
Si Si4 0.597989 0.037831 0.672999
Si Si5 0.049615 0.571370 0.202251
Si Si6 0.458446 0.906290 0.935108
Si Si7 0.345707 0.001495 0.707466
O O1 0.118239 0.420056 0.088705
O O2 0.926263 0.391671 0.098667
O O3 0.398129 0.224047 0.806665
O O4 0.950504 0.065040 0.155687
O O5 0.705979 0.740750 0.271756
O O6 0.874997 0.737808 0.286734
O O7 0.492010 0.946404 0.529216
O O8 0.964723 0.413762 0.324404
O O9 0.289162 0.356428 0.197621
O O10 0.892533 0.099115 0.458087
O O11 0.293229 0.094460 0.086619
O O12 0.511710 0.928604 0.658854
O O13 0.529645 0.942424 0.799771
O O14 0.287139 0.702970 0.062229
#
# Coordination Sequence:
#
# PCOD9118743 Si02
#       7
#     2   2   2   2   2   2   2
#     4  11  24  43  68 106 152 187 248 305 373 452
#     4  11  22  45  72 105 144 202 249 299 376 464
#     4  12  27  50  79 109 145 205 251 318 391 461
#     4  12  28  47  72 115 152 188 260 316 380 454
#     4  11  22  46  77 100 146 196 240 315 377 445
#     4  12  26  51  78 107 151 192 257 318 386 457
#     4  11  25  42  72 104 150 198 247 307 371 453
#
# _framework density 22.252268999999998
#
# number of rings (size 3 to 8) (size 9 to 14) (size 15 to 20)
#    0.000    0.571    5.714    1.714    4.000    2.286 
#    7.714    0.000    0.000    0.000    0.000    0.000 
#    0.000    0.000    0.000    0.000    0.000    0.000 
#
# Total GULP energy -78149.541059 kJ/mol
# GULP energy per Si atom -5582.110076 kJ/mol
# Density = 2.220162 g / cm^3
# Si number density = 22.252269 Si / 1000 Ang^3
#
#
#
# Elastic Constant Matrix: (Units=GPa)
#
#
# Indices 1 2 3 4 5 6 
#
# 1 96.0314 26.9151 20.7370 0.0000 8.5993 0.0000
# 2 26.9151 79.4201 11.7133 0.0000 10.5670 0.0000
# 3 20.7370 11.7133 90.7137 0.0000 6.4883 0.0000
# 4 0.0000 0.0000 0.0000 32.9855 0.0000 -12.9542
# 5 8.5993 10.5670 6.4883 0.0000 29.9636 0.0000
# 6 0.0000 0.0000 0.0000 -12.9542 0.0000 6.3900
#
#
#
# Elastic Compliance Matrix: (Units=1/GPa)
#
#
# Indices 1 2 3 4 5 6 
#
# 1 0.012025 -0.003524 -0.002170 0.000000 -0.001739 0.000000
# 2 -0.003524 0.014420 -0.000777 0.000000 -0.003906 0.000000
# 3 -0.002170 -0.000777 0.011738 0.000000 -0.001645 0.000000
# 4 0.000000 0.000000 0.000000 0.148720 0.000000 0.301493
# 5 -0.001739 -0.003906 -0.001645 0.000000 0.035606 0.000000
# 6 0.000000 0.000000 0.000000 0.301493 0.000000 0.767695
#
#
# Mechanical properties :
#
#
# Convention : Reuss Voigt Hill
#
# Bulk Modulus (GPa) = 39.61727 42.76621 41.19174
# Shear Modulus (GPa) = 4.94287 27.65448 16.29867
#
# Velocity S-wave (km/s) = 1.49201 3.52912 2.70932
# Velocity P-wave (km/s) = 4.56185 5.98889 5.32340
#
# Compressibility (1/GPa) = 0.02524152
#
# Stress axis : x y z
#
# Youngs Moduli (GPa) = 83.15932 69.34918 85.19598
#
# Poissons Ratio (x) = 0.24438 0.18484
# Poissons Ratio (y) = 0.29305 0.06620
# Poissons Ratio (z) = 0.18042 0.05388
#
# Static dielectric constant tensor:
#      x y z
#    x 1.895530 0.000000 0.031060 
#    y 0.000000 1.870750 0.000000 
#    z 0.031060 0.000000 1.847030 
# 
# From -- ./inp_files/15728.got.cif
#   From: 2010.05.17/outbox.cif.g08.bks.cpg/sg4_8_cif.got.tgz:15728.got - 2010.06.03 18:43:04.
