data_PCOD9118135
_publ_section_title
;
Structure prediction by ZEFSAII (Michael W. Deem and Ramdas Pophale) SiO2 
 PCOD9118135
Probable space group: P 21
;
_chemical_formula_sum "Si O2"
_cell_formula_units_Z 16
_cell_length_a 5.437216
_cell_length_b 5.058246
_cell_length_c 24.058569
_cell_angle_alpha 90.000000
_cell_angle_beta 59.892654
_cell_angle_gamma 90.000000
_cell_volume 572.408623
_symmetry_space_group_name_H-M "P 21"
_symmetry_group_IT_number 4
_symmetry_cell_setting 'monoclinic'
loop_
_space_group_symop_operation_xyz
x,y,z
-x,1/2+y,-z
loop_
_atom_site_type_symbol
_atom_site_label
_atom_site_fract_x
_atom_site_fract_y
_atom_site_fract_z
Si Si1 0.318418 0.401180 0.517528
Si Si2 0.216476 0.832970 0.226828
Si Si3 0.645852 0.117480 0.259718
Si Si4 0.366801 0.311497 0.394031
Si Si5 0.758101 0.846415 0.100452
Si Si6 0.055566 0.108073 0.639443
Si Si7 0.526127 0.144187 0.032180
Si Si8 0.024615 0.857536 0.860685
O O1 0.415548 0.702676 0.501455
O O2 0.216317 0.273580 0.470659
O O3 0.122250 0.366261 0.593892
O O4 0.394146 0.027259 0.247609
O O5 0.935640 0.949752 0.230738
O O6 0.440675 0.750938 0.154534
O O7 0.108629 0.626120 0.284245
O O8 0.517275 0.102072 0.336310
O O9 0.787443 0.384008 0.216812
O O10 0.145272 0.447949 0.378811
O O11 0.640561 0.484699 0.380399
O O12 0.749411 0.956617 0.038963
O O13 0.826018 0.112198 0.125953
O O14 0.390300 0.921562 0.006493
O O15 0.298354 0.253044 0.103241
O O16 0.049717 0.111292 0.897288
#
# Coordination Sequence:
#
# PCOD9118135 Si02
#       8
#     2   2   2   2   2   2   2   2
#     4  10  24  46  70 100 144 192 248 312 376 450
#     4  11  23  43  71 109 152 195 254 312 383 452
#     4  11  23  43  71 109 152 195 254 312 383 452
#     4  11  24  42  67 105 143 195 249 308 379 450
#     4  11  25  47  73 110 150 198 251 319 383 461
#     4  11  24  42  67 105 143 195 249 308 379 450
#     4  12  26  48  76 112 150 200 258 318 392 478
#     4  11  25  47  73 110 150 198 251 319 383 461
#
# _framework density 27.952059999999999
#
# number of rings (size 3 to 8) (size 9 to 14) (size 15 to 20)
#    0.000    1.000    1.250    4.500    0.000   11.000 
#    2.250    0.000    0.000    0.000    0.000    0.000 
#    0.000    0.000    0.000    0.000    0.000    0.000 
#
# Total GULP energy -89481.403547 kJ/mol
# GULP energy per Si atom -5592.587722 kJ/mol
# Density = 2.788844 g / cm^3
# Si number density = 27.952060 Si / 1000 Ang^3
#
#
#
# Elastic Constant Matrix: (Units=GPa)
#
#
# Indices 1 2 3 4 5 6 
#
# 1 126.5497 47.8001 29.6852 0.0000 6.1603 0.0000
# 2 47.8001 123.1729 35.7775 0.0000 5.1961 0.0000
# 3 29.6852 35.7775 101.4559 0.0000 11.8271 0.0000
# 4 0.0000 0.0000 0.0000 50.7371 0.0000 10.4183
# 5 6.1603 5.1961 11.8271 0.0000 49.5035 0.0000
# 6 0.0000 0.0000 0.0000 10.4183 0.0000 37.3755
#
#
#
# Elastic Compliance Matrix: (Units=1/GPa)
#
#
# Indices 1 2 3 4 5 6 
#
# 1 0.009511 -0.003207 -0.001598 0.000000 -0.000465 0.000000
# 2 -0.003207 0.010129 -0.002629 0.000000 -0.000036 0.000000
# 3 -0.001598 -0.002629 0.011516 0.000000 -0.002277 0.000000
# 4 0.000000 0.000000 0.000000 0.020906 0.000000 -0.005827
# 5 -0.000465 -0.000036 -0.002277 0.000000 0.020806 0.000000
# 6 0.000000 0.000000 0.000000 -0.005827 0.000000 0.028380
#
#
# Mechanical properties :
#
#
# Convention : Reuss Voigt Hill
#
# Bulk Modulus (GPa) = 61.39504 64.18934 62.79219
# Shear Modulus (GPa) = 41.13697 43.38426 42.26061
#
# Velocity S-wave (km/s) = 3.84043 3.94394 3.89253
# Velocity P-wave (km/s) = 6.45580 6.61464 6.53570
#
# Compressibility (1/GPa) = 0.01628796
#
# Stress axis : x y z
#
# Youngs Moduli (GPa) = 105.14293 98.73123 86.83217
#
# Poissons Ratio (x) = 0.31666 0.13872
# Poissons Ratio (y) = 0.33722 0.22829
# Poissons Ratio (z) = 0.16797 0.25958
#
# Static dielectric constant tensor:
#      x y z
#    x 2.189210 0.000000 -0.008630 
#    y 0.000000 2.189160 0.000000 
#    z -0.008630 0.000000 2.437920 
# 
# From -- ./inp_files/4255.got.cif
#   From: 2010.05.17/outbox.cif.g08.bks.cpg/sg4_3_cif.got.tgz:4255.got - 2010.06.03 18:43:04.
