data_PCOD9118887
_publ_section_title
;
Structure prediction by ZEFSAII (Michael W. Deem and Ramdas Pophale) SiO2 
 PCOD9118887
Probable space group: P 21
;
_chemical_formula_sum "Si O2"
_cell_formula_units_Z 16
_cell_length_a 14.361179
_cell_length_b 5.233872
_cell_length_c 8.248497
_cell_angle_alpha 90.000000
_cell_angle_beta 81.406504
_cell_angle_gamma 90.000000
_cell_volume 613.034288
_symmetry_space_group_name_H-M "P 21"
_symmetry_group_IT_number 4
_symmetry_cell_setting 'monoclinic'
loop_
_space_group_symop_operation_xyz
x,y,z
-x,1/2+y,-z
loop_
_atom_site_type_symbol
_atom_site_label
_atom_site_fract_x
_atom_site_fract_y
_atom_site_fract_z
Si Si1 0.012461 0.673000 0.276252
Si Si2 0.541627 0.566155 0.058653
Si Si3 0.177820 0.094910 0.521003
Si Si4 0.530662 0.193494 0.573552
Si Si5 0.801817 0.889177 0.795337
Si Si6 0.908467 0.529514 0.978410
Si Si7 0.716449 0.251253 0.030659
Si Si8 0.724725 0.086361 0.381676
O O1 0.934353 0.628178 0.431493
O O2 0.114029 0.564635 0.299489
O O3 0.969393 0.543785 0.123681
O O4 0.030901 0.953564 0.196045
O O5 0.513313 0.674121 0.239414
O O6 0.651277 0.494839 0.016375
O O7 0.507809 0.789583 0.949028
O O8 0.213139 0.166486 0.331456
O O9 0.222178 0.318641 0.620466
O O10 0.210719 0.823524 0.579708
O O11 0.527727 0.486233 0.516279
O O12 0.636580 0.093010 0.525636
O O13 0.848924 0.775308 0.945067
O O14 0.715810 0.060557 0.878361
O O15 0.825910 0.323741 0.021446
O O16 0.687281 0.132533 0.209788
#
# Coordination Sequence:
#
# PCOD9118887 Si02
#       8
#     2   2   2   2   2   2   2   2
#     4  11  24  43  70 108 149 206 259 308 385 456
#     4  12  30  51  83 118 159 202 252 328 400 473
#     4  12  30  46  74 113 156 202 252 327 388 449
#     4  12  26  51  82 116 154 203 257 319 392 472
#     4  11  28  45  75 107 157 199 260 327 383 459
#     4  11  23  43  76 102 148 201 264 311 372 473
#     4  11  27  51  76 110 148 206 258 317 390 467
#     4  12  28  50  78 110 151 203 260 315 384 469
#
# _framework density 26.099685999999998
#
# number of rings (size 3 to 8) (size 9 to 14) (size 15 to 20)
#    0.000    0.500    3.750    2.250   12.250    0.000 
#    0.000    0.000    0.000    0.000    0.000    0.000 
#    0.000    0.000    0.000    0.000    0.000    0.000 
#
# Total GULP energy -89697.560773 kJ/mol
# GULP energy per Si atom -5606.097548 kJ/mol
# Density = 2.604028 g / cm^3
# Si number density = 26.099686 Si / 1000 Ang^3
#
#
#
# Elastic Constant Matrix: (Units=GPa)
#
#
# Indices 1 2 3 4 5 6 
#
# 1 69.2660 23.1596 12.3158 0.0000 -10.6979 0.0000
# 2 23.1596 92.6571 5.9680 0.0000 5.5548 0.0000
# 3 12.3158 5.9680 118.9202 0.0000 -1.1653 0.0000
# 4 0.0000 0.0000 0.0000 -89.7264 0.0000 -93.2543
# 5 -10.6979 5.5548 -1.1653 0.0000 41.4017 0.0000
# 6 0.0000 0.0000 0.0000 -93.2543 0.0000 -17.3114
#
#
#
# Elastic Compliance Matrix: (Units=1/GPa)
#
#
# Indices 1 2 3 4 5 6 
#
# 1 0.016946 -0.004436 -0.001484 0.000000 0.004932 0.000000
# 2 -0.004436 0.012079 -0.000174 0.000000 -0.002772 0.000000
# 3 -0.001484 -0.000174 0.008570 0.000000 -0.000119 0.000000
# 4 0.000000 0.000000 0.000000 0.002424 0.000000 -0.013055
# 5 0.004932 -0.002772 -0.000119 0.000000 0.025797 0.000000
# 6 0.000000 0.000000 0.000000 -0.013055 0.000000 0.012561
#
#
# Mechanical properties :
#
#
# Convention : Reuss Voigt Hill
#
# Bulk Modulus (GPa) = 39.35879 40.41445 39.88662
# Shear Modulus (GPa) = 50.48855 2.83278 26.66067
#
# Velocity S-wave (km/s) = 4.40301 1.04294 3.19955
# Velocity P-wave (km/s) = 6.40012 4.11929 5.38192
#
# Compressibility (1/GPa) = 0.02540728
#
# Stress axis : x y z
#
# Youngs Moduli (GPa) = 59.01162 82.79148 116.68259
#
# Poissons Ratio (x) = 0.36724 0.17316
# Poissons Ratio (y) = 0.26176 0.02030
# Poissons Ratio (z) = 0.08758 0.01440
#
# Static dielectric constant tensor:
#      x y z
#    x 2.090010 0.000000 0.000780 
#    y 0.000000 2.083240 0.000000 
#    z 0.000780 0.000000 2.032370 
# 
# From -- ./inp_files/8621.got.cif
#   From: 2010.05.17/outbox.cif.g08.bks.cpg/sg4_5_cif.got.tgz:8621.got - 2010.06.03 18:43:04.
