data_PCOD9118691
_publ_section_title
;
Structure prediction by ZEFSAII (Michael W. Deem and Ramdas Pophale) SiO2 
 PCOD9118691
Probable space group: P 21
;
_chemical_formula_sum "Si O2"
_cell_formula_units_Z 16
_cell_length_a 17.925406
_cell_length_b 6.398482
_cell_length_c 6.892218
_cell_angle_alpha 90.000000
_cell_angle_beta 122.467753
_cell_angle_gamma 90.000000
_cell_volume 666.944618
_symmetry_space_group_name_H-M "P 21"
_symmetry_group_IT_number 4
_symmetry_cell_setting 'monoclinic'
loop_
_space_group_symop_operation_xyz
x,y,z
-x,1/2+y,-z
loop_
_atom_site_type_symbol
_atom_site_label
_atom_site_fract_x
_atom_site_fract_y
_atom_site_fract_z
Si Si1 0.384172 0.175140 0.831846
Si Si2 0.827458 0.867414 0.923515
Si Si3 0.178559 0.605136 0.477043
Si Si4 0.963808 0.949236 0.439985
Si Si5 0.493962 0.448899 0.731763
Si Si6 0.385746 0.804315 0.417889
Si Si7 0.221378 0.018918 0.405358
Si Si8 0.683223 0.999618 0.006844
O O1 0.435486 0.251916 0.713865
O O2 0.390997 0.359923 0.998740
O O3 0.280110 0.148649 0.641686
O O4 0.431251 0.982928 0.000828
O O5 0.835817 0.649659 0.824762
O O6 0.803753 0.022540 0.714241
O O7 0.910197 0.941318 0.163051
O O8 0.746903 0.857233 0.962513
O O9 0.101526 0.472972 0.467343
O O10 0.161053 0.850783 0.427875
O O11 0.260165 0.594664 0.738843
O O12 0.997265 0.698306 0.504261
O O13 0.428345 0.645619 0.630615
O O14 0.538897 0.437937 0.584131
O O15 0.303048 0.917772 0.399753
O O16 0.350860 0.671283 0.186926
#
# Coordination Sequence:
#
# PCOD9118691 Si02
#       8
#     2   2   2   2   2   2   2   2
#     4  12  23  40  62  95 140 191 252 313 385 437
#     4  11  25  47  76 113 148 189 251 299 370 451
#     4  11  25  47  76 113 148 189 251 299 370 451
#     4  11  30  52  83 119 164 204 236 296 374 463
#     4  12  24  38  57  92 140 192 250 312 384 458
#     4  12  23  40  62  95 140 191 252 313 385 437
#     4  12  24  43  76 105 141 194 252 318 371 431
#     4  11  22  43  66 100 141 184 250 320 369 436
#
# _framework density 23.989998
#
# number of rings (size 3 to 8) (size 9 to 14) (size 15 to 20)
#    0.000    0.500    2.500    6.000    3.500    1.000 
#    0.000    0.000    0.000    0.000    0.000    0.000 
#    0.000    0.000    0.000    0.000    0.000    0.000 
#
# Total GULP energy -89350.570137 kJ/mol
# GULP energy per Si atom -5584.410634 kJ/mol
# Density = 2.393540 g / cm^3
# Si number density = 23.989998 Si / 1000 Ang^3
#
#
#
# Elastic Constant Matrix: (Units=GPa)
#
#
# Indices 1 2 3 4 5 6 
#
# 1 51.5986 23.8062 23.0671 0.0000 -6.3838 0.0000
# 2 23.8062 94.3576 39.7385 0.0000 -0.5085 0.0000
# 3 23.0671 39.7385 129.9047 0.0000 -11.1387 0.0000
# 4 0.0000 0.0000 0.0000 55.3967 0.0000 -9.1735
# 5 -6.3838 -0.5085 -11.1387 0.0000 24.3295 0.0000
# 6 0.0000 0.0000 0.0000 -9.1735 0.0000 49.5867
#
#
#
# Elastic Compliance Matrix: (Units=1/GPa)
#
#
# Indices 1 2 3 4 5 6 
#
# 1 0.023247 -0.004913 -0.002197 0.000000 0.004991 0.000000
# 2 -0.004913 0.013257 -0.003403 0.000000 -0.002570 0.000000
# 3 -0.002197 -0.003403 0.009444 0.000000 0.003676 0.000000
# 4 0.000000 0.000000 0.000000 0.018622 0.000000 0.003445
# 5 0.004991 -0.002570 0.003676 0.000000 0.044041 0.000000
# 6 0.000000 0.000000 0.000000 0.003445 0.000000 0.020804
#
#
# Mechanical properties :
#
#
# Convention : Reuss Voigt Hill
#
# Bulk Modulus (GPa) = 40.12610 49.89829 45.01219
# Shear Modulus (GPa) = 31.49615 38.47917 34.98766
#
# Velocity S-wave (km/s) = 3.62731 4.00930 3.82308
# Velocity P-wave (km/s) = 5.85710 6.50211 6.18802
#
# Compressibility (1/GPa) = 0.02492144
#
# Stress axis : x y z
#
# Youngs Moduli (GPa) = 43.01675 75.43193 105.88270
#
# Poissons Ratio (x) = 0.37059 0.23263
# Poissons Ratio (y) = 0.21134 0.36036
# Poissons Ratio (z) = 0.09451 0.25672
#
# Static dielectric constant tensor:
#      x y z
#    x 1.900690 0.000000 -0.000310 
#    y 0.000000 2.029810 0.000000 
#    z -0.000310 0.000000 1.860620 
# 
# From -- ./inp_files/4220.got.cif
#   From: 2010.05.17/outbox.cif.g08.bks.cpg/sg4_3_cif.got.tgz:4220.got - 2010.06.03 18:43:04.
