data_PCOD9118069
_publ_section_title
;
Structure prediction by ZEFSAII (Michael W. Deem and Ramdas Pophale) SiO2 
 PCOD9118069
Probable space group: P 21
;
_chemical_formula_sum "Si O2"
_cell_formula_units_Z 16
_cell_length_a 7.149808
_cell_length_b 10.513251
_cell_length_c 9.700469
_cell_angle_alpha 90.000000
_cell_angle_beta 112.525692
_cell_angle_gamma 90.000000
_cell_volume 673.532838
_symmetry_space_group_name_H-M "P 21"
_symmetry_group_IT_number 4
_symmetry_cell_setting 'monoclinic'
loop_
_space_group_symop_operation_xyz
x,y,z
-x,1/2+y,-z
loop_
_atom_site_type_symbol
_atom_site_label
_atom_site_fract_x
_atom_site_fract_y
_atom_site_fract_z
Si Si1 0.548844 0.891990 0.251019
Si Si2 0.120534 0.236200 0.276664
Si Si3 0.985868 0.686995 0.186089
Si Si4 0.998334 0.821811 0.454211
Si Si5 0.646678 0.499546 0.539592
Si Si6 0.672730 0.988181 0.782535
Si Si7 0.388464 0.026507 0.961914
Si Si8 0.186601 0.790397 0.013366
O O1 0.784409 0.870301 0.333815
O O2 0.457925 0.911015 0.376180
O O3 0.500392 0.013841 0.140616
O O4 0.413990 0.781256 0.139541
O O5 0.031759 0.284164 0.396993
O O6 0.246592 0.348722 0.237935
O O7 0.937816 0.198574 0.122128
O O8 0.263485 0.119821 0.355858
O O9 0.137727 0.583034 0.165505
O O10 0.040617 0.705714 0.361103
O O11 0.754385 0.647461 0.100068
O O12 0.046118 0.808557 0.109089
O O13 0.172472 0.924735 0.483796
O O14 0.481921 0.534190 0.379335
O O15 0.548098 0.993229 0.888966
O O16 0.222749 0.913067 0.927583
#
# Coordination Sequence:
#
# PCOD9118069 Si02
#       8
#     2   2   2   2   2   2   2   2
#     4  10  24  49  69 107 144 188 239 293 360 427
#     4  12  27  46  76 107 146 190 248 301 352 442
#     4  12  26  47  78 105 151 190 239 305 365 433
#     4  12  27  48  75 108 148 188 241 304 364 428
#     4  12  27  47  75 106 147 191 245 297 362 434
#     4  12  27  48  72 108 152 190 242 296 371 436
#     4  10  24  44  72 106 143 195 236 286 370 426
#     4  10  24  47  71 107 145 184 246 294 356 426
#
# _framework density 23.755336
#
# number of rings (size 3 to 8) (size 9 to 14) (size 15 to 20)
#    0.750    0.000    3.750    2.250    8.750    2.000 
#    4.500    0.000    0.000    0.000    0.000    0.000 
#    0.000    0.000    0.000    0.000    0.000    0.000 
#
# Total GULP energy -89436.657840 kJ/mol
# GULP energy per Si atom -5589.791115 kJ/mol
# Density = 2.370127 g / cm^3
# Si number density = 23.755336 Si / 1000 Ang^3
#
#
#
# Elastic Constant Matrix: (Units=GPa)
#
#
# Indices 1 2 3 4 5 6 
#
# 1 160.2372 36.6569 55.8097 0.0000 -20.0743 0.0000
# 2 36.6569 44.5568 -0.4415 0.0000 -9.6090 0.0000
# 3 55.8097 -0.4415 137.3236 0.0000 4.0634 0.0000
# 4 0.0000 0.0000 0.0000 28.0806 0.0000 -1.9306
# 5 -20.0743 -9.6090 4.0634 0.0000 48.3755 0.0000
# 6 0.0000 0.0000 0.0000 -1.9306 0.0000 24.3538
#
#
#
# Elastic Compliance Matrix: (Units=1/GPa)
#
#
# Indices 1 2 3 4 5 6 
#
# 1 0.009710 -0.007404 -0.004056 0.000000 0.002900 0.000000
# 2 -0.007404 0.029093 0.003030 0.000000 0.002452 0.000000
# 3 -0.004056 0.003030 0.008995 0.000000 -0.001837 0.000000
# 4 0.000000 0.000000 0.000000 0.035807 0.000000 0.002838
# 5 0.002900 0.002452 -0.001837 0.000000 0.022516 0.000000
# 6 0.000000 0.000000 0.000000 0.002838 0.000000 0.041286
#
#
# Mechanical properties :
#
#
# Convention : Reuss Voigt Hill
#
# Bulk Modulus (GPa) = 32.32219 58.46308 45.39264
# Shear Modulus (GPa) = 28.64022 36.83482 32.73752
#
# Velocity S-wave (km/s) = 3.47599 3.94203 3.71632
# Velocity P-wave (km/s) = 5.45397 6.73672 6.12900
#
# Compressibility (1/GPa) = 0.03093850
#
# Stress axis : x y z
#
# Youngs Moduli (GPa) = 102.98260 34.37254 111.17838
#
# Poissons Ratio (x) = 0.25448 0.45094
# Poissons Ratio (y) = 0.76244 -0.33686
# Poissons Ratio (z) = 0.41770 -0.10414
#
# Static dielectric constant tensor:
#      x y z
#    x 1.886740 0.000000 -0.019650 
#    y 0.000000 2.022190 0.000000 
#    z -0.019650 0.000000 1.883770 
# 
# From -- ./inp_files/4648.got.cif
#   From: 2010.05.17/outbox.cif.g08.bks.cpg/sg4_3_cif.got.tgz:4648.got - 2010.06.03 18:43:04.
