data_PCOD9118418
_publ_section_title
;
Structure prediction by ZEFSAII (Michael W. Deem and Ramdas Pophale) SiO2 
 PCOD9118418
Probable space group: P 21
;
_chemical_formula_sum "Si O2"
_cell_formula_units_Z 8
_cell_length_a 15.161458
_cell_length_b 4.884080
_cell_length_c 5.305426
_cell_angle_alpha 90.000000
_cell_angle_beta 51.172216
_cell_angle_gamma 90.000000
_cell_volume 306.055664
_symmetry_space_group_name_H-M "P 21"
_symmetry_group_IT_number 4
_symmetry_cell_setting 'monoclinic'
loop_
_space_group_symop_operation_xyz
x,y,z
-x,1/2+y,-z
loop_
_atom_site_type_symbol
_atom_site_label
_atom_site_fract_x
_atom_site_fract_y
_atom_site_fract_z
Si Si1 0.741556 0.667820 0.635162
Si Si2 0.427818 0.537778 0.219006
Si Si3 0.070189 0.893167 0.418315
Si Si4 0.697358 0.356204 0.198206
O O1 0.868613 0.570933 0.471341
O O2 0.709020 0.540159 0.426578
O O3 0.695619 0.976789 0.689514
O O4 0.676107 0.545768 0.995398
O O5 0.395274 0.634299 0.557691
O O6 0.500288 0.267247 0.049727
O O7 0.009450 0.138126 0.372698
O O8 0.174994 0.752220 0.082320
#
# Coordination Sequence:
#
# PCOD9118418 Si02
#       4
#     2   2   2   2
#     4  10  26  50  77 111 166 195 272 323 385 478
#     4  12  26  52  82 118 158 220 258 330 404 464
#     4  10  26  46  82 112 154 208 254 322 404 460
#     4  10  26  50  77 111 166 195 272 323 385 478
#
# _framework density 26.139035
#
# number of rings (size 3 to 8) (size 9 to 14) (size 15 to 20)
#    1.500    0.000    2.500    0.000    7.000    4.000 
#    9.000    0.000    0.000    0.000    0.000    0.000 
#    0.000    0.000    0.000    0.000    0.000    0.000 
#
# Total GULP energy -44658.146562 kJ/mol
# GULP energy per Si atom -5582.268320 kJ/mol
# Density = 2.607954 g / cm^3
# Si number density = 26.139035 Si / 1000 Ang^3
#
#
#
# Elastic Constant Matrix: (Units=GPa)
#
#
# Indices 1 2 3 4 5 6 
#
# 1 83.9542 24.2885 26.7221 0.0000 11.9334 0.0000
# 2 24.2885 119.0933 14.0243 0.0000 1.8778 0.0000
# 3 26.7221 14.0243 93.9466 0.0000 17.3253 0.0000
# 4 0.0000 0.0000 0.0000 40.2756 0.0000 -8.8898
# 5 11.9334 1.8778 17.3253 0.0000 47.2389 0.0000
# 6 0.0000 0.0000 0.0000 -8.8898 0.0000 60.2371
#
#
#
# Elastic Compliance Matrix: (Units=1/GPa)
#
#
# Indices 1 2 3 4 5 6 
#
# 1 0.013951 -0.002434 -0.003188 0.000000 -0.002258 0.000000
# 2 -0.002434 0.008973 -0.000745 0.000000 0.000532 0.000000
# 3 -0.003188 -0.000745 0.012343 0.000000 -0.003692 0.000000
# 4 0.000000 0.000000 0.000000 0.025665 0.000000 0.003788
# 5 -0.002258 0.000532 -0.003692 0.000000 0.023072 0.000000
# 6 0.000000 0.000000 0.000000 0.003788 0.000000 0.017160
#
#
# Mechanical properties :
#
#
# Convention : Reuss Voigt Hill
#
# Bulk Modulus (GPa) = 44.38180 47.45154 45.91667
# Shear Modulus (GPa) = 41.18250 45.01427 43.09838
#
# Velocity S-wave (km/s) = 3.97358 4.15433 4.06496
# Velocity P-wave (km/s) = 6.16997 6.41905 6.29574
#
# Compressibility (1/GPa) = 0.02253176
#
# Stress axis : x y z
#
# Youngs Moduli (GPa) = 71.67767 111.45063 81.01526
#
# Poissons Ratio (x) = 0.27130 0.25832
# Poissons Ratio (y) = 0.17448 0.06036
# Poissons Ratio (z) = 0.22854 0.08304
#
# Static dielectric constant tensor:
#      x y z
#    x 2.175720 0.000000 -0.076670 
#    y 0.000000 2.097560 0.000000 
#    z -0.076670 0.000000 2.004070 
# 
# From -- ./inp_files/4158.got.cif
#   From: 2010.05.17/outbox.cif.g08.bks.cpg/sg4_3_cif.got.tgz:4158.got - 2010.06.03 18:43:04.
