data_PCOD9118688
_publ_section_title
;
Structure prediction by ZEFSAII (Michael W. Deem and Ramdas Pophale) SiO2 
 PCOD9118688
Probable space group: P 21
;
_chemical_formula_sum "Si O2"
_cell_formula_units_Z 14
_cell_length_a 17.550004
_cell_length_b 5.085296
_cell_length_c 11.432698
_cell_angle_alpha 90.000000
_cell_angle_beta 145.350508
_cell_angle_gamma 90.000000
_cell_volume 580.115318
_symmetry_space_group_name_H-M "P 21"
_symmetry_group_IT_number 4
_symmetry_cell_setting 'monoclinic'
loop_
_space_group_symop_operation_xyz
x,y,z
-x,1/2+y,-z
loop_
_atom_site_type_symbol
_atom_site_label
_atom_site_fract_x
_atom_site_fract_y
_atom_site_fract_z
Si Si1 0.793197 0.671570 0.190404
Si Si2 0.149342 0.890713 0.981129
Si Si3 0.904353 0.153010 0.722659
Si Si4 0.000588 0.983241 0.353160
Si Si5 0.575654 0.446635 0.556566
Si Si6 0.271199 0.139148 0.468201
Si Si7 0.580072 0.550876 0.099918
O O1 0.804382 0.517616 0.083083
O O2 0.652130 0.650457 0.073560
O O3 0.898395 0.579603 0.421815
O O4 0.856802 0.947272 0.233650
O O5 0.041894 0.669970 0.807561
O O6 0.058281 0.084393 0.945655
O O7 0.286043 0.825541 0.218229
O O8 0.837133 0.410949 0.688147
O O9 0.929092 0.226452 0.615662
O O10 0.801975 0.919986 0.623674
O O11 0.475756 0.196622 0.431289
O O12 0.612378 0.581728 0.478953
O O13 0.330118 0.100152 0.672758
O O14 0.546752 0.243913 0.047694
#
# Coordination Sequence:
#
# PCOD9118688 Si02
#       7
#     2   2   2   2   2   2   2
#     4  11  24  40  73 110 155 187 238 303 377 442
#     4  11  26  45  78 109 152 197 249 300 380 452
#     4  11  23  46  77 113 144 185 242 317 388 437
#     4  11  22  42  76 119 153 188 235 319 386 451
#     4  12  32  53  76 104 152 209 261 304 361 454
#     4  12  26  49  76 105 154 188 254 317 378 435
#     4  12  29  43  70 104 146 200 245 296 362 445
#
# _framework density 24.133130999999999
#
# number of rings (size 3 to 8) (size 9 to 14) (size 15 to 20)
#    0.000    0.571    4.286    1.714   12.000    1.143 
#    0.000    0.000    0.000    0.000    0.000    0.000 
#    0.000    0.000    0.000    0.000    0.000    0.000 
#
# Total GULP energy -78189.895637 kJ/mol
# GULP energy per Si atom -5584.992545 kJ/mol
# Density = 2.407820 g / cm^3
# Si number density = 24.133131 Si / 1000 Ang^3
#
#
#
# Elastic Constant Matrix: (Units=GPa)
#
#
# Indices 1 2 3 4 5 6 
#
# 1 119.5238 15.6482 8.9191 0.0000 5.6709 0.0000
# 2 15.6482 95.0839 14.1546 0.0000 -2.5481 0.0000
# 3 8.9191 14.1546 56.1563 0.0000 -11.7544 0.0000
# 4 0.0000 0.0000 0.0000 22.0749 0.0000 15.2113
# 5 5.6709 -2.5481 -11.7544 0.0000 30.2809 0.0000
# 6 0.0000 0.0000 0.0000 15.2113 0.0000 45.0067
#
#
#
# Elastic Compliance Matrix: (Units=1/GPa)
#
#
# Indices 1 2 3 4 5 6 
#
# 1 0.008762 -0.001272 -0.001564 0.000000 -0.002355 0.000000
# 2 -0.001272 0.011112 -0.002561 0.000000 0.000179 0.000000
# 3 -0.001564 -0.002561 0.020373 0.000000 0.007986 0.000000
# 4 0.000000 0.000000 0.000000 0.059054 0.000000 -0.019959
# 5 -0.002355 0.000179 0.007986 0.000000 0.036580 0.000000
# 6 0.000000 0.000000 0.000000 -0.019959 0.000000 0.028965
#
#
# Mechanical properties :
#
#
# Convention : Reuss Voigt Hill
#
# Bulk Modulus (GPa) = 33.95348 38.68975 36.32161
# Shear Modulus (GPa) = 26.96036 34.94199 30.95117
#
# Velocity S-wave (km/s) = 3.34601 3.80924 3.58511
# Velocity P-wave (km/s) = 5.38771 5.95094 5.67632
#
# Compressibility (1/GPa) = 0.02945206
#
# Stress axis : x y z
#
# Youngs Moduli (GPa) = 114.13544 89.98876 49.08461
#
# Poissons Ratio (x) = 0.11448 0.07676
# Poissons Ratio (y) = 0.14520 0.12573
# Poissons Ratio (z) = 0.17849 0.23050
#
# Static dielectric constant tensor:
#      x y z
#    x 1.956970 0.000000 0.000240 
#    y 0.000000 1.996610 0.000000 
#    z 0.000240 0.000000 1.927200 
# 
# From -- ./inp_files/12772.got.cif
#   From: 2010.05.17/outbox.cif.g08.bks.cpg/sg4_7_cif.got.tgz:12772.got - 2010.06.03 18:43:04.
