data_PCOD9118370
_publ_section_title
;
Structure prediction by ZEFSAII (Michael W. Deem and Ramdas Pophale) SiO2 
 PCOD9118370
Probable space group: P 21
;
_chemical_formula_sum "Si O2"
_cell_formula_units_Z 16
_cell_length_a 18.433454
_cell_length_b 5.312905
_cell_length_c 8.427225
_cell_angle_alpha 90.000000
_cell_angle_beta 128.516847
_cell_angle_gamma 90.000000
_cell_volume 645.752540
_symmetry_space_group_name_H-M "P 21"
_symmetry_group_IT_number 4
_symmetry_cell_setting 'monoclinic'
loop_
_space_group_symop_operation_xyz
x,y,z
-x,1/2+y,-z
loop_
_atom_site_type_symbol
_atom_site_label
_atom_site_fract_x
_atom_site_fract_y
_atom_site_fract_z
Si Si1 0.521273 0.588960 0.617516
Si Si2 0.043964 0.931862 0.054529
Si Si3 0.098111 0.459201 0.546568
Si Si4 0.702480 0.304406 0.880840
Si Si5 0.793117 0.632466 0.545174
Si Si6 0.104397 0.071812 0.812089
Si Si7 0.664377 0.007223 0.500433
Si Si8 0.729634 0.250478 0.257711
O O1 0.495055 0.381118 0.445489
O O2 0.628573 0.531744 0.787036
O O3 0.447265 0.502636 0.649198
O O4 0.139962 0.928497 0.282355
O O5 0.063075 0.116517 0.929095
O O6 0.974478 0.146778 0.033437
O O7 0.133265 0.317142 0.436654
O O8 0.131014 0.313656 0.747503
O O9 0.159904 0.706993 0.617843
O O10 0.987821 0.468443 0.400291
O O11 0.688486 0.153944 0.697308
O O12 0.806403 0.404628 0.034494
O O13 0.684614 0.176224 0.029800
O O14 0.728699 0.539060 0.312506
O O15 0.724597 0.752248 0.580792
O O16 0.694061 0.119369 0.369794
#
# Coordination Sequence:
#
# PCOD9118370 Si02
#       8
#     2   2   2   2   2   2   2   2
#     4  10  25  50  76 112 150 186 243 314 372 438
#     4  12  28  43  67 103 140 191 250 301 358 447
#     4  11  25  43  63 100 148 187 240 309 359 435
#     4  11  25  47  76 110 140 195 253 301 365 469
#     4  11  24  45  68  97 145 188 240 310 367 437
#     4  12  25  41  71 100 145 197 246 297 379 436
#     4  10  26  47  76 103 145 194 235 315 384 429
#     4  11  24  48  71 107 145 190 251 303 370 447
#
# _framework density 24.777296
#
# number of rings (size 3 to 8) (size 9 to 14) (size 15 to 20)
#    0.000    1.000    2.500    2.250   12.250    1.000 
#    2.250    0.000    0.000    0.000    0.000    0.000 
#    0.000    0.000    0.000    0.000    0.000    0.000 
#
# Total GULP energy -89177.449360 kJ/mol
# GULP energy per Si atom -5573.590585 kJ/mol
# Density = 2.472090 g / cm^3
# Si number density = 24.777296 Si / 1000 Ang^3
#
#
#
# Elastic Constant Matrix: (Units=GPa)
#
#
# Indices 1 2 3 4 5 6 
#
# 1 78.6645 2.6784 5.7953 0.0000 16.1903 0.0000
# 2 2.6784 66.0717 6.7731 0.0000 -1.8305 0.0000
# 3 5.7953 6.7731 53.8576 0.0000 -22.6640 0.0000
# 4 0.0000 0.0000 0.0000 21.8567 0.0000 -7.1725
# 5 16.1903 -1.8305 -22.6640 0.0000 35.5376 0.0000
# 6 0.0000 0.0000 0.0000 -7.1725 0.0000 38.3158
#
#
#
# Elastic Compliance Matrix: (Units=1/GPa)
#
#
# Indices 1 2 3 4 5 6 
#
# 1 0.015463 -0.000289 -0.006285 0.000000 -0.011068 0.000000
# 2 -0.000289 0.015348 -0.002065 0.000000 -0.000395 0.000000
# 3 -0.006285 -0.002065 0.028243 0.000000 0.020769 0.000000
# 4 0.000000 0.000000 0.000000 0.048747 0.000000 0.009125
# 5 -0.011068 -0.000395 0.020769 0.000000 0.046406 0.000000
# 6 0.000000 0.000000 0.000000 0.009125 0.000000 0.027807
#
#
# Mechanical properties :
#
#
# Convention : Reuss Voigt Hill
#
# Bulk Modulus (GPa) = 23.93753 25.45417 24.69585
# Shear Modulus (GPa) = 23.45017 31.36516 27.40767
#
# Velocity S-wave (km/s) = 3.07976 3.56179 3.32951
# Velocity P-wave (km/s) = 4.72532 5.21637 4.97691
#
# Compressibility (1/GPa) = 0.04177540
#
# Stress axis : x y z
#
# Youngs Moduli (GPa) = 64.67063 65.15698 35.40652
#
# Poissons Ratio (x) = 0.01884 0.22253
# Poissons Ratio (y) = 0.01870 0.07312
# Poissons Ratio (z) = 0.40645 0.13456
#
# Static dielectric constant tensor:
#      x y z
#    x 2.035670 0.000000 -0.049360 
#    y 0.000000 2.273470 0.000000 
#    z -0.049360 0.000000 2.002660 
# 
# From -- ./inp_files/9523.got.cif
#   From: 2010.05.17/outbox.cif.g08.bks.cpg/sg4_5_cif.got.tgz:9523.got - 2010.06.03 18:43:04.
