data_PCOD9118525
_publ_section_title
;
Structure prediction by ZEFSAII (Michael W. Deem and Ramdas Pophale) SiO2 
 PCOD9118525
Probable space group: P 21
;
_chemical_formula_sum "Si O2"
_cell_formula_units_Z 16
_cell_length_a 12.704462
_cell_length_b 8.827956
_cell_length_c 9.664690
_cell_angle_alpha 90.000000
_cell_angle_beta 143.296900
_cell_angle_gamma 90.000000
_cell_volume 647.835515
_symmetry_space_group_name_H-M "P 21"
_symmetry_group_IT_number 4
_symmetry_cell_setting 'monoclinic'
loop_
_space_group_symop_operation_xyz
x,y,z
-x,1/2+y,-z
loop_
_atom_site_type_symbol
_atom_site_label
_atom_site_fract_x
_atom_site_fract_y
_atom_site_fract_z
Si Si1 0.004041 0.016670 0.849509
Si Si2 0.361438 0.851342 0.234109
Si Si3 0.184670 0.350649 0.593594
Si Si4 0.505695 0.796134 0.730646
Si Si5 0.097510 0.333411 0.815376
Si Si6 0.658653 0.051119 0.656307
Si Si7 0.233978 0.027399 0.552365
Si Si8 0.543300 0.511520 0.949692
O O1 0.848561 0.004839 0.797431
O O2 0.032692 0.190570 0.836122
O O3 0.947295 0.938641 0.645827
O O4 0.182207 0.937146 0.088249
O O5 0.336674 0.671180 0.213602
O O6 0.406546 0.912482 0.130128
O O7 0.522121 0.912852 0.498092
O O8 0.104998 0.301858 0.657367
O O9 0.352797 0.456863 0.799765
O O10 0.243297 0.207584 0.562222
O O11 0.422957 0.669466 0.543699
O O12 0.369797 0.932102 0.605188
O O13 0.526666 0.687996 0.890196
O O14 0.704089 0.857727 0.922615
O O15 0.961215 0.470159 0.685145
O O16 0.302679 0.989167 0.778443
#
# Coordination Sequence:
#
# PCOD9118525 Si02
#       8
#     2   2   2   2   2   2   2   2
#     4  12  24  49  71  99 146 182 226 290 351 405
#     4  11  25  48  75  95 133 185 239 284 349 394
#     4  12  23  39  70 105 139 182 228 273 348 425
#     4  11  22  44  66  94 136 184 222 278 351 400
#     4  12  22  41  69  99 142 184 218 279 348 414
#     4  11  25  49  75  96 131 188 233 291 341 403
#     4  12  23  39  66 106 142 176 226 273 340 428
#     4  11  20  45  68  96 141 185 220 282 342 405
#
# _framework density 24.697627000000001
#
# number of rings (size 3 to 8) (size 9 to 14) (size 15 to 20)
#    0.000    0.500    8.750    1.500    0.000    2.000 
#    9.000    0.000    0.000    0.000    0.000    0.000 
#    0.000    0.000    0.000    0.000    0.000    0.000 
#
# Total GULP energy -89601.271111 kJ/mol
# GULP energy per Si atom -5600.079444 kJ/mol
# Density = 2.464141 g / cm^3
# Si number density = 24.697627 Si / 1000 Ang^3
#
#
#
# Elastic Constant Matrix: (Units=GPa)
#
#
# Indices 1 2 3 4 5 6 
#
# 1 65.8260 0.8822 12.3677 0.0000 23.6741 0.0000
# 2 0.8822 75.4706 18.6777 0.0000 20.2158 0.0000
# 3 12.3677 18.6777 131.7666 0.0000 21.3412 0.0000
# 4 0.0000 0.0000 0.0000 33.8747 0.0000 4.5460
# 5 23.6741 20.2158 21.3412 0.0000 46.8626 0.0000
# 6 0.0000 0.0000 0.0000 4.5460 0.0000 29.0921
#
#
#
# Elastic Compliance Matrix: (Units=1/GPa)
#
#
# Indices 1 2 3 4 5 6 
#
# 1 0.019051 0.002728 -0.000459 0.000000 -0.010592 0.000000
# 2 0.002728 0.015539 -0.001241 0.000000 -0.007516 0.000000
# 3 -0.000459 -0.001241 0.008296 0.000000 -0.003010 0.000000
# 4 0.000000 0.000000 0.000000 0.030153 0.000000 -0.004712
# 5 -0.010592 -0.007516 -0.003010 0.000000 0.031303 0.000000
# 6 0.000000 0.000000 0.000000 -0.004712 0.000000 0.035110
#
#
# Mechanical properties :
#
#
# Convention : Reuss Voigt Hill
#
# Bulk Modulus (GPa) = 22.25189 37.43539 29.84364
# Shear Modulus (GPa) = 32.81354 38.04156 35.42755
#
# Velocity S-wave (km/s) = 3.64897 3.92891 3.79152
# Velocity P-wave (km/s) = 5.17519 5.98099 5.59262
#
# Compressibility (1/GPa) = 0.04494001
#
# Stress axis : x y z
#
# Youngs Moduli (GPa) = 52.49188 64.35499 120.54276
#
# Poissons Ratio (x) = -0.17557 0.05537
# Poissons Ratio (y) = -0.14320 0.14964
# Poissons Ratio (z) = 0.02411 0.07989
#
# Static dielectric constant tensor:
#      x y z
#    x 2.048560 0.000000 -0.068720 
#    y 0.000000 1.929550 0.000000 
#    z -0.068720 0.000000 1.957090 
# 
# From -- ./inp_files/12594.got.cif
#   From: 2010.05.17/outbox.cif.g08.bks.cpg/sg4_7_cif.got.tgz:12594.got - 2010.06.03 18:43:04.
