data_PCOD9118166
_publ_section_title
;
Structure prediction by ZEFSAII (Michael W. Deem and Ramdas Pophale) SiO2 
 PCOD9118166
Probable space group: P 21
;
_chemical_formula_sum "Si O2"
_cell_formula_units_Z 14
_cell_length_a 12.368701
_cell_length_b 8.593698
_cell_length_c 9.428903
_cell_angle_alpha 90.000000
_cell_angle_beta 143.704149
_cell_angle_gamma 90.000000
_cell_volume 593.272073
_symmetry_space_group_name_H-M "P 21"
_symmetry_group_IT_number 4
_symmetry_cell_setting 'monoclinic'
loop_
_space_group_symop_operation_xyz
x,y,z
-x,1/2+y,-z
loop_
_atom_site_type_symbol
_atom_site_label
_atom_site_fract_x
_atom_site_fract_y
_atom_site_fract_z
Si Si1 0.135304 0.328990 0.277681
Si Si2 0.762293 0.678967 0.139865
Si Si3 0.131704 0.681730 0.800648
Si Si4 0.948035 0.178366 0.807690
Si Si5 0.433528 0.786534 0.610384
Si Si6 0.950258 0.399507 0.500796
Si Si7 0.495035 0.649869 0.362155
O O1 0.140552 0.511572 0.255270
O O2 0.329228 0.247338 0.502828
O O3 0.997754 0.307028 0.261637
O O4 0.036815 0.246996 0.041537
O O5 0.811371 0.522960 0.277512
O O6 0.894466 0.671602 0.142007
O O7 0.840926 0.829499 0.306186
O O8 0.562300 0.711597 0.866710
O O9 0.146970 0.736851 0.653113
O O10 0.023496 0.519016 0.700232
O O11 0.320230 0.686340 0.081823
O O12 0.779591 0.280945 0.574845
O O13 0.463507 0.697771 0.492565
O O14 0.477954 0.965881 0.626683
#
# Coordination Sequence:
#
# PCOD9118166 Si02
#       7
#     2   2   2   2   2   2   2
#     4  12  26  42  70 105 139 176 224 286 348 404
#     4  11  24  48  70  98 140 177 236 270 342 399
#     4  11  24  48  70  98 140 177 236 270 342 399
#     4  12  26  42  70 105 139 176 224 286 348 404
#     4  12  26  42  70 105 139 176 224 286 348 404
#     4  10  24  46  74  90 134 198 220 280 322 408
#     4  12  26  42  70 105 139 176 224 286 348 404
#
# _framework density 23.597943000000001
#
# number of rings (size 3 to 8) (size 9 to 14) (size 15 to 20)
#    0.000    0.571    5.714    1.714    8.000    0.000 
#    0.000    8.571    0.000    0.000    0.000    0.000 
#    0.000    0.000    0.000    0.000    0.000    0.000 
#
# Total GULP energy -78079.522394 kJ/mol
# GULP energy per Si atom -5577.108742 kJ/mol
# Density = 2.354423 g / cm^3
# Si number density = 23.597943 Si / 1000 Ang^3
#
#
#
# Elastic Constant Matrix: (Units=GPa)
#
#
# Indices 1 2 3 4 5 6 
#
# 1 34.7339 -3.0908 16.8588 0.0000 11.5795 0.0000
# 2 -3.0908 112.7641 35.0258 0.0000 13.2088 0.0000
# 3 16.8588 35.0258 206.6647 0.0000 12.3278 0.0000
# 4 0.0000 0.0000 0.0000 28.4517 0.0000 1.0666
# 5 11.5795 13.2088 12.3278 0.0000 35.9212 0.0000
# 6 0.0000 0.0000 0.0000 1.0666 0.0000 22.8229
#
#
#
# Elastic Compliance Matrix: (Units=1/GPa)
#
#
# Indices 1 2 3 4 5 6 
#
# 1 0.034077 0.003064 -0.002630 0.000000 -0.011209 0.000000
# 2 0.003064 0.009955 -0.001695 0.000000 -0.004067 0.000000
# 3 -0.002630 -0.001695 0.005363 0.000000 -0.000369 0.000000
# 4 0.000000 0.000000 0.000000 0.035209 0.000000 -0.001646
# 5 -0.011209 -0.004067 -0.000369 0.000000 0.033074 0.000000
# 6 0.000000 0.000000 0.000000 -0.001646 0.000000 0.043893
#
#
# Mechanical properties :
#
#
# Convention : Reuss Voigt Hill
#
# Bulk Modulus (GPa) = 21.33475 50.19448 35.76462
# Shear Modulus (GPa) = 27.82178 37.79710 32.80944
#
# Velocity S-wave (km/s) = 3.43737 4.00648 3.73279
# Velocity P-wave (km/s) = 4.98142 6.53601 5.81094
#
# Compressibility (1/GPa) = 0.04687189
#
# Stress axis : x y z
#
# Youngs Moduli (GPa) = 29.34572 100.45460 186.47827
#
# Poissons Ratio (x) = -0.30780 0.49053
# Poissons Ratio (y) = -0.08992 0.31599
# Poissons Ratio (z) = 0.07719 0.17022
#
# Static dielectric constant tensor:
#      x y z
#    x 2.226380 0.000000 -0.035370 
#    y 0.000000 1.927100 0.000000 
#    z -0.035370 0.000000 1.927430 
# 
# From -- ./inp_files/3378.got.cif
#   From: 2010.05.17/outbox.cif.g08.bks.cpg/sg4_2_cif.got.tgz:3378.got - 2010.06.03 18:43:04.
