data_PCOD9118729
_publ_section_title
;
Structure prediction by ZEFSAII (Michael W. Deem and Ramdas Pophale) SiO2 
 PCOD9118729
Probable space group: P 21
;
_chemical_formula_sum "Si O2"
_cell_formula_units_Z 16
_cell_length_a 11.871099
_cell_length_b 8.186542
_cell_length_c 8.520503
_cell_angle_alpha 90.000000
_cell_angle_beta 123.575341
_cell_angle_gamma 90.000000
_cell_volume 689.897734
_symmetry_space_group_name_H-M "P 21"
_symmetry_group_IT_number 4
_symmetry_cell_setting 'monoclinic'
loop_
_space_group_symop_operation_xyz
x,y,z
-x,1/2+y,-z
loop_
_atom_site_type_symbol
_atom_site_label
_atom_site_fract_x
_atom_site_fract_y
_atom_site_fract_z
Si Si1 0.279419 0.687700 0.547294
Si Si2 0.452378 0.192353 0.679846
Si Si3 0.736960 0.868873 0.266177
Si Si4 0.725863 0.693245 0.739649
Si Si5 0.286610 0.811438 0.206369
Si Si6 0.997531 0.814545 0.256027
Si Si7 0.989240 0.149916 0.050894
Si Si8 0.451004 0.356167 0.154065
O O1 0.247090 0.509438 0.591053
O O2 0.310731 0.704609 0.384241
O O3 0.412678 0.749908 0.741971
O O4 0.142550 0.796551 0.453502
O O5 0.332934 0.210097 0.711794
O O6 0.386763 0.247135 0.467971
O O7 0.585105 0.299558 0.807850
O O8 0.504648 0.010088 0.709703
O O9 0.875576 0.828469 0.284302
O O10 0.617526 0.924191 0.055515
O O11 0.730571 0.497605 0.755457
O O12 0.674008 0.762232 0.862914
O O13 0.873715 0.742735 0.794089
O O14 0.151375 0.740046 0.025224
O O15 0.989101 0.976138 0.138391
O O16 0.994272 0.663678 0.127451
#
# Coordination Sequence:
#
# PCOD9118729 Si02
#       8
#     2   2   2   2   2   2   2   2
#     4  11  24  46  71  99 151 194 242 308 364 448
#     4  12  25  43  72 108 141 199 242 308 372 438
#     4  12  28  46  69 109 153 195 243 308 382 437
#     4  12  22  43  73 105 141 189 250 306 363 441
#     4  11  24  43  71 105 141 192 250 300 374 428
#     4  11  25  48  73 111 146 198 250 305 382 440
#     4  11  22  44  75 103 146 187 248 311 357 447
#     4  12  24  45  72 106 147 188 253 304 366 447
#
# _framework density 23.191842999999999
#
# number of rings (size 3 to 8) (size 9 to 14) (size 15 to 20)
#    0.000    0.500    6.250    2.250    1.750    3.000 
#    0.000    1.250    0.000    0.000    0.000    0.000 
#    0.000    0.000    0.000    0.000    0.000    0.000 
#
# Total GULP energy -89348.796848 kJ/mol
# GULP energy per Si atom -5584.299803 kJ/mol
# Density = 2.313906 g / cm^3
# Si number density = 23.191843 Si / 1000 Ang^3
#
#
#
# Elastic Constant Matrix: (Units=GPa)
#
#
# Indices 1 2 3 4 5 6 
#
# 1 177.9094 53.7147 32.2826 0.0000 24.4244 0.0000
# 2 53.7147 74.2002 31.6061 0.0000 0.3920 0.0000
# 3 32.2826 31.6061 61.8702 0.0000 19.5773 0.0000
# 4 0.0000 0.0000 0.0000 28.5900 0.0000 -4.6010
# 5 24.4244 0.3920 19.5773 0.0000 38.5139 0.0000
# 6 0.0000 0.0000 0.0000 -4.6010 0.0000 32.8739
#
#
#
# Elastic Compliance Matrix: (Units=1/GPa)
#
#
# Indices 1 2 3 4 5 6 
#
# 1 0.008084 -0.006071 0.000579 0.000000 -0.005359 0.000000
# 2 -0.006071 0.022675 -0.011394 0.000000 0.009411 0.000000
# 3 0.000579 -0.011394 0.025932 0.000000 -0.013433 0.000000
# 4 0.000000 0.000000 0.000000 0.035783 0.000000 0.005008
# 5 -0.005359 0.009411 -0.013433 0.000000 0.036096 0.000000
# 6 0.000000 0.000000 0.000000 0.005008 0.000000 0.031120
#
#
# Mechanical properties :
#
#
# Convention : Reuss Voigt Hill
#
# Bulk Modulus (GPa) = 43.63007 61.02073 52.32540
# Shear Modulus (GPa) = 24.86299 33.08731 28.97515
#
# Velocity S-wave (km/s) = 3.27778 3.78124 3.53847
# Velocity P-wave (km/s) = 5.76009 6.74033 6.26940
#
# Compressibility (1/GPa) = 0.02291997
#
# Stress axis : x y z
#
# Youngs Moduli (GPa) = 123.69433 44.10096 38.56266
#
# Poissons Ratio (x) = 0.26772 -0.02232
# Poissons Ratio (y) = 0.75090 0.43938
# Poissons Ratio (z) = -0.07158 0.50248
#
# Static dielectric constant tensor:
#      x y z
#    x 1.900060 0.000000 0.009790 
#    y 0.000000 1.875150 0.000000 
#    z 0.009790 0.000000 1.980390 
# 
# From -- ./inp_files/8038.got.cif
#   From: 2010.05.17/outbox.cif.g08.bks.cpg/sg4_5_cif.got.tgz:8038.got - 2010.06.03 18:43:04.
