data_PCOD9118217
_publ_section_title
;
Structure prediction by ZEFSAII (Michael W. Deem and Ramdas Pophale) SiO2 
 PCOD9118217
Probable space group: P 21
;
_chemical_formula_sum "Si O2"
_cell_formula_units_Z 14
_cell_length_a 6.941361
_cell_length_b 9.778405
_cell_length_c 8.146329
_cell_angle_alpha 90.000000
_cell_angle_beta 82.728912
_cell_angle_gamma 90.000000
_cell_volume 548.489190
_symmetry_space_group_name_H-M "P 21"
_symmetry_group_IT_number 4
_symmetry_cell_setting 'monoclinic'
loop_
_space_group_symop_operation_xyz
x,y,z
-x,1/2+y,-z
loop_
_atom_site_type_symbol
_atom_site_label
_atom_site_fract_x
_atom_site_fract_y
_atom_site_fract_z
Si Si1 0.218692 0.883100 0.197521
Si Si2 0.186824 0.417914 0.633488
Si Si3 0.701055 0.634980 0.211680
Si Si4 0.934378 0.156872 0.037336
Si Si5 0.190132 0.278755 0.286370
Si Si6 0.395392 0.020399 0.437488
Si Si7 0.588152 0.994782 0.964017
O O1 0.141420 0.761944 0.094039
O O2 0.016500 0.962609 0.263072
O O3 0.313550 0.879520 0.368969
O O4 0.402351 0.943103 0.081531
O O5 0.261321 0.287832 0.730614
O O6 0.135463 0.359592 0.457300
O O7 0.371374 0.515455 0.585563
O O8 0.688236 0.541589 0.373002
O O9 0.499932 0.614958 0.138947
O O10 0.875893 0.593782 0.071919
O O11 0.755640 0.052122 0.062974
O O12 0.010409 0.237246 0.188622
O O13 0.314156 0.147385 0.336864
O O14 0.323972 0.375880 0.158720
#
# Coordination Sequence:
#
# PCOD9118217 Si02
#       7
#     2   2   2   2   2   2   2
#     4  11  28  45  79 113 152 204 260 312 389 451
#     4  10  24  53  75 112 157 198 256 320 381 464
#     4  10  24  48  76 113 151 198 255 319 389 445
#     4  11  28  50  74 112 161 197 260 327 375 460
#     4  11  27  49  81 113 149 208 255 311 400 446
#     4  11  24  46  77 113 150 200 258 317 384 459
#     4  12  27  49  76 112 150 201 256 322 380 459
#
# _framework density 25.524659
#
# number of rings (size 3 to 8) (size 9 to 14) (size 15 to 20)
#    0.000    1.143    1.429    1.714   14.000    0.000 
#    2.571    2.857    0.000    0.000    0.000    0.000 
#    0.000    0.000    0.000    0.000    0.000    0.000 
#
# Total GULP energy -78355.087334 kJ/mol
# GULP energy per Si atom -5596.791952 kJ/mol
# Density = 2.546656 g / cm^3
# Si number density = 25.524659 Si / 1000 Ang^3
#
#
#
# Elastic Constant Matrix: (Units=GPa)
#
#
# Indices 1 2 3 4 5 6 
#
# 1 215.8724 63.0775 78.9209 0.0000 17.1976 0.0000
# 2 63.0775 62.3959 45.9490 0.0000 1.2551 0.0000
# 3 78.9209 45.9490 120.4312 0.0000 11.6402 0.0000
# 4 0.0000 0.0000 0.0000 37.0642 0.0000 1.2603
# 5 17.1976 1.2551 11.6402 0.0000 26.1878 0.0000
# 6 0.0000 0.0000 0.0000 1.2603 0.0000 51.8324
#
#
#
# Elastic Compliance Matrix: (Units=1/GPa)
#
#
# Indices 1 2 3 4 5 6 
#
# 1 0.007451 -0.005728 -0.002352 0.000000 -0.003573 0.000000
# 2 -0.005728 0.026897 -0.007050 0.000000 0.005606 0.000000
# 3 -0.002352 -0.007050 0.012907 0.000000 -0.003855 0.000000
# 4 0.000000 0.000000 0.000000 0.027003 0.000000 -0.000657
# 5 -0.003573 0.005606 -0.003855 0.000000 0.041977 0.000000
# 6 0.000000 0.000000 0.000000 -0.000657 0.000000 0.019309
#
#
# Mechanical properties :
#
#
# Convention : Reuss Voigt Hill
#
# Bulk Modulus (GPa) = 58.84365 86.06605 72.45485
# Shear Modulus (GPa) = 29.16014 37.06702 33.11358
#
# Velocity S-wave (km/s) = 3.38365 3.81491 3.60574
# Velocity P-wave (km/s) = 6.19428 7.29361 6.76631
#
# Compressibility (1/GPa) = 0.01699419
#
# Stress axis : x y z
#
# Youngs Moduli (GPa) = 134.21867 37.17945 77.47753
#
# Poissons Ratio (x) = 0.21298 0.18219
# Poissons Ratio (y) = 0.76885 0.54622
# Poissons Ratio (z) = 0.31562 0.26212
#
# Static dielectric constant tensor:
#      x y z
#    x 1.964440 0.000000 0.061790 
#    y 0.000000 2.094930 0.000000 
#    z 0.061790 0.000000 2.096920 
# 
# From -- ./inp_files/4595.got.cif
#   From: 2010.05.17/outbox.cif.g08.bks.cpg/sg4_3_cif.got.tgz:4595.got - 2010.06.03 18:43:04.
