data_PCOD9118582
_publ_section_title
;
Structure prediction by ZEFSAII (Michael W. Deem and Ramdas Pophale) SiO2 
 PCOD9118582
Probable space group: P 21
;
_chemical_formula_sum "Si O2"
_cell_formula_units_Z 12
_cell_length_a 8.518310
_cell_length_b 5.400534
_cell_length_c 15.296400
_cell_angle_alpha 90.000000
_cell_angle_beta 137.141262
_cell_angle_gamma 90.000000
_cell_volume 478.642909
_symmetry_space_group_name_H-M "P 21"
_symmetry_group_IT_number 4
_symmetry_cell_setting 'monoclinic'
loop_
_space_group_symop_operation_xyz
x,y,z
-x,1/2+y,-z
loop_
_atom_site_type_symbol
_atom_site_label
_atom_site_fract_x
_atom_site_fract_y
_atom_site_fract_z
Si Si1 0.036342 0.816580 0.132087
Si Si2 0.600944 0.298312 0.002235
Si Si3 0.653190 0.022333 0.864732
Si Si4 0.927926 0.933000 0.721805
Si Si5 0.922403 0.938599 0.517673
Si Si6 0.437927 0.186938 0.315175
O O1 0.141447 0.599625 0.115758
O O2 0.054553 0.717985 0.238392
O O3 0.220038 0.031785 0.192322
O O4 0.784845 0.867382 0.992717
O O5 0.870802 0.302537 0.139083
O O6 0.506396 0.561481 0.993551
O O7 0.557355 0.249708 0.881523
O O8 0.489734 0.873400 0.733344
O O9 0.675864 0.829196 0.648078
O O10 0.993142 0.905838 0.647860
O O11 0.649645 0.005078 0.416447
O O12 0.030088 0.185424 0.516228
#
# Coordination Sequence:
#
# PCOD9118582 Si02
#       6
#     2   2   2   2   2   2
#     4  11  21  42  78 114 150 193 263 330 380 473
#     4  12  28  45  76 120 166 209 246 331 413 482
#     4  11  22  43  72 118 154 199 253 318 402 471
#     4  11  28  51  80 116 155 212 278 320 395 484
#     4  12  34  57  79 116 162 215 270 340 405 469
#     4  11  27  48  85 110 157 216 268 335 381 487
#
# _framework density 25.070881
#
# number of rings (size 3 to 8) (size 9 to 14) (size 15 to 20)
#    0.000    0.667    3.333    2.000   14.000    0.000 
#    0.000    0.000    0.000    0.000    0.000    0.000 
#    0.000    0.000    0.000    0.000    0.000    0.000 
#
# Total GULP energy -67123.806598 kJ/mol
# GULP energy per Si atom -5593.650550 kJ/mol
# Density = 2.501382 g / cm^3
# Si number density = 25.070881 Si / 1000 Ang^3
#
#
#
# Elastic Constant Matrix: (Units=GPa)
#
#
# Indices 1 2 3 4 5 6 
#
# 1 135.2886 61.1431 32.0213 0.0000 -21.8224 0.0000
# 2 61.1431 119.2093 23.3487 0.0000 -7.3359 0.0000
# 3 32.0213 23.3487 46.5688 0.0000 -9.2297 0.0000
# 4 0.0000 0.0000 0.0000 38.0721 0.0000 6.9621
# 5 -21.8224 -7.3359 -9.2297 0.0000 52.3037 0.0000
# 6 0.0000 0.0000 0.0000 6.9621 0.0000 50.4231
#
#
#
# Elastic Compliance Matrix: (Units=1/GPa)
#
#
# Indices 1 2 3 4 5 6 
#
# 1 0.011077 -0.004566 -0.004702 0.000000 0.003151 0.000000
# 2 -0.004566 0.011197 -0.002633 0.000000 -0.000799 0.000000
# 3 -0.004702 -0.002633 0.026491 0.000000 0.002344 0.000000
# 4 0.000000 0.000000 0.000000 0.026946 0.000000 -0.003721
# 5 0.003151 -0.000799 0.002344 0.000000 0.020735 0.000000
# 6 0.000000 0.000000 0.000000 -0.003721 0.000000 0.020346
#
#
# Mechanical properties :
#
#
# Convention : Reuss Voigt Hill
#
# Bulk Modulus (GPa) = 40.05996 59.34366 49.70181
# Shear Modulus (GPa) = 33.57591 40.46335 37.01963
#
# Velocity S-wave (km/s) = 3.66353 4.02177 3.84682
# Velocity P-wave (km/s) = 5.82311 6.72963 6.29272
#
# Compressibility (1/GPa) = 0.02496258
#
# Stress axis : x y z
#
# Youngs Moduli (GPa) = 90.27998 89.30849 37.74802
#
# Poissons Ratio (x) = 0.40781 0.17751
# Poissons Ratio (y) = 0.41225 0.09937
# Poissons Ratio (z) = 0.42454 0.23511
#
# Static dielectric constant tensor:
#      x y z
#    x 1.998710 0.000000 0.012850 
#    y 0.000000 2.121090 0.000000 
#    z 0.012850 0.000000 1.980840 
# 
# From -- ./inp_files/8895.got.cif
#   From: 2010.05.17/outbox.cif.g08.bks.cpg/sg4_5_cif.got.tgz:8895.got - 2010.06.03 18:43:04.
