data_PCOD9118423
_publ_section_title
;
Structure prediction by ZEFSAII (Michael W. Deem and Ramdas Pophale) SiO2 
 PCOD9118423
Probable space group: P 21
;
_chemical_formula_sum "Si O2"
_cell_formula_units_Z 16
_cell_length_a 19.634667
_cell_length_b 5.248677
_cell_length_c 9.238739
_cell_angle_alpha 90.000000
_cell_angle_beta 40.236482
_cell_angle_gamma 90.000000
_cell_volume 615.008163
_symmetry_space_group_name_H-M "P 21"
_symmetry_group_IT_number 4
_symmetry_cell_setting 'monoclinic'
loop_
_space_group_symop_operation_xyz
x,y,z
-x,1/2+y,-z
loop_
_atom_site_type_symbol
_atom_site_label
_atom_site_fract_x
_atom_site_fract_y
_atom_site_fract_z
Si Si1 0.425040 0.907050 0.950397
Si Si2 0.351356 0.206640 0.321299
Si Si3 0.925039 0.407050 0.450397
Si Si4 0.750000 0.070846 0.750001
Si Si5 0.472652 0.689017 0.455694
Si Si6 0.250000 0.434164 0.750000
Si Si7 0.148644 0.206640 0.178701
Si Si8 0.972653 0.189018 0.955694
O O1 0.535198 0.771166 0.796431
O O2 0.454843 0.149300 0.804817
O O3 0.335598 0.737430 0.023433
O O4 0.373932 0.957681 0.190581
O O5 0.313998 0.400850 0.258499
O O6 0.269880 0.247885 0.581823
O O7 0.835597 0.237430 0.523434
O O8 0.873932 0.457683 0.690581
O O9 0.035198 0.271165 0.296431
O O10 0.954843 0.649300 0.304817
O O11 0.813998 0.900853 0.758501
O O12 0.487160 0.966429 0.500335
O O13 0.353056 0.609956 0.607949
O O14 0.146944 0.609956 0.892052
O O15 0.230120 0.247884 0.918177
O O16 0.012840 0.966429 0.999665
#
# Coordination Sequence:
#
# PCOD9118423 Si02
#       8
#     2   2   2   2   2   2   2   2
#     4  11  25  43  73 105 141 188 241 297 356 431
#     4  11  24  47  70 101 143 185 243 294 358 431
#     4  11  25  43  73 105 141 188 241 297 356 431
#     4  12  24  42  74  98 140 192 234 294 360 424
#     4  11  27  48  74 109 149 191 242 301 361 434
#     4  10  26  48  70 108 148 192 240 306 362 422
#     4  11  24  47  70 101 143 185 243 294 358 431
#     4  11  27  48  74 109 149 191 242 301 361 434
#
# _framework density 26.015917000000002
#
# number of rings (size 3 to 8) (size 9 to 14) (size 15 to 20)
#    0.000    1.000    2.500    2.250   10.500    1.000 
#    0.000    0.000    0.000    0.000    0.000    0.000 
#    0.000    0.000    0.000    0.000    0.000    0.000 
#
# Total GULP energy -89667.784324 kJ/mol
# GULP energy per Si atom -5604.236520 kJ/mol
# Density = 2.595670 g / cm^3
# Si number density = 26.015917 Si / 1000 Ang^3
#
#
#
# Elastic Constant Matrix: (Units=GPa)
#
#
# Indices 1 2 3 4 5 6 
#
# 1 94.0493 11.6469 41.7776 0.0000 -24.7538 0.0000
# 2 11.6469 49.7904 22.0798 0.0000 -2.3979 0.0000
# 3 41.7776 22.0798 145.9897 0.0000 3.2772 0.0000
# 4 0.0000 0.0000 0.0000 35.0283 0.0000 -7.6051
# 5 -24.7538 -2.3979 3.2772 0.0000 50.1646 0.0000
# 6 0.0000 0.0000 0.0000 -7.6051 0.0000 -306.1900
#
#
#
# Elastic Compliance Matrix: (Units=1/GPa)
#
#
# Indices 1 2 3 4 5 6 
#
# 1 0.014578 -0.001211 -0.004155 0.000000 0.007407 0.000000
# 2 -0.001211 0.021706 -0.002951 0.000000 0.000633 0.000000
# 3 -0.004155 -0.002951 0.008547 0.000000 -0.002750 0.000000
# 4 0.000000 0.000000 0.000000 0.028395 0.000000 -0.000705
# 5 0.007407 0.000633 -0.002750 0.000000 0.023799 0.000000
# 6 0.000000 0.000000 0.000000 -0.000705 0.000000 -0.003248
#
#
# Mechanical properties :
#
#
# Convention : Reuss Voigt Hill
#
# Bulk Modulus (GPa) = 35.46307 48.98201 42.22254
# Shear Modulus (GPa) = 41.73307 -29.91109 5.91099
#
# Velocity S-wave (km/s) = 4.00951 -3.39443 1.50897
# Velocity P-wave (km/s) = 5.92417 1.87234 4.39326
#
# Compressibility (1/GPa) = 0.02819835
#
# Stress axis : x y z
#
# Youngs Moduli (GPa) = 68.59735 46.06944 117.00333
#
# Poissons Ratio (x) = 0.05578 0.48613
# Poissons Ratio (y) = 0.08306 0.34523
# Poissons Ratio (z) = 0.28501 0.13593
#
# Static dielectric constant tensor:
#      x y z
#    x 3.269360 0.000000 0.423650 
#    y 0.000000 2.110830 0.000000 
#    z 0.423650 0.000000 2.122050 
# 
# From -- ./inp_files/9767.got.cif
#   From: 2010.05.17/outbox.cif.g08.bks.cpg/sg4_5_cif.got.tgz:9767.got - 2010.06.03 18:43:04.
