data_PCOD9118109
_publ_section_title
;
Structure prediction by ZEFSAII (Michael W. Deem and Ramdas Pophale) SiO2 
 PCOD9118109
Probable space group: P 21
;
_chemical_formula_sum "Si O2"
_cell_formula_units_Z 14
_cell_length_a 11.280479
_cell_length_b 8.542055
_cell_length_c 5.929411
_cell_angle_alpha 90.000000
_cell_angle_beta 93.806415
_cell_angle_gamma 90.000000
_cell_volume 570.088612
_symmetry_space_group_name_H-M "P 21"
_symmetry_group_IT_number 4
_symmetry_cell_setting 'monoclinic'
loop_
_space_group_symop_operation_xyz
x,y,z
-x,1/2+y,-z
loop_
_atom_site_type_symbol
_atom_site_label
_atom_site_fract_x
_atom_site_fract_y
_atom_site_fract_z
Si Si1 0.288224 0.527450 0.169231
Si Si2 0.518569 0.964207 0.176731
Si Si3 0.896744 0.449298 0.464484
Si Si4 0.492638 0.168772 0.547350
Si Si5 0.314314 0.980667 0.842610
Si Si6 0.956983 0.180435 0.818287
Si Si7 0.171361 0.199257 0.171523
O O1 0.377645 0.613252 0.351963
O O2 0.174374 0.637101 0.115972
O O3 0.235632 0.360463 0.241170
O O4 0.365658 0.488158 0.957551
O O5 0.529361 0.845880 0.385090
O O6 0.482152 0.128582 0.284295
O O7 0.410332 0.898238 0.013603
O O8 0.785226 0.386382 0.305340
O O9 0.949945 0.320274 0.636441
O O10 0.846886 0.588086 0.617092
O O11 0.988841 0.531487 0.307674
O O12 0.395502 0.072378 0.674967
O O13 0.245430 0.103581 0.992631
O O14 0.044404 0.224774 0.032926
#
# Coordination Sequence:
#
# PCOD9118109 Si02
#       7
#     2   2   2   2   2   2   2
#     4  11  26  46  70 108 148 187 242 304 364 438
#     4  11  26  49  71 109 144 191 245 303 368 437
#     4  11  25  47  76 105 150 192 245 295 368 427
#     4  11  26  44  75 104 145 188 245 298 373 428
#     4  10  24  45  73 102 144 191 238 299 362 432
#     4  11  26  47  71 114 140 198 242 303 357 437
#     4  11  23  46  76 100 149 191 243 298 362 427
#
# _framework density 24.557587000000002
#
# number of rings (size 3 to 8) (size 9 to 14) (size 15 to 20)
#    0.000    1.143    1.429    2.571    8.000    4.571 
#    2.571    0.000    0.000    0.000    0.000    0.000 
#    0.000    0.000    0.000    0.000    0.000    0.000 
#
# Total GULP energy -78492.279097 kJ/mol
# GULP energy per Si atom -5606.591364 kJ/mol
# Density = 2.450169 g / cm^3
# Si number density = 24.557587 Si / 1000 Ang^3
#
#
#
# Elastic Constant Matrix: (Units=GPa)
#
#
# Indices 1 2 3 4 5 6 
#
# 1 151.9049 21.2294 57.4636 0.0000 14.1953 0.0000
# 2 21.2294 73.1985 36.8035 0.0000 1.5257 0.0000
# 3 57.4636 36.8035 95.2399 0.0000 12.3322 0.0000
# 4 0.0000 0.0000 0.0000 51.2092 0.0000 -6.5381
# 5 14.1953 1.5257 12.3322 0.0000 40.1756 0.0000
# 6 0.0000 0.0000 0.0000 -6.5381 0.0000 31.9998
#
#
#
# Elastic Compliance Matrix: (Units=1/GPa)
#
#
# Indices 1 2 3 4 5 6 
#
# 1 0.008617 0.000060 -0.005028 0.000000 -0.001504 0.000000
# 2 0.000060 0.017035 -0.006803 0.000000 0.001420 0.000000
# 3 -0.005028 -0.006803 0.016557 0.000000 -0.003047 0.000000
# 4 0.000000 0.000000 0.000000 0.020051 0.000000 0.004097
# 5 -0.001504 0.001420 -0.003047 0.000000 0.026303 0.000000
# 6 0.000000 0.000000 0.000000 0.004097 0.000000 0.032087
#
#
# Mechanical properties :
#
#
# Convention : Reuss Voigt Hill
#
# Bulk Modulus (GPa) = 53.56857 61.25957 57.41407
# Shear Modulus (GPa) = 33.24164 38.33338 35.78751
#
# Velocity S-wave (km/s) = 3.68315 3.95518 3.82159
# Velocity P-wave (km/s) = 6.32046 6.77181 6.55002
#
# Compressibility (1/GPa) = 0.01866766
#
# Stress axis : x y z
#
# Youngs Moduli (GPa) = 116.04847 58.70304 60.39852
#
# Poissons Ratio (x) = -0.00352 0.30366
# Poissons Ratio (y) = -0.00697 0.41088
# Poissons Ratio (z) = 0.58345 0.39935
#
# Static dielectric constant tensor:
#      x y z
#    x 1.931200 0.000000 0.027950 
#    y 0.000000 1.970170 0.000000 
#    z 0.027950 0.000000 1.909340 
# 
# From -- ./inp_files/2438.got.cif
#   From: 2010.05.17/outbox.cif.g08.bks.cpg/sg4_2_cif.got.tgz:2438.got - 2010.06.03 18:43:04.
