data_PCOD9118936
_publ_section_title
;
Structure prediction by ZEFSAII (Michael W. Deem and Ramdas Pophale) SiO2 
 PCOD9118936
Probable space group: P 21
;
_chemical_formula_sum "Si O2"
_cell_formula_units_Z 12
_cell_length_a 7.593474
_cell_length_b 11.058151
_cell_length_c 8.482890
_cell_angle_alpha 90.000000
_cell_angle_beta 142.854650
_cell_angle_gamma 90.000000
_cell_volume 430.118465
_symmetry_space_group_name_H-M "P 21"
_symmetry_group_IT_number 4
_symmetry_cell_setting 'monoclinic'
loop_
_space_group_symop_operation_xyz
x,y,z
-x,1/2+y,-z
loop_
_atom_site_type_symbol
_atom_site_label
_atom_site_fract_x
_atom_site_fract_y
_atom_site_fract_z
Si Si1 0.212051 0.346290 0.396167
Si Si2 0.635902 0.099968 0.482243
Si Si3 0.477253 0.005660 0.906153
Si Si4 0.126324 0.787538 0.158832
Si Si5 0.853743 0.583506 0.622142
Si Si6 0.429601 0.249488 0.049529
O O1 0.216114 0.477931 0.475850
O O2 0.162853 0.222348 0.453991
O O3 0.551132 0.338045 0.583674
O O4 0.997313 0.331774 0.095023
O O5 0.313761 0.084937 0.329409
O O6 0.810183 0.146040 0.760315
O O7 0.615743 0.199537 0.331070
O O8 0.813256 0.046677 0.131059
O O9 0.560695 0.368029 0.055335
O O10 0.323354 0.003365 0.627045
O O11 0.356611 0.123294 0.912020
O O12 0.865645 0.807701 0.093120
#
# Coordination Sequence:
#
# PCOD9118936 Si02
#       6
#     2   2   2   2   2   2
#     4  11  24  43  79 114 148 186 256 314 380 445
#     4  11  26  46  82 110 152 198 257 316 383 448
#     4  12  31  49  76 106 161 197 258 309 385 447
#     4  11  23  45  71 115 145 193 243 313 375 443
#     4  11  25  49  74 113 145 199 251 321 373 450
#     4  12  29  52  74 112 153 211 249 315 378 457
#
# _framework density 27.899290000000001
#
# number of rings (size 3 to 8) (size 9 to 14) (size 15 to 20)
#    0.000    0.667    3.333    4.000    9.333    1.333 
#    0.000    0.000    0.000    0.000    0.000    0.000 
#    0.000    0.000    0.000    0.000    0.000    0.000 
#
# Total GULP energy -67138.528462 kJ/mol
# GULP energy per Si atom -5594.877372 kJ/mol
# Density = 2.783579 g / cm^3
# Si number density = 27.899290 Si / 1000 Ang^3
#
#
#
# Elastic Constant Matrix: (Units=GPa)
#
#
# Indices 1 2 3 4 5 6 
#
# 1 89.1855 38.5466 45.3750 0.0000 11.7128 0.0000
# 2 38.5466 212.6721 25.5700 0.0000 -0.4283 0.0000
# 3 45.3750 25.5700 150.8240 0.0000 2.5985 0.0000
# 4 0.0000 0.0000 0.0000 33.2016 0.0000 -11.9961
# 5 11.7128 -0.4283 2.5985 0.0000 26.9773 0.0000
# 6 0.0000 0.0000 0.0000 -11.9961 0.0000 37.0934
#
#
#
# Elastic Compliance Matrix: (Units=1/GPa)
#
#
# Indices 1 2 3 4 5 6 
#
# 1 0.015055 -0.002255 -0.004040 0.000000 -0.006183 0.000000
# 2 -0.002255 0.005138 -0.000211 0.000000 0.001081 0.000000
# 3 -0.004040 -0.000211 0.007864 0.000000 0.000993 0.000000
# 4 0.000000 0.000000 0.000000 0.034104 0.000000 0.011029
# 5 -0.006183 0.001081 0.000993 0.000000 0.039674 0.000000
# 6 0.000000 0.000000 0.000000 0.011029 0.000000 0.030526
#
#
# Mechanical properties :
#
#
# Convention : Reuss Voigt Hill
#
# Bulk Modulus (GPa) = 66.47189 74.62941 70.55065
# Shear Modulus (GPa) = 33.24674 42.33380 37.79027
#
# Velocity S-wave (km/s) = 3.45580 3.89958 3.68438
# Velocity P-wave (km/s) = 6.30879 6.86173 6.59106
#
# Compressibility (1/GPa) = 0.01504395
#
# Stress axis : x y z
#
# Youngs Moduli (GPa) = 66.42300 194.61180 127.15404
#
# Poissons Ratio (x) = 0.43892 0.51375
# Poissons Ratio (y) = 0.14981 0.02686
# Poissons Ratio (z) = 0.26837 0.04111
#
# Static dielectric constant tensor:
#      x y z
#    x 2.249250 0.000000 0.070520 
#    y 0.000000 2.432320 0.000000 
#    z 0.070520 0.000000 2.144290 
# 
# From -- ./inp_files/6697.got.cif
#   From: 2010.05.17/outbox.cif.g08.bks.cpg/sg4_4_cif.got.tgz:6697.got - 2010.06.03 18:43:04.
