data_PCOD9118081
_publ_section_title
;
Structure prediction by ZEFSAII (Michael W. Deem and Ramdas Pophale) SiO2 
 PCOD9118081
Probable space group: P 21
;
_chemical_formula_sum "Si O2"
_cell_formula_units_Z 14
_cell_length_a 17.378385
_cell_length_b 5.020522
_cell_length_c 7.612006
_cell_angle_alpha 90.000000
_cell_angle_beta 47.881969
_cell_angle_gamma 90.000000
_cell_volume 492.633162
_symmetry_space_group_name_H-M "P 21"
_symmetry_group_IT_number 4
_symmetry_cell_setting 'monoclinic'
loop_
_space_group_symop_operation_xyz
x,y,z
-x,1/2+y,-z
loop_
_atom_site_type_symbol
_atom_site_label
_atom_site_fract_x
_atom_site_fract_y
_atom_site_fract_z
Si Si1 0.753124 0.745770 0.478227
Si Si2 0.609650 0.121514 0.918887
Si Si3 0.345300 0.339907 0.708095
Si Si4 0.128537 0.363127 0.233075
Si Si5 0.825514 0.356716 0.637177
Si Si6 0.055861 0.529470 0.976126
Si Si7 0.469633 0.794856 0.339650
O O1 0.686185 0.656459 0.412006
O O2 0.821224 0.515539 0.460824
O O3 0.831093 0.965354 0.278994
O O4 0.677315 0.870964 0.740256
O O5 0.701426 0.310797 0.847160
O O6 0.552004 0.216340 0.831454
O O7 0.527032 0.075505 0.198801
O O8 0.381290 0.620187 0.570634
O O9 0.432520 0.196239 0.689572
O O10 0.244993 0.387013 0.978757
O O11 0.121996 0.573443 0.402625
O O12 0.124143 0.061704 0.303489
O O13 0.058638 0.440814 0.175043
O O14 0.019677 0.829898 0.012285
#
# Coordination Sequence:
#
# PCOD9118081 Si02
#       7
#     2   2   2   2   2   2   2
#     4  10  25  47  74 105 152 201 246 307 394 441
#     4  11  26  44  70 104 153 206 253 314 368 435
#     4  10  24  45  65 109 145 204 257 314 361 435
#     4  11  25  48  79 109 152 199 245 308 385 447
#     4  12  23  47  76 106 147 207 249 298 379 459
#     4  11  26  51  83 116 149 187 248 314 381 466
#     4  11  25  42  65 101 148 196 262 309 354 419
#
# _framework density 28.418710999999998
#
# number of rings (size 3 to 8) (size 9 to 14) (size 15 to 20)
#    0.000    1.143    2.857    0.857    8.000    3.429 
#    5.143    2.857    0.000    0.000    0.000    0.000 
#    0.000    0.000    0.000    0.000    0.000    0.000 
#
# Total GULP energy -78382.946943 kJ/mol
# GULP energy per Si atom -5598.781924 kJ/mol
# Density = 2.835403 g / cm^3
# Si number density = 28.418711 Si / 1000 Ang^3
#
#
#
# Elastic Constant Matrix: (Units=GPa)
#
#
# Indices 1 2 3 4 5 6 
#
# 1 142.8160 -0.3016 -4.8265 0.0000 18.0565 0.0000
# 2 -0.3016 108.6738 10.8405 0.0000 2.5738 0.0000
# 3 -4.8265 10.8405 113.6607 0.0000 -17.4409 0.0000
# 4 0.0000 0.0000 0.0000 39.1089 0.0000 -0.2383
# 5 18.0565 2.5738 -17.4409 0.0000 51.1657 0.0000
# 6 0.0000 0.0000 0.0000 -0.2383 0.0000 46.0279
#
#
#
# Elastic Compliance Matrix: (Units=1/GPa)
#
#
# Indices 1 2 3 4 5 6 
#
# 1 0.007331 0.000093 -0.000100 0.000000 -0.002626 0.000000
# 2 0.000093 0.009323 -0.001015 0.000000 -0.000848 0.000000
# 3 -0.000100 -0.001015 0.009395 0.000000 0.003289 0.000000
# 4 0.000000 0.000000 0.000000 0.025570 0.000000 0.000132
# 5 -0.002626 -0.000848 0.003289 0.000000 0.021635 0.000000
# 6 0.000000 0.000000 0.000000 0.000132 0.000000 0.021727
#
#
# Mechanical properties :
#
#
# Convention : Reuss Voigt Hill
#
# Bulk Modulus (GPa) = 41.66133 41.84170 41.75152
# Shear Modulus (GPa) = 47.60578 51.22306 49.41442
#
# Velocity S-wave (km/s) = 4.09731 4.25012 4.17441
# Velocity P-wave (km/s) = 6.08897 6.23217 6.16099
#
# Compressibility (1/GPa) = 0.02400307
#
# Stress axis : x y z
#
# Youngs Moduli (GPa) = 136.41035 107.25622 106.43505
#
# Poissons Ratio (x) = -0.00993 0.01069
# Poissons Ratio (y) = -0.01263 0.10807
# Poissons Ratio (z) = 0.01371 0.10891
#
# Static dielectric constant tensor:
#      x y z
#    x 2.259350 0.000000 -0.076190 
#    y 0.000000 2.664980 0.000000 
#    z -0.076190 0.000000 2.291530 
# 
# From -- ./inp_files/9478.got.cif
#   From: 2010.05.17/outbox.cif.g08.bks.cpg/sg4_5_cif.got.tgz:9478.got - 2010.06.03 18:43:04.
