data_PCOD9118016
_publ_section_title
;
Structure prediction by ZEFSAII (Michael W. Deem and Ramdas Pophale) SiO2 
 PCOD9118016
Probable space group: P 21
;
_chemical_formula_sum "Si O2"
_cell_formula_units_Z 16
_cell_length_a 9.004393
_cell_length_b 11.262551
_cell_length_c 9.712305
_cell_angle_alpha 90.000000
_cell_angle_beta 46.585504
_cell_angle_gamma 90.000000
_cell_volume 715.467393
_symmetry_space_group_name_H-M "P 21"
_symmetry_group_IT_number 4
_symmetry_cell_setting 'monoclinic'
loop_
_space_group_symop_operation_xyz
x,y,z
-x,1/2+y,-z
loop_
_atom_site_type_symbol
_atom_site_label
_atom_site_fract_x
_atom_site_fract_y
_atom_site_fract_z
Si Si1 0.593696 0.954400 0.281867
Si Si2 0.073606 0.645858 0.973774
Si Si3 0.715936 0.824746 0.460334
Si Si4 0.345426 0.854475 0.885256
Si Si5 0.759069 0.611084 0.953997
Si Si6 0.152197 0.056678 0.622656
Si Si7 0.455305 0.815298 0.116324
Si Si8 0.941249 0.460932 0.600097
O O1 0.695274 0.854580 0.312783
O O2 0.572040 0.908262 0.139834
O O3 0.367475 0.986924 0.480721
O O4 0.733099 0.070135 0.200029
O O5 0.959520 0.564455 0.160071
O O6 0.159973 0.762427 0.993848
O O7 0.933051 0.675944 0.932280
O O8 0.490833 0.836310 0.664831
O O9 0.795237 0.693862 0.440199
O O10 0.860936 0.919783 0.443001
O O11 0.476023 0.831634 0.940296
O O12 0.271033 0.987724 0.947670
O O13 0.832941 0.567720 0.755885
O O14 0.552456 0.687532 0.085248
O O15 0.023662 0.002206 0.578129
O O16 0.218757 0.849831 0.296104
#
# Coordination Sequence:
#
# PCOD9118016 Si02
#       8
#     2   2   2   2   2   2   2   2
#     4  11  25  46  69 105 137 184 233 294 342 420
#     4  12  25  45  71  99 141 185 233 285 353 412
#     4  12  23  45  68 101 145 177 236 293 345 418
#     4  11  26  43  73 105 137 189 233 286 359 417
#     4  11  23  45  69 102 139 186 234 288 350 419
#     4  11  24  45  69  99 143 182 228 292 348 415
#     4  10  24  43  70  99 142 177 237 283 345 419
#     4  10  24  44  67 106 136 186 236 283 358 416
#
# _framework density 22.363005000000001
#
# number of rings (size 3 to 8) (size 9 to 14) (size 15 to 20)
#    0.000    1.000    2.500    3.750    7.000    1.000 
#    0.000    3.750    0.000    0.000    0.000    0.000 
#    0.000    0.000    0.000    0.000    0.000    0.000 
#
# Total GULP energy -89469.321544 kJ/mol
# GULP energy per Si atom -5591.832596 kJ/mol
# Density = 2.231211 g / cm^3
# Si number density = 22.363005 Si / 1000 Ang^3
#
#
#
# Elastic Constant Matrix: (Units=GPa)
#
#
# Indices 1 2 3 4 5 6 
#
# 1 115.9601 36.9721 34.6822 0.0000 21.6378 0.0000
# 2 36.9721 77.0293 0.9878 0.0000 5.6171 0.0000
# 3 34.6822 0.9878 52.3256 0.0000 2.1287 0.0000
# 4 0.0000 0.0000 0.0000 23.4356 0.0000 4.1070
# 5 21.6378 5.6171 2.1287 0.0000 28.4676 0.0000
# 6 0.0000 0.0000 0.0000 4.1070 0.0000 28.0705
#
#
#
# Elastic Compliance Matrix: (Units=1/GPa)
#
#
# Indices 1 2 3 4 5 6 
#
# 1 0.015437 -0.006577 -0.009713 0.000000 -0.009710 0.000000
# 2 -0.006577 0.015975 0.003995 0.000000 0.001548 0.000000
# 3 -0.009713 0.003995 0.025282 0.000000 0.004704 0.000000
# 4 0.000000 0.000000 0.000000 0.043793 0.000000 -0.006407
# 5 -0.009710 0.001548 0.004704 0.000000 0.041851 0.000000
# 6 0.000000 0.000000 0.000000 -0.006407 0.000000 0.036562
#
#
# Mechanical properties :
#
#
# Convention : Reuss Voigt Hill
#
# Bulk Modulus (GPa) = 31.14881 43.39991 37.27436
# Shear Modulus (GPa) = 23.34356 27.50627 25.42492
#
# Velocity S-wave (km/s) = 3.23437 3.51093 3.37548
# Velocity P-wave (km/s) = 5.28272 5.99038 5.64764
#
# Compressibility (1/GPa) = 0.03210395
#
# Stress axis : x y z
#
# Youngs Moduli (GPa) = 64.77747 62.59891 39.55351
#
# Poissons Ratio (x) = 0.41171 0.38418
# Poissons Ratio (y) = 0.42604 -0.15801
# Poissons Ratio (z) = 0.62918 -0.25007
#
# Static dielectric constant tensor:
#      x y z
#    x 1.825650 0.000000 -0.006350 
#    y 0.000000 1.800350 0.000000 
#    z -0.006350 0.000000 1.825070 
# 
# From -- ./inp_files/6380.got.cif
#   From: 2010.05.17/outbox.cif.g08.bks.cpg/sg4_4_cif.got.tgz:6380.got - 2010.06.03 18:43:04.
