data_PCOD9118398
_publ_section_title
;
Structure prediction by ZEFSAII (Michael W. Deem and Ramdas Pophale) SiO2 
 PCOD9118398
Probable space group: P 21
;
_chemical_formula_sum "Si O2"
_cell_formula_units_Z 14
_cell_length_a 5.927604
_cell_length_b 7.028757
_cell_length_c 15.721663
_cell_angle_alpha 90.000000
_cell_angle_beta 67.849727
_cell_angle_gamma 90.000000
_cell_volume 606.680603
_symmetry_space_group_name_H-M "P 21"
_symmetry_group_IT_number 4
_symmetry_cell_setting 'monoclinic'
loop_
_space_group_symop_operation_xyz
x,y,z
-x,1/2+y,-z
loop_
_atom_site_type_symbol
_atom_site_label
_atom_site_fract_x
_atom_site_fract_y
_atom_site_fract_z
Si Si1 0.578041 0.679850 0.402295
Si Si2 0.762899 0.455046 0.627514
Si Si3 0.229093 0.333482 0.451952
Si Si4 0.882633 0.679960 0.097704
Si Si5 0.517927 0.904764 0.872486
Si Si6 0.632995 0.026327 0.048049
Si Si7 0.923004 0.179906 0.750000
O O1 0.494763 0.873156 0.367745
O O2 0.370760 0.526526 0.412788
O O3 0.617585 0.728096 0.495218
O O4 0.834448 0.608201 0.331053
O O5 0.781362 0.682014 0.622230
O O6 0.967848 0.385576 0.529609
O O7 0.821098 0.348734 0.706503
O O8 0.730254 0.486654 0.132255
O O9 0.996557 0.751609 0.168945
O O10 0.696335 0.833282 0.087212
O O11 0.108022 0.631713 0.004781
O O12 0.525823 0.677796 0.877770
O O13 0.734102 0.011077 0.793497
O O14 0.527066 0.974233 0.970391
#
# Coordination Sequence:
#
# PCOD9118398 Si02
#       7
#     2   2   2   2   2   2   2
#     4  11  22  43  68 101 129 174 216 277 314 395
#     4  11  22  43  68 101 129 174 216 277 314 395
#     4  11  22  39  77  95 128 170 230 261 326 378
#     4  11  22  43  68 101 129 174 216 277 314 395
#     4  11  22  43  68 101 129 174 216 277 314 395
#     4  11  22  39  77  95 128 170 230 261 326 378
#     4  10  26  44  66  92 148 168 210 266 342 378
#
# _framework density 23.076392999999999
#
# number of rings (size 3 to 8) (size 9 to 14) (size 15 to 20)
#    0.000    1.143    5.714    0.857    0.000    0.000 
#    0.000    8.571    0.000    0.000    0.000    0.000 
#    0.000    0.000    0.000    0.000    0.000    0.000 
#
# Total GULP energy -78374.056447 kJ/mol
# GULP energy per Si atom -5598.146889 kJ/mol
# Density = 2.302387 g / cm^3
# Si number density = 23.076393 Si / 1000 Ang^3
#
#
#
# Elastic Constant Matrix: (Units=GPa)
#
#
# Indices 1 2 3 4 5 6 
#
# 1 53.3263 -6.2806 -3.7204 0.0000 -3.3088 0.0000
# 2 -6.2806 78.7357 1.5119 0.0000 -1.4781 0.0000
# 3 -3.7204 1.5119 41.7750 0.0000 5.4987 0.0000
# 4 0.0000 0.0000 0.0000 22.3729 0.0000 1.5099
# 5 -3.3088 -1.4781 5.4987 0.0000 35.5772 0.0000
# 6 0.0000 0.0000 0.0000 1.5099 0.0000 30.3331
#
#
#
# Elastic Compliance Matrix: (Units=1/GPa)
#
#
# Indices 1 2 3 4 5 6 
#
# 1 0.019133 0.001529 0.001435 0.000000 0.001621 0.000000
# 2 0.001529 0.012845 -0.000426 0.000000 0.000742 0.000000
# 3 0.001435 -0.000426 0.024566 0.000000 -0.003681 0.000000
# 4 0.000000 0.000000 0.000000 0.044848 0.000000 -0.002232
# 5 0.001621 0.000742 -0.003681 0.000000 0.028858 0.000000
# 6 0.000000 0.000000 0.000000 -0.002232 0.000000 0.033078
#
#
# Mechanical properties :
#
#
# Convention : Reuss Voigt Hill
#
# Bulk Modulus (GPa) = 16.22860 17.42876 16.82868
# Shear Modulus (GPa) = 27.96547 29.81170 28.88859
#
# Velocity S-wave (km/s) = 3.48496 3.59816 3.54201
# Velocity P-wave (km/s) = 4.82090 4.98311 4.90268
#
# Compressibility (1/GPa) = 0.06161961
#
# Stress axis : x y z
#
# Youngs Moduli (GPa) = 52.26491 77.85245 40.70746
#
# Poissons Ratio (x) = -0.11904 -0.05842
# Poissons Ratio (y) = -0.07992 0.01735
# Poissons Ratio (z) = -0.07501 0.03319
#
# Static dielectric constant tensor:
#      x y z
#    x 1.827520 0.000000 -0.009520 
#    y 0.000000 1.845070 0.000000 
#    z -0.009520 0.000000 1.877720 
# 
# From -- ./inp_files/14657.got.cif
#   From: 2010.05.17/outbox.cif.g08.bks.cpg/sg4_8_cif.got.tgz:14657.got - 2010.06.03 18:43:04.
