data_PCOD9118738
_publ_section_title
;
Structure prediction by ZEFSAII (Michael W. Deem and Ramdas Pophale) SiO2 
 PCOD9118738
Probable space group: P 21
;
_chemical_formula_sum "Si O2"
_cell_formula_units_Z 8
_cell_length_a 6.616847
_cell_length_b 9.172885
_cell_length_c 5.032616
_cell_angle_alpha 90.000000
_cell_angle_beta 107.612948
_cell_angle_gamma 90.000000
_cell_volume 291.138387
_symmetry_space_group_name_H-M "P 21"
_symmetry_group_IT_number 4
_symmetry_cell_setting 'monoclinic'
loop_
_space_group_symop_operation_xyz
x,y,z
-x,1/2+y,-z
loop_
_atom_site_type_symbol
_atom_site_label
_atom_site_fract_x
_atom_site_fract_y
_atom_site_fract_z
Si Si1 0.646674 0.783250 0.664167
Si Si2 0.510780 0.158302 0.908213
Si Si3 0.847328 0.016828 0.388271
Si Si4 0.197047 0.817866 0.340924
O O1 0.668782 0.713633 0.959141
O O2 0.801292 0.901801 0.605555
O O3 0.412779 0.855469 0.584363
O O4 0.602933 0.661165 0.422048
O O5 0.637024 0.034585 0.120337
O O6 0.709945 0.265945 0.906217
O O7 0.032052 0.947429 0.287213
O O8 0.885739 0.171797 0.542983
#
# Coordination Sequence:
#
# PCOD9118738 Si02
#       4
#     2   2   2   2
#     4   9  22  43  62  93 134 172 217 263 323 393
#     4   9  22  44  61  99 130 173 218 265 329 390
#     4  11  22  45  69 100 135 173 221 276 332 394
#     4   9  24  42  68 102 131 176 220 272 334 391
#
# _framework density 27.478342999999999
#
# number of rings (size 3 to 8) (size 9 to 14) (size 15 to 20)
#    1.500    1.000    0.000    0.000    3.500    8.000 
#    4.500    0.000    0.000    0.000    0.000    0.000 
#    0.000    0.000    0.000    0.000    0.000    0.000 
#
# Total GULP energy -44691.045800 kJ/mol
# GULP energy per Si atom -5586.380725 kJ/mol
# Density = 2.741580 g / cm^3
# Si number density = 27.478343 Si / 1000 Ang^3
#
#
#
# Elastic Constant Matrix: (Units=GPa)
#
#
# Indices 1 2 3 4 5 6 
#
# 1 70.5950 32.4841 29.4157 0.0000 -5.7987 0.0000
# 2 32.4841 104.3261 41.8940 0.0000 -9.4168 0.0000
# 3 29.4157 41.8940 175.1738 0.0000 -24.0341 0.0000
# 4 0.0000 0.0000 0.0000 17.1215 0.0000 -8.1106
# 5 -5.7987 -9.4168 -24.0341 0.0000 41.2518 0.0000
# 6 0.0000 0.0000 0.0000 -8.1106 0.0000 57.4665
#
#
#
# Elastic Compliance Matrix: (Units=1/GPa)
#
#
# Indices 1 2 3 4 5 6 
#
# 1 0.017015 -0.004578 -0.001715 0.000000 0.000348 0.000000
# 2 -0.004578 0.011875 -0.001943 0.000000 0.000935 0.000000
# 3 -0.001715 -0.001943 0.006921 0.000000 0.003347 0.000000
# 4 0.000000 0.000000 0.000000 0.062591 0.000000 0.008834
# 5 0.000348 0.000935 0.003347 0.000000 0.026454 0.000000
# 6 0.000000 0.000000 0.000000 0.008834 0.000000 0.018648
#
#
# Mechanical properties :
#
#
# Convention : Reuss Voigt Hill
#
# Bulk Modulus (GPa) = 51.70749 61.96473 56.83611
# Shear Modulus (GPa) = 30.04417 39.58803 34.81610
#
# Velocity S-wave (km/s) = 3.31021 3.79977 3.56341
# Velocity P-wave (km/s) = 5.78519 6.46919 6.13672
#
# Compressibility (1/GPa) = 0.01933956
#
# Stress axis : x y z
#
# Youngs Moduli (GPa) = 58.77214 84.20725 144.49822
#
# Poissons Ratio (x) = 0.38550 0.24776
# Poissons Ratio (y) = 0.26906 0.28076
# Poissons Ratio (z) = 0.10077 0.16362
#
# Static dielectric constant tensor:
#      x y z
#    x 2.154940 0.000000 0.045840 
#    y 0.000000 2.282830 0.000000 
#    z 0.045840 0.000000 2.187780 
# 
# From -- ./inp_files/169.got.cif
#   From: 2010.05.17/outbox.cif.g08.bks.cpg/sg4_1_cif.got.tgz:169.got - 2010.06.03 18:43:04.
