data_PCOD9118115
_publ_section_title
;
Structure prediction by ZEFSAII (Michael W. Deem and Ramdas Pophale) SiO2 
 PCOD9118115
Probable space group: P 21
;
_chemical_formula_sum "Si O2"
_cell_formula_units_Z 14
_cell_length_a 11.400802
_cell_length_b 5.445803
_cell_length_c 17.870168
_cell_angle_alpha 90.000000
_cell_angle_beta 151.018503
_cell_angle_gamma 90.000000
_cell_volume 537.581209
_symmetry_space_group_name_H-M "P 21"
_symmetry_group_IT_number 4
_symmetry_cell_setting 'monoclinic'
loop_
_space_group_symop_operation_xyz
x,y,z
-x,1/2+y,-z
loop_
_atom_site_type_symbol
_atom_site_label
_atom_site_fract_x
_atom_site_fract_y
_atom_site_fract_z
Si Si1 0.685803 0.717190 0.491495
Si Si2 0.948242 0.302561 0.094707
Si Si3 0.100979 0.012000 0.791526
Si Si4 0.738285 0.395896 0.646624
Si Si5 0.315834 0.702816 0.677237
Si Si6 0.808640 0.705311 0.308421
Si Si7 0.316479 0.509013 0.182244
O O1 0.950541 0.827011 0.652748
O O2 0.682549 0.454690 0.529655
O O3 0.502653 0.865837 0.441313
O O4 0.547348 0.673262 0.337678
O O5 0.773771 0.390237 0.066380
O O6 0.118227 0.476584 0.137233
O O7 0.804914 0.139479 0.955267
O O8 0.123916 0.120374 0.238522
O O9 0.909161 0.164341 0.734212
O O10 0.221917 0.188601 0.798508
O O11 0.289735 0.457699 0.711169
O O12 0.092667 0.705387 0.493698
O O13 0.293054 0.950415 0.714427
O O14 0.570244 0.745555 0.777043
#
# Coordination Sequence:
#
# PCOD9118115 Si02
#       7
#     2   2   2   2   2   2   2
#     4  11  21  35  66 104 143 190 242 304 382 445
#     4  11  27  43  67 107 152 196 248 300 395 456
#     4  11  24  41  71 106 146 191 240 323 370 450
#     4  11  20  39  60 102 143 185 240 299 379 442
#     4  10  25  45  74 111 147 196 253 312 380 433
#     4  10  24  45  74 113 146 190 256 324 368 437
#     4  12  25  46  70 109 151 202 243 314 376 477
#
# _framework density 26.042579
#
# number of rings (size 3 to 8) (size 9 to 14) (size 15 to 20)
#    0.000    1.143    2.857    2.571   12.000    1.143 
#    0.000    0.000    3.143    0.000    0.000    0.000 
#    0.000    0.000    0.000    0.000    0.000    0.000 
#
# Total GULP energy -78293.129172 kJ/mol
# GULP energy per Si atom -5592.366369 kJ/mol
# Density = 2.598330 g / cm^3
# Si number density = 26.042579 Si / 1000 Ang^3
#
#
#
# Elastic Constant Matrix: (Units=GPa)
#
#
# Indices 1 2 3 4 5 6 
#
# 1 176.6125 64.0975 51.4207 0.0000 -34.1941 0.0000
# 2 64.0975 103.5873 27.3524 0.0000 -19.4432 0.0000
# 3 51.4207 27.3524 96.0110 0.0000 -22.5412 0.0000
# 4 0.0000 0.0000 0.0000 30.0900 0.0000 -5.6921
# 5 -34.1941 -19.4432 -22.5412 0.0000 38.2204 0.0000
# 6 0.0000 0.0000 0.0000 -5.6921 0.0000 51.2587
#
#
#
# Elastic Compliance Matrix: (Units=1/GPa)
#
#
# Indices 1 2 3 4 5 6 
#
# 1 0.008625 -0.003873 -0.002515 0.000000 0.004263 0.000000
# 2 -0.003873 0.012771 -0.000989 0.000000 0.002448 0.000000
# 3 -0.002515 -0.000989 0.013230 0.000000 0.005049 0.000000
# 4 0.000000 0.000000 0.000000 0.033947 0.000000 0.003770
# 5 0.004263 0.002448 0.005049 0.000000 0.034201 0.000000
# 6 0.000000 0.000000 0.000000 0.003770 0.000000 0.019928
#
#
# Mechanical properties :
#
#
# Convention : Reuss Voigt Hill
#
# Bulk Modulus (GPa) = 50.32388 73.55024 61.93706
# Shear Modulus (GPa) = 34.70286 39.46981 37.08634
#
# Velocity S-wave (km/s) = 3.65436 3.89728 3.77777
# Velocity P-wave (km/s) = 6.09684 6.96816 6.54701
#
# Compressibility (1/GPa) = 0.01987128
#
# Stress axis : x y z
#
# Youngs Moduli (GPa) = 115.93676 78.30295 75.58693
#
# Poissons Ratio (x) = 0.30326 0.19012
# Poissons Ratio (y) = 0.44901 0.07478
# Poissons Ratio (z) = 0.29161 0.07746
#
# Static dielectric constant tensor:
#      x y z
#    x 2.071450 0.000000 0.048810 
#    y 0.000000 2.175850 0.000000 
#    z 0.048810 0.000000 2.060580 
# 
# From -- ./inp_files/8754.got.cif
#   From: 2010.05.17/outbox.cif.g08.bks.cpg/sg4_5_cif.got.tgz:8754.got - 2010.06.03 18:43:04.
