data_PCOD9118039
_publ_section_title
;
Structure prediction by ZEFSAII (Michael W. Deem and Ramdas Pophale) SiO2 
 PCOD9118039
Probable space group: P 21
;
_chemical_formula_sum "Si O2"
_cell_formula_units_Z 10
_cell_length_a 7.432227
_cell_length_b 7.001031
_cell_length_c 6.961752
_cell_angle_alpha 90.000000
_cell_angle_beta 77.085433
_cell_angle_gamma 90.000000
_cell_volume 353.079451
_symmetry_space_group_name_H-M "P 21"
_symmetry_group_IT_number 4
_symmetry_cell_setting 'monoclinic'
loop_
_space_group_symop_operation_xyz
x,y,z
-x,1/2+y,-z
loop_
_atom_site_type_symbol
_atom_site_label
_atom_site_fract_x
_atom_site_fract_y
_atom_site_fract_z
Si Si1 0.186868 0.091950 0.333312
Si Si2 0.313996 0.163894 0.909396
Si Si3 0.313996 0.663894 0.409396
Si Si4 0.999999 0.117640 0.750000
Si Si5 0.813132 0.091950 0.166687
O O1 0.137505 0.191380 0.547502
O O2 1.000000 0.103283 0.250000
O O3 0.234498 0.875498 0.385401
O O4 0.334987 0.143955 0.133142
O O5 0.500000 0.134348 0.750000
O O6 0.158421 0.028994 0.847514
O O7 0.234498 0.375498 0.885401
O O8 0.334987 0.643955 0.633143
O O9 0.158422 0.528994 0.347514
O O10 0.862494 0.191380 0.952498
#
# Coordination Sequence:
#
# PCOD9118039 Si02
#       5
#     2   2   2   2   2
#     4  10  24  45  70  98 137 181 225 281 340 404
#     4  11  25  43  68 102 133 182 225 282 338 407
#     4  11  25  43  68 102 133 182 225 282 338 407
#     4  10  24  44  66  98 138 180 222 288 328 416
#     4  10  24  45  70  98 137 181 225 281 340 404
#
# _framework density 28.322230999999999
#
# number of rings (size 3 to 8) (size 9 to 14) (size 15 to 20)
#    0.000    1.600    2.000    0.000   14.000    0.000 
#    0.000    0.000    0.000    0.000    0.000    0.000 
#    0.000    0.000    0.000    0.000    0.000    0.000 
#
# Total GULP energy -55766.989774 kJ/mol
# GULP energy per Si atom -5576.698977 kJ/mol
# Density = 2.825777 g / cm^3
# Si number density = 28.322231 Si / 1000 Ang^3
#
#
#
# Elastic Constant Matrix: (Units=GPa)
#
#
# Indices 1 2 3 4 5 6 
#
# 1 110.9522 4.0511 47.0278 0.0000 -10.7206 0.0000
# 2 4.0511 90.5143 78.0252 0.0000 2.6795 0.0000
# 3 47.0278 78.0252 408.9677 0.0000 -24.2108 0.0000
# 4 0.0000 0.0000 0.0000 53.8638 0.0000 13.2648
# 5 -10.7206 2.6795 -24.2108 0.0000 68.1076 0.0000
# 6 0.0000 0.0000 0.0000 13.2648 0.0000 18.2476
#
#
#
# Elastic Compliance Matrix: (Units=1/GPa)
#
#
# Indices 1 2 3 4 5 6 
#
# 1 0.009580 0.000519 -0.001136 0.000000 0.001084 0.000000
# 2 0.000519 0.013392 -0.002698 0.000000 -0.001404 0.000000
# 3 -0.001136 -0.002698 0.003153 0.000000 0.001048 0.000000
# 4 0.000000 0.000000 0.000000 0.022614 0.000000 -0.016439
# 5 0.001084 -0.001404 0.001048 0.000000 0.015281 0.000000
# 6 0.000000 0.000000 0.000000 -0.016439 0.000000 0.066752
#
#
# Mechanical properties :
#
#
# Convention : Reuss Voigt Hill
#
# Bulk Modulus (GPa) = 51.29799 96.51580 73.90689
# Shear Modulus (GPa) = 34.74636 60.13248 47.43942
#
# Velocity S-wave (km/s) = 3.50640 4.61277 4.09710
# Velocity P-wave (km/s) = 5.87748 7.90708 6.96659
#
# Compressibility (1/GPa) = 0.01949394
#
# Stress axis : x y z
#
# Youngs Moduli (GPa) = 104.38024 74.67229 317.19856
#
# Poissons Ratio (x) = -0.03874 0.36049
# Poissons Ratio (y) = -0.05416 0.85573
# Poissons Ratio (z) = 0.11863 0.20145
#
# Static dielectric constant tensor:
#      x y z
#    x 2.217170 0.000000 -0.068180 
#    y 0.000000 2.417790 0.000000 
#    z -0.068180 0.000000 2.219140 
# 
# From -- ./inp_files/916.got.cif
#   From: 2010.05.17/outbox.cif.g08.bks.cpg/sg4_1_cif.got.tgz:916.got - 2010.06.03 18:43:04.
