data_PCOD9118294
_publ_section_title
;
Structure prediction by ZEFSAII (Michael W. Deem and Ramdas Pophale) SiO2 
 PCOD9118294
Probable space group: P 21
;
_chemical_formula_sum "Si O2"
_cell_formula_units_Z 10
_cell_length_a 4.813276
_cell_length_b 8.536548
_cell_length_c 8.900456
_cell_angle_alpha 90.000000
_cell_angle_beta 83.556889
_cell_angle_gamma 90.000000
_cell_volume 363.398813
_symmetry_space_group_name_H-M "P 21"
_symmetry_group_IT_number 4
_symmetry_cell_setting 'monoclinic'
loop_
_space_group_symop_operation_xyz
x,y,z
-x,1/2+y,-z
loop_
_atom_site_type_symbol
_atom_site_label
_atom_site_fract_x
_atom_site_fract_y
_atom_site_fract_z
Si Si1 0.246838 0.758240 0.880852
Si Si2 0.454680 0.194867 0.700031
Si Si3 0.280382 0.206402 0.393777
Si Si4 0.296625 0.463337 0.069243
Si Si5 0.005894 0.901638 0.356951
O O1 0.462990 0.739196 0.730188
O O2 0.438662 0.566314 0.192408
O O3 0.180315 0.301280 0.750056
O O4 0.968662 0.858033 0.868728
O O5 0.381968 0.121756 0.541573
O O6 0.556528 0.352204 0.010033
O O7 0.698034 0.318194 0.657941
O O8 0.194427 0.589472 0.955494
O O9 0.061780 0.084630 0.334894
O O10 0.139719 0.359947 0.474783
#
# Coordination Sequence:
#
# PCOD9118294 Si02
#       5
#     2   2   2   2   2
#     4  12  30  54  86 112 176 216 291 333 432 481
#     4  10  26  45  83 112 169 206 274 345 404 488
#     4  10  28  48  82 122 165 221 269 347 423 490
#     4  12  29  57  80 123 161 228 279 355 397 516
#     4  10  25  44  79 119 167 203 277 336 416 491
#
# _framework density 27.517976999999998
#
# number of rings (size 3 to 8) (size 9 to 14) (size 15 to 20)
#    1.200    0.000    0.000    2.400   14.000    0.000 
#    0.000    0.000    0.000    0.000    0.000    0.000 
#    0.000    0.000    0.000    0.000    0.000    0.000 
#
# Total GULP energy -56088.422331 kJ/mol
# GULP energy per Si atom -5608.842233 kJ/mol
# Density = 2.745534 g / cm^3
# Si number density = 27.517977 Si / 1000 Ang^3
#
#
#
# Elastic Constant Matrix: (Units=GPa)
#
#
# Indices 1 2 3 4 5 6 
#
# 1 185.9344 71.9809 28.4495 0.0000 -3.2114 0.0000
# 2 71.9809 193.0264 62.7452 0.0000 -14.9652 0.0000
# 3 28.4495 62.7452 107.4993 0.0000 7.3205 0.0000
# 4 0.0000 0.0000 0.0000 43.9156 0.0000 -5.4217
# 5 -3.2114 -14.9652 7.3205 0.0000 48.3303 0.0000
# 6 0.0000 0.0000 0.0000 -5.4217 0.0000 76.8510
#
#
#
# Elastic Compliance Matrix: (Units=1/GPa)
#
#
# Indices 1 2 3 4 5 6 
#
# 1 0.006300 -0.002259 -0.000333 0.000000 -0.000230 0.000000
# 2 -0.002259 0.007536 -0.003991 0.000000 0.002788 0.000000
# 3 -0.000333 -0.003991 0.011929 0.000000 -0.003065 0.000000
# 4 0.000000 0.000000 0.000000 0.022971 0.000000 0.001621
# 5 -0.000230 0.002788 -0.003065 0.000000 0.022003 0.000000
# 6 0.000000 0.000000 0.000000 0.001621 0.000000 0.013127
#
#
# Mechanical properties :
#
#
# Convention : Reuss Voigt Hill
#
# Bulk Modulus (GPa) = 79.37058 90.31238 84.84148
# Shear Modulus (GPa) = 49.39212 55.37168 52.38190
#
# Velocity S-wave (km/s) = 4.24123 4.49062 4.36770
# Velocity P-wave (km/s) = 7.27254 7.73164 7.50560
#
# Compressibility (1/GPa) = 0.01259913
#
# Stress axis : x y z
#
# Youngs Moduli (GPa) = 158.73845 132.68942 83.83164
#
# Poissons Ratio (x) = 0.29972 0.02792
# Poissons Ratio (y) = 0.35855 0.33457
# Poissons Ratio (z) = 0.05288 0.52955
#
# Static dielectric constant tensor:
#      x y z
#    x 2.100220 0.000000 0.119490 
#    y 0.000000 2.154890 0.000000 
#    z 0.119490 0.000000 2.235440 
# 
# From -- ./inp_files/4491.got.cif
#   From: 2010.05.17/outbox.cif.g08.bks.cpg/sg4_3_cif.got.tgz:4491.got - 2010.06.03 18:43:04.
