data_PCOD9118641
_publ_section_title
;
Structure prediction by ZEFSAII (Michael W. Deem and Ramdas Pophale) SiO2 
 PCOD9118641
Probable space group: P 21
;
_chemical_formula_sum "Si O2"
_cell_formula_units_Z 10
_cell_length_a 4.849871
_cell_length_b 10.998158
_cell_length_c 7.227273
_cell_angle_alpha 90.000000
_cell_angle_beta 113.655788
_cell_angle_gamma 90.000000
_cell_volume 353.107570
_symmetry_space_group_name_H-M "P 21"
_symmetry_group_IT_number 4
_symmetry_cell_setting 'monoclinic'
loop_
_space_group_symop_operation_xyz
x,y,z
-x,1/2+y,-z
loop_
_atom_site_type_symbol
_atom_site_label
_atom_site_fract_x
_atom_site_fract_y
_atom_site_fract_z
Si Si1 0.711275 0.292250 0.072211
Si Si2 0.815085 0.943723 0.161250
Si Si3 0.238096 0.076784 0.527526
Si Si4 0.841899 0.195255 0.721789
Si Si5 0.684139 0.865496 0.742220
O O1 0.535519 0.403694 0.916913
O O2 0.789273 0.201252 0.929239
O O3 0.469678 0.264347 0.166520
O O4 0.012281 0.321836 0.268287
O O5 0.833545 0.949286 0.945490
O O6 0.996818 0.823474 0.271663
O O7 0.967731 0.052004 0.312485
O O8 0.498140 0.177255 0.557535
O O9 0.068222 0.104419 0.675700
O O10 0.446783 0.955448 0.589003
#
# Coordination Sequence:
#
# PCOD9118641 Si02
#       5
#     2   2   2   2   2
#     4   9  18  42  60  77 129 157 185 258 310 329
#     4   9  23  42  62  85 133 159 191 264 305 341
#     4  12  23  37  69  89 119 166 212 235 301 381
#     4  11  22  39  62  95 122 161 203 253 300 352
#     4   9  20  38  61  84 111 163 199 244 306 347
#
# _framework density 28.319984000000002
#
# number of rings (size 3 to 8) (size 9 to 14) (size 15 to 20)
#    1.200    0.800    2.000    1.200    5.600    0.000 
#    0.000   10.000    0.000    0.000    0.000    0.000 
#    0.000    0.000    0.000    0.000    0.000    0.000 
#
# Total GULP energy -55791.691435 kJ/mol
# GULP energy per Si atom -5579.169144 kJ/mol
# Density = 2.825553 g / cm^3
# Si number density = 28.319984 Si / 1000 Ang^3
#
#
#
# Elastic Constant Matrix: (Units=GPa)
#
#
# Indices 1 2 3 4 5 6 
#
# 1 165.6092 7.0285 41.2037 0.0000 39.9890 0.0000
# 2 7.0285 67.1493 16.1841 0.0000 22.6412 0.0000
# 3 41.2037 16.1841 140.9612 0.0000 30.5604 0.0000
# 4 0.0000 0.0000 0.0000 40.8203 0.0000 23.1743
# 5 39.9890 22.6412 30.5604 0.0000 63.1330 0.0000
# 6 0.0000 0.0000 0.0000 23.1743 0.0000 -2.9598
#
#
#
# Elastic Compliance Matrix: (Units=1/GPa)
#
#
# Indices 1 2 3 4 5 6 
#
# 1 0.007388 0.001032 -0.001322 0.000000 -0.004410 0.000000
# 2 0.001032 0.017147 -0.000889 0.000000 -0.006373 0.000000
# 3 -0.001322 -0.000889 0.008192 0.000000 -0.002809 0.000000
# 4 0.000000 0.000000 0.000000 0.004499 0.000000 0.035226
# 5 -0.004410 -0.006373 -0.002809 0.000000 0.022278 0.000000
# 6 0.000000 0.000000 0.000000 0.035226 0.000000 -0.062049
#
#
# Mechanical properties :
#
#
# Convention : Reuss Voigt Hill
#
# Bulk Modulus (GPa) = 32.92713 55.83915 44.38314
# Shear Modulus (GPa) = 503.24122 40.81894 272.03008
#
# Velocity S-wave (km/s) = 13.34481 3.80063 9.81144
# Velocity P-wave (km/s) = 15.78282 6.24658 12.00244
#
# Compressibility (1/GPa) = 0.03037010
#
# Stress axis : x y z
#
# Youngs Moduli (GPa) = 135.34890 58.31854 122.07540
#
# Poissons Ratio (x) = -0.06020 0.16139
# Poissons Ratio (y) = -0.13972 0.10850
# Poissons Ratio (z) = 0.17894 0.05183
#
# Static dielectric constant tensor:
#      x y z
#    x 2.296390 0.000000 0.000160 
#    y 0.000000 2.431000 0.000000 
#    z 0.000160 0.000000 2.255560 
# 
# From -- ./inp_files/298.got.cif
#   From: 2010.05.17/outbox.cif.g08.bks.cpg/sg4_1_cif.got.tgz:298.got - 2010.06.03 18:43:04.
