data_PCOD9118827
_publ_section_title
;
Structure prediction by ZEFSAII (Michael W. Deem and Ramdas Pophale) SiO2 
 PCOD9118827
Probable space group: P 21
;
_chemical_formula_sum "Si O2"
_cell_formula_units_Z 12
_cell_length_a 14.398281
_cell_length_b 5.623118
_cell_length_c 14.712963
_cell_angle_alpha 90.000000
_cell_angle_beta 158.963421
_cell_angle_gamma 90.000000
_cell_volume 427.601043
_symmetry_space_group_name_H-M "P 21"
_symmetry_group_IT_number 4
_symmetry_cell_setting 'monoclinic'
loop_
_space_group_symop_operation_xyz
x,y,z
-x,1/2+y,-z
loop_
_atom_site_type_symbol
_atom_site_label
_atom_site_fract_x
_atom_site_fract_y
_atom_site_fract_z
Si Si1 0.925450 0.800550 0.702663
Si Si2 0.825503 0.058260 0.774498
Si Si3 0.025990 0.590956 0.411717
Si Si4 0.738772 0.088938 0.194177
Si Si5 0.524753 0.052053 0.818688
Si Si6 0.371795 0.291329 0.251963
O O1 0.726681 0.654583 0.459187
O O2 0.926872 0.053576 0.651511
O O3 0.812717 0.822817 0.700031
O O4 0.212697 0.697758 0.961888
O O5 0.628117 0.228079 0.541686
O O6 0.732929 0.025654 0.792201
O O7 0.126634 0.122100 0.043683
O O8 0.893714 0.846343 0.308132
O O9 0.268233 0.579042 0.702936
O O10 0.865364 0.348508 0.289536
O O11 0.502706 0.065013 0.907702
O O12 0.577775 0.815146 0.809032
#
# Coordination Sequence:
#
# PCOD9118827 Si02
#       6
#     2   2   2   2   2   2
#     4  11  23  42  64  94 129 171 220 278 337 403
#     4  12  24  41  64  93 128 172 220 278 337 404
#     4   9  19  39  66  97 134 177 226 280 338 401
#     4   9  19  39  66  97 134 177 226 280 338 401
#     4  11  23  42  64  94 129 171 220 278 337 403
#     4  12  24  41  64  93 128 172 220 278 337 404
#
# _framework density 28.063541000000001
#
# number of rings (size 3 to 8) (size 9 to 14) (size 15 to 20)
#    0.000    1.333    0.000    6.000    0.000    2.667 
#    0.000   15.000    0.000    0.000    0.000    0.000 
#    0.000    0.000    0.000    0.000    0.000    0.000 
#
# Total GULP energy -67132.073610 kJ/mol
# GULP energy per Si atom -5594.339467 kJ/mol
# Density = 2.799967 g / cm^3
# Si number density = 28.063541 Si / 1000 Ang^3
#
#
#
# Elastic Constant Matrix: (Units=GPa)
#
#
# Indices 1 2 3 4 5 6 
#
# 1 103.3319 25.1387 50.4384 0.0000 -20.6213 0.0000
# 2 25.1387 125.3143 62.7361 0.0000 10.4286 0.0000
# 3 50.4384 62.7361 95.9061 0.0000 -13.6163 0.0000
# 4 0.0000 0.0000 0.0000 70.6000 0.0000 9.4276
# 5 -20.6213 10.4286 -13.6163 0.0000 50.3166 0.0000
# 6 0.0000 0.0000 0.0000 9.4276 0.0000 48.3713
#
#
#
# Elastic Compliance Matrix: (Units=1/GPa)
#
#
# Indices 1 2 3 4 5 6 
#
# 1 0.013702 0.000443 -0.006980 0.000000 0.003635 0.000000
# 2 0.000443 0.013078 -0.009512 0.000000 -0.005103 0.000000
# 3 -0.006980 -0.009512 0.021001 0.000000 0.004794 0.000000
# 4 0.000000 0.000000 0.000000 0.014543 0.000000 -0.002834
# 5 0.003635 -0.005103 0.004794 0.000000 0.023719 0.000000
# 6 0.000000 0.000000 0.000000 -0.002834 0.000000 0.021226
#
#
# Mechanical properties :
#
#
# Convention : Reuss Voigt Hill
#
# Bulk Modulus (GPa) = 63.76538 66.79763 65.28151
# Shear Modulus (GPa) = 34.57953 46.27352 40.42652
#
# Velocity S-wave (km/s) = 3.51406 4.06505 3.79956
# Velocity P-wave (km/s) = 6.26386 6.77398 6.52391
#
# Compressibility (1/GPa) = 0.01568249
#
# Stress axis : x y z
#
# Youngs Moduli (GPa) = 72.98090 76.46504 47.61723
#
# Poissons Ratio (x) = -0.03389 0.33237
# Poissons Ratio (y) = -0.03234 0.45295
# Poissons Ratio (z) = 0.50941 0.72736
#
# Static dielectric constant tensor:
#      x y z
#    x 2.208360 0.000000 0.038120 
#    y 0.000000 2.266000 0.000000 
#    z 0.038120 0.000000 2.201580 
# 
# From -- ./inp_files/13184.got.cif
#   From: 2010.05.17/outbox.cif.g08.bks.cpg/sg4_7_cif.got.tgz:13184.got - 2010.06.03 18:43:04.
