data_PCOD9118642
_publ_section_title
;
Structure prediction by ZEFSAII (Michael W. Deem and Ramdas Pophale) SiO2 
 PCOD9118642
Probable space group: P 21
;
_chemical_formula_sum "Si O2"
_cell_formula_units_Z 14
_cell_length_a 11.093061
_cell_length_b 5.272412
_cell_length_c 19.163038
_cell_angle_alpha 90.000000
_cell_angle_beta 148.884856
_cell_angle_gamma 90.000000
_cell_volume 579.180169
_symmetry_space_group_name_H-M "P 21"
_symmetry_group_IT_number 4
_symmetry_cell_setting 'monoclinic'
loop_
_space_group_symop_operation_xyz
x,y,z
-x,1/2+y,-z
loop_
_atom_site_type_symbol
_atom_site_label
_atom_site_fract_x
_atom_site_fract_y
_atom_site_fract_z
Si Si1 0.082113 0.916900 0.596139
Si Si2 0.354042 0.710047 0.608096
Si Si3 0.764207 0.910283 0.253400
Si Si4 0.116235 0.244303 0.092409
Si Si5 0.601688 0.321100 0.023569
Si Si6 0.781545 0.341902 0.611850
Si Si7 0.865585 0.838882 0.732614
O O1 0.179420 0.884005 0.566642
O O2 0.167176 0.674459 0.679699
O O3 0.207663 0.165275 0.686033
O O4 0.804569 0.955776 0.469798
O O5 0.601672 0.698936 0.769493
O O6 0.361559 0.804229 0.531615
O O7 0.497074 0.924603 0.097961
O O8 0.950288 0.856206 0.283643
O O9 0.095560 0.300043 0.165461
O O10 0.020517 0.491761 0.002548
O O11 0.482824 0.530488 0.014653
O O12 0.872666 0.337336 0.167598
O O13 0.741805 0.600496 0.634223
O O14 0.237412 0.605027 0.344985
#
# Coordination Sequence:
#
# PCOD9118642 Si02
#       7
#     2   2   2   2   2   2   2
#     4  11  25  42  73 107 144 189 242 310 380 416
#     4  11  27  50  76 114 150 194 254 311 373 438
#     4  11  22  39  66 111 147 186 235 309 371 431
#     4  12  32  54  76 107 152 203 251 298 368 468
#     4  12  22  38  67 105 149 193 238 301 365 438
#     4  11  23  43  72 103 144 180 248 311 356 432
#     4  12  25  46  70 107 142 197 244 292 379 425
#
# _framework density 24.172096
#
# number of rings (size 3 to 8) (size 9 to 14) (size 15 to 20)
#    0.000    0.571    2.857    5.143    4.000    6.857 
#    0.000    0.000    0.000    0.000    0.000    0.000 
#    0.000    0.000    0.000    0.000    0.000    0.000 
#
# Total GULP energy -78256.207533 kJ/mol
# GULP energy per Si atom -5589.729110 kJ/mol
# Density = 2.411708 g / cm^3
# Si number density = 24.172096 Si / 1000 Ang^3
#
#
#
# Elastic Constant Matrix: (Units=GPa)
#
#
# Indices 1 2 3 4 5 6 
#
# 1 92.7337 45.1825 21.5802 0.0000 -27.9099 0.0000
# 2 45.1825 203.8467 82.0139 0.0000 -31.9698 0.0000
# 3 21.5802 82.0139 197.1394 0.0000 -8.9930 0.0000
# 4 0.0000 0.0000 0.0000 10.4623 0.0000 -22.7112
# 5 -27.9099 -31.9698 -8.9930 0.0000 41.5730 0.0000
# 6 0.0000 0.0000 0.0000 -22.7112 0.0000 33.5892
#
#
#
# Elastic Compliance Matrix: (Units=1/GPa)
#
#
# Indices 1 2 3 4 5 6 
#
# 1 0.014151 -0.001669 -0.000485 0.000000 0.008112 0.000000
# 2 -0.001669 0.006847 -0.002501 0.000000 0.003604 0.000000
# 3 -0.000485 -0.002501 0.006124 0.000000 -0.000924 0.000000
# 4 0.000000 0.000000 0.000000 -0.204342 0.000000 -0.138165
# 5 0.008112 0.003604 -0.000924 0.000000 0.032071 0.000000
# 6 0.000000 0.000000 0.000000 -0.138165 0.000000 -0.063648
#
#
# Mechanical properties :
#
#
# Convention : Reuss Voigt Hill
#
# Bulk Modulus (GPa) = 56.14334 87.91923 72.03128
# Shear Modulus (GPa) = -25.83328 40.12112 7.14392
#
# Velocity S-wave (km/s) = -3.27268 4.07850 1.72100
# Velocity P-wave (km/s) = 2.99939 7.65702 5.81491
#
# Compressibility (1/GPa) = 0.01781155
#
# Stress axis : x y z
#
# Youngs Moduli (GPa) = 70.66604 146.04356 163.28959
#
# Poissons Ratio (x) = 0.24382 0.07911
# Poissons Ratio (y) = 0.11798 0.40846
# Poissons Ratio (z) = 0.03424 0.36532
#
# Static dielectric constant tensor:
#      x y z
#    x 2.008820 0.000000 -0.006540 
#    y 0.000000 1.922950 0.000000 
#    z -0.006540 0.000000 2.021600 
# 
# From -- ./inp_files/15683.got.cif
#   From: 2010.05.17/outbox.cif.g08.bks.cpg/sg4_8_cif.got.tgz:15683.got - 2010.06.03 18:43:04.
