data_PCOD9118777
_publ_section_title
;
Structure prediction by ZEFSAII (Michael W. Deem and Ramdas Pophale) SiO2 
 PCOD9118777
Probable space group: P 21
;
_chemical_formula_sum "Si O2"
_cell_formula_units_Z 14
_cell_length_a 7.831559
_cell_length_b 14.253795
_cell_length_c 4.876976
_cell_angle_alpha 90.000000
_cell_angle_beta 76.876461
_cell_angle_gamma 90.000000
_cell_volume 530.195495
_symmetry_space_group_name_H-M "P 21"
_symmetry_group_IT_number 4
_symmetry_cell_setting 'monoclinic'
loop_
_space_group_symop_operation_xyz
x,y,z
-x,1/2+y,-z
loop_
_atom_site_type_symbol
_atom_site_label
_atom_site_fract_x
_atom_site_fract_y
_atom_site_fract_z
Si Si1 0.643749 0.087170 0.885754
Si Si2 0.627240 0.442703 0.883097
Si Si3 0.212990 0.033591 0.654709
Si Si4 0.885434 0.848835 0.947504
Si Si5 0.730206 0.259350 0.155827
Si Si6 0.868906 0.974850 0.464766
Si Si7 0.402737 0.216810 0.671821
O O1 0.766863 0.155797 0.013687
O O2 0.487257 0.158521 0.888875
O O3 0.561500 0.992306 0.035026
O O4 0.718164 0.051066 0.568255
O O5 0.748765 0.505141 0.045321
O O6 0.680085 0.454956 0.551275
O O7 0.656414 0.337303 0.969771
O O8 0.290519 0.135669 0.561690
O O9 0.026313 0.021950 0.580143
O O10 0.906658 0.936680 0.150764
O O11 0.734745 0.788449 0.147798
O O12 0.074994 0.798331 0.840982
O O13 0.830254 0.883433 0.666870
O O14 0.571086 0.249840 0.433298
#
# Coordination Sequence:
#
# PCOD9118777 Si02
#       7
#     2   2   2   2   2   2   2
#     4  11  28  45  76 111 152 199 256 308 387 453
#     4  11  24  44  73 105 149 194 243 310 373 438
#     4  11  22  49  69 102 150 192 244 307 374 435
#     4  12  29  48  79 111 154 197 258 313 384 449
#     4  12  25  49  78 111 151 207 252 315 378 461
#     4  12  26  51  74 112 151 203 251 317 377 462
#     4  11  28  48  75 114 151 200 252 322 373 462
#
# _framework density 26.405353000000002
#
# number of rings (size 3 to 8) (size 9 to 14) (size 15 to 20)
#    0.000    0.571    4.286    1.714   10.000    0.000 
#    5.143    0.000    0.000    0.000    0.000    0.000 
#    0.000    0.000    0.000    0.000    0.000    0.000 
#
# Total GULP energy -78283.755627 kJ/mol
# GULP energy per Si atom -5591.696830 kJ/mol
# Density = 2.634525 g / cm^3
# Si number density = 26.405353 Si / 1000 Ang^3
#
#
#
# Elastic Constant Matrix: (Units=GPa)
#
#
# Indices 1 2 3 4 5 6 
#
# 1 77.6616 28.2021 8.2198 0.0000 -14.4710 0.0000
# 2 28.2021 105.2643 13.0550 0.0000 -18.1710 0.0000
# 3 8.2198 13.0550 91.4168 0.0000 -6.2880 0.0000
# 4 0.0000 0.0000 0.0000 42.9228 0.0000 -11.7192
# 5 -14.4710 -18.1710 -6.2880 0.0000 44.6564 0.0000
# 6 0.0000 0.0000 0.0000 -11.7192 0.0000 63.1552
#
#
#
# Elastic Compliance Matrix: (Units=1/GPa)
#
#
# Indices 1 2 3 4 5 6 
#
# 1 0.014766 -0.003299 -0.000626 0.000000 0.003354 0.000000
# 2 -0.003299 0.011083 -0.001060 0.000000 0.003292 0.000000
# 3 -0.000626 -0.001060 0.011211 0.000000 0.000945 0.000000
# 4 0.000000 0.000000 0.000000 0.024541 0.000000 0.004554
# 5 0.003354 0.003292 0.000945 0.000000 0.024953 0.000000
# 6 0.000000 0.000000 0.000000 0.004554 0.000000 0.016679
#
#
# Mechanical properties :
#
#
# Convention : Reuss Voigt Hill
#
# Bulk Modulus (GPa) = 36.91269 41.47739 39.19504
# Shear Modulus (GPa) = 40.90537 45.13793 43.02165
#
# Velocity S-wave (km/s) = 3.94017 4.13900 4.04081
# Velocity P-wave (km/s) = 5.89148 6.21159 6.05365
#
# Compressibility (1/GPa) = 0.02709095
#
# Stress axis : x y z
#
# Youngs Moduli (GPa) = 67.72426 90.22432 89.19416
#
# Poissons Ratio (x) = 0.29768 0.05582
# Poissons Ratio (y) = 0.22345 0.09452
# Poissons Ratio (z) = 0.04238 0.09561
#
# Static dielectric constant tensor:
#      x y z
#    x 2.167640 0.000000 -0.031700 
#    y 0.000000 2.105390 0.000000 
#    z -0.031700 0.000000 2.041980 
# 
# From -- ./inp_files/1812.got.cif
#   From: 2010.05.17/outbox.cif.g08.bks.cpg/sg4_1_cif.got.tgz:1812.got - 2010.06.03 18:43:04.
