data_PCOD9118321
_publ_section_title
;
Structure prediction by ZEFSAII (Michael W. Deem and Ramdas Pophale) SiO2 
 PCOD9118321
Probable space group: P 21
;
_chemical_formula_sum "Si O2"
_cell_formula_units_Z 16
_cell_length_a 11.542788
_cell_length_b 9.458470
_cell_length_c 7.677855
_cell_angle_alpha 90.000000
_cell_angle_beta 53.723835
_cell_angle_gamma 90.000000
_cell_volume 675.772582
_symmetry_space_group_name_H-M "P 21"
_symmetry_group_IT_number 4
_symmetry_cell_setting 'monoclinic'
loop_
_space_group_symop_operation_xyz
x,y,z
-x,1/2+y,-z
loop_
_atom_site_type_symbol
_atom_site_label
_atom_site_fract_x
_atom_site_fract_y
_atom_site_fract_z
Si Si1 0.339282 0.405120 0.795046
Si Si2 0.396244 0.595337 0.288307
Si Si3 0.183033 0.214528 0.668320
Si Si4 0.400559 0.037794 0.617172
Si Si5 0.793643 0.432559 0.896176
Si Si6 0.482332 0.857467 0.021288
Si Si7 0.896737 0.988307 0.480197
Si Si8 0.118666 0.609224 0.125237
O O1 0.231663 0.294066 0.801943
O O2 0.480154 0.430895 0.555367
O O3 0.403338 0.380575 0.928344
O O4 0.240575 0.544476 0.895591
O O5 0.499313 0.639668 0.353429
O O6 0.437112 0.694105 0.087853
O O7 0.227572 0.594817 0.475637
O O8 0.438130 0.432361 0.210390
O O9 0.148220 0.333508 0.554179
O O10 0.039125 0.123289 0.816262
O O11 0.319820 0.111727 0.528342
O O12 0.281988 0.977173 0.856030
O O13 0.671171 0.438860 0.855524
O O14 0.836931 0.268428 0.867313
O O15 0.940370 0.515133 0.726162
O O16 0.892567 0.011732 0.691769
#
# Coordination Sequence:
#
# PCOD9118321 Si02
#       8
#     2   2   2   2   2   2   2   2
#     4  12  25  45  74 109 147 190 246 311 377 446
#     4  11  22  44  72 101 153 189 255 302 373 450
#     4  11  27  46  72 108 150 195 245 310 382 447
#     4  11  26  45  71 111 144 193 244 309 386 435
#     4  10  25  46  71 106 148 199 245 303 371 454
#     4  11  22  43  70 111 140 195 243 308 373 443
#     4  11  23  49  68 106 148 202 252 301 372 451
#     4  11  26  48  72 102 150 197 252 302 376 450
#
# _framework density 23.676606
#
# number of rings (size 3 to 8) (size 9 to 14) (size 15 to 20)
#    0.000    1.000    5.000    0.000    7.000    1.000 
#   11.250    1.250    0.000    0.000    0.000    0.000 
#    0.000    0.000    0.000    0.000    0.000    0.000 
#
# Total GULP energy -89243.249640 kJ/mol
# GULP energy per Si atom -5577.703102 kJ/mol
# Density = 2.362272 g / cm^3
# Si number density = 23.676606 Si / 1000 Ang^3
#
#
#
# Elastic Constant Matrix: (Units=GPa)
#
#
# Indices 1 2 3 4 5 6 
#
# 1 170.3914 44.0631 41.6507 0.0000 -35.1271 0.0000
# 2 44.0631 68.6025 37.9855 0.0000 -8.6317 0.0000
# 3 41.6507 37.9855 111.7458 0.0000 -31.9721 0.0000
# 4 0.0000 0.0000 0.0000 19.5505 0.0000 10.2483
# 5 -35.1271 -8.6317 -31.9721 0.0000 44.7099 0.0000
# 6 0.0000 0.0000 0.0000 10.2483 0.0000 39.3160
#
#
#
# Elastic Compliance Matrix: (Units=1/GPa)
#
#
# Indices 1 2 3 4 5 6 
#
# 1 0.008196 -0.004628 0.000132 0.000000 0.005640 0.000000
# 2 -0.004628 0.020615 -0.006518 0.000000 -0.004317 0.000000
# 3 0.000132 -0.006518 0.013559 0.000000 0.008542 0.000000
# 4 0.000000 0.000000 0.000000 0.059245 0.000000 -0.015443
# 5 0.005640 -0.004317 0.008542 0.000000 0.032072 0.000000
# 6 0.000000 0.000000 0.000000 -0.015443 0.000000 0.029460
#
#
# Mechanical properties :
#
#
# Convention : Reuss Voigt Hill
#
# Bulk Modulus (GPa) = 49.15695 66.45981 57.80838
# Shear Modulus (GPa) = 26.04766 35.85132 30.94949
#
# Velocity S-wave (km/s) = 3.32044 3.89550 3.61941
# Velocity P-wave (km/s) = 5.95880 6.95443 6.47578
#
# Compressibility (1/GPa) = 0.02034301
#
# Stress axis : x y z
#
# Youngs Moduli (GPa) = 122.00941 48.50865 73.75108
#
# Poissons Ratio (x) = 0.22448 -0.00973
# Poissons Ratio (y) = 0.56462 0.48069
# Poissons Ratio (z) = -0.01610 0.31617
#
# Static dielectric constant tensor:
#      x y z
#    x 1.932510 0.000000 0.005870 
#    y 0.000000 1.975860 0.000000 
#    z 0.005870 0.000000 1.915230 
# 
# From -- ./inp_files/8003.got.cif
#   From: 2010.05.17/outbox.cif.g08.bks.cpg/sg4_5_cif.got.tgz:8003.got - 2010.06.03 18:43:04.
