data_PCOD9118526
_publ_section_title
;
Structure prediction by ZEFSAII (Michael W. Deem and Ramdas Pophale) SiO2 
 PCOD9118526
Probable space group: P 21
;
_chemical_formula_sum "Si O2"
_cell_formula_units_Z 16
_cell_length_a 9.780931
_cell_length_b 7.849256
_cell_length_c 11.520456
_cell_angle_alpha 90.000000
_cell_angle_beta 60.289110
_cell_angle_gamma 90.000000
_cell_volume 768.186812
_symmetry_space_group_name_H-M "P 21"
_symmetry_group_IT_number 4
_symmetry_cell_setting 'monoclinic'
loop_
_space_group_symop_operation_xyz
x,y,z
-x,1/2+y,-z
loop_
_atom_site_type_symbol
_atom_site_label
_atom_site_fract_x
_atom_site_fract_y
_atom_site_fract_z
Si Si1 0.561377 0.438920 0.018956
Si Si2 0.097749 0.073804 0.133583
Si Si3 0.419483 0.574517 0.310454
Si Si4 0.329239 0.248068 0.666928
Si Si5 0.195380 0.588856 0.599583
Si Si6 0.906581 0.833063 0.059828
Si Si7 0.464093 0.728057 0.623757
Si Si8 0.625722 0.070855 0.103320
O O1 0.451101 0.525270 0.164595
O O2 0.617218 0.252735 0.039335
O O3 0.716578 0.552831 0.929857
O O4 0.462961 0.438756 0.942422
O O5 0.988551 0.087856 0.293336
O O6 0.053258 0.234459 0.073029
O O7 0.043179 0.912476 0.079341
O O8 0.521568 0.735801 0.309316
O O9 0.248285 0.588245 0.442828
O O10 0.497668 0.415253 0.345969
O O11 0.265332 0.423205 0.637824
O O12 0.188823 0.203141 0.814533
O O13 0.401094 0.163184 0.521080
O O14 0.299455 0.730374 0.622746
O O15 0.791913 0.988053 0.069236
O O16 0.455030 0.612982 0.740686
#
# Coordination Sequence:
#
# PCOD9118526 Si02
#       8
#     2   2   2   2   2   2   2   2
#     4  11  23  36  59  84 115 157 198 238 285 348
#     4  11  21  34  56  87 117 155 186 245 297 339
#     4   9  18  32  52  83 109 149 193 230 276 342
#     4   9  16  30  54  82 109 143 187 232 280 330
#     4   9  18  32  54  80 114 147 180 241 285 333
#     4  11  21  35  57  86 122 150 194 243 296 343
#     4   9  17  32  53  83 109 146 185 239 275 334
#     4  11  22  39  57  85 117 157 199 240 282 353
#
# _framework density 20.828267
#
# number of rings (size 3 to 8) (size 9 to 14) (size 15 to 20)
#    0.000    2.000    3.750    1.500    1.750    0.000 
#    0.000    0.000    0.000    9.000    0.000    0.000 
#    0.000    0.000    0.000    0.000    0.000    0.000 
#
# Total GULP energy -89078.655757 kJ/mol
# GULP energy per Si atom -5567.415985 kJ/mol
# Density = 2.078086 g / cm^3
# Si number density = 20.828267 Si / 1000 Ang^3
#
#
#
# Elastic Constant Matrix: (Units=GPa)
#
#
# Indices 1 2 3 4 5 6 
#
# 1 53.3756 -2.5967 36.7001 0.0000 4.5723 0.0000
# 2 -2.5967 50.1286 26.7519 0.0000 -3.5389 0.0000
# 3 36.7001 26.7519 129.7913 0.0000 -5.2172 0.0000
# 4 0.0000 0.0000 0.0000 26.6640 0.0000 -4.1155
# 5 4.5723 -3.5389 -5.2172 0.0000 22.4603 0.0000
# 6 0.0000 0.0000 0.0000 -4.1155 0.0000 16.2488
#
#
#
# Elastic Compliance Matrix: (Units=1/GPa)
#
#
# Indices 1 2 3 4 5 6 
#
# 1 0.025430 0.005443 -0.008566 0.000000 -0.006309 0.000000
# 2 0.005443 0.023717 -0.006382 0.000000 0.001147 0.000000
# 3 -0.008566 -0.006382 0.011580 0.000000 0.003428 0.000000
# 4 0.000000 0.000000 0.000000 0.039030 0.000000 0.009885
# 5 -0.006309 0.001147 0.003428 0.000000 0.046784 0.000000
# 6 0.000000 0.000000 0.000000 0.009885 0.000000 0.064047
#
#
# Mechanical properties :
#
#
# Convention : Reuss Voigt Hill
#
# Bulk Modulus (GPa) = 23.97002 39.44514 31.70758
# Shear Modulus (GPa) = 20.53356 24.57063 22.55210
#
# Velocity S-wave (km/s) = 3.14323 3.43837 3.29411
# Velocity P-wave (km/s) = 4.97057 5.89428 5.45203
#
# Compressibility (1/GPa) = 0.04171878
#
# Stress axis : x y z
#
# Youngs Moduli (GPa) = 39.32289 42.16346 86.35531
#
# Poissons Ratio (x) = -0.22952 0.73975
# Poissons Ratio (y) = -0.21405 0.55108
# Poissons Ratio (z) = 0.33685 0.26907
#
# Static dielectric constant tensor:
#      x y z
#    x 1.696720 0.000000 -0.043090 
#    y 0.000000 1.849060 0.000000 
#    z -0.043090 0.000000 1.804600 
# 
# From -- ./inp_files/7675.got.cif
#   From: 2010.05.17/outbox.cif.g08.bks.cpg/sg4_4_cif.got.tgz:7675.got - 2010.06.03 18:43:04.
