data_PCOD9118330
_publ_section_title
;
Structure prediction by ZEFSAII (Michael W. Deem and Ramdas Pophale) SiO2 
 PCOD9118330
Probable space group: P 21
;
_chemical_formula_sum "Si O2"
_cell_formula_units_Z 16
_cell_length_a 13.318891
_cell_length_b 5.025264
_cell_length_c 17.508084
_cell_angle_alpha 90.000000
_cell_angle_beta 148.780198
_cell_angle_gamma 90.000000
_cell_volume 607.387311
_symmetry_space_group_name_H-M "P 21"
_symmetry_group_IT_number 4
_symmetry_cell_setting 'monoclinic'
loop_
_space_group_symop_operation_xyz
x,y,z
-x,1/2+y,-z
loop_
_atom_site_type_symbol
_atom_site_label
_atom_site_fract_x
_atom_site_fract_y
_atom_site_fract_z
Si Si1 0.570199 0.268370 0.000234
Si Si2 0.240132 0.881878 0.379866
Si Si3 0.393849 0.591228 0.621029
Si Si4 0.578990 0.195060 0.657703
Si Si5 0.940097 0.867436 0.912904
Si Si6 0.471141 0.903032 0.810449
Si Si7 0.139269 0.098223 0.892153
Si Si8 0.879296 0.070763 0.429207
O O1 0.551075 0.989681 0.032654
O O2 0.779253 0.399098 0.119608
O O3 0.670509 0.751049 0.955442
O O4 0.487280 0.184666 0.862338
O O5 0.359702 0.130910 0.489152
O O6 0.322005 0.664265 0.491349
O O7 0.315266 0.840936 0.343366
O O8 0.012856 0.823932 0.232489
O O9 0.567336 0.385017 0.723474
O O10 0.436786 0.857521 0.698177
O O11 0.223372 0.466178 0.560826
O O12 0.712796 0.935624 0.755604
O O13 0.040759 0.934369 0.897415
O O14 0.011455 0.079775 0.022903
O O15 0.287752 0.735939 0.723904
O O16 0.025620 0.311689 0.545556
#
# Coordination Sequence:
#
# PCOD9118330 Si02
#       8
#     2   2   2   2   2   2   2   2
#     4  12  27  53  81 120 163 213 268 351 422 488
#     4  11  25  47  78 114 169 221 269 327 413 500
#     4  10  25  46  78 116 156 217 263 345 396 484
#     4  11  24  46  81 116 171 223 275 332 418 493
#     4  11  28  46  80 125 168 213 278 342 410 486
#     4  10  26  48  84 113 164 205 284 337 411 475
#     4  11  27  50  77 127 164 217 278 333 413 497
#     4  10  26  48  75 115 155 203 269 331 407 477
#
# _framework density 26.342337000000001
#
# number of rings (size 3 to 8) (size 9 to 14) (size 15 to 20)
#    0.750    0.500    2.500    0.750    8.750    3.000 
#    2.250    0.000    0.000    0.000    0.000    0.000 
#    0.000    0.000    0.000    0.000    0.000    0.000 
#
# Total GULP energy -89518.145258 kJ/mol
# GULP energy per Si atom -5594.884079 kJ/mol
# Density = 2.628238 g / cm^3
# Si number density = 26.342337 Si / 1000 Ang^3
#
#
#
# Elastic Constant Matrix: (Units=GPa)
#
#
# Indices 1 2 3 4 5 6 
#
# 1 147.1941 45.8683 35.8838 0.0000 17.2950 0.0000
# 2 45.8683 125.1345 41.1804 0.0000 8.3948 0.0000
# 3 35.8838 41.1804 106.4806 0.0000 20.8853 0.0000
# 4 0.0000 0.0000 0.0000 46.9368 0.0000 -3.4507
# 5 17.2950 8.3948 20.8853 0.0000 36.0204 0.0000
# 6 0.0000 0.0000 0.0000 -3.4507 0.0000 41.9309
#
#
#
# Elastic Compliance Matrix: (Units=1/GPa)
#
#
# Indices 1 2 3 4 5 6 
#
# 1 0.008164 -0.002384 -0.001319 0.000000 -0.002599 0.000000
# 2 -0.002384 0.009853 -0.003138 0.000000 0.000668 0.000000
# 3 -0.001319 -0.003138 0.012166 0.000000 -0.005689 0.000000
# 4 0.000000 0.000000 0.000000 0.021435 0.000000 0.001764
# 5 -0.002599 0.000668 -0.005689 0.000000 0.032153 0.000000
# 6 0.000000 0.000000 0.000000 0.001764 0.000000 0.023994
#
#
# Mechanical properties :
#
#
# Convention : Reuss Voigt Hill
#
# Bulk Modulus (GPa) = 60.60850 69.40826 65.00838
# Shear Modulus (GPa) = 39.38652 42.03606 40.71129
#
# Velocity S-wave (km/s) = 3.87095 3.99903 3.93551
# Velocity P-wave (km/s) = 6.56026 6.90860 6.73668
#
# Compressibility (1/GPa) = 0.01649934
#
# Stress axis : x y z
#
# Youngs Moduli (GPa) = 122.49431 101.49017 82.19924
#
# Poissons Ratio (x) = 0.24194 0.10845
# Poissons Ratio (y) = 0.29201 0.25796
# Poissons Ratio (z) = 0.16162 0.31850
#
# Static dielectric constant tensor:
#      x y z
#    x 2.083470 0.000000 0.009360 
#    y 0.000000 2.051040 0.000000 
#    z 0.009360 0.000000 2.105000 
# 
# From -- ./inp_files/13865.got.cif
#   From: 2010.05.17/outbox.cif.g08.bks.cpg/sg4_7_cif.got.tgz:13865.got - 2010.06.03 18:43:04.
