data_PCOD9118835
_publ_section_title
;
Structure prediction by ZEFSAII (Michael W. Deem and Ramdas Pophale) SiO2 
 PCOD9118835
Probable space group: P 21
;
_chemical_formula_sum "Si O2"
_cell_formula_units_Z 16
_cell_length_a 6.056572
_cell_length_b 8.077675
_cell_length_c 13.066124
_cell_angle_alpha 90.000000
_cell_angle_beta 90.000019
_cell_angle_gamma 90.000000
_cell_volume 639.234249
_symmetry_space_group_name_H-M "P 21"
_symmetry_group_IT_number 4
_symmetry_cell_setting 'monoclinic'
loop_
_space_group_symop_operation_xyz
x,y,z
-x,1/2+y,-z
loop_
_atom_site_type_symbol
_atom_site_label
_atom_site_fract_x
_atom_site_fract_y
_atom_site_fract_z
Si Si1 0.105395 0.323560 0.412135
Si Si2 0.307421 0.669668 0.024571
Si Si3 0.192579 0.308049 0.024573
Si Si4 0.298783 0.171826 0.223924
Si Si5 0.678804 0.183172 0.354448
Si Si6 0.394608 0.654150 0.412130
Si Si7 0.821193 0.794546 0.354443
Si Si8 0.798782 0.305891 0.776079
O O1 0.211465 0.183592 0.340132
O O2 0.250003 0.488853 0.401865
O O3 0.075843 0.279407 0.530897
O O4 0.866134 0.321222 0.362583
O O5 0.249999 0.488858 0.983731
O O6 0.313911 0.679334 0.148127
O O7 0.563670 0.715329 0.993522
O O8 0.063671 0.762388 0.006475
O O9 0.186087 0.298381 0.148130
O O10 0.551933 0.207732 0.248243
O O11 0.250007 0.988858 0.184572
O O12 0.575833 0.198303 0.469108
O O13 0.749998 0.988859 0.352059
O O14 0.633862 0.656496 0.362572
O O15 0.288523 0.794117 0.340131
O O16 0.948063 0.769992 0.248236
#
# Coordination Sequence:
#
# PCOD9118835 Si02
#       8
#     2   2   2   2   2   2   2   2
#     4  11  24  42  65 105 149 201 256 313 371 443
#     4  12  29  56  85 120 155 202 260 331 398 474
#     4  12  29  56  85 120 155 202 260 331 398 474
#     4  12  25  44  75 107 148 201 253 313 388 457
#     4  11  23  42  69 103 155 201 255 311 380 456
#     4  11  24  42  65 105 149 201 256 313 371 443
#     4  11  23  42  69 103 155 201 255 311 380 456
#     4  12  25  44  75 107 148 201 253 313 388 457
#
# _framework density 25.029947
#
# number of rings (size 3 to 8) (size 9 to 14) (size 15 to 20)
#    0.000    0.500    5.000    3.000    3.500    2.000 
#    4.500    0.000    0.000    0.000    0.000    0.000 
#    0.000    0.000    0.000    0.000    0.000    0.000 
#
# Total GULP energy -89085.334698 kJ/mol
# GULP energy per Si atom -5567.833419 kJ/mol
# Density = 2.497298 g / cm^3
# Si number density = 25.029947 Si / 1000 Ang^3
#
#
#
# Elastic Constant Matrix: (Units=GPa)
#
#
# Indices 1 2 3 4 5 6 
#
# 1 124.4583 40.2058 26.2066 0.0000 -0.0012 0.0000
# 2 40.2058 83.9422 -10.4144 0.0000 -0.0008 0.0000
# 3 26.2066 -10.4144 77.2145 0.0000 -0.0013 0.0000
# 4 0.0000 0.0000 0.0000 104.9384 0.0000 -0.0183
# 5 -0.0012 -0.0008 -0.0013 0.0000 20.4618 0.0000
# 6 0.0000 0.0000 0.0000 -0.0183 0.0000 39.4707
#
#
#
# Elastic Compliance Matrix: (Units=1/GPa)
#
#
# Indices 1 2 3 4 5 6 
#
# 1 0.010824 -0.005736 -0.004448 0.000000 0.000000 0.000000
# 2 -0.005736 0.015156 0.003991 0.000000 0.000000 0.000000
# 3 -0.004448 0.003991 0.014999 0.000000 0.000001 0.000000
# 4 0.000000 0.000000 0.000000 0.009529 0.000000 0.000004
# 5 0.000000 0.000000 0.000001 0.000000 0.048872 0.000000
# 6 0.000000 0.000000 0.000000 0.000004 0.000000 0.025335
#
#
# Mechanical properties :
#
#
# Convention : Reuss Voigt Hill
#
# Bulk Modulus (GPa) = 34.97341 44.17902 39.57621
# Shear Modulus (GPa) = 34.09902 48.28196 41.19049
#
# Velocity S-wave (km/s) = 3.69498 4.39677 4.06106
# Velocity P-wave (km/s) = 5.67510 6.59274 6.15106
#
# Compressibility (1/GPa) = 0.02859315
#
# Stress axis : x y z
#
# Youngs Moduli (GPa) = 92.38371 65.98203 66.67239
#
# Poissons Ratio (x) = 0.37850 0.29653
# Poissons Ratio (y) = 0.52995 -0.26609
# Poissons Ratio (z) = 0.41088 -0.26334
#
# Static dielectric constant tensor:
#      x y z
#    x 2.761090 0.000000 0.000020 
#    y 0.000000 1.989230 0.000000 
#    z 0.000020 0.000000 1.969980 
# 
# From -- ./inp_files/13261.got.cif
#   From: 2010.05.17/outbox.cif.g08.bks.cpg/sg4_7_cif.got.tgz:13261.got - 2010.06.03 18:43:04.
