data_PCOD9118687
_publ_section_title
;
Structure prediction by ZEFSAII (Michael W. Deem and Ramdas Pophale) SiO2 
 PCOD9118687
Probable space group: P 21
;
_chemical_formula_sum "Si O2"
_cell_formula_units_Z 14
_cell_length_a 5.627779
_cell_length_b 13.534067
_cell_length_c 9.577928
_cell_angle_alpha 90.000000
_cell_angle_beta 113.341636
_cell_angle_gamma 90.000000
_cell_volume 669.814707
_symmetry_space_group_name_H-M "P 21"
_symmetry_group_IT_number 4
_symmetry_cell_setting 'monoclinic'
loop_
_space_group_symop_operation_xyz
x,y,z
-x,1/2+y,-z
loop_
_atom_site_type_symbol
_atom_site_label
_atom_site_fract_x
_atom_site_fract_y
_atom_site_fract_z
Si Si1 0.218607 0.488270 0.412938
Si Si2 0.607050 0.324450 0.892673
Si Si3 0.475244 0.652198 0.333593
Si Si4 0.970009 0.910287 0.231025
Si Si5 0.637909 0.328741 0.488275
Si Si6 0.825464 0.314376 0.251747
Si Si7 0.011278 0.102836 0.396635
O O1 0.269948 0.564256 0.298342
O O2 0.195960 0.554910 0.546149
O O3 0.460348 0.417252 0.496967
O O4 0.992456 0.412694 0.319214
O O5 0.533198 0.218648 0.806013
O O6 0.334833 0.383948 0.849341
O O7 0.831883 0.371221 0.843450
O O8 0.729495 0.310914 0.072860
O O9 0.424169 0.730279 0.444894
O O10 0.745176 0.604543 0.441627
O O11 0.071512 0.856411 0.396963
O O12 0.019904 0.025821 0.271367
O O13 0.599857 0.319830 0.315007
O O14 0.966423 0.212834 0.330046
#
# Coordination Sequence:
#
# PCOD9118687 Si02
#       7
#     2   2   2   2   2   2   2
#     4  12  23  42  74 107 138 187 246 303 345 419
#     4  11  29  47  71 107 159 186 227 301 376 426
#     4  11  23  42  74 103 138 189 242 301 348 425
#     4  11  24  48  72 104 143 195 240 293 356 427
#     4  11  22  42  74  99 139 185 253 291 345 424
#     4  12  26  45  70 106 148 187 235 300 363 433
#     4  12  23  42  77 104 135 191 257 293 343 428
#
# _framework density 20.901302999999999
#
# number of rings (size 3 to 8) (size 9 to 14) (size 15 to 20)
#    0.000    0.571    5.714    2.571    4.000    1.143 
#    2.571    0.000    0.000    0.000    0.000    0.000 
#    0.000    0.000    0.000    0.000    0.000    0.000 
#
# Total GULP energy -78115.385993 kJ/mol
# GULP energy per Si atom -5579.670428 kJ/mol
# Density = 2.085373 g / cm^3
# Si number density = 20.901303 Si / 1000 Ang^3
#
#
#
# Elastic Constant Matrix: (Units=GPa)
#
#
# Indices 1 2 3 4 5 6 
#
# 1 73.7750 30.0427 42.4095 0.0000 -3.3307 0.0000
# 2 30.0427 115.9361 35.3492 0.0000 -4.2033 0.0000
# 3 42.4095 35.3492 133.3914 0.0000 -14.8094 0.0000
# 4 0.0000 0.0000 0.0000 15.8790 0.0000 9.5073
# 5 -3.3307 -4.2033 -14.8094 0.0000 22.1993 0.0000
# 6 0.0000 0.0000 0.0000 9.5073 0.0000 39.5348
#
#
#
# Elastic Compliance Matrix: (Units=1/GPa)
#
#
# Indices 1 2 3 4 5 6 
#
# 1 0.017583 -0.003106 -0.004903 0.000000 -0.001221 0.000000
# 2 -0.003106 0.009933 -0.001607 0.000000 0.000343 0.000000
# 3 -0.004903 -0.001607 0.010115 0.000000 0.005708 0.000000
# 4 0.000000 0.000000 0.000000 0.073569 0.000000 -0.017692
# 5 -0.001221 0.000343 0.005708 0.000000 0.048736 0.000000
# 6 0.000000 0.000000 0.000000 -0.017692 0.000000 0.029549
#
#
# Mechanical properties :
#
#
# Convention : Reuss Voigt Hill
#
# Bulk Modulus (GPa) = 54.34735 59.85613 57.10174
# Shear Modulus (GPa) = 23.27235 29.87601 26.57418
#
# Velocity S-wave (km/s) = 3.34044 3.78482 3.56956
# Velocity P-wave (km/s) = 6.39816 6.91372 6.66093
#
# Compressibility (1/GPa) = 0.01840016
#
# Stress axis : x y z
#
# Youngs Moduli (GPa) = 56.87457 100.67932 98.86381
#
# Poissons Ratio (x) = 0.31267 0.48469
# Poissons Ratio (y) = 0.17663 0.15885
# Poissons Ratio (z) = 0.27883 0.16176
#
# Static dielectric constant tensor:
#      x y z
#    x 1.894300 0.000000 -0.000830 
#    y 0.000000 1.769840 0.000000 
#    z -0.000830 0.000000 1.715820 
# 
# From -- ./inp_files/4802.got.cif
#   From: 2010.05.17/outbox.cif.g08.bks.cpg/sg4_3_cif.got.tgz:4802.got - 2010.06.03 18:43:04.
