data_PCOD9118571
_publ_section_title
;
Structure prediction by ZEFSAII (Michael W. Deem and Ramdas Pophale) SiO2 
 PCOD9118571
Probable space group: P 21
;
_chemical_formula_sum "Si O2"
_cell_formula_units_Z 16
_cell_length_a 13.642850
_cell_length_b 10.722072
_cell_length_c 13.673210
_cell_angle_alpha 90.000000
_cell_angle_beta 20.521039
_cell_angle_gamma 90.000000
_cell_volume 701.141856
_symmetry_space_group_name_H-M "P 21"
_symmetry_group_IT_number 4
_symmetry_cell_setting 'monoclinic'
loop_
_space_group_symop_operation_xyz
x,y,z
-x,1/2+y,-z
loop_
_atom_site_type_symbol
_atom_site_label
_atom_site_fract_x
_atom_site_fract_y
_atom_site_fract_z
Si Si1 0.332428 0.400740 0.882690
Si Si2 0.363698 0.904860 0.769567
Si Si3 0.203357 0.547520 0.355011
Si Si4 0.783026 0.673639 0.867865
Si Si5 0.258462 0.621923 0.091538
Si Si6 0.782738 0.323486 0.302393
Si Si7 0.133450 0.560549 0.715739
Si Si8 0.276498 0.290051 0.392760
O O1 0.279767 0.304778 0.021841
O O2 0.590394 0.351351 0.576994
O O3 0.352141 0.535966 0.913456
O O4 0.065200 0.398801 0.060720
O O5 0.376004 0.856484 0.648019
O O6 0.521279 0.825091 0.704537
O O7 0.543665 0.031661 0.603496
O O8 0.041160 0.939210 0.090074
O O9 0.499045 0.599636 0.115705
O O10 0.210611 0.536968 0.231562
O O11 0.161137 0.414856 0.448062
O O12 0.974573 0.654013 0.593776
O O13 0.978689 0.604284 0.763455
O O14 0.978147 0.702006 0.336878
O O15 0.510403 0.717337 0.877054
O O16 0.875465 0.179571 0.206562
#
# Coordination Sequence:
#
# PCOD9118571 Si02
#       8
#     2   2   2   2   2   2   2   2
#     4  11  25  47  66 104 144 184 237 289 360 412
#     4  12  24  43  72 100 140 183 236 297 352 423
#     4  12  25  44  73 101 133 182 239 287 351 424
#     4  11  21  44  72  96 131 180 237 304 323 417
#     4  12  29  44  71 103 150 187 222 299 365 428
#     4  11  25  43  71 102 141 189 242 285 358 425
#     4  11  21  42  67 102 133 181 239 295 347 407
#     4  12  26  49  68 106 142 180 238 292 362 418
#
# _framework density 22.819917
#
# number of rings (size 3 to 8) (size 9 to 14) (size 15 to 20)
#    0.000    0.500    2.500    6.750    3.500    3.000 
#    0.000    1.250    0.000    0.000    0.000    0.000 
#    0.000    0.000    0.000    0.000    0.000    0.000 
#
# Total GULP energy -89459.725897 kJ/mol
# GULP energy per Si atom -5591.232869 kJ/mol
# Density = 2.276798 g / cm^3
# Si number density = 22.819917 Si / 1000 Ang^3
#
#
#
# Elastic Constant Matrix: (Units=GPa)
#
#
# Indices 1 2 3 4 5 6 
#
# 1 84.4900 27.9885 0.6955 0.0000 -5.2181 0.0000
# 2 27.9885 76.0968 6.3269 0.0000 -1.0569 0.0000
# 3 0.6955 6.3269 87.3355 0.0000 -10.1805 0.0000
# 4 0.0000 0.0000 0.0000 31.3618 0.0000 -4.9420
# 5 -5.2181 -1.0569 -10.1805 0.0000 34.8499 0.0000
# 6 0.0000 0.0000 0.0000 -4.9420 0.0000 12.8750
#
#
#
# Elastic Compliance Matrix: (Units=1/GPa)
#
#
# Indices 1 2 3 4 5 6 
#
# 1 0.013621 -0.005022 0.000492 0.000000 0.002031 0.000000
# 2 -0.005022 0.015073 -0.001125 0.000000 -0.000623 0.000000
# 3 0.000492 -0.001125 0.011939 0.000000 0.003527 0.000000
# 4 0.000000 0.000000 0.000000 0.033939 0.000000 0.013027
# 5 0.002031 -0.000623 0.003527 0.000000 0.030010 0.000000
# 6 0.000000 0.000000 0.000000 0.013027 0.000000 0.082670
#
#
# Mechanical properties :
#
#
# Convention : Reuss Voigt Hill
#
# Bulk Modulus (GPa) = 34.10300 35.32714 34.71507
# Shear Modulus (GPa) = 23.99967 30.01143 27.00555
#
# Velocity S-wave (km/s) = 3.24651 3.63042 3.44382
# Velocity P-wave (km/s) = 5.38794 5.75219 5.57304
#
# Compressibility (1/GPa) = 0.02932294
#
# Stress axis : x y z
#
# Youngs Moduli (GPa) = 73.41676 66.34255 83.76045
#
# Poissons Ratio (x) = 0.33320 -0.04122
# Poissons Ratio (y) = 0.36873 0.09420
# Poissons Ratio (z) = -0.03613 0.07461
#
# Static dielectric constant tensor:
#      x y z
#    x 1.867940 0.000000 0.066100 
#    y 0.000000 1.874890 0.000000 
#    z 0.066100 0.000000 1.854510 
# 
# From -- ./inp_files/12247.got.cif
#   From: 2010.05.17/outbox.cif.g08.bks.cpg/sg4_7_cif.got.tgz:12247.got - 2010.06.03 18:43:04.
