data_PCOD9118074
_publ_section_title
;
Structure prediction by ZEFSAII (Michael W. Deem and Ramdas Pophale) SiO2 
 PCOD9118074
Probable space group: P 21
;
_chemical_formula_sum "Si O2"
_cell_formula_units_Z 14
_cell_length_a 18.689925
_cell_length_b 5.041249
_cell_length_c 12.425801
_cell_angle_alpha 90.000000
_cell_angle_beta 148.438228
_cell_angle_gamma 90.000000
_cell_volume 612.799428
_symmetry_space_group_name_H-M "P 21"
_symmetry_group_IT_number 4
_symmetry_cell_setting 'monoclinic'
loop_
_space_group_symop_operation_xyz
x,y,z
-x,1/2+y,-z
loop_
_atom_site_type_symbol
_atom_site_label
_atom_site_fract_x
_atom_site_fract_y
_atom_site_fract_z
Si Si1 0.411257 0.966630 0.907871
Si Si2 0.872448 0.112691 0.244570
Si Si3 0.840419 0.977318 0.865158
Si Si4 0.304395 0.109073 0.006795
Si Si5 0.528804 0.132089 0.473260
Si Si6 0.016560 0.978753 0.872758
Si Si7 0.878262 0.265536 0.498165
O O1 0.272953 0.874698 0.671124
O O2 0.508214 0.709902 0.042107
O O3 0.362554 0.064825 0.962095
O O4 0.874203 0.117376 0.377450
O O5 0.818111 0.397440 0.137786
O O6 0.017542 0.007847 0.390010
O O7 0.760349 0.898083 0.065684
O O8 0.684527 0.056069 0.650520
O O9 0.915721 0.985873 0.846682
O O10 0.916428 0.189623 0.039119
O O11 0.864180 0.690804 0.948047
O O12 0.425665 0.068518 0.245160
O O13 0.516150 0.440336 0.486833
O O14 0.933557 0.081516 0.663963
#
# Coordination Sequence:
#
# PCOD9118074 Si02
#       7
#     2   2   2   2   2   2   2
#     4  11  25  44  68 101 139 175 224 269 345 422
#     4  11  25  44  71 104 138 173 238 276 338 412
#     4  10  24  47  64 107 128 178 232 280 326 417
#     4  11  26  47  68 101 143 177 222 294 331 402
#     4  12  27  45  73 100 137 185 227 276 352 402
#     4  10  24  44  74  93 139 173 229 283 337 386
#     4  11  25  45  72 102 134 187 218 288 341 403
#
# _framework density 22.845973000000001
#
# number of rings (size 3 to 8) (size 9 to 14) (size 15 to 20)
#    0.000    1.143    0.000    5.143    8.000    5.714 
#    5.143    0.000    0.000    0.000    0.000    0.000 
#    0.000    0.000    0.000    0.000    0.000    0.000 
#
# Total GULP energy -78502.155525 kJ/mol
# GULP energy per Si atom -5607.296823 kJ/mol
# Density = 2.279397 g / cm^3
# Si number density = 22.845973 Si / 1000 Ang^3
#
#
#
# Elastic Constant Matrix: (Units=GPa)
#
#
# Indices 1 2 3 4 5 6 
#
# 1 48.4881 9.3455 25.3330 0.0000 11.8861 0.0000
# 2 9.3455 85.4028 -0.6931 0.0000 10.3464 0.0000
# 3 25.3330 -0.6931 111.1468 0.0000 10.8620 0.0000
# 4 0.0000 0.0000 0.0000 29.5888 0.0000 2.2967
# 5 11.8861 10.3464 10.8620 0.0000 47.5990 0.0000
# 6 0.0000 0.0000 0.0000 2.2967 0.0000 34.4696
#
#
#
# Elastic Compliance Matrix: (Units=1/GPa)
#
#
# Indices 1 2 3 4 5 6 
#
# 1 0.024905 -0.002218 -0.005247 0.000000 -0.004540 0.000000
# 2 -0.002218 0.012236 0.000806 0.000000 -0.002290 0.000000
# 3 -0.005247 0.000806 0.010317 0.000000 -0.001219 0.000000
# 4 0.000000 0.000000 0.000000 0.033972 0.000000 -0.002264
# 5 -0.004540 -0.002290 -0.001219 0.000000 0.022918 0.000000
# 6 0.000000 0.000000 0.000000 -0.002264 0.000000 0.029162
#
#
# Mechanical properties :
#
#
# Convention : Reuss Voigt Hill
#
# Bulk Modulus (GPa) = 29.29108 34.77873 32.03490
# Shear Modulus (GPa) = 31.60385 36.40165 34.00275
#
# Velocity S-wave (km/s) = 3.72337 3.99601 3.86210
# Velocity P-wave (km/s) = 5.59764 6.04541 5.82583
#
# Compressibility (1/GPa) = 0.03414009
#
# Stress axis : x y z
#
# Youngs Moduli (GPa) = 40.15243 81.72708 96.92622
#
# Poissons Ratio (x) = 0.18127 0.50854
# Poissons Ratio (y) = 0.08906 -0.07808
# Poissons Ratio (z) = 0.21067 -0.06584
#
# Static dielectric constant tensor:
#      x y z
#    x 1.873300 0.000000 -0.004310 
#    y 0.000000 1.825260 0.000000 
#    z -0.004310 0.000000 1.804050 
# 
# From -- ./inp_files/7091.got.cif
#   From: 2010.05.17/outbox.cif.g08.bks.cpg/sg4_4_cif.got.tgz:7091.got - 2010.06.03 18:43:04.
