data_PCOD9118889
_publ_section_title
;
Structure prediction by ZEFSAII (Michael W. Deem and Ramdas Pophale) SiO2 
 PCOD9118889
Probable space group: P 21
;
_chemical_formula_sum "Si O2"
_cell_formula_units_Z 12
_cell_length_a 9.221371
_cell_length_b 5.206259
_cell_length_c 17.890004
_cell_angle_alpha 90.000000
_cell_angle_beta 38.052527
_cell_angle_gamma 90.000000
_cell_volume 529.398621
_symmetry_space_group_name_H-M "P 21"
_symmetry_group_IT_number 4
_symmetry_cell_setting 'monoclinic'
loop_
_space_group_symop_operation_xyz
x,y,z
-x,1/2+y,-z
loop_
_atom_site_type_symbol
_atom_site_label
_atom_site_fract_x
_atom_site_fract_y
_atom_site_fract_z
Si Si1 0.672885 0.421800 0.709165
Si Si2 0.147499 0.379938 0.961314
Si Si3 0.645180 0.941168 0.452634
Si Si4 0.955370 0.125924 0.713709
Si Si5 0.342882 0.332642 0.049932
Si Si6 0.091485 0.752587 0.537466
O O1 0.394458 0.432381 0.818650
O O2 0.750302 0.277685 0.753710
O O3 0.795889 0.289369 0.588348
O O4 0.813878 0.689466 0.650842
O O5 0.222807 0.341380 0.017331
O O6 0.020705 0.124706 0.982311
O O7 0.460233 0.708579 0.534545
O O8 0.864998 0.819200 0.318189
O O9 0.766112 0.024463 0.481060
O O10 0.850360 0.913231 0.810258
O O11 0.105585 0.991571 0.587165
O O12 0.462752 0.060461 0.020002
#
# Coordination Sequence:
#
# PCOD9118889 Si02
#       6
#     2   2   2   2   2   2
#     4  11  24  45  75 108 148 188 253 303 373 455
#     4  12  29  53  73 112 157 199 251 315 380 435
#     4  11  24  45  64 102 150 182 234 293 371 448
#     4  11  24  45  76 104 141 192 255 297 366 450
#     4  12  26  49  81 104 142 199 256 307 354 451
#     4  11  23  43  77 110 142 194 237 315 372 435
#
# _framework density 22.667227
#
# number of rings (size 3 to 8) (size 9 to 14) (size 15 to 20)
#    0.000    0.667    5.000    2.000    4.667    1.333 
#    6.000    0.000    0.000    0.000    0.000    0.000 
#    0.000    0.000    0.000    0.000    0.000    0.000 
#
# Total GULP energy -67078.320764 kJ/mol
# GULP energy per Si atom -5589.860064 kJ/mol
# Density = 2.261564 g / cm^3
# Si number density = 22.667227 Si / 1000 Ang^3
#
#
#
# Elastic Constant Matrix: (Units=GPa)
#
#
# Indices 1 2 3 4 5 6 
#
# 1 114.3297 48.2099 42.5676 0.0000 -12.8813 0.0000
# 2 48.2099 127.7540 19.4823 0.0000 -13.0126 0.0000
# 3 42.5676 19.4823 83.8815 0.0000 -4.5816 0.0000
# 4 0.0000 0.0000 0.0000 45.4635 0.0000 -10.4622
# 5 -12.8813 -13.0126 -4.5816 0.0000 42.4483 0.0000
# 6 0.0000 0.0000 0.0000 -10.4622 0.0000 48.0096
#
#
#
# Elastic Compliance Matrix: (Units=1/GPa)
#
#
# Indices 1 2 3 4 5 6 
#
# 1 0.012552 -0.003701 -0.005396 0.000000 0.002092 0.000000
# 2 -0.003701 0.009435 -0.000218 0.000000 0.001746 0.000000
# 3 -0.005396 -0.000218 0.014704 0.000000 -0.000117 0.000000
# 4 0.000000 0.000000 0.000000 0.023157 0.000000 0.005046
# 5 0.002092 0.001746 -0.000117 0.000000 0.024715 0.000000
# 6 0.000000 0.000000 0.000000 0.005046 0.000000 0.021929
#
#
# Mechanical properties :
#
#
# Convention : Reuss Voigt Hill
#
# Bulk Modulus (GPa) = 55.36553 60.72054 58.04304
# Shear Modulus (GPa) = 38.12651 41.56463 39.84557
#
# Velocity S-wave (km/s) = 4.10568 4.28680 4.19722
# Velocity P-wave (km/s) = 6.85229 7.16577 7.01078
#
# Compressibility (1/GPa) = 0.01806178
#
# Stress axis : x y z
#
# Youngs Moduli (GPa) = 79.66943 105.98695 68.00808
#
# Poissons Ratio (x) = 0.39222 0.36697
# Poissons Ratio (y) = 0.29483 0.01483
# Poissons Ratio (z) = 0.42989 0.02311
#
# Static dielectric constant tensor:
#      x y z
#    x 1.864940 0.000000 -0.005670 
#    y 0.000000 1.915940 0.000000 
#    z -0.005670 0.000000 1.886100 
# 
# From -- ./inp_files/8776.got.cif
#   From: 2010.05.17/outbox.cif.g08.bks.cpg/sg4_5_cif.got.tgz:8776.got - 2010.06.03 18:43:04.
