data_PCOD9118162
_publ_section_title
;
Structure prediction by ZEFSAII (Michael W. Deem and Ramdas Pophale) SiO2 
 PCOD9118162
Probable space group: P 21
;
_chemical_formula_sum "Si O2"
_cell_formula_units_Z 14
_cell_length_a 5.948732
_cell_length_b 16.501435
_cell_length_c 5.931044
_cell_angle_alpha 90.000000
_cell_angle_beta 77.346638
_cell_angle_gamma 90.000000
_cell_volume 568.066830
_symmetry_space_group_name_H-M "P 21"
_symmetry_group_IT_number 4
_symmetry_cell_setting 'monoclinic'
loop_
_space_group_symop_operation_xyz
x,y,z
-x,1/2+y,-z
loop_
_atom_site_type_symbol
_atom_site_label
_atom_site_fract_x
_atom_site_fract_y
_atom_site_fract_z
Si Si1 0.037212 0.966290 0.776885
Si Si2 0.137730 0.255534 0.743748
Si Si3 0.285422 0.830008 0.917457
Si Si4 0.245303 0.552416 0.559262
Si Si5 0.445878 0.178508 0.350961
Si Si6 0.186792 0.102859 0.042054
Si Si7 0.615209 0.913013 0.183245
O O1 0.171311 0.880764 0.735809
O O2 0.903896 0.008996 0.602117
O O3 0.839728 0.941623 0.997313
O O4 0.201109 0.033933 0.850834
O O5 0.200158 0.208632 0.501646
O O6 0.322587 0.327455 0.717593
O O7 0.172652 0.189840 0.930262
O O8 0.895473 0.294466 0.860652
O O9 0.427665 0.755212 0.786131
O O10 0.426900 0.894060 0.036746
O O11 0.402416 0.632594 0.492216
O O12 0.408250 0.481198 0.622440
O O13 0.050601 0.583504 0.776594
O O14 0.394697 0.111653 0.170904
#
# Coordination Sequence:
#
# PCOD9118162 Si02
#       7
#     2   2   2   2   2   2   2
#     4  10  25  46  74 107 151 196 250 309 369 447
#     4  11  25  45  72 115 146 188 247 316 364 444
#     4  11  24  51  74 106 155 192 244 315 372 444
#     4  11  25  47  76 110 146 202 254 302 379 443
#     4  12  26  45  80 107 145 200 250 302 384 441
#     4  11  23  48  70 108 151 191 249 312 361 444
#     4  10  24  46  74 105 150 195 248 306 375 443
#
# _framework density 24.64499
#
# number of rings (size 3 to 8) (size 9 to 14) (size 15 to 20)
#    0.000    1.143    2.857    1.714    2.000    6.857 
#   10.286    0.000    0.000    0.000    0.000    0.000 
#    0.000    0.000    0.000    0.000    0.000    0.000 
#
# Total GULP energy -78274.652169 kJ/mol
# GULP energy per Si atom -5591.046584 kJ/mol
# Density = 2.458890 g / cm^3
# Si number density = 24.644990 Si / 1000 Ang^3
#
#
#
# Elastic Constant Matrix: (Units=GPa)
#
#
# Indices 1 2 3 4 5 6 
#
# 1 82.4647 66.9735 33.0980 0.0000 9.7951 0.0000
# 2 66.9735 155.2964 52.7863 0.0000 24.4393 0.0000
# 3 33.0980 52.7863 71.2319 0.0000 3.6723 0.0000
# 4 0.0000 0.0000 0.0000 31.6752 0.0000 8.5644
# 5 9.7951 24.4393 3.6723 0.0000 39.2427 0.0000
# 6 0.0000 0.0000 0.0000 8.5644 0.0000 42.5672
#
#
#
# Elastic Compliance Matrix: (Units=1/GPa)
#
#
# Indices 1 2 3 4 5 6 
#
# 1 0.019388 -0.007068 -0.003767 0.000000 -0.000085 0.000000
# 2 -0.007068 0.012182 -0.005470 0.000000 -0.005311 0.000000
# 3 -0.003767 -0.005470 0.019714 0.000000 0.002502 0.000000
# 4 0.000000 0.000000 0.000000 0.033387 0.000000 -0.006717
# 5 -0.000085 -0.005311 0.002502 0.000000 0.028577 0.000000
# 6 0.000000 0.000000 0.000000 -0.006717 0.000000 0.024844
#
#
# Mechanical properties :
#
#
# Convention : Reuss Voigt Hill
#
# Bulk Modulus (GPa) = 53.54712 68.30097 60.92405
# Shear Modulus (GPa) = 28.26042 33.10605 30.68324
#
# Velocity S-wave (km/s) = 3.38997 3.66911 3.53230
# Velocity P-wave (km/s) = 6.09074 6.76194 6.43510
#
# Compressibility (1/GPa) = 0.01867514
#
# Stress axis : x y z
#
# Youngs Moduli (GPa) = 51.57717 82.08597 50.72664
#
# Poissons Ratio (x) = 0.58015 0.19109
# Poissons Ratio (y) = 0.36453 0.27747
# Poissons Ratio (z) = 0.19429 0.44900
#
# Static dielectric constant tensor:
#      x y z
#    x 1.960760 0.000000 0.031920 
#    y 0.000000 1.972490 0.000000 
#    z 0.031920 0.000000 1.971220 
# 
# From -- ./inp_files/282.got.cif
#   From: 2010.05.17/outbox.cif.g08.bks.cpg/sg4_1_cif.got.tgz:282.got - 2010.06.03 18:43:04.
