data_PCOD9118499
_publ_section_title
;
Structure prediction by ZEFSAII (Michael W. Deem and Ramdas Pophale) SiO2 
 PCOD9118499
Probable space group: P 21
;
_chemical_formula_sum "Si O2"
_cell_formula_units_Z 14
_cell_length_a 9.010867
_cell_length_b 7.386511
_cell_length_c 8.943914
_cell_angle_alpha 90.000000
_cell_angle_beta 114.630779
_cell_angle_gamma 90.000000
_cell_volume 541.132139
_symmetry_space_group_name_H-M "P 21"
_symmetry_group_IT_number 4
_symmetry_cell_setting 'monoclinic'
loop_
_space_group_symop_operation_xyz
x,y,z
-x,1/2+y,-z
loop_
_atom_site_type_symbol
_atom_site_label
_atom_site_fract_x
_atom_site_fract_y
_atom_site_fract_z
Si Si1 0.032224 0.600720 0.948614
Si Si2 0.361891 0.252495 0.866642
Si Si3 0.702017 0.336103 0.086587
Si Si4 0.730977 0.835805 0.852632
Si Si5 0.893959 0.534888 0.598868
Si Si6 0.625985 0.258497 0.392279
Si Si7 0.178813 0.421635 0.510623
O O1 0.136627 0.766031 0.924676
O O2 0.854838 0.667972 0.921116
O O3 0.989624 0.472287 0.787795
O O4 0.147795 0.505380 0.118393
O O5 0.263434 0.326696 0.687470
O O6 0.314966 0.046613 0.881475
O O7 0.553360 0.277035 0.917906
O O8 0.335394 0.365962 0.006571
O O9 0.678563 0.240852 0.238828
O O10 0.567942 0.792481 0.690499
O O11 0.729222 0.424042 0.503087
O O12 0.859568 0.748407 0.607136
O O13 0.011842 0.509122 0.504689
O O14 0.697640 0.075295 0.493846
#
# Coordination Sequence:
#
# PCOD9118499 Si02
#       7
#     2   2   2   2   2   2   2
#     4  12  25  46  66  97 134 182 230 276 350 405
#     4  11  21  37  68 102 132 169 221 288 331 400
#     4  11  20  38  68  99 130 171 223 279 342 394
#     4  11  25  46  65  96 137 179 229 281 334 409
#     4  12  24  42  69 102 134 179 222 282 341 407
#     4  11  23  45  68 101 138 172 227 281 339 402
#     4  12  22  40  72 105 135 172 224 283 341 399
#
# _framework density 25.871682
#
# number of rings (size 3 to 8) (size 9 to 14) (size 15 to 20)
#    0.000    0.571    5.714    4.286    0.000    0.000 
#    5.143    0.000    0.000    0.000    0.000    0.000 
#    0.000    0.000    0.000    0.000    0.000    0.000 
#
# Total GULP energy -78412.736287 kJ/mol
# GULP energy per Si atom -5600.909735 kJ/mol
# Density = 2.581280 g / cm^3
# Si number density = 25.871682 Si / 1000 Ang^3
#
#
#
# Elastic Constant Matrix: (Units=GPa)
#
#
# Indices 1 2 3 4 5 6 
#
# 1 114.4835 34.5473 46.7524 0.0000 49.8902 0.0000
# 2 34.5473 157.5207 58.4197 0.0000 39.3956 0.0000
# 3 46.7524 58.4197 139.5165 0.0000 54.2777 0.0000
# 4 0.0000 0.0000 0.0000 43.5913 0.0000 12.6841
# 5 49.8902 39.3956 54.2777 0.0000 56.2500 0.0000
# 6 0.0000 0.0000 0.0000 12.6841 0.0000 36.0399
#
#
#
# Elastic Compliance Matrix: (Units=1/GPa)
#
#
# Indices 1 2 3 4 5 6 
#
# 1 0.014243 0.000008 0.000225 0.000000 -0.012855 0.000000
# 2 0.000008 0.007990 -0.001871 0.000000 -0.003798 0.000000
# 3 0.000225 -0.001871 0.011917 0.000000 -0.010389 0.000000
# 4 0.000000 0.000000 0.000000 0.025558 0.000000 -0.008995
# 5 -0.012855 -0.003798 -0.010389 0.000000 0.041864 0.000000
# 6 0.000000 0.000000 0.000000 -0.008995 0.000000 0.030913
#
#
# Mechanical properties :
#
#
# Convention : Reuss Voigt Hill
#
# Bulk Modulus (GPa) = 32.38949 76.77327 54.58138
# Shear Modulus (GPa) = 34.23446 45.29631 39.76539
#
# Velocity S-wave (km/s) = 3.64158 4.18880 3.92474
# Velocity P-wave (km/s) = 5.49800 7.28930 6.45607
#
# Compressibility (1/GPa) = 0.03087422
#
# Stress axis : x y z
#
# Youngs Moduli (GPa) = 70.21194 125.15116 83.91210
#
# Poissons Ratio (x) = -0.00098 -0.01889
# Poissons Ratio (y) = -0.00055 0.15699
# Poissons Ratio (z) = -0.01580 0.23415
#
# Static dielectric constant tensor:
#      x y z
#    x 2.060630 0.000000 -0.035530 
#    y 0.000000 2.079770 0.000000 
#    z -0.035530 0.000000 1.994160 
# 
# From -- ./inp_files/5726.got.cif
#   From: 2010.05.17/outbox.cif.g08.bks.cpg/sg4_3_cif.got.tgz:5726.got - 2010.06.03 18:43:04.
