data_PCOD9118830
_publ_section_title
;
Structure prediction by ZEFSAII (Michael W. Deem and Ramdas Pophale) SiO2 
 PCOD9118830
Probable space group: P 21
;
_chemical_formula_sum "Si O2"
_cell_formula_units_Z 12
_cell_length_a 17.244094
_cell_length_b 5.088677
_cell_length_c 11.889601
_cell_angle_alpha 90.000000
_cell_angle_beta 147.731003
_cell_angle_gamma 90.000000
_cell_volume 557.016829
_symmetry_space_group_name_H-M "P 21"
_symmetry_group_IT_number 4
_symmetry_cell_setting 'monoclinic'
loop_
_space_group_symop_operation_xyz
x,y,z
-x,1/2+y,-z
loop_
_atom_site_type_symbol
_atom_site_label
_atom_site_fract_x
_atom_site_fract_y
_atom_site_fract_z
Si Si1 0.835333 0.229160 0.594541
Si Si2 0.968655 0.237235 0.177690
Si Si3 0.303168 0.744600 0.020134
Si Si4 0.727433 0.106056 0.708438
Si Si5 0.403429 0.711512 0.891176
Si Si6 0.597970 0.757157 0.720565
O O1 0.768152 0.121457 0.628590
O O2 0.711679 0.245443 0.349285
O O3 0.914414 0.509645 0.701542
O O4 0.954722 0.013080 0.709128
O O5 0.863833 0.181202 0.154757
O O6 0.857440 0.240744 0.936342
O O7 0.391997 0.503912 0.182871
O O8 0.350420 0.005413 0.145841
O O9 0.333561 0.768954 0.926546
O O10 0.567504 0.231067 0.522601
O O11 0.701276 0.828924 0.741078
O O12 0.466634 0.417966 0.966852
#
# Coordination Sequence:
#
# PCOD9118830 Si02
#       6
#     2   2   2   2   2   2
#     4  12  26  42  66  97 133 174 220 270 336 400
#     4  11  25  41  63  95 134 180 214 267 331 399
#     4  11  24  45  67  99 137 175 233 274 328 403
#     4  11  23  42  65  98 136 171 222 273 333 398
#     4  12  26  46  72  99 131 175 226 287 338 389
#     4  11  24  40  71 100 131 179 221 283 336 387
#
# _framework density 21.543333000000001
#
# number of rings (size 3 to 8) (size 9 to 14) (size 15 to 20)
#    0.000    0.667    0.000    9.000    0.000    8.000 
#    0.000    0.000    0.000    0.000    0.000    0.000 
#    0.000    0.000    0.000    0.000    0.000    0.000 
#
# Total GULP energy -67170.416373 kJ/mol
# GULP energy per Si atom -5597.534698 kJ/mol
# Density = 2.149430 g / cm^3
# Si number density = 21.543333 Si / 1000 Ang^3
#
#
#
# Elastic Constant Matrix: (Units=GPa)
#
#
# Indices 1 2 3 4 5 6 
#
# 1 138.1853 -4.7767 33.8014 0.0000 -36.1597 0.0000
# 2 -4.7767 96.1499 14.4445 0.0000 -11.9650 0.0000
# 3 33.8014 14.4445 111.1835 0.0000 -10.6618 0.0000
# 4 0.0000 0.0000 0.0000 39.4268 0.0000 10.8665
# 5 -36.1597 -11.9650 -10.6618 0.0000 30.4039 0.0000
# 6 0.0000 0.0000 0.0000 10.8665 0.0000 25.2237
#
#
#
# Elastic Compliance Matrix: (Units=1/GPa)
#
#
# Indices 1 2 3 4 5 6 
#
# 1 0.011609 0.002698 -0.002539 0.000000 0.013977 0.000000
# 2 0.002698 0.011681 -0.001644 0.000000 0.007228 0.000000
# 3 -0.002539 -0.001644 0.009963 0.000000 -0.000173 0.000000
# 4 0.000000 0.000000 0.000000 0.028781 0.000000 -0.012399
# 5 0.013977 0.007228 -0.000173 0.000000 0.052298 0.000000
# 6 0.000000 0.000000 0.000000 -0.012399 0.000000 0.044987
#
#
# Mechanical properties :
#
#
# Convention : Reuss Voigt Hill
#
# Bulk Modulus (GPa) = 33.02483 48.05079 40.53781
# Shear Modulus (GPa) = 29.00503 39.14752 34.07628
#
# Velocity S-wave (km/s) = 3.67326 4.26743 3.98144
# Velocity P-wave (km/s) = 5.77522 6.82891 6.32405
#
# Compressibility (1/GPa) = 0.03028025
#
# Stress axis : x y z
#
# Youngs Moduli (GPa) = 86.14321 85.60910 100.36999
#
# Poissons Ratio (x) = -0.23093 0.25487
# Poissons Ratio (y) = -0.23237 0.16506
# Poissons Ratio (z) = 0.21874 0.14078
#
# Static dielectric constant tensor:
#      x y z
#    x 1.796610 0.000000 0.013210 
#    y 0.000000 1.803950 0.000000 
#    z 0.013210 0.000000 1.738950 
# 
# From -- ./inp_files/12831.got.cif
#   From: 2010.05.17/outbox.cif.g08.bks.cpg/sg4_7_cif.got.tgz:12831.got - 2010.06.03 18:43:04.
