data_PCOD9118542
_publ_section_title
;
Structure prediction by ZEFSAII (Michael W. Deem and Ramdas Pophale) SiO2 
 PCOD9118542
Probable space group: P 21
;
_chemical_formula_sum "Si O2"
_cell_formula_units_Z 12
_cell_length_a 9.136821
_cell_length_b 8.210060
_cell_length_c 9.327472
_cell_angle_alpha 90.000000
_cell_angle_beta 136.949702
_cell_angle_gamma 90.000000
_cell_volume 477.636179
_symmetry_space_group_name_H-M "P 21"
_symmetry_group_IT_number 4
_symmetry_cell_setting 'monoclinic'
loop_
_space_group_symop_operation_xyz
x,y,z
-x,1/2+y,-z
loop_
_atom_site_type_symbol
_atom_site_label
_atom_site_fract_x
_atom_site_fract_y
_atom_site_fract_z
Si Si1 0.606490 0.436900 0.377055
Si Si2 0.876809 0.860849 0.599687
Si Si3 0.522375 0.581061 0.610903
Si Si4 0.215986 0.119628 0.725203
Si Si5 0.055553 0.341940 0.826815
Si Si6 0.995815 0.633710 0.951560
O O1 0.526384 0.563395 0.440942
O O2 0.514945 0.260419 0.352329
O O3 0.596984 0.512807 0.211915
O O4 0.864031 0.406871 0.589485
O O5 0.864385 0.726809 0.466430
O O6 0.945977 0.770921 0.796107
O O7 0.650008 0.952913 0.455582
O O8 0.044574 0.995842 0.668697
O O9 0.769262 0.545011 0.824518
O O10 0.237718 0.251494 0.867153
O O11 0.135609 0.493089 0.979359
O O12 0.942958 0.215839 0.856288
#
# Coordination Sequence:
#
# PCOD9118542 Si02
#       6
#     2   2   2   2   2   2
#     4  11  21  38  64  94 126 171 219 265 316 382
#     4  12  20  38  65  92 132 167 222 266 311 394
#     4  11  21  39  64  95 125 171 217 267 314 387
#     4  12  21  38  64  98 125 169 219 269 318 380
#     4  11  23  40  62  97 132 167 215 264 326 383
#     4  11  24  41  65  98 130 173 214 269 327 384
#
# _framework density 25.123725
#
# number of rings (size 3 to 8) (size 9 to 14) (size 15 to 20)
#    0.000    0.667    8.333    1.000    0.000    0.000 
#    0.000    1.667    0.000    4.000    0.000    0.000 
#    0.000    0.000    0.000    0.000    0.000    0.000 
#
# Total GULP energy -67144.456973 kJ/mol
# GULP energy per Si atom -5595.371414 kJ/mol
# Density = 2.506654 g / cm^3
# Si number density = 25.123725 Si / 1000 Ang^3
#
#
#
# Elastic Constant Matrix: (Units=GPa)
#
#
# Indices 1 2 3 4 5 6 
#
# 1 155.0603 91.2639 39.8229 0.0000 -25.0518 0.0000
# 2 91.2639 180.9536 42.9140 0.0000 -26.3580 0.0000
# 3 39.8229 42.9140 60.5716 0.0000 -24.4498 0.0000
# 4 0.0000 0.0000 0.0000 46.4494 0.0000 -13.2958
# 5 -25.0518 -26.3580 -24.4498 0.0000 38.5028 0.0000
# 6 0.0000 0.0000 0.0000 -13.2958 0.0000 64.5425
#
#
#
# Elastic Compliance Matrix: (Units=1/GPa)
#
#
# Indices 1 2 3 4 5 6 
#
# 1 0.009851 -0.004016 -0.002896 0.000000 0.001821 0.000000
# 2 -0.004016 0.008408 -0.002754 0.000000 0.001394 0.000000
# 3 -0.002896 -0.002754 0.025337 0.000000 0.012320 0.000000
# 4 0.000000 0.000000 0.000000 0.022878 0.000000 0.004713
# 5 0.001821 0.001394 0.012320 0.000000 0.035935 0.000000
# 6 0.000000 0.000000 0.000000 0.004713 0.000000 0.016465
#
#
# Mechanical properties :
#
#
# Convention : Reuss Voigt Hill
#
# Bulk Modulus (GPa) = 41.21264 82.73190 61.97227
# Shear Modulus (GPa) = 34.17787 44.73792 39.45790
#
# Velocity S-wave (km/s) = 3.69234 4.22442 3.96731
# Velocity P-wave (km/s) = 5.88365 7.53628 6.76065
#
# Compressibility (1/GPa) = 0.02426440
#
# Stress axis : x y z
#
# Youngs Moduli (GPa) = 101.51336 118.93434 39.46742
#
# Poissons Ratio (x) = 0.47767 0.11430
# Poissons Ratio (y) = 0.40770 0.10868
# Poissons Ratio (z) = 0.29398 0.32751
#
# Static dielectric constant tensor:
#      x y z
#    x 1.974790 0.000000 0.009890 
#    y 0.000000 2.034020 0.000000 
#    z 0.009890 0.000000 1.983900 
# 
# From -- ./inp_files/5207.got.cif
#   From: 2010.05.17/outbox.cif.g08.bks.cpg/sg4_3_cif.got.tgz:5207.got - 2010.06.03 18:43:04.
