data_PCOD9118930
_publ_section_title
;
Structure prediction by ZEFSAII (Michael W. Deem and Ramdas Pophale) SiO2 
 PCOD9118930
Probable space group: P 21
;
_chemical_formula_sum "Si O2"
_cell_formula_units_Z 16
_cell_length_a 9.374961
_cell_length_b 8.143961
_cell_length_c 17.259457
_cell_angle_alpha 90.000000
_cell_angle_beta 148.852166
_cell_angle_gamma 90.000000
_cell_volume 681.602405
_symmetry_space_group_name_H-M "P 21"
_symmetry_group_IT_number 4
_symmetry_cell_setting 'monoclinic'
loop_
_space_group_symop_operation_xyz
x,y,z
-x,1/2+y,-z
loop_
_atom_site_type_symbol
_atom_site_label
_atom_site_fract_x
_atom_site_fract_y
_atom_site_fract_z
Si Si1 0.024660 0.748990 0.926972
Si Si2 0.033862 0.756453 0.428576
Si Si3 0.202665 0.889313 0.674995
Si Si4 0.443671 0.412415 0.390112
Si Si5 0.784511 0.757640 0.979500
Si Si6 0.464885 0.442518 0.882442
Si Si7 0.225475 0.205381 0.419644
Si Si8 0.079448 0.475259 0.840115
O O1 0.786974 0.862674 0.779470
O O2 0.991662 0.754791 0.003615
O O3 0.001857 0.565317 0.884577
O O4 0.306609 0.802155 0.016582
O O5 0.133669 0.818079 0.558537
O O6 0.799580 0.876082 0.286256
O O7 0.917614 0.572797 0.375310
O O8 0.303416 0.785225 0.502406
O O9 0.035372 0.768725 0.654129
O O10 0.528064 0.882604 0.844386
O O11 0.327580 0.364003 0.420272
O O12 0.551684 0.598383 0.429582
O O13 0.617265 0.588569 0.908990
O O14 0.918417 0.791097 0.126035
O O15 0.363050 0.486501 0.921793
O O16 0.129109 0.066553 0.313797
#
# Coordination Sequence:
#
# PCOD9118930 Si02
#       8
#     2   2   2   2   2   2   2   2
#     4  11  26  45  70 104 148 190 246 305 371 437
#     4  12  25  46  75 105 143 194 246 303 377 444
#     4  12  25  45  75 105 145 196 245 306 368 449
#     4  11  23  45  70 101 145 181 243 309 367 440
#     4  12  24  45  72 101 150 193 244 311 367 440
#     4  12  25  47  72 105 145 194 251 300 374 452
#     4  11  24  46  69 109 140 192 247 307 370 444
#     4  11  24  45  71 102 144 192 246 299 368 442
#
# _framework density 23.474094999999998
#
# number of rings (size 3 to 8) (size 9 to 14) (size 15 to 20)
#    0.000    0.500    3.750    4.500    1.750    1.000 
#    4.500    0.000    0.000    0.000    0.000    0.000 
#    0.000    0.000    0.000    0.000    0.000    0.000 
#
# Total GULP energy -89392.010671 kJ/mol
# GULP energy per Si atom -5587.000667 kJ/mol
# Density = 2.342067 g / cm^3
# Si number density = 23.474095 Si / 1000 Ang^3
#
#
#
# Elastic Constant Matrix: (Units=GPa)
#
#
# Indices 1 2 3 4 5 6 
#
# 1 114.9561 20.7361 5.6857 0.0000 8.0895 0.0000
# 2 20.7361 46.9006 5.0595 0.0000 -18.3959 0.0000
# 3 5.6857 5.0595 50.5940 0.0000 2.0438 0.0000
# 4 0.0000 0.0000 0.0000 31.9404 0.0000 1.3373
# 5 8.0895 -18.3959 2.0438 0.0000 24.7643 0.0000
# 6 0.0000 0.0000 0.0000 1.3373 0.0000 40.2981
#
#
#
# Elastic Compliance Matrix: (Units=1/GPa)
#
#
# Indices 1 2 3 4 5 6 
#
# 1 0.011014 -0.008876 0.000062 0.000000 -0.010196 0.000000
# 2 -0.008876 0.038038 -0.004079 0.000000 0.031492 0.000000
# 3 0.000062 -0.004079 0.020357 0.000000 -0.004730 0.000000
# 4 0.000000 0.000000 0.000000 0.031352 0.000000 -0.001040
# 5 -0.010196 0.031492 -0.004730 0.000000 0.067495 0.000000
# 6 0.000000 0.000000 0.000000 -0.001040 0.000000 0.024850
#
#
# Mechanical properties :
#
#
# Convention : Reuss Voigt Hill
#
# Bulk Modulus (GPa) = 22.92301 30.60148 26.76224
# Shear Modulus (GPa) = 21.41941 31.46520 26.44230
#
# Velocity S-wave (km/s) = 3.02399 3.66515 3.35990
# Velocity P-wave (km/s) = 4.68819 5.56558 5.14562
#
# Compressibility (1/GPa) = 0.04362430
#
# Stress axis : x y z
#
# Youngs Moduli (GPa) = 90.78956 26.28950 49.12261
#
# Poissons Ratio (x) = 0.23334 -0.00303
# Poissons Ratio (y) = 0.80583 0.20035
# Poissons Ratio (z) = -0.00560 0.10723
#
# Static dielectric constant tensor:
#      x y z
#    x 1.871160 0.000000 -0.003990 
#    y 0.000000 1.962730 0.000000 
#    z -0.003990 0.000000 1.935210 
# 
# From -- ./inp_files/5859.got.cif
#   From: 2010.05.17/outbox.cif.g08.bks.cpg/sg4_3_cif.got.tgz:5859.got - 2010.06.03 18:43:04.
