data_PCOD9118420
_publ_section_title
;
Structure prediction by ZEFSAII (Michael W. Deem and Ramdas Pophale) SiO2 
 PCOD9118420
Probable space group: P 21
;
_chemical_formula_sum "Si O2"
_cell_formula_units_Z 16
_cell_length_a 7.820841
_cell_length_b 11.006816
_cell_length_c 9.754877
_cell_angle_alpha 90.000000
_cell_angle_beta 135.624010
_cell_angle_gamma 90.000000
_cell_volume 587.273166
_symmetry_space_group_name_H-M "P 21"
_symmetry_group_IT_number 4
_symmetry_cell_setting 'monoclinic'
loop_
_space_group_symop_operation_xyz
x,y,z
-x,1/2+y,-z
loop_
_atom_site_type_symbol
_atom_site_label
_atom_site_fract_x
_atom_site_fract_y
_atom_site_fract_z
Si Si1 0.176622 0.198840 0.138215
Si Si2 0.762845 0.738265 0.140234
Si Si3 0.749727 0.278180 0.249353
Si Si4 0.520999 0.387467 0.707394
Si Si5 0.244830 0.151909 0.483752
Si Si6 0.246021 0.877483 0.462149
Si Si7 0.061366 0.521310 0.393808
Si Si8 0.038144 0.477684 0.080702
O O1 0.305302 0.168764 0.355554
O O2 0.958887 0.094195 0.018553
O O3 0.237709 0.180544 0.013307
O O4 0.154821 0.345440 0.124001
O O5 0.882730 0.635277 0.304518
O O6 0.960451 0.846603 0.266815
O O7 0.481744 0.775301 0.983179
O O8 0.682500 0.284987 0.373830
O O9 0.898443 0.401821 0.312750
O O10 0.954135 0.178710 0.331330
O O11 0.393141 0.256250 0.649307
O O12 0.622703 0.376290 0.609278
O O13 0.756610 0.431633 0.923345
O O14 0.310641 0.487982 0.613319
O O15 0.289718 0.012484 0.543175
O O16 0.146326 0.525297 0.284436
#
# Coordination Sequence:
#
# PCOD9118420 Si02
#       8
#     2   2   2   2   2   2   2   2
#     4  11  20  46  70 106 136 180 246 298 353 418
#     4  11  26  45  73 103 142 188 238 298 358 422
#     4  11  27  47  66 103 148 188 235 289 355 443
#     4  11  23  44  74 103 135 182 237 305 351 417
#     4  11  25  48  70 105 142 188 242 291 363 436
#     4  12  27  45  73 109 141 189 240 295 363 433
#     4  10  26  47  69 103 139 185 241 289 357 431
#     4  11  22  42  73 102 137 180 239 301 356 410
#
# _framework density 27.244561999999998
#
# number of rings (size 3 to 8) (size 9 to 14) (size 15 to 20)
#    0.000    1.000    5.000    0.750    5.250    4.000 
#    4.500    0.000    0.000    0.000    0.000    0.000 
#    0.000    0.000    0.000    0.000    0.000    0.000 
#
# Total GULP energy -89386.624429 kJ/mol
# GULP energy per Si atom -5586.664027 kJ/mol
# Density = 2.718255 g / cm^3
# Si number density = 27.244562 Si / 1000 Ang^3
#
#
#
# Elastic Constant Matrix: (Units=GPa)
#
#
# Indices 1 2 3 4 5 6 
#
# 1 92.5256 17.1037 27.5177 0.0000 2.8837 0.0000
# 2 17.1037 89.0084 -21.2355 0.0000 -1.4847 0.0000
# 3 27.5177 -21.2355 129.3656 0.0000 14.5237 0.0000
# 4 0.0000 0.0000 0.0000 39.8823 0.0000 2.2375
# 5 2.8837 -1.4847 14.5237 0.0000 55.1725 0.0000
# 6 0.0000 0.0000 0.0000 2.2375 0.0000 41.7454
#
#
#
# Elastic Compliance Matrix: (Units=1/GPa)
#
#
# Indices 1 2 3 4 5 6 
#
# 1 0.012315 -0.003114 -0.003142 0.000000 0.000100 0.000000
# 2 -0.003114 0.012482 0.002736 0.000000 -0.000222 0.000000
# 3 -0.003142 0.002736 0.009089 0.000000 -0.002155 0.000000
# 4 0.000000 0.000000 0.000000 0.025149 0.000000 -0.001348
# 5 0.000100 -0.000222 -0.002155 0.000000 0.018681 0.000000
# 6 0.000000 0.000000 0.000000 -0.001348 0.000000 0.024027
#
#
# Mechanical properties :
#
#
# Convention : Reuss Voigt Hill
#
# Bulk Modulus (GPa) = 37.24816 39.74126 38.49471
# Shear Modulus (GPa) = 42.46896 46.52762 44.49829
#
# Velocity S-wave (km/s) = 3.95245 4.13701 4.04578
# Velocity P-wave (km/s) = 5.87628 6.11869 5.99871
#
# Compressibility (1/GPa) = 0.02684696
#
# Stress axis : x y z
#
# Youngs Moduli (GPa) = 81.20282 80.11233 110.01749
#
# Poissons Ratio (x) = 0.24950 0.34567
# Poissons Ratio (y) = 0.25289 -0.30105
# Poissons Ratio (z) = 0.25513 -0.21922
#
# Static dielectric constant tensor:
#      x y z
#    x 2.308150 0.000000 0.029010 
#    y 0.000000 2.183290 0.000000 
#    z 0.029010 0.000000 2.089040 
# 
# From -- ./inp_files/11302.got.cif
#   From: 2010.05.17/outbox.cif.g08.bks.cpg/sg4_6_cif.got.tgz:11302.got - 2010.06.03 18:43:04.
