data_PCOD9118164
_publ_section_title
;
Structure prediction by ZEFSAII (Michael W. Deem and Ramdas Pophale) SiO2 
 PCOD9118164
Probable space group: P 21
;
_chemical_formula_sum "Si O2"
_cell_formula_units_Z 14
_cell_length_a 13.923781
_cell_length_b 5.419963
_cell_length_c 9.738049
_cell_angle_alpha 90.000000
_cell_angle_beta 131.580211
_cell_angle_gamma 90.000000
_cell_volume 549.721776
_symmetry_space_group_name_H-M "P 21"
_symmetry_group_IT_number 4
_symmetry_cell_setting 'monoclinic'
loop_
_space_group_symop_operation_xyz
x,y,z
-x,1/2+y,-z
loop_
_atom_site_type_symbol
_atom_site_label
_atom_site_fract_x
_atom_site_fract_y
_atom_site_fract_z
Si Si1 0.336212 0.056160 0.358428
Si Si2 0.427346 0.672439 0.915145
Si Si3 0.471800 0.690635 0.670609
Si Si4 0.856743 0.892875 0.686935
Si Si5 0.919912 0.763473 0.437248
Si Si6 0.737398 0.919965 0.034993
Si Si7 0.876550 0.223476 0.937433
O O1 0.469504 0.044505 0.400933
O O2 0.273906 0.296852 0.366965
O O3 0.373009 0.887784 0.521330
O O4 0.225468 0.945257 0.155483
O O5 0.403642 0.577359 0.737959
O O6 0.312519 0.640811 0.912953
O O7 0.531965 0.459966 0.055744
O O8 0.607011 0.801451 0.854347
O O9 0.864409 0.840145 0.533557
O O10 0.877934 0.159327 0.776408
O O11 0.981149 0.762032 0.872991
O O12 0.988301 0.497393 0.512508
O O13 0.818086 0.752847 0.216061
O O14 0.817253 0.019116 0.982741
#
# Coordination Sequence:
#
# PCOD9118164 Si02
#       7
#     2   2   2   2   2   2   2
#     4  12  27  46  76 114 157 197 270 319 390 466
#     4  10  24  46  74 106 147 199 256 308 386 461
#     4  11  26  46  75 112 152 205 257 322 389 464
#     4  12  28  47  81 112 155 202 258 326 392 465
#     4  12  31  49  78 115 156 199 260 323 391 472
#     4  11  25  49  77 109 154 202 253 322 396 465
#     4  12  25  49  77 112 151 202 262 318 396 459
#
# _framework density 25.46743
#
# number of rings (size 3 to 8) (size 9 to 14) (size 15 to 20)
#    0.000    0.571    4.286    1.714    8.000    8.000 
#    0.000    0.000    0.000    0.000    0.000    0.000 
#    0.000    0.000    0.000    0.000    0.000    0.000 
#
# Total GULP energy -78228.525264 kJ/mol
# GULP energy per Si atom -5587.751805 kJ/mol
# Density = 2.540946 g / cm^3
# Si number density = 25.467430 Si / 1000 Ang^3
#
#
#
# Elastic Constant Matrix: (Units=GPa)
#
#
# Indices 1 2 3 4 5 6 
#
# 1 106.4689 15.2207 27.6316 0.0000 -5.7883 0.0000
# 2 15.2207 46.7324 15.8258 0.0000 8.7994 0.0000
# 3 27.6316 15.8258 111.7965 0.0000 9.1513 0.0000
# 4 0.0000 0.0000 0.0000 43.0044 0.0000 4.1426
# 5 -5.7883 8.7994 9.1513 0.0000 53.0529 0.0000
# 6 0.0000 0.0000 0.0000 4.1426 0.0000 41.1851
#
#
#
# Elastic Compliance Matrix: (Units=1/GPa)
#
#
# Indices 1 2 3 4 5 6 
#
# 1 0.010546 -0.003028 -0.002346 0.000000 0.002058 0.000000
# 2 -0.003028 0.023902 -0.002316 0.000000 -0.003895 0.000000
# 3 -0.002346 -0.002316 0.009983 0.000000 -0.001594 0.000000
# 4 0.000000 0.000000 0.000000 0.023481 0.000000 -0.002362
# 5 0.002058 -0.003895 -0.001594 0.000000 0.019995 0.000000
# 6 0.000000 0.000000 0.000000 -0.002362 0.000000 0.024518
#
#
# Mechanical properties :
#
#
# Convention : Reuss Voigt Hill
#
# Bulk Modulus (GPa) = 34.42264 42.48378 38.45321
# Shear Modulus (GPa) = 36.36630 41.20312 38.78471
#
# Velocity S-wave (km/s) = 3.78293 4.02665 3.90669
# Velocity P-wave (km/s) = 5.71195 6.19163 5.95662
#
# Compressibility (1/GPa) = 0.02905065
#
# Stress axis : x y z
#
# Youngs Moduli (GPa) = 94.82215 41.83673 100.16886
#
# Poissons Ratio (x) = 0.12667 0.23504
# Poissons Ratio (y) = 0.28709 0.23204
# Poissons Ratio (z) = 0.22249 0.09691
#
# Static dielectric constant tensor:
#      x y z
#    x 2.033000 0.000000 -0.012270 
#    y 0.000000 2.124170 0.000000 
#    z -0.012270 0.000000 1.991060 
# 
# From -- ./inp_files/7189.got.cif
#   From: 2010.05.17/outbox.cif.g08.bks.cpg/sg4_4_cif.got.tgz:7189.got - 2010.06.03 18:43:04.
