data_PCOD9118699
_publ_section_title
;
Structure prediction by ZEFSAII (Michael W. Deem and Ramdas Pophale) SiO2 
 PCOD9118699
Probable space group: P 21
;
_chemical_formula_sum "Si O2"
_cell_formula_units_Z 14
_cell_length_a 22.663701
_cell_length_b 5.118621
_cell_length_c 15.945273
_cell_angle_alpha 90.000000
_cell_angle_beta 18.611593
_cell_angle_gamma 90.000000
_cell_volume 590.353403
_symmetry_space_group_name_H-M "P 21"
_symmetry_group_IT_number 4
_symmetry_cell_setting 'monoclinic'
loop_
_space_group_symop_operation_xyz
x,y,z
-x,1/2+y,-z
loop_
_atom_site_type_symbol
_atom_site_label
_atom_site_fract_x
_atom_site_fract_y
_atom_site_fract_z
Si Si1 0.433581 0.031920 0.638488
Si Si2 0.688152 0.947652 0.441034
Si Si3 0.062583 0.393396 0.466818
Si Si4 0.251795 0.739832 0.486153
Si Si5 0.995642 0.591699 0.102850
Si Si6 0.969655 0.429246 0.777854
Si Si7 0.467085 0.546120 0.988398
O O1 0.523616 0.304963 0.487292
O O2 0.516986 0.907934 0.611216
O O3 0.218859 0.080475 0.947414
O O4 0.629530 0.078287 0.607384
O O5 0.821191 0.712713 0.289275
O O6 0.824743 0.109369 0.195206
O O7 0.274869 0.476712 0.201210
O O8 0.961530 0.640992 0.559812
O O9 0.973431 0.328487 0.677960
O O10 0.158401 0.594736 0.534326
O O11 0.069198 0.802069 0.787067
O O12 0.367165 0.984608 0.299813
O O13 0.021090 0.721069 0.159362
O O14 0.490177 0.833755 0.995472
#
# Coordination Sequence:
#
# PCOD9118699 Si02
#       7
#     2   2   2   2   2   2   2
#     4  12  28  45  69 103 149 191 237 289 365 445
#     4  11  24  40  64 108 137 189 233 299 347 435
#     4  12  29  50  77 112 154 195 248 325 386 446
#     4  11  25  43  77 100 140 194 246 305 363 432
#     4  11  22  43  70  99 148 183 248 294 357 431
#     4  11  26  48  72 104 144 200 238 299 381 437
#     4  12  26  51  77 108 144 194 266 307 369 450
#
# _framework density 23.714607000000001
#
# number of rings (size 3 to 8) (size 9 to 14) (size 15 to 20)
#    0.000    0.571    4.286    2.571   10.000    1.143 
#    0.000    0.000    0.000    0.000    0.000    0.000 
#    0.000    0.000    0.000    0.000    0.000    0.000 
#
# Total GULP energy -78221.802751 kJ/mol
# GULP energy per Si atom -5587.271625 kJ/mol
# Density = 2.366063 g / cm^3
# Si number density = 23.714607 Si / 1000 Ang^3
#
#
#
# Elastic Constant Matrix: (Units=GPa)
#
#
# Indices 1 2 3 4 5 6 
#
# 1 141.5263 21.3365 29.5801 0.0000 -9.4236 0.0000
# 2 21.3365 58.1982 -0.9387 0.0000 2.0297 0.0000
# 3 29.5801 -0.9387 98.0755 0.0000 -0.5615 0.0000
# 4 0.0000 0.0000 0.0000 28.8694 0.0000 12.1874
# 5 -9.4236 2.0297 -0.5615 0.0000 35.9662 0.0000
# 6 0.0000 0.0000 0.0000 12.1874 0.0000 34.1549
#
#
#
# Elastic Compliance Matrix: (Units=1/GPa)
#
#
# Indices 1 2 3 4 5 6 
#
# 1 0.008211 -0.003130 -0.002493 0.000000 0.002289 0.000000
# 2 -0.003130 0.018413 0.001110 0.000000 -0.001842 0.000000
# 3 -0.002493 0.001110 0.010956 0.000000 -0.000545 0.000000
# 4 0.000000 0.000000 0.000000 0.040782 0.000000 -0.014552
# 5 0.002289 -0.001842 -0.000545 0.000000 0.028499 0.000000
# 6 0.000000 0.000000 0.000000 -0.014552 0.000000 0.034471
#
#
# Mechanical properties :
#
#
# Convention : Reuss Voigt Hill
#
# Bulk Modulus (GPa) = 35.02447 44.19511 39.60979
# Shear Modulus (GPa) = 31.27401 36.31955 33.79678
#
# Velocity S-wave (km/s) = 3.63542 3.91772 3.77921
# Velocity P-wave (km/s) = 5.69411 6.25631 5.98182
#
# Compressibility (1/GPa) = 0.02855147
#
# Stress axis : x y z
#
# Youngs Moduli (GPa) = 121.78254 54.31088 91.27611
#
# Poissons Ratio (x) = 0.17002 0.22759
# Poissons Ratio (y) = 0.38124 -0.10130
# Poissons Ratio (z) = 0.30366 -0.06028
#
# Static dielectric constant tensor:
#      x y z
#    x 1.943140 0.000000 0.029400 
#    y 0.000000 1.922670 0.000000 
#    z 0.029400 0.000000 1.930330 
# 
# From -- ./inp_files/7126.got.cif
#   From: 2010.05.17/outbox.cif.g08.bks.cpg/sg4_4_cif.got.tgz:7126.got - 2010.06.03 18:43:04.
