data_PCOD9118539
_publ_section_title
;
Structure prediction by ZEFSAII (Michael W. Deem and Ramdas Pophale) SiO2 
 PCOD9118539
Probable space group: P 21
;
_chemical_formula_sum "Si O2"
_cell_formula_units_Z 12
_cell_length_a 7.469109
_cell_length_b 7.264474
_cell_length_c 8.760639
_cell_angle_alpha 90.000000
_cell_angle_beta 76.388825
_cell_angle_gamma 90.000000
_cell_volume 461.994807
_symmetry_space_group_name_H-M "P 21"
_symmetry_group_IT_number 4
_symmetry_cell_setting 'monoclinic'
loop_
_space_group_symop_operation_xyz
x,y,z
-x,1/2+y,-z
loop_
_atom_site_type_symbol
_atom_site_label
_atom_site_fract_x
_atom_site_fract_y
_atom_site_fract_z
Si Si1 0.379105 0.391950 0.223041
Si Si2 0.192508 0.793421 0.886673
Si Si3 0.023642 0.149964 0.810940
Si Si4 0.308847 0.407254 0.883482
Si Si5 0.751614 0.628286 0.517023
Si Si6 0.398408 0.758843 0.392140
O O1 0.346595 0.430803 0.052903
O O2 0.261337 0.224697 0.316607
O O3 0.327755 0.571087 0.332577
O O4 0.599029 0.357097 0.186633
O O5 0.140331 0.763893 0.076763
O O6 0.197753 0.579458 0.834672
O O7 0.045933 0.931956 0.841172
O O8 0.195025 0.224415 0.876833
O O9 0.081825 0.188904 0.626239
O O10 0.497681 0.377816 0.757559
O O11 0.560580 0.700276 0.476480
O O12 0.742515 0.406940 0.513975
#
# Coordination Sequence:
#
# PCOD9118539 Si02
#       6
#     2   2   2   2   2   2
#     4  12  24  40  71 100 130 168 227 280 327 379
#     4  12  22  42  67  98 131 173 222 264 325 407
#     4  11  25  42  69  96 133 178 219 266 334 400
#     4  11  24  40  67 101 128 169 222 275 327 385
#     4  11  22  39  63  96 133 170 221 271 325 393
#     4  11  21  37  63  99 127 166 221 272 320 382
#
# _framework density 25.974321
#
# number of rings (size 3 to 8) (size 9 to 14) (size 15 to 20)
#    0.000    0.667    8.333    1.000    0.000    1.333 
#    0.000    0.000   11.000    0.000    0.000    0.000 
#    0.000    0.000    0.000    0.000    0.000    0.000 
#
# Total GULP energy -67130.702684 kJ/mol
# GULP energy per Si atom -5594.225224 kJ/mol
# Density = 2.591520 g / cm^3
# Si number density = 25.974321 Si / 1000 Ang^3
#
#
#
# Elastic Constant Matrix: (Units=GPa)
#
#
# Indices 1 2 3 4 5 6 
#
# 1 56.0895 8.2300 24.3638 0.0000 -15.6859 0.0000
# 2 8.2300 131.6414 22.4090 0.0000 -3.9346 0.0000
# 3 24.3638 22.4090 93.1149 0.0000 -17.4425 0.0000
# 4 0.0000 0.0000 0.0000 37.4128 0.0000 -8.1623
# 5 -15.6859 -3.9346 -17.4425 0.0000 40.4249 0.0000
# 6 0.0000 0.0000 0.0000 -8.1623 0.0000 31.5471
#
#
#
# Elastic Compliance Matrix: (Units=1/GPa)
#
#
# Indices 1 2 3 4 5 6 
#
# 1 0.021580 -0.000418 -0.004335 0.000000 0.006462 0.000000
# 2 -0.000418 0.007929 -0.001833 0.000000 -0.000181 0.000000
# 3 -0.004335 -0.001833 0.013019 0.000000 0.003757 0.000000
# 4 0.000000 0.000000 0.000000 0.028328 0.000000 0.007329
# 5 0.006462 -0.000181 0.003757 0.000000 0.028848 0.000000
# 6 0.000000 0.000000 0.000000 0.007329 0.000000 0.033595
#
#
# Mechanical properties :
#
#
# Convention : Reuss Voigt Hill
#
# Bulk Modulus (GPa) = 34.06504 43.42795 38.74649
# Shear Modulus (GPa) = 31.99861 36.93316 34.46588
#
# Velocity S-wave (km/s) = 3.51370 3.77491 3.64665
# Velocity P-wave (km/s) = 5.44103 5.97962 5.71667
#
# Compressibility (1/GPa) = 0.02935561
#
# Stress axis : x y z
#
# Youngs Moduli (GPa) = 46.33828 126.11764 76.81333
#
# Poissons Ratio (x) = 0.05272 0.33302
# Poissons Ratio (y) = 0.01937 0.14078
# Poissons Ratio (z) = 0.20090 0.23115
#
# Static dielectric constant tensor:
#      x y z
#    x 2.046390 0.000000 -0.040470 
#    y 0.000000 2.008520 0.000000 
#    z -0.040470 0.000000 2.062250 
# 
# From -- ./inp_files/7336.got.cif
#   From: 2010.05.17/outbox.cif.g08.bks.cpg/sg4_4_cif.got.tgz:7336.got - 2010.06.03 18:43:04.
