data_PCOD9118408
_publ_section_title
;
Structure prediction by ZEFSAII (Michael W. Deem and Ramdas Pophale) SiO2 
 PCOD9118408
Probable space group: P 21
;
_chemical_formula_sum "Si O2"
_cell_formula_units_Z 12
_cell_length_a 17.347780
_cell_length_b 5.069874
_cell_length_c 5.212222
_cell_angle_alpha 90.000000
_cell_angle_beta 89.584818
_cell_angle_gamma 90.000000
_cell_volume 458.408408
_symmetry_space_group_name_H-M "P 21"
_symmetry_group_IT_number 4
_symmetry_cell_setting 'monoclinic'
loop_
_space_group_symop_operation_xyz
x,y,z
-x,1/2+y,-z
loop_
_atom_site_type_symbol
_atom_site_label
_atom_site_fract_x
_atom_site_fract_y
_atom_site_fract_z
Si Si1 0.638438 0.254610 0.589270
Si Si2 0.750249 0.884020 0.418186
Si Si3 0.147178 0.888484 0.461592
Si Si4 0.503708 0.363456 0.916925
Si Si5 0.662013 0.569534 0.075808
Si Si6 0.950307 0.319521 0.040354
O O1 0.548222 0.300675 0.650950
O O2 0.663554 0.411580 0.339522
O O3 0.669119 0.957272 0.562948
O O4 0.547266 0.131140 0.089744
O O5 0.803983 0.654845 0.522030
O O6 0.721119 0.803742 0.134142
O O7 0.800800 0.144112 0.447663
O O8 0.114254 0.846993 0.178225
O O9 0.080228 0.898350 0.678271
O O10 0.429725 0.141746 0.955408
O O11 0.679239 0.392706 0.831935
O O12 0.017761 0.523223 0.963428
#
# Coordination Sequence:
#
# PCOD9118408 Si02
#       6
#     2   2   2   2   2   2
#     4  10  26  45  73 101 147 193 237 323 386 431
#     4  12  26  49  74 113 152 184 260 300 390 446
#     4  12  28  43  80 113 140 206 240 302 358 460
#     4  10  26  45  72 101 140 192 262 300 382 466
#     4  10  26  45  73 101 147 193 237 323 386 431
#     4  12  26  51  74 109 156 194 242 298 358 428
#
# _framework density 26.177530999999998
#
# number of rings (size 3 to 8) (size 9 to 14) (size 15 to 20)
#    1.000    0.000    1.667    3.000    7.000    5.333 
#    0.000    0.000    0.000    0.000    0.000    0.000 
#    0.000    0.000    0.000    0.000    0.000    0.000 
#
# Total GULP energy -67094.985983 kJ/mol
# GULP energy per Si atom -5591.248832 kJ/mol
# Density = 2.611795 g / cm^3
# Si number density = 26.177531 Si / 1000 Ang^3
#
#
#
# Elastic Constant Matrix: (Units=GPa)
#
#
# Indices 1 2 3 4 5 6 
#
# 1 45.0114 7.7712 -10.8554 0.0000 8.1073 0.0000
# 2 7.7712 166.2314 20.8766 0.0000 -3.4164 0.0000
# 3 -10.8554 20.8766 111.2200 0.0000 1.9579 0.0000
# 4 0.0000 0.0000 0.0000 30.1362 0.0000 -11.0493
# 5 8.1073 -3.4164 1.9579 0.0000 49.6177 0.0000
# 6 0.0000 0.0000 0.0000 -11.0493 0.0000 51.3653
#
#
#
# Elastic Compliance Matrix: (Units=1/GPa)
#
#
# Indices 1 2 3 4 5 6 
#
# 1 0.023872 -0.001539 0.002691 0.000000 -0.004113 0.000000
# 2 -0.001539 0.006271 -0.001340 0.000000 0.000736 0.000000
# 3 0.002691 -0.001340 0.009521 0.000000 -0.000908 0.000000
# 4 0.000000 0.000000 0.000000 0.036024 0.000000 0.007749
# 5 -0.004113 0.000736 -0.000908 0.000000 0.020913 0.000000
# 6 0.000000 0.000000 0.000000 0.007749 0.000000 0.021135
#
#
# Mechanical properties :
#
#
# Convention : Reuss Voigt Hill
#
# Bulk Modulus (GPa) = 25.45216 39.78305 32.61761
# Shear Modulus (GPa) = 38.10747 46.53521 42.32134
#
# Velocity S-wave (km/s) = 3.81954 4.22083 4.02519
# Velocity P-wave (km/s) = 5.40332 6.24373 5.83867
#
# Compressibility (1/GPa) = 0.03928939
#
# Stress axis : x y z
#
# Youngs Moduli (GPa) = 41.89002 159.46217 105.02653
#
# Poissons Ratio (x) = 0.24533 -0.28264
# Poissons Ratio (y) = 0.06445 0.14076
# Poissons Ratio (z) = -0.11273 0.21372
#
# Static dielectric constant tensor:
#      x y z
#    x 2.130450 0.000000 0.067000 
#    y 0.000000 2.457280 0.000000 
#    z 0.067000 0.000000 2.405160 
# 
# From -- ./inp_files/3339.got.cif
#   From: 2010.05.17/outbox.cif.g08.bks.cpg/sg4_2_cif.got.tgz:3339.got - 2010.06.03 18:43:04.
