data_PCOD9118692
_publ_section_title
;
Structure prediction by ZEFSAII (Michael W. Deem and Ramdas Pophale) SiO2 
 PCOD9118692
Probable space group: P 21
;
_chemical_formula_sum "Si O2"
_cell_formula_units_Z 16
_cell_length_a 8.266977
_cell_length_b 7.995312
_cell_length_c 11.530723
_cell_angle_alpha 90.000000
_cell_angle_beta 116.112893
_cell_angle_gamma 90.000000
_cell_volume 684.353460
_symmetry_space_group_name_H-M "P 21"
_symmetry_group_IT_number 4
_symmetry_cell_setting 'monoclinic'
loop_
_space_group_symop_operation_xyz
x,y,z
-x,1/2+y,-z
loop_
_atom_site_type_symbol
_atom_site_label
_atom_site_fract_x
_atom_site_fract_y
_atom_site_fract_z
Si Si1 0.813685 0.692910 0.722603
Si Si2 0.212614 0.072132 0.834264
Si Si3 0.900789 0.355935 0.020085
Si Si4 0.220052 0.286527 0.542176
Si Si5 0.386601 0.604209 0.969046
Si Si6 0.946402 0.893145 0.178282
Si Si7 0.180174 0.901460 0.598861
Si Si8 0.435245 0.596981 0.708123
O O1 0.759090 0.795031 0.591243
O O2 0.635350 0.615924 0.722441
O O3 0.923573 0.792647 0.855509
O O4 0.955053 0.547147 0.728918
O O5 0.101360 0.233671 0.761211
O O6 0.167283 0.922025 0.734439
O O7 0.142647 0.036960 0.941647
O O8 0.426181 0.089079 0.905702
O O9 0.729288 0.250194 0.008542
O O10 0.930644 0.355418 0.893853
O O11 0.240613 0.088279 0.578836
O O12 0.353015 0.416922 0.646975
O O13 0.017938 0.350686 0.502823
O O14 0.248635 0.449383 0.932280
O O15 0.427643 0.619736 0.845108
O O16 0.316188 0.749574 0.617782
#
# Coordination Sequence:
#
# PCOD9118692 Si02
#       8
#     2   2   2   2   2   2   2   2
#     4  11  27  48  68 104 151 190 244 301 372 435
#     4  12  23  41  72 109 139 190 243 297 365 445
#     4  11  22  43  66 107 146 191 233 296 376 436
#     4  12  27  50  75 105 143 195 251 299 373 426
#     4  11  23  44  71 106 146 187 246 293 371 440
#     4  11  24  41  70 103 153 190 227 308 368 431
#     4  12  26  46  79 104 138 194 251 301 363 438
#     4  12  26  51  77 104 150 193 245 315 354 439
#
# _framework density 23.379729999999999
#
# number of rings (size 3 to 8) (size 9 to 14) (size 15 to 20)
#    0.000    0.500    3.750    5.250    5.250    1.000 
#    2.250    0.000    0.000    0.000    0.000    0.000 
#    0.000    0.000    0.000    0.000    0.000    0.000 
#
# Total GULP energy -89538.555201 kJ/mol
# GULP energy per Si atom -5596.159700 kJ/mol
# Density = 2.332652 g / cm^3
# Si number density = 23.379730 Si / 1000 Ang^3
#
#
#
# Elastic Constant Matrix: (Units=GPa)
#
#
# Indices 1 2 3 4 5 6 
#
# 1 116.8082 33.8053 41.7541 0.0000 19.4942 0.0000
# 2 33.8053 101.8488 16.3933 0.0000 4.4103 0.0000
# 3 41.7541 16.3933 91.9310 0.0000 -2.5607 0.0000
# 4 0.0000 0.0000 0.0000 26.0915 0.0000 -7.6414
# 5 19.4942 4.4103 -2.5607 0.0000 30.1596 0.0000
# 6 0.0000 0.0000 0.0000 -7.6414 0.0000 35.3646
#
#
#
# Elastic Compliance Matrix: (Units=1/GPa)
#
#
# Indices 1 2 3 4 5 6 
#
# 1 0.012777 -0.002997 -0.005500 0.000000 -0.008288 0.000000
# 2 -0.002997 0.010893 -0.000573 0.000000 0.000296 0.000000
# 3 -0.005500 -0.000573 0.013611 0.000000 0.004794 0.000000
# 4 0.000000 0.000000 0.000000 0.040916 0.000000 0.008841
# 5 -0.008288 0.000296 0.004794 0.000000 0.038878 0.000000
# 6 0.000000 0.000000 0.000000 0.008841 0.000000 0.030187
#
#
# Mechanical properties :
#
#
# Convention : Reuss Voigt Hill
#
# Bulk Modulus (GPa) = 52.24109 54.94371 53.59240
# Shear Modulus (GPa) = 29.10656 32.89881 31.00269
#
# Velocity S-wave (km/s) = 3.53221 3.75527 3.64545
# Velocity P-wave (km/s) = 6.24728 6.50802 6.37898
#
# Compressibility (1/GPa) = 0.01914202
#
# Stress axis : x y z
#
# Youngs Moduli (GPa) = 78.26268 91.80520 73.46770
#
# Poissons Ratio (x) = 0.27513 0.40406
# Poissons Ratio (y) = 0.23455 0.04210
# Poissons Ratio (z) = 0.43043 0.05260
#
# Static dielectric constant tensor:
#      x y z
#    x 1.829530 0.000000 -0.028560 
#    y 0.000000 2.006980 0.000000 
#    z -0.028560 0.000000 1.903920 
# 
# From -- ./inp_files/10906.got.cif
#   From: 2010.05.17/outbox.cif.g08.bks.cpg/sg4_6_cif.got.tgz:10906.got - 2010.06.03 18:43:04.
