data_PCOD9118717
_publ_section_title
;
Structure prediction by ZEFSAII (Michael W. Deem and Ramdas Pophale) SiO2 
 PCOD9118717
Probable space group: P 21
;
_chemical_formula_sum "Si O2"
_cell_formula_units_Z 12
_cell_length_a 13.737021
_cell_length_b 5.371470
_cell_length_c 15.769552
_cell_angle_alpha 90.000000
_cell_angle_beta 153.002599
_cell_angle_gamma 90.000000
_cell_volume 528.217969
_symmetry_space_group_name_H-M "P 21"
_symmetry_group_IT_number 4
_symmetry_cell_setting 'monoclinic'
loop_
_space_group_symop_operation_xyz
x,y,z
-x,1/2+y,-z
loop_
_atom_site_type_symbol
_atom_site_label
_atom_site_fract_x
_atom_site_fract_y
_atom_site_fract_z
Si Si1 0.536927 0.072270 0.891495
Si Si2 0.251264 0.351033 0.796461
Si Si3 0.398220 0.425885 0.456422
Si Si4 0.024093 0.091158 0.963802
Si Si5 0.806805 0.183837 0.402238
Si Si6 0.544212 0.418294 0.757358
O O1 0.459969 0.249691 0.909068
O O2 0.638184 0.197371 0.888116
O O3 0.316308 0.944745 0.691091
O O4 0.692580 0.887805 0.062307
O O5 0.187171 0.590328 0.689906
O O6 0.042114 0.182705 0.623218
O O7 0.461119 0.174512 0.454438
O O8 0.442873 0.354690 0.588374
O O9 0.160173 0.513780 0.245895
O O10 0.968339 0.352615 0.965929
O O11 0.260125 0.105578 0.106467
O O12 0.647880 0.014934 0.333419
#
# Coordination Sequence:
#
# PCOD9118717 Si02
#       6
#     2   2   2   2   2   2
#     4  11  24  42  70 100 144 178 243 290 348 437
#     4  11  22  44  69  96 138 198 221 288 368 409
#     4  12  25  49  78 104 147 194 238 299 374 436
#     4  12  25  49  78 104 147 194 238 299 374 436
#     4  11  24  42  70 100 144 178 243 290 348 437
#     4  11  28  44  69 110 138 182 247 294 352 433
#
# _framework density 22.717894000000001
#
# number of rings (size 3 to 8) (size 9 to 14) (size 15 to 20)
#    0.000    0.667    6.667    0.000    4.667    2.667 
#    0.000    0.000    0.000    0.000    0.000    0.000 
#    0.000    0.000    0.000    0.000    0.000    0.000 
#
# Total GULP energy -67034.432143 kJ/mol
# GULP energy per Si atom -5586.202679 kJ/mol
# Density = 2.266619 g / cm^3
# Si number density = 22.717894 Si / 1000 Ang^3
#
#
#
# Elastic Constant Matrix: (Units=GPa)
#
#
# Indices 1 2 3 4 5 6 
#
# 1 64.2781 15.3235 29.8815 0.0000 -10.6085 0.0000
# 2 15.3235 75.7602 -2.8005 0.0000 -6.1609 0.0000
# 3 29.8815 -2.8005 131.6421 0.0000 -9.6886 0.0000
# 4 0.0000 0.0000 0.0000 37.3281 0.0000 1.6269
# 5 -10.6085 -6.1609 -9.6886 0.0000 39.1075 0.0000
# 6 0.0000 0.0000 0.0000 1.6269 0.0000 24.4547
#
#
#
# Elastic Compliance Matrix: (Units=1/GPa)
#
#
# Indices 1 2 3 4 5 6 
#
# 1 0.018935 -0.003695 -0.004117 0.000000 0.003535 0.000000
# 2 -0.003695 0.014118 0.001252 0.000000 0.001532 0.000000
# 3 -0.004117 0.001252 0.008647 0.000000 0.001223 0.000000
# 4 0.000000 0.000000 0.000000 0.026867 0.000000 -0.001787
# 5 0.003535 0.001532 0.001223 0.000000 0.027074 0.000000
# 6 0.000000 0.000000 0.000000 -0.001787 0.000000 0.041011
#
#
# Mechanical properties :
#
#
# Convention : Reuss Voigt Hill
#
# Bulk Modulus (GPa) = 34.98789 39.60996 37.29892
# Shear Modulus (GPa) = 31.38767 35.46314 33.42541
#
# Velocity S-wave (km/s) = 3.72106 3.95526 3.83995
# Velocity P-wave (km/s) = 5.82204 6.19130 6.00951
#
# Compressibility (1/GPa) = 0.02858132
#
# Stress axis : x y z
#
# Youngs Moduli (GPa) = 52.81165 70.83319 115.64172
#
# Poissons Ratio (x) = 0.26170 0.47605
# Poissons Ratio (y) = 0.19512 -0.14475
# Poissons Ratio (z) = 0.21740 -0.08866
#
# Static dielectric constant tensor:
#      x y z
#    x 1.829120 0.000000 0.004940 
#    y 0.000000 1.971290 0.000000 
#    z 0.004940 0.000000 1.838840 
# 
# From -- ./inp_files/14085.got.cif
#   From: 2010.05.17/outbox.cif.g08.bks.cpg/sg4_8_cif.got.tgz:14085.got - 2010.06.03 18:43:04.
