data_PCOD9118399
_publ_section_title
;
Structure prediction by ZEFSAII (Michael W. Deem and Ramdas Pophale) SiO2 
 PCOD9118399
Probable space group: P 21
;
_chemical_formula_sum "Si O2"
_cell_formula_units_Z 14
_cell_length_a 5.709828
_cell_length_b 20.698869
_cell_length_c 5.902070
_cell_angle_alpha 90.000000
_cell_angle_beta 128.899846
_cell_angle_gamma 90.000000
_cell_volume 542.863004
_symmetry_space_group_name_H-M "P 21"
_symmetry_group_IT_number 4
_symmetry_cell_setting 'monoclinic'
loop_
_space_group_symop_operation_xyz
x,y,z
-x,1/2+y,-z
loop_
_atom_site_type_symbol
_atom_site_label
_atom_site_fract_x
_atom_site_fract_y
_atom_site_fract_z
Si Si1 0.419771 0.835060 0.000174
Si Si2 0.593099 0.450644 0.353364
Si Si3 0.099333 0.045994 0.174668
Si Si4 0.473904 0.231662 0.293747
Si Si5 0.220688 0.353404 0.372766
Si Si6 0.020885 0.146910 0.799513
Si Si7 0.452301 0.569757 0.933175
O O1 0.344709 0.890053 0.769126
O O2 0.472890 0.767384 0.912269
O O3 0.099207 0.835627 0.928328
O O4 0.709923 0.855007 0.318183
O O5 0.847744 0.476094 0.679920
O O6 0.322706 0.422255 0.339132
O O7 0.517483 0.509281 0.138205
O O8 0.921929 0.078996 0.854680
O O9 0.423358 0.055869 0.244524
O O10 0.903212 0.079899 0.256264
O O11 0.429353 0.292156 0.432648
O O12 0.169631 0.190064 0.090960
O O13 0.755046 0.186644 0.526826
O O14 0.330677 0.128085 0.856310
#
# Coordination Sequence:
#
# PCOD9118399 Si02
#       7
#     2   2   2   2   2   2   2
#     4  11  26  45  74 103 141 194 244 311 362 433
#     4  11  26  42  74 100 154 183 250 296 376 433
#     4  10  26  44  70 110 151 193 241 299 368 441
#     4  11  24  50  68 108 140 193 246 306 364 437
#     4  11  26  45  74 103 141 194 244 311 362 433
#     4  10  26  44  74 104 150 190 246 296 374 438
#     4  10  26  44  70 110 151 193 241 299 368 441
#
# _framework density 25.789194999999999
#
# number of rings (size 3 to 8) (size 9 to 14) (size 15 to 20)
#    0.857    0.571    0.000    2.571   12.000    5.714 
#    0.000    0.000    0.000    0.000    0.000    0.000 
#    0.000    0.000    0.000    0.000    0.000    0.000 
#
# Total GULP energy -77938.302201 kJ/mol
# GULP energy per Si atom -5567.021586 kJ/mol
# Density = 2.573050 g / cm^3
# Si number density = 25.789195 Si / 1000 Ang^3
#
#
#
# Elastic Constant Matrix: (Units=GPa)
#
#
# Indices 1 2 3 4 5 6 
#
# 1 99.3748 14.1287 17.2233 0.0000 1.9018 0.0000
# 2 14.1287 134.0956 53.0755 0.0000 1.6350 0.0000
# 3 17.2233 53.0755 142.0981 0.0000 24.0691 0.0000
# 4 0.0000 0.0000 0.0000 54.9247 0.0000 -5.7367
# 5 1.9018 1.6350 24.0691 0.0000 18.9444 0.0000
# 6 0.0000 0.0000 0.0000 -5.7367 0.0000 41.8574
#
#
#
# Elastic Compliance Matrix: (Units=1/GPa)
#
#
# Indices 1 2 3 4 5 6 
#
# 1 0.010336 -0.000672 -0.001065 0.000000 0.000374 0.000000
# 2 -0.000672 0.009083 -0.004064 0.000000 0.004447 0.000000
# 3 -0.001065 -0.004064 0.010967 0.000000 -0.013476 0.000000
# 4 0.000000 0.000000 0.000000 0.018471 0.000000 0.002532
# 5 0.000374 0.004447 -0.013476 0.000000 0.069487 0.000000
# 6 0.000000 0.000000 0.000000 0.002532 0.000000 0.024238
#
#
# Mechanical properties :
#
#
# Convention : Reuss Voigt Hill
#
# Bulk Modulus (GPa) = 53.23979 60.49152 56.86565
# Shear Modulus (GPa) = 31.16332 42.55470 36.85901
#
# Velocity S-wave (km/s) = 3.47996 4.06655 3.78463
# Velocity P-wave (km/s) = 6.06925 6.74953 6.41841
#
# Compressibility (1/GPa) = 0.01878295
#
# Stress axis : x y z
#
# Youngs Moduli (GPa) = 96.75018 110.10032 91.18055
#
# Poissons Ratio (x) = 0.07399 0.09711
# Poissons Ratio (y) = 0.06502 0.37059
# Poissons Ratio (z) = 0.10304 0.44749
#
# Static dielectric constant tensor:
#      x y z
#    x 2.253320 0.000000 -0.003710 
#    y 0.000000 2.023210 0.000000 
#    z -0.003710 0.000000 2.015250 
# 
# From -- ./inp_files/643.got.cif
#   From: 2010.05.17/outbox.cif.g08.bks.cpg/sg4_1_cif.got.tgz:643.got - 2010.06.03 18:43:04.
