data_PCOD9118441
_publ_section_title
;
Structure prediction by ZEFSAII (Michael W. Deem and Ramdas Pophale) SiO2 
 PCOD9118441
Probable space group: P 21
;
_chemical_formula_sum "Si O2"
_cell_formula_units_Z 16
_cell_length_a 4.880763
_cell_length_b 4.970595
_cell_length_c 19.698887
_cell_angle_alpha 90.000000
_cell_angle_beta 78.249829
_cell_angle_gamma 90.000000
_cell_volume 467.886356
_symmetry_space_group_name_H-M "P 21"
_symmetry_group_IT_number 4
_symmetry_cell_setting 'monoclinic'
loop_
_space_group_symop_operation_xyz
x,y,z
-x,1/2+y,-z
loop_
_atom_site_type_symbol
_atom_site_label
_atom_site_fract_x
_atom_site_fract_y
_atom_site_fract_z
Si Si1 0.405866 0.687520 0.778110
Si Si2 0.891597 0.277252 0.646034
Si Si3 0.572283 0.073510 0.377800
Si Si4 0.060073 0.621479 0.209977
Si Si5 0.825215 0.590574 0.484097
Si Si6 0.752314 0.648193 0.000334
Si Si7 0.581129 0.889286 0.893272
Si Si8 0.905835 0.905220 0.108427
O O1 0.515056 0.671277 0.693023
O O2 0.353149 0.642990 0.876679
O O3 0.181113 0.407218 0.799788
O O4 0.181935 0.914319 0.775166
O O5 0.101066 0.530020 0.635065
O O6 0.829183 0.247949 0.728080
O O7 0.105122 0.067288 0.599582
O O8 0.599719 0.289859 0.622086
O O9 0.452400 0.161621 0.457678
O O10 0.157250 0.662973 0.125335
O O11 0.333976 0.370360 0.195849
O O12 0.984032 0.347202 0.509688
O O13 0.511539 0.897400 0.983276
O O14 0.680923 0.642628 0.091190
O O15 0.016394 0.399175 0.982635
O O16 0.828641 0.654373 0.909986
#
# Coordination Sequence:
#
# PCOD9118441 Si02
#       8
#     2   2   2   2   2   2   2   2
#     4  12  27  46  71 106 149 198 255 321 391 471
#     4  11  28  50  83 120 163 212 262 326 392 474
#     4  11  28  50  83 120 163 212 262 326 392 474
#     4  12  27  46  71 106 149 198 255 321 391 471
#     4  10  26  54  88 130 172 218 272 332 400 482
#     4  12  24  44  70  96 138 188 252 324 398 468
#     4  12  26  42  70 104 132 198 252 324 394 470
#     4  12  24  48  66 100 142 188 252 322 392 470
#
# _framework density 34.196342000000001
#
# number of rings (size 3 to 8) (size 9 to 14) (size 15 to 20)
#    0.000    0.500    3.750    3.000    8.750    7.000 
#    0.000    0.000    0.000    0.000    0.000    0.000 
#    0.000    0.000    0.000    0.000    0.000    0.000 
#
# Total GULP energy -89512.656998 kJ/mol
# GULP energy per Si atom -5594.541062 kJ/mol
# Density = 3.411851 g / cm^3
# Si number density = 34.196342 Si / 1000 Ang^3
#
#
#
# Elastic Constant Matrix: (Units=GPa)
#
#
# Indices 1 2 3 4 5 6 
#
# 1 290.5492 51.7714 45.8097 0.0000 -11.0593 0.0000
# 2 51.7714 268.3463 55.3903 0.0000 3.0838 0.0000
# 3 45.8097 55.3903 202.1352 0.0000 -2.0049 0.0000
# 4 0.0000 0.0000 0.0000 84.6507 0.0000 -0.3372
# 5 -11.0593 3.0838 -2.0049 0.0000 74.2136 0.0000
# 6 0.0000 0.0000 0.0000 -0.3372 0.0000 73.1507
#
#
#
# Elastic Compliance Matrix: (Units=1/GPa)
#
#
# Indices 1 2 3 4 5 6 
#
# 1 0.003671 -0.000577 -0.000668 0.000000 0.000553 0.000000
# 2 -0.000577 0.004043 -0.000980 0.000000 -0.000280 0.000000
# 3 -0.000668 -0.000980 0.005368 0.000000 0.000086 0.000000
# 4 0.000000 0.000000 0.000000 0.011813 0.000000 0.000054
# 5 0.000553 -0.000280 0.000086 0.000000 0.013571 0.000000
# 6 0.000000 0.000000 0.000000 0.000054 0.000000 0.013671
#
#
# Mechanical properties :
#
#
# Convention : Reuss Voigt Hill
#
# Bulk Modulus (GPa) = 115.84707 118.55260 117.19983
# Shear Modulus (GPa) = 84.08298 86.94029 85.51163
#
# Velocity S-wave (km/s) = 4.96404 5.04768 5.00603
# Velocity P-wave (km/s) = 8.17350 8.28948 8.23170
#
# Compressibility (1/GPa) = 0.00863207
#
# Stress axis : x y z
#
# Youngs Moduli (GPa) = 272.40993 247.32317 186.28588
#
# Poissons Ratio (x) = 0.14261 0.12452
# Poissons Ratio (y) = 0.15707 0.18257
# Poissons Ratio (z) = 0.18209 0.24239
#
# Static dielectric constant tensor:
#      x y z
#    x 2.816550 0.000000 0.007090 
#    y 0.000000 3.129460 0.000000 
#    z 0.007090 0.000000 2.911620 
# 
# From -- ./inp_files/4316.got.cif
#   From: 2010.05.17/outbox.cif.g08.bks.cpg/sg4_3_cif.got.tgz:4316.got - 2010.06.03 18:43:04.
