data_PCOD9118873
_publ_section_title
;
Structure prediction by ZEFSAII (Michael W. Deem and Ramdas Pophale) SiO2 
 PCOD9118873
Probable space group: P 21
;
_chemical_formula_sum "Si O2"
_cell_formula_units_Z 14
_cell_length_a 15.015528
_cell_length_b 8.147452
_cell_length_c 11.590946
_cell_angle_alpha 90.000000
_cell_angle_beta 27.404147
_cell_angle_gamma 90.000000
_cell_volume 652.662032
_symmetry_space_group_name_H-M "P 21"
_symmetry_group_IT_number 4
_symmetry_cell_setting 'monoclinic'
loop_
_space_group_symop_operation_xyz
x,y,z
-x,1/2+y,-z
loop_
_atom_site_type_symbol
_atom_site_label
_atom_site_fract_x
_atom_site_fract_y
_atom_site_fract_z
Si Si1 0.314525 0.568630 0.406980
Si Si2 0.247418 0.020364 0.140951
Si Si3 0.029408 0.522283 0.135026
Si Si4 0.285449 0.052020 0.668737
Si Si5 0.933168 0.400268 0.879109
Si Si6 0.952134 0.313085 0.430687
Si Si7 0.366905 0.420077 0.588405
O O1 0.196783 0.715729 0.481999
O O2 0.358698 0.552382 0.493979
O O3 0.151767 0.426103 0.582360
O O4 0.524116 0.550859 0.107709
O O5 0.115917 0.185403 0.285856
O O6 0.212791 0.935698 0.056592
O O7 0.161579 0.899810 0.335584
O O8 0.815485 0.493041 0.331149
O O9 0.047066 0.454309 0.242872
O O10 0.078677 0.714192 0.066382
O O11 0.175276 0.429965 0.884578
O O12 0.366780 0.232307 0.548588
O O13 0.457181 0.950591 0.527727
O O14 0.119582 0.029776 0.959034
#
# Coordination Sequence:
#
# PCOD9118873 Si02
#       7
#     2   2   2   2   2   2   2
#     4  11  24  44  71  99 136 181 231 290 345 412
#     4  11  25  50  70  98 139 176 241 290 343 418
#     4  12  25  41  68 103 143 182 228 282 351 419
#     4  12  24  42  65 104 145 179 231 281 346 423
#     4  11  23  43  70  99 139 184 225 284 351 409
#     4  11  28  46  73 100 138 186 233 291 352 411
#     4  12  25  40  69 103 140 186 227 284 352 416
#
# _framework density 21.450610999999999
#
# number of rings (size 3 to 8) (size 9 to 14) (size 15 to 20)
#    0.000    0.571    4.286    3.429    4.000    3.429 
#    0.000    0.000    0.000    0.000    0.000    0.000 
#    0.000    0.000    0.000    0.000    0.000    0.000 
#
# Total GULP energy -78182.894298 kJ/mol
# GULP energy per Si atom -5584.492450 kJ/mol
# Density = 2.140179 g / cm^3
# Si number density = 21.450611 Si / 1000 Ang^3
#
#
#
# Elastic Constant Matrix: (Units=GPa)
#
#
# Indices 1 2 3 4 5 6 
#
# 1 28.2224 26.4894 -106.0255 0.0000 -34.2194 0.0000
# 2 26.4894 79.7286 17.1846 0.0000 -4.7288 0.0000
# 3 -106.0255 17.1846 -638.6253 0.0000 -188.2617 0.0000
# 4 0.0000 0.0000 0.0000 24.8044 0.0000 5.5839
# 5 -34.2194 -4.7288 -188.2617 0.0000 11.0271 0.0000
# 6 0.0000 0.0000 0.0000 5.5839 0.0000 39.7374
#
#
#
# Elastic Compliance Matrix: (Units=1/GPa)
#
#
# Indices 1 2 3 4 5 6 
#
# 1 0.025735 -0.007582 -0.004485 0.000000 0.000030 0.000000
# 2 -0.007582 0.014932 0.001112 0.000000 0.001861 0.000000
# 3 -0.004485 0.001112 0.000526 0.000000 -0.004467 0.000000
# 4 0.000000 0.000000 0.000000 0.041632 0.000000 -0.005850
# 5 0.000030 0.001861 -0.004467 0.000000 0.015307 0.000000
# 6 0.000000 0.000000 0.000000 -0.005850 0.000000 0.025987
#
#
# Mechanical properties :
#
#
# Convention : Reuss Voigt Hill
#
# Bulk Modulus (GPa) = 51.86072 -72.81970 -10.47949
# Shear Modulus (GPa) = 32.79608 -16.10774 8.34417
#
# Velocity S-wave (km/s) = 3.91437 -2.74327 1.97443
# Velocity P-wave (km/s) = 6.68274 6.63742 0.54940
#
# Compressibility (1/GPa) = 0.01928242
#
# Stress axis : x y z
#
# Youngs Moduli (GPa) = 38.85796 66.96936 1902.23170
#
# Poissons Ratio (x) = 0.50774 8.53239
# Poissons Ratio (y) = 0.29461 -2.11528
# Poissons Ratio (z) = 0.17430 -0.07447
#
# Static dielectric constant tensor:
#      x y z
#    x 1.772690 0.000000 -0.019830 
#    y 0.000000 1.754320 0.000000 
#    z -0.019830 0.000000 1.798110 
# 
# From -- ./inp_files/11812.got.cif
#   From: 2010.05.17/outbox.cif.g08.bks.cpg/sg4_6_cif.got.tgz:11812.got - 2010.06.03 18:43:04.
