data_PCOD9118500
_publ_section_title
;
Structure prediction by ZEFSAII (Michael W. Deem and Ramdas Pophale) SiO2 
 PCOD9118500
Probable space group: P 21
;
_chemical_formula_sum "Si O2"
_cell_formula_units_Z 16
_cell_length_a 16.779509
_cell_length_b 7.672752
_cell_length_c 8.199814
_cell_angle_alpha 90.000000
_cell_angle_beta 41.191692
_cell_angle_gamma 90.000000
_cell_volume 695.253494
_symmetry_space_group_name_H-M "P 21"
_symmetry_group_IT_number 4
_symmetry_cell_setting 'monoclinic'
loop_
_space_group_symop_operation_xyz
x,y,z
-x,1/2+y,-z
loop_
_atom_site_type_symbol
_atom_site_label
_atom_site_fract_x
_atom_site_fract_y
_atom_site_fract_z
Si Si1 0.017057 0.784290 0.945868
Si Si2 0.085136 0.095422 0.641764
Si Si3 0.634650 0.575692 0.805432
Si Si4 0.533921 0.858045 0.755351
Si Si5 0.268792 0.641225 0.651259
Si Si6 0.421039 0.941402 0.590797
Si Si7 0.354880 0.278482 0.886026
Si Si8 0.122983 0.401004 0.124633
O O1 0.953431 0.778275 0.222058
O O2 0.928719 0.759769 0.925027
O O3 0.150400 0.698861 0.732773
O O4 0.045962 0.988821 0.865729
O O5 0.222548 0.054703 0.402622
O O6 0.994063 0.016510 0.648243
O O7 0.599394 0.678599 0.697840
O O8 0.556909 0.405213 0.957388
O O9 0.604677 0.696087 0.007271
O O10 0.452401 0.857927 0.719720
O O11 0.635662 0.009732 0.579584
O O12 0.335232 0.812515 0.620531
O O13 0.210098 0.529449 0.888199
O O14 0.552992 0.932402 0.302181
O O15 0.369812 0.129592 0.722733
O O16 0.213420 0.325105 0.117270
#
# Coordination Sequence:
#
# PCOD9118500 Si02
#       8
#     2   2   2   2   2   2   2   2
#     4   9  21  36  66  90 119 165 218 258 312 374
#     4   9  21  39  60  90 124 162 210 263 310 380
#     4  11  25  42  60  95 136 167 208 269 334 381
#     4  11  25  42  61  96 134 170 213 261 330 385
#     4  11  20  39  62  94 124 158 220 261 308 379
#     4  11  22  38  66  93 128 167 218 263 308 393
#     4  11  22  41  64  95 130 169 215 263 327 377
#     4   9  20  39  61  89 121 164 216 262 299 379
#
# _framework density 23.013190000000002
#
# number of rings (size 3 to 8) (size 9 to 14) (size 15 to 20)
#    0.750    1.000    3.750    0.750    3.500    2.000 
#    0.000    6.250    0.000    0.000    0.000    0.000 
#    0.000    0.000    0.000    0.000    0.000    0.000 
#
# Total GULP energy -89153.398846 kJ/mol
# GULP energy per Si atom -5572.087428 kJ/mol
# Density = 2.296081 g / cm^3
# Si number density = 23.013190 Si / 1000 Ang^3
#
#
#
# Elastic Constant Matrix: (Units=GPa)
#
#
# Indices 1 2 3 4 5 6 
#
# 1 85.4052 13.5044 19.5618 0.0000 -30.1358 0.0000
# 2 13.5044 29.1596 4.3181 0.0000 -16.1007 0.0000
# 3 19.5618 4.3181 84.4568 0.0000 -37.8805 0.0000
# 4 0.0000 0.0000 0.0000 28.5114 0.0000 -7.2319
# 5 -30.1358 -16.1007 -37.8805 0.0000 43.6437 0.0000
# 6 0.0000 0.0000 0.0000 -7.2319 0.0000 38.3849
#
#
#
# Elastic Compliance Matrix: (Units=1/GPa)
#
#
# Indices 1 2 3 4 5 6 
#
# 1 0.015701 -0.000845 0.001849 0.000000 0.012135 0.000000
# 2 -0.000845 0.046748 0.008644 0.000000 0.024165 0.000000
# 3 0.001849 0.008644 0.021243 0.000000 0.022903 0.000000
# 4 0.000000 0.000000 0.000000 0.036834 0.000000 0.006940
# 5 0.012135 0.024165 0.022903 0.000000 0.060086 0.000000
# 6 0.000000 0.000000 0.000000 0.006940 0.000000 0.027359
#
#
# Mechanical properties :
#
#
# Convention : Reuss Voigt Hill
#
# Bulk Modulus (GPa) = 9.70981 30.42114 20.06547
# Shear Modulus (GPa) = 22.42119 32.88381 27.65250
#
# Velocity S-wave (km/s) = 3.12473 3.78420 3.47016
# Velocity P-wave (km/s) = 4.15294 5.68693 4.97936
#
# Compressibility (1/GPa) = 0.10298863
#
# Stress axis : x y z
#
# Youngs Moduli (GPa) = 63.69135 21.39118 47.07495
#
# Poissons Ratio (x) = 0.01807 -0.08705
# Poissons Ratio (y) = 0.05381 -0.40692
# Poissons Ratio (z) = -0.11778 -0.18491
#
# Static dielectric constant tensor:
#      x y z
#    x 1.909430 0.000000 0.104180 
#    y 0.000000 1.988250 0.000000 
#    z 0.104180 0.000000 2.084880 
# 
# From -- ./inp_files/9556.got.cif
#   From: 2010.05.17/outbox.cif.g08.bks.cpg/sg4_5_cif.got.tgz:9556.got - 2010.06.03 18:43:04.
