data_PCOD9118078
_publ_section_title
;
Structure prediction by ZEFSAII (Michael W. Deem and Ramdas Pophale) SiO2 
 PCOD9118078
Probable space group: P 21
;
_chemical_formula_sum "Si O2"
_cell_formula_units_Z 14
_cell_length_a 8.634081
_cell_length_b 8.717798
_cell_length_c 12.392050
_cell_angle_alpha 90.000000
_cell_angle_beta 36.805561
_cell_angle_gamma 90.000000
_cell_volume 558.812804
_symmetry_space_group_name_H-M "P 21"
_symmetry_group_IT_number 4
_symmetry_cell_setting 'monoclinic'
loop_
_space_group_symop_operation_xyz
x,y,z
-x,1/2+y,-z
loop_
_atom_site_type_symbol
_atom_site_label
_atom_site_fract_x
_atom_site_fract_y
_atom_site_fract_z
Si Si1 0.470190 0.966490 0.302671
Si Si2 0.506821 0.262114 0.419673
Si Si3 0.596053 0.446644 0.175128
Si Si4 0.740498 0.065211 0.935952
Si Si5 0.295906 0.258217 0.165643
Si Si6 0.915948 0.851535 0.202494
Si Si7 0.764308 0.184478 0.505175
O O1 0.236147 0.849445 0.434473
O O2 0.712909 0.875100 0.219797
O O3 0.414968 0.108562 0.411918
O O4 0.566632 0.022628 0.135195
O O5 0.678009 0.352821 0.237419
O O6 0.650164 0.214593 0.448987
O O7 0.262055 0.366211 0.591830
O O8 0.412676 0.337892 0.206866
O O9 0.424272 0.582414 0.317395
O O10 0.849525 0.465116 0.959032
O O11 0.963995 0.180732 0.851267
O O12 0.807154 0.903274 0.845699
O O13 0.540676 0.168965 0.976531
O O14 0.062993 0.144661 0.323592
#
# Coordination Sequence:
#
# PCOD9118078 Si02
#       7
#     2   2   2   2   2   2   2
#     4  11  24  43  75 106 146 192 247 312 373 434
#     4  11  23  48  72 107 141 190 255 302 374 431
#     4  11  26  48  71 108 147 196 249 301 383 435
#     4  11  26  47  70 110 149 204 251 304 382 445
#     4  11  27  47  72 105 152 202 246 311 371 462
#     4  10  24  44  77 104 147 192 243 321 361 445
#     4  11  26  41  73 108 140 194 243 311 372 448
#
# _framework density 25.053113
#
# number of rings (size 3 to 8) (size 9 to 14) (size 15 to 20)
#    0.000    1.143    2.857    2.571   10.000    5.714 
#    0.000    0.000    0.000    0.000    0.000    0.000 
#    0.000    0.000    0.000    0.000    0.000    0.000 
#
# Total GULP energy -78276.136910 kJ/mol
# GULP energy per Si atom -5591.152636 kJ/mol
# Density = 2.499609 g / cm^3
# Si number density = 25.053113 Si / 1000 Ang^3
#
#
#
# Elastic Constant Matrix: (Units=GPa)
#
#
# Indices 1 2 3 4 5 6 
#
# 1 55.4245 4.5712 31.2476 0.0000 -3.3676 0.0000
# 2 4.5712 76.4269 20.2342 0.0000 -5.4756 0.0000
# 3 31.2476 20.2342 129.6332 0.0000 -2.3440 0.0000
# 4 0.0000 0.0000 0.0000 55.4021 0.0000 4.6413
# 5 -3.3676 -5.4756 -2.3440 0.0000 39.0974 0.0000
# 6 0.0000 0.0000 0.0000 4.6413 0.0000 39.6681
#
#
#
# Elastic Compliance Matrix: (Units=1/GPa)
#
#
# Indices 1 2 3 4 5 6 
#
# 1 0.020971 0.000194 -0.005058 0.000000 0.001530 0.000000
# 2 0.000194 0.013776 -0.002164 0.000000 0.001816 0.000000
# 3 -0.005058 -0.002164 0.009268 0.000000 -0.000183 0.000000
# 4 0.000000 0.000000 0.000000 0.018229 0.000000 -0.002133
# 5 0.001530 0.001816 -0.000183 0.000000 0.025952 0.000000
# 6 0.000000 0.000000 0.000000 -0.002133 0.000000 0.025459
#
#
# Mechanical properties :
#
#
# Convention : Reuss Voigt Hill
#
# Bulk Modulus (GPa) = 33.37841 41.51006 37.44424
# Shear Modulus (GPa) = 36.31195 40.52896 38.42046
#
# Velocity S-wave (km/s) = 3.81123 4.02645 3.92032
# Velocity P-wave (km/s) = 5.72007 6.18233 5.95569
#
# Compressibility (1/GPa) = 0.02995948
#
# Stress axis : x y z
#
# Youngs Moduli (GPa) = 47.68502 72.59052 107.90155
#
# Poissons Ratio (x) = -0.01411 0.54573
# Poissons Ratio (y) = -0.00927 0.23353
# Poissons Ratio (z) = 0.24117 0.15711
#
# Static dielectric constant tensor:
#      x y z
#    x 1.951760 0.000000 -0.018020 
#    y 0.000000 2.094200 0.000000 
#    z -0.018020 0.000000 1.959900 
# 
# From -- ./inp_files/5650.got.cif
#   From: 2010.05.17/outbox.cif.g08.bks.cpg/sg4_3_cif.got.tgz:5650.got - 2010.06.03 18:43:04.
