data_PCOD9118749
_publ_section_title
;
Structure prediction by ZEFSAII (Michael W. Deem and Ramdas Pophale) SiO2 
 PCOD9118749
Probable space group: P 21
;
_chemical_formula_sum "Si O2"
_cell_formula_units_Z 16
_cell_length_a 9.602422
_cell_length_b 5.232912
_cell_length_c 12.084059
_cell_angle_alpha 90.000000
_cell_angle_beta 100.349753
_cell_angle_gamma 90.000000
_cell_volume 597.327775
_symmetry_space_group_name_H-M "P 21"
_symmetry_group_IT_number 4
_symmetry_cell_setting 'monoclinic'
loop_
_space_group_symop_operation_xyz
x,y,z
-x,1/2+y,-z
loop_
_atom_site_type_symbol
_atom_site_label
_atom_site_fract_x
_atom_site_fract_y
_atom_site_fract_z
Si Si1 0.317258 0.604730 0.531377
Si Si2 0.109712 0.064698 0.213917
Si Si3 0.519331 0.070298 0.847030
Si Si4 0.254180 0.389102 0.760014
Si Si5 0.951068 0.579885 0.141957
Si Si6 0.712272 0.282969 0.045670
Si Si7 0.930440 0.448475 0.539877
Si Si8 0.617095 0.753437 0.654467
O O1 0.255816 0.493639 0.636840
O O2 0.234588 0.871193 0.501886
O O3 0.485557 0.626087 0.573025
O O4 0.295705 0.425220 0.421314
O O5 0.277653 0.073497 0.260736
O O6 0.054588 0.340806 0.168956
O O7 0.825242 0.506435 0.040044
O O8 0.044690 0.829067 0.137519
O O9 0.415036 0.305201 0.808685
O O10 0.428859 0.894503 0.917779
O O11 0.546648 0.935493 0.735455
O O12 0.662275 0.141040 0.929770
O O13 0.151211 0.148477 0.767426
O O14 0.222230 0.595846 0.851649
O O15 0.050947 0.017672 0.329727
O O16 0.989369 0.687538 0.480899
#
# Coordination Sequence:
#
# PCOD9118749 Si02
#       8
#     2   2   2   2   2   2   2   2
#     4  12  26  46  72 117 157 213 251 305 394 466
#     4  12  26  47  71 107 155 210 254 308 388 465
#     4  11  24  44  76 120 150 200 254 328 404 458
#     4  11  23  43  79 112 154 189 256 324 384 450
#     4  11  25  46  78 111 151 195 262 332 383 450
#     4  11  22  45  79 118 147 189 260 342 387 448
#     4  12  27  45  74 110 152 200 259 320 370 452
#     4  12  27  46  73 111 168 214 254 315 378 503
#
# _framework density 26.785965999999998
#
# number of rings (size 3 to 8) (size 9 to 14) (size 15 to 20)
#    0.000    0.500    3.750    4.500    1.750    3.000 
#    0.000    0.000    2.750    0.000    0.000    0.000 
#    0.000    0.000    0.000    0.000    0.000    0.000 
#
# Total GULP energy -89783.464220 kJ/mol
# GULP energy per Si atom -5611.466514 kJ/mol
# Density = 2.672500 g / cm^3
# Si number density = 26.785966 Si / 1000 Ang^3
#
#
#
# Elastic Constant Matrix: (Units=GPa)
#
#
# Indices 1 2 3 4 5 6 
#
# 1 136.2028 52.7830 18.2073 0.0000 16.0423 0.0000
# 2 52.7830 148.0780 25.7486 0.0000 10.6406 0.0000
# 3 18.2073 25.7486 90.1745 0.0000 0.1824 0.0000
# 4 0.0000 0.0000 0.0000 38.7114 0.0000 20.4213
# 5 16.0423 10.6406 0.1824 0.0000 49.3149 0.0000
# 6 0.0000 0.0000 0.0000 20.4213 0.0000 50.2371
#
#
#
# Elastic Compliance Matrix: (Units=1/GPa)
#
#
# Indices 1 2 3 4 5 6 
#
# 1 0.008830 -0.002815 -0.000974 0.000000 -0.002261 0.000000
# 2 -0.002815 0.008120 -0.001749 0.000000 -0.000830 0.000000
# 3 -0.000974 -0.001749 0.011784 0.000000 0.000651 0.000000
# 4 0.000000 0.000000 0.000000 0.032884 0.000000 -0.013367
# 5 -0.002261 -0.000830 0.000651 0.000000 0.021190 0.000000
# 6 0.000000 0.000000 0.000000 -0.013367 0.000000 0.025339
#
#
# Mechanical properties :
#
#
# Convention : Reuss Voigt Hill
#
# Bulk Modulus (GPa) = 56.63241 63.10367 59.86804
# Shear Modulus (GPa) = 39.96475 46.16710 43.06593
#
# Velocity S-wave (km/s) = 3.86684 4.15608 4.01406
# Velocity P-wave (km/s) = 6.41288 6.82937 6.62440
#
# Compressibility (1/GPa) = 0.01765773
#
# Stress axis : x y z
#
# Youngs Moduli (GPa) = 113.25474 123.14574 84.85858
#
# Poissons Ratio (x) = 0.34671 0.08268
# Poissons Ratio (y) = 0.31886 0.14838
# Poissons Ratio (z) = 0.11034 0.21533
#
# Static dielectric constant tensor:
#      x y z
#    x 2.132230 0.000000 0.036520 
#    y 0.000000 2.077030 0.000000 
#    z 0.036520 0.000000 2.017360 
# 
# From -- ./inp_files/10754.got.cif
#   From: 2010.05.17/outbox.cif.g08.bks.cpg/sg4_6_cif.got.tgz:10754.got - 2010.06.03 18:43:04.
