data_PCOD9118900
_publ_section_title
;
Structure prediction by ZEFSAII (Michael W. Deem and Ramdas Pophale) SiO2 
 PCOD9118900
Probable space group: P 21
;
_chemical_formula_sum "Si O2"
_cell_formula_units_Z 16
_cell_length_a 10.584548
_cell_length_b 5.853819
_cell_length_c 18.349851
_cell_angle_alpha 90.000000
_cell_angle_beta 35.308608
_cell_angle_gamma 90.000000
_cell_volume 657.138836
_symmetry_space_group_name_H-M "P 21"
_symmetry_group_IT_number 4
_symmetry_cell_setting 'monoclinic'
loop_
_space_group_symop_operation_xyz
x,y,z
-x,1/2+y,-z
loop_
_atom_site_type_symbol
_atom_site_label
_atom_site_fract_x
_atom_site_fract_y
_atom_site_fract_z
Si Si1 0.761113 0.572830 0.852267
Si Si2 0.451688 0.438821 0.123055
Si Si3 0.430044 0.855486 0.201205
Si Si4 0.205415 0.646813 0.951578
Si Si5 0.893789 0.517795 0.534555
Si Si6 0.251702 0.973986 0.790917
Si Si7 0.593006 0.294169 0.564590
Si Si8 0.767805 0.127169 0.328203
O O1 0.752661 0.821487 0.818918
O O2 0.678428 0.417230 0.825323
O O3 0.995450 0.515996 0.772823
O O4 0.583989 0.575025 0.999297
O O5 0.385454 0.587395 0.223402
O O6 0.635815 0.264207 0.064021
O O7 0.311090 0.014712 0.314103
O O8 0.687114 0.894052 0.094482
O O9 0.241657 0.780743 0.858944
O O10 0.954509 0.635843 0.092921
O O11 0.789053 0.439306 0.507614
O O12 0.982723 0.779633 0.496830
O O13 0.478823 0.111953 0.673200
O O14 0.210321 0.850549 0.732764
O O15 0.677375 0.177393 0.451271
O O16 0.399673 0.463496 0.633511
#
# Coordination Sequence:
#
# PCOD9118900 Si02
#       8
#     2   2   2   2   2   2   2   2
#     4  11  24  41  73 110 148 203 252 322 393 477
#     4  11  23  44  69 107 151 193 257 318 396 475
#     4  11  25  47  73 105 155 199 260 326 393 476
#     4  11  28  44  74 111 148 207 253 328 401 477
#     4  12  31  52  83 116 155 215 276 334 402 474
#     4  12  28  48  76 112 155 200 261 323 406 483
#     4  12  28  52  79 114 160 208 268 334 395 492
#     4  12  27  48  77 113 156 207 263 323 404 480
#
# _framework density 24.347977
#
# number of rings (size 3 to 8) (size 9 to 14) (size 15 to 20)
#    0.000    0.500    2.500    3.750   17.500    2.000 
#    0.000    0.000    0.000    0.000    0.000    0.000 
#    0.000    0.000    0.000    0.000    0.000    0.000 
#
# Total GULP energy -89422.730063 kJ/mol
# GULP energy per Si atom -5588.920629 kJ/mol
# Density = 2.429256 g / cm^3
# Si number density = 24.347977 Si / 1000 Ang^3
#
#
#
# Elastic Constant Matrix: (Units=GPa)
#
#
# Indices 1 2 3 4 5 6 
#
# 1 106.5482 23.9081 10.5158 0.0000 -3.3905 0.0000
# 2 23.9081 69.3306 16.0067 0.0000 -5.0052 0.0000
# 3 10.5158 16.0067 75.6624 0.0000 5.8878 0.0000
# 4 0.0000 0.0000 0.0000 42.0733 0.0000 1.9604
# 5 -3.3905 -5.0052 5.8878 0.0000 38.4187 0.0000
# 6 0.0000 0.0000 0.0000 1.9604 0.0000 44.6510
#
#
#
# Elastic Compliance Matrix: (Units=1/GPa)
#
#
# Indices 1 2 3 4 5 6 
#
# 1 0.010222 -0.003305 -0.000767 0.000000 0.000589 0.000000
# 2 -0.003305 0.016473 -0.003208 0.000000 0.002346 0.000000
# 3 -0.000767 -0.003208 0.014209 0.000000 -0.002663 0.000000
# 4 0.000000 0.000000 0.000000 0.023817 0.000000 -0.001046
# 5 0.000589 0.002346 -0.002663 0.000000 0.026795 0.000000
# 6 0.000000 0.000000 0.000000 -0.001046 0.000000 0.022442
#
#
# Mechanical properties :
#
#
# Convention : Reuss Voigt Hill
#
# Bulk Modulus (GPa) = 37.96083 39.15583 38.55833
# Shear Modulus (GPa) = 36.41666 38.43599 37.42633
#
# Velocity S-wave (km/s) = 3.87159 3.97748 3.92490
# Velocity P-wave (km/s) = 5.96745 6.10004 6.03411
#
# Compressibility (1/GPa) = 0.02634294
#
# Stress axis : x y z
#
# Youngs Moduli (GPa) = 97.83278 60.70364 70.37693
#
# Poissons Ratio (x) = 0.20063 0.05400
# Poissons Ratio (y) = 0.32335 0.22579
# Poissons Ratio (z) = 0.07506 0.19475
#
# Static dielectric constant tensor:
#      x y z
#    x 1.950940 0.000000 0.041910 
#    y 0.000000 2.091740 0.000000 
#    z 0.041910 0.000000 1.927090 
# 
# From -- ./inp_files/11585.got.cif
#   From: 2010.05.17/outbox.cif.g08.bks.cpg/sg4_6_cif.got.tgz:11585.got - 2010.06.03 18:43:04.
