data_PCOD9118488
_publ_section_title
;
Structure prediction by ZEFSAII (Michael W. Deem and Ramdas Pophale) SiO2 
 PCOD9118488
Probable space group: P 21
;
_chemical_formula_sum "Si O2"
_cell_formula_units_Z 16
_cell_length_a 9.636089
_cell_length_b 5.105250
_cell_length_c 25.211064
_cell_angle_alpha 90.000000
_cell_angle_beta 38.752637
_cell_angle_gamma 90.000000
_cell_volume 776.345666
_symmetry_space_group_name_H-M "P 21"
_symmetry_group_IT_number 4
_symmetry_cell_setting 'monoclinic'
loop_
_space_group_symop_operation_xyz
x,y,z
-x,1/2+y,-z
loop_
_atom_site_type_symbol
_atom_site_label
_atom_site_fract_x
_atom_site_fract_y
_atom_site_fract_z
Si Si1 0.646316 0.675320 0.258490
Si Si2 0.708248 0.166191 0.732801
Si Si3 0.274999 0.850726 0.446337
Si Si4 0.939022 0.300163 0.048483
Si Si5 0.454356 0.171266 0.166033
Si Si6 0.579279 0.750586 0.944829
Si Si7 0.053598 0.677748 0.837994
Si Si8 0.078291 0.350311 0.545895
O O1 0.475180 0.665274 0.259960
O O2 0.503975 0.762500 0.351882
O O3 0.761937 0.394736 0.230573
O O4 0.833794 0.894180 0.193117
O O5 0.630749 0.380408 0.798532
O O6 0.937567 0.257354 0.638111
O O7 0.710673 0.883032 0.759110
O O8 0.184624 0.636239 0.514544
O O9 0.099944 0.853364 0.449426
O O10 0.262109 0.136528 0.475444
O O11 0.684796 0.212226 0.128079
O O12 0.039595 0.256838 0.076173
O O13 0.951945 0.597807 0.025185
O O14 0.506266 0.230919 0.089592
O O15 0.841681 0.692000 0.863660
O O16 0.468322 0.531077 0.015046
#
# Coordination Sequence:
#
# PCOD9118488 Si02
#       8
#     2   2   2   2   2   2   2   2
#     4  11  20  36  58  89 122 151 191 243 287 345
#     4  11  20  36  58  89 122 151 191 243 287 345
#     4   9  17  29  49  81 120 155 183 223 284 341
#     4  12  22  36  56  82 108 140 184 232 296 348
#     4  12  23  39  60  86 114 155 191 243 296 340
#     4  12  26  46  62  82 116 154 202 246 286 352
#     4  12  23  39  60  86 114 155 191 243 296 340
#     4   9  17  29  49  81 120 155 183 223 284 341
#
# _framework density 20.609375
#
# number of rings (size 3 to 8) (size 9 to 14) (size 15 to 20)
#    0.000    1.000    2.500    6.000    0.000    4.000 
#    0.000    0.000    0.000    0.000    0.000   17.500 
#    0.000    0.000    0.000    0.000    0.000    0.000 
#
# Total GULP energy -89466.665665 kJ/mol
# GULP energy per Si atom -5591.666604 kJ/mol
# Density = 2.056247 g / cm^3
# Si number density = 20.609375 Si / 1000 Ang^3
#
#
#
# Elastic Constant Matrix: (Units=GPa)
#
#
# Indices 1 2 3 4 5 6 
#
# 1 18.8403 3.8271 -5.7800 0.0000 -2.6368 0.0000
# 2 3.8271 51.3996 -16.3787 0.0000 -1.5393 0.0000
# 3 -5.7800 -16.3787 43.5025 0.0000 1.2284 0.0000
# 4 0.0000 0.0000 0.0000 41.2813 0.0000 3.4722
# 5 -2.6368 -1.5393 1.2284 0.0000 12.7286 0.0000
# 6 0.0000 0.0000 0.0000 3.4722 0.0000 15.0936
#
#
#
# Elastic Compliance Matrix: (Units=1/GPa)
#
#
# Indices 1 2 3 4 5 6 
#
# 1 0.056999 -0.001820 0.006579 0.000000 0.010953 0.000000
# 2 -0.001820 0.022211 0.008077 0.000000 0.001529 0.000000
# 3 0.006579 0.008077 0.026910 0.000000 -0.000257 0.000000
# 4 0.000000 0.000000 0.000000 0.024702 0.000000 -0.005683
# 5 0.010953 0.001529 -0.000257 0.000000 0.081042 0.000000
# 6 0.000000 0.000000 0.000000 -0.005683 0.000000 0.067560
#
#
# Mechanical properties :
#
#
# Convention : Reuss Voigt Hill
#
# Bulk Modulus (GPa) = 7.58771 8.56435 8.07603
# Shear Modulus (GPa) = 16.79650 22.62563 19.71107
#
# Velocity S-wave (km/s) = 2.85791 3.31695 3.09595
# Velocity P-wave (km/s) = 3.81836 4.33983 4.08742
#
# Compressibility (1/GPa) = 0.13179201
#
# Stress axis : x y z
#
# Youngs Moduli (GPa) = 17.54428 45.02365 37.16138
#
# Poissons Ratio (x) = 0.08192 -0.24448
# Poissons Ratio (y) = 0.03192 -0.30017
# Poissons Ratio (z) = -0.11542 -0.36367
#
# Static dielectric constant tensor:
#      x y z
#    x 1.687470 0.000000 -0.005320 
#    y 0.000000 1.716780 0.000000 
#    z -0.005320 0.000000 1.744630 
# 
# From -- ./inp_files/10030.got.cif
#   From: 2010.05.17/outbox.cif.g08.bks.cpg/sg4_6_cif.got.tgz:10030.got - 2010.06.03 18:43:04.
