data_PCOD9118662
_publ_section_title
;
Structure prediction by ZEFSAII (Michael W. Deem and Ramdas Pophale) SiO2 
 PCOD9118662
Probable space group: P 21
;
_chemical_formula_sum "Si O2"
_cell_formula_units_Z 16
_cell_length_a 11.543477
_cell_length_b 14.188625
_cell_length_c 6.695290
_cell_angle_alpha 90.000000
_cell_angle_beta 42.145490
_cell_angle_gamma 90.000000
_cell_volume 735.832384
_symmetry_space_group_name_H-M "P 21"
_symmetry_group_IT_number 4
_symmetry_cell_setting 'monoclinic'
loop_
_space_group_symop_operation_xyz
x,y,z
-x,1/2+y,-z
loop_
_atom_site_type_symbol
_atom_site_label
_atom_site_fract_x
_atom_site_fract_y
_atom_site_fract_z
Si Si1 0.334836 0.191190 0.663143
Si Si2 0.925795 0.742293 0.672012
Si Si3 0.190400 0.342599 0.564787
Si Si4 0.096545 0.879076 0.735204
Si Si5 0.608216 0.494817 0.522841
Si Si6 0.340446 0.597746 0.631558
Si Si7 0.363235 0.520411 0.187782
Si Si8 0.949572 0.060327 0.712877
O O1 0.282187 0.252453 0.542931
O O2 0.276257 0.082488 0.702863
O O3 0.558005 0.004235 0.410668
O O4 0.242783 0.233738 0.973690
O O5 0.900163 0.814640 0.524992
O O6 0.071352 0.785205 0.634516
O O7 0.955286 0.642540 0.527960
O O8 0.330471 0.421170 0.335740
O O9 0.049479 0.377006 0.906102
O O10 0.280953 0.900932 0.599577
O O11 0.056630 0.969670 0.645481
O O12 0.460535 0.679711 0.568064
O O13 0.533294 0.521044 0.836230
O O14 0.355409 0.595226 0.375731
O O15 0.149813 0.599904 0.963674
O O16 0.204576 0.532535 0.239645
#
# Coordination Sequence:
#
# PCOD9118662 Si02
#       8
#     2   2   2   2   2   2   2   2
#     4   9  23  39  62  94 129 167 216 264 317 387
#     4  11  25  39  67  98 129 173 217 266 332 381
#     4  11  23  41  64  95 130 171 214 271 325 384
#     4  11  23  42  63 100 131 165 222 270 317 388
#     4   9  23  40  65  95 127 171 212 259 325 380
#     4   9  22  41  63  93 126 173 211 261 324 381
#     4  11  22  41  68  90 127 175 211 258 332 383
#     4  11  23  41  66  95 131 169 217 265 322 390
#
# _framework density 21.744083
#
# number of rings (size 3 to 8) (size 9 to 14) (size 15 to 20)
#    0.750    1.000    2.500    0.750    5.250    4.000 
#    0.000    2.500    0.000    0.000    0.000    0.000 
#    0.000    0.000    0.000    0.000    0.000    0.000 
#
# Total GULP energy -89266.656205 kJ/mol
# GULP energy per Si atom -5579.166013 kJ/mol
# Density = 2.169459 g / cm^3
# Si number density = 21.744083 Si / 1000 Ang^3
#
#
#
# Elastic Constant Matrix: (Units=GPa)
#
#
# Indices 1 2 3 4 5 6 
#
# 1 42.5470 -1.3847 15.2535 0.0000 13.0962 0.0000
# 2 -1.3847 38.5282 8.9690 0.0000 9.8492 0.0000
# 3 15.2535 8.9690 67.8195 0.0000 22.1959 0.0000
# 4 0.0000 0.0000 0.0000 33.1686 0.0000 -2.8422
# 5 13.0962 9.8492 22.1959 0.0000 27.3675 0.0000
# 6 0.0000 0.0000 0.0000 -2.8422 0.0000 25.5317
#
#
#
# Elastic Compliance Matrix: (Units=1/GPa)
#
#
# Indices 1 2 3 4 5 6 
#
# 1 0.028774 0.005093 -0.002776 0.000000 -0.013351 0.000000
# 2 0.005093 0.029502 -0.001054 0.000000 -0.012200 0.000000
# 3 -0.002776 -0.001054 0.020352 0.000000 -0.014798 0.000000
# 4 0.000000 0.000000 0.000000 0.030439 0.000000 0.003389
# 5 -0.013351 -0.012200 -0.014798 0.000000 0.059321 0.000000
# 6 0.000000 0.000000 0.000000 0.003389 0.000000 0.039544
#
#
# Mechanical properties :
#
#
# Convention : Reuss Voigt Hill
#
# Bulk Modulus (GPa) = 12.32224 21.61892 16.97058
# Shear Modulus (GPa) = 21.50931 25.61735 23.56333
#
# Velocity S-wave (km/s) = 3.14857 3.43611 3.29548
# Velocity P-wave (km/s) = 4.34710 5.07016 4.72249
#
# Compressibility (1/GPa) = 0.08115411
#
# Stress axis : x y z
#
# Youngs Moduli (GPa) = 34.75391 33.89581 49.13536
#
# Poissons Ratio (x) = -0.17264 0.13638
# Poissons Ratio (y) = -0.17701 0.05181
# Poissons Ratio (z) = 0.09646 0.03574
#
# Static dielectric constant tensor:
#      x y z
#    x 1.814630 0.000000 0.002330 
#    y 0.000000 1.848370 0.000000 
#    z 0.002330 0.000000 1.753090 
# 
# From -- ./inp_files/3163.got.cif
#   From: 2010.05.17/outbox.cif.g08.bks.cpg/sg4_2_cif.got.tgz:3163.got - 2010.06.03 18:43:04.
