data_PCOD9118800
_publ_section_title
;
Structure prediction by ZEFSAII (Michael W. Deem and Ramdas Pophale) SiO2 
 PCOD9118800
Probable space group: P 21
;
_chemical_formula_sum "Si O2"
_cell_formula_units_Z 16
_cell_length_a 12.187200
_cell_length_b 9.162878
_cell_length_c 11.840597
_cell_angle_alpha 90.000000
_cell_angle_beta 34.744637
_cell_angle_gamma 90.000000
_cell_volume 753.569353
_symmetry_space_group_name_H-M "P 21"
_symmetry_group_IT_number 4
_symmetry_cell_setting 'monoclinic'
loop_
_space_group_symop_operation_xyz
x,y,z
-x,1/2+y,-z
loop_
_atom_site_type_symbol
_atom_site_label
_atom_site_fract_x
_atom_site_fract_y
_atom_site_fract_z
Si Si1 0.117322 0.812190 0.269944
Si Si2 0.284046 0.201848 0.188533
Si Si3 0.090750 0.362216 0.789286
Si Si4 0.603842 0.051778 0.563968
Si Si5 0.060948 0.020694 0.531852
Si Si6 0.478552 0.460654 0.117276
Si Si7 0.840022 0.630083 0.090304
Si Si8 0.961457 0.263974 0.288250
O O1 0.982655 0.841008 0.276244
O O2 0.102135 0.643320 0.317366
O O3 0.058175 0.907822 0.429084
O O4 0.327037 0.864604 0.054417
O O5 0.243067 0.122521 0.342056
O O6 0.333187 0.369910 0.163414
O O7 0.094034 0.187363 0.272231
O O8 0.455708 0.117899 0.982075
O O9 0.300252 0.438313 0.604351
O O10 0.098460 0.209699 0.847266
O O11 0.948582 0.478411 0.970395
O O12 0.388771 0.103851 0.718368
O O13 0.760070 0.181689 0.441405
O O14 0.592191 0.976991 0.696338
O O15 0.074566 0.925127 0.633107
O O16 0.911176 0.740871 0.931251
#
# Coordination Sequence:
#
# PCOD9118800 Si02
#       8
#     2   2   2   2   2   2   2   2
#     4  11  24  44  68 103 143 186 225 292 350 417
#     4  11  24  37  65 100 139 183 225 283 346 412
#     4  11  26  47  75 100 140 183 232 300 344 409
#     4  11  23  47  72  96 139 181 234 285 353 409
#     4  11  23  40  67 100 138 185 229 268 361 413
#     4  11  24  40  65 101 139 182 229 282 347 419
#     4  11  25  50  72 102 138 184 239 289 351 404
#     4  11  25  43  70  98 138 188 227 287 344 413
#
# _framework density 21.232285999999998
#
# number of rings (size 3 to 8) (size 9 to 14) (size 15 to 20)
#    0.000    1.000    3.750    3.000    8.750    2.000 
#    0.000    0.000    0.000    0.000    0.000    0.000 
#    0.000    0.000    0.000    0.000    0.000    0.000 
#
# Total GULP energy -89413.600035 kJ/mol
# GULP energy per Si atom -5588.350002 kJ/mol
# Density = 2.118396 g / cm^3
# Si number density = 21.232286 Si / 1000 Ang^3
#
#
#
# Elastic Constant Matrix: (Units=GPa)
#
#
# Indices 1 2 3 4 5 6 
#
# 1 57.0782 20.4481 25.4128 0.0000 -8.2217 0.0000
# 2 20.4481 110.9860 19.8700 0.0000 1.5432 0.0000
# 3 25.4128 19.8700 107.7988 0.0000 -24.3354 0.0000
# 4 0.0000 0.0000 0.0000 32.5117 0.0000 9.1594
# 5 -8.2217 1.5432 -24.3354 0.0000 21.7925 0.0000
# 6 0.0000 0.0000 0.0000 9.1594 0.0000 33.4982
#
#
#
# Elastic Compliance Matrix: (Units=1/GPa)
#
#
# Indices 1 2 3 4 5 6 
#
# 1 0.020807 -0.003303 -0.003304 0.000000 0.004394 0.000000
# 2 -0.003303 0.010040 -0.002024 0.000000 -0.004217 0.000000
# 3 -0.003304 -0.002024 0.013611 0.000000 0.014095 0.000000
# 4 0.000000 0.000000 0.000000 0.033325 0.000000 -0.009112
# 5 0.004394 -0.004217 0.014095 0.000000 0.063584 0.000000
# 6 0.000000 0.000000 0.000000 -0.009112 0.000000 0.032344
#
#
# Mechanical properties :
#
#
# Convention : Reuss Voigt Hill
#
# Bulk Modulus (GPa) = 36.77171 45.25830 41.01501
# Shear Modulus (GPa) = 24.99522 31.56928 28.28225
#
# Velocity S-wave (km/s) = 3.43480 3.86016 3.65367
# Velocity P-wave (km/s) = 5.75211 6.42104 6.09576
#
# Compressibility (1/GPa) = 0.02719482
#
# Stress axis : x y z
#
# Youngs Moduli (GPa) = 48.06017 99.60483 73.47207
#
# Poissons Ratio (x) = 0.32900 0.24278
# Poissons Ratio (y) = 0.15874 0.14870
# Poissons Ratio (z) = 0.15881 0.20159
#
# Static dielectric constant tensor:
#      x y z
#    x 1.766920 0.000000 -0.026810 
#    y 0.000000 1.802380 0.000000 
#    z -0.026810 0.000000 1.791330 
# 
# From -- ./inp_files/11976.got.cif
#   From: 2010.05.17/outbox.cif.g08.bks.cpg/sg4_6_cif.got.tgz:11976.got - 2010.06.03 18:43:04.
