data_PCOD9118774
_publ_section_title
;
Structure prediction by ZEFSAII (Michael W. Deem and Ramdas Pophale) SiO2 
 PCOD9118774
Probable space group: P 21
;
_chemical_formula_sum "Si O2"
_cell_formula_units_Z 16
_cell_length_a 6.191160
_cell_length_b 12.684098
_cell_length_c 11.657023
_cell_angle_alpha 90.000000
_cell_angle_beta 130.216394
_cell_angle_gamma 90.000000
_cell_volume 699.023255
_symmetry_space_group_name_H-M "P 21"
_symmetry_group_IT_number 4
_symmetry_cell_setting 'monoclinic'
loop_
_space_group_symop_operation_xyz
x,y,z
-x,1/2+y,-z
loop_
_atom_site_type_symbol
_atom_site_label
_atom_site_fract_x
_atom_site_fract_y
_atom_site_fract_z
Si Si1 0.393622 0.373590 0.107276
Si Si2 0.045124 0.050352 0.430942
Si Si3 0.070959 0.165566 0.973736
Si Si4 0.397989 0.191413 0.711762
Si Si5 0.154561 0.022874 0.808021
Si Si6 0.591336 0.911969 0.621545
Si Si7 0.589695 0.906962 0.370715
Si Si8 0.013292 0.033248 0.159683
O O1 0.707424 0.410962 0.179465
O O2 0.363579 0.367844 0.235111
O O3 0.261832 0.266919 0.013249
O O4 0.221878 0.470852 0.992976
O O5 0.278225 0.958316 0.515203
O O6 0.942646 0.062414 0.265780
O O7 0.792785 0.006569 0.421596
O O8 0.215297 0.147844 0.542119
O O9 0.198329 0.064542 0.951472
O O10 0.740748 0.181311 0.825369
O O11 0.077954 0.137620 0.109808
O O12 0.278833 0.115339 0.770688
O O13 0.345910 0.316437 0.699988
O O14 0.820053 0.005265 0.686303
O O15 0.616921 0.855836 0.507152
O O16 0.278221 0.954175 0.252578
#
# Coordination Sequence:
#
# PCOD9118774 Si02
#       8
#     2   2   2   2   2   2   2   2
#     4  12  25  46  72 104 140 186 237 292 351 422
#     4  11  24  46  67 102 142 181 230 290 347 418
#     4  12  27  46  72 104 140 196 233 292 356 417
#     4  12  24  46  73 101 134 195 237 281 363 416
#     4  12  23  45  74  97 144 186 234 287 349 423
#     4  11  22  48  69  93 145 179 227 290 346 406
#     4  11  26  43  72 104 140 187 227 296 351 421
#     4  11  25  44  67 101 147 174 235 298 341 417
#
# _framework density 22.889081000000001
#
# number of rings (size 3 to 8) (size 9 to 14) (size 15 to 20)
#    0.000    0.500    7.500    0.000    5.250    1.000 
#    4.500    0.000    0.000    0.000    0.000    0.000 
#    0.000    0.000    0.000    0.000    0.000    0.000 
#
# Total GULP energy -89311.401316 kJ/mol
# GULP energy per Si atom -5581.962582 kJ/mol
# Density = 2.283698 g / cm^3
# Si number density = 22.889081 Si / 1000 Ang^3
#
#
#
# Elastic Constant Matrix: (Units=GPa)
#
#
# Indices 1 2 3 4 5 6 
#
# 1 34.3320 -15.4530 7.6606 0.0000 2.4755 0.0000
# 2 -15.4530 39.1096 1.6489 0.0000 0.1614 0.0000
# 3 7.6606 1.6489 80.8912 0.0000 -1.9892 0.0000
# 4 0.0000 0.0000 0.0000 22.4014 0.0000 -3.9821
# 5 2.4755 0.1614 -1.9892 0.0000 23.9680 0.0000
# 6 0.0000 0.0000 0.0000 -3.9821 0.0000 17.6551
#
#
#
# Elastic Compliance Matrix: (Units=1/GPa)
#
#
# Indices 1 2 3 4 5 6 
#
# 1 0.036960 0.014786 -0.003906 0.000000 -0.004241 0.000000
# 2 0.014786 0.031507 -0.002090 0.000000 -0.001913 0.000000
# 3 -0.003906 -0.002090 0.012811 0.000000 0.001481 0.000000
# 4 0.000000 0.000000 0.000000 0.046505 0.000000 0.010489
# 5 -0.004241 -0.001913 0.001481 0.000000 0.042296 0.000000
# 6 0.000000 0.000000 0.000000 0.010489 0.000000 0.059007
#
#
# Mechanical properties :
#
#
# Convention : Reuss Voigt Hill
#
# Bulk Modulus (GPa) = 10.11543 15.78286 12.94914
# Shear Modulus (GPa) = 20.45343 23.50333 21.97838
#
# Velocity S-wave (km/s) = 2.99254 3.20790 3.10209
# Velocity P-wave (km/s) = 4.04590 4.54216 4.30119
#
# Compressibility (1/GPa) = 0.09885892
#
# Stress axis : x y z
#
# Youngs Moduli (GPa) = 27.05647 31.73868 78.05685
#
# Poissons Ratio (x) = -0.46928 0.30488
# Poissons Ratio (y) = -0.40005 0.16310
# Poissons Ratio (z) = 0.10568 0.06632
#
# Static dielectric constant tensor:
#      x y z
#    x 1.857010 0.000000 -0.021200 
#    y 0.000000 1.845110 0.000000 
#    z -0.021200 0.000000 1.889450 
# 
# From -- ./inp_files/1405.got.cif
#   From: 2010.05.17/outbox.cif.g08.bks.cpg/sg4_1_cif.got.tgz:1405.got - 2010.06.03 18:43:04.
