data_PCOD9118768
_publ_section_title
;
Structure prediction by ZEFSAII (Michael W. Deem and Ramdas Pophale) SiO2 
 PCOD9118768
Probable space group: P 21
;
_chemical_formula_sum "Si O2"
_cell_formula_units_Z 16
_cell_length_a 12.877735
_cell_length_b 8.223397
_cell_length_c 9.786713
_cell_angle_alpha 90.000000
_cell_angle_beta 133.523057
_cell_angle_gamma 90.000000
_cell_volume 751.491174
_symmetry_space_group_name_H-M "P 21"
_symmetry_group_IT_number 4
_symmetry_cell_setting 'monoclinic'
loop_
_space_group_symop_operation_xyz
x,y,z
-x,1/2+y,-z
loop_
_atom_site_type_symbol
_atom_site_label
_atom_site_fract_x
_atom_site_fract_y
_atom_site_fract_z
Si Si1 0.948989 0.281940 0.560010
Si Si2 0.382307 0.327658 0.641130
Si Si3 0.788121 0.995298 0.290509
Si Si4 0.327081 0.973657 0.019446
Si Si5 0.323567 0.975600 0.695591
Si Si6 0.951449 0.557838 0.097568
Si Si7 0.201431 0.332877 0.208697
Si Si8 0.381558 0.358625 0.109891
O O1 0.833674 0.420138 0.492442
O O2 0.089989 0.360101 0.623253
O O3 0.992495 0.177180 0.731613
O O4 0.871665 0.163007 0.382709
O O5 0.297743 0.466688 0.647565
O O6 0.547918 0.376801 0.790887
O O7 0.353644 0.164873 0.700960
O O8 0.312448 0.302749 0.431100
O O9 0.677776 0.970232 0.067019
O O10 0.353121 0.168313 0.055179
O O11 0.335473 0.935026 0.866850
O O12 0.171012 0.947275 0.942805
O O13 0.449160 0.884638 0.728227
O O14 0.079516 0.454347 0.151089
O O15 0.875005 0.669280 0.914402
O O16 0.291921 0.400993 0.163099
#
# Coordination Sequence:
#
# PCOD9118768 Si02
#       8
#     2   2   2   2   2   2   2   2
#     4  12  25  43  72 105 145 181 240 299 355 422
#     4  12  25  42  73 105 137 186 243 279 360 430
#     4  12  22  44  69 103 137 187 234 296 353 413
#     4  11  22  47  70 102 142 179 234 306 350 409
#     4  12  25  42  72 108 136 187 235 296 356 423
#     4  11  25  48  68 102 146 191 229 298 355 425
#     4  11  27  47  69 101 145 189 231 291 357 433
#     4  11  25  45  67 100 146 180 232 293 356 419
#
# _framework density 21.291003
#
# number of rings (size 3 to 8) (size 9 to 14) (size 15 to 20)
#    0.000    0.500    6.250    2.250    3.500    4.000 
#    0.000    0.000    0.000    0.000    0.000    0.000 
#    0.000    0.000    0.000    0.000    0.000    0.000 
#
# Total GULP energy -89551.049620 kJ/mol
# GULP energy per Si atom -5596.940601 kJ/mol
# Density = 2.124254 g / cm^3
# Si number density = 21.291003 Si / 1000 Ang^3
#
#
#
# Elastic Constant Matrix: (Units=GPa)
#
#
# Indices 1 2 3 4 5 6 
#
# 1 121.5159 22.8461 25.6103 0.0000 14.8661 0.0000
# 2 22.8461 46.0939 22.7380 0.0000 3.4909 0.0000
# 3 25.6103 22.7380 123.9205 0.0000 1.9565 0.0000
# 4 0.0000 0.0000 0.0000 28.2986 0.0000 16.1812
# 5 14.8661 3.4909 1.9565 0.0000 31.2551 0.0000
# 6 0.0000 0.0000 0.0000 16.1812 0.0000 31.5164
#
#
#
# Elastic Compliance Matrix: (Units=1/GPa)
#
#
# Indices 1 2 3 4 5 6 
#
# 1 0.009725 -0.003903 -0.001229 0.000000 -0.004113 0.000000
# 2 -0.003903 0.025600 -0.003879 0.000000 -0.000760 0.000000
# 3 -0.001229 -0.003879 0.009028 0.000000 0.000453 0.000000
# 4 0.000000 0.000000 0.000000 0.050023 0.000000 -0.025683
# 5 -0.004113 -0.000760 0.000453 0.000000 0.034008 0.000000
# 6 0.000000 0.000000 0.000000 -0.025683 0.000000 0.044916
#
#
# Mechanical properties :
#
#
# Convention : Reuss Voigt Hill
#
# Bulk Modulus (GPa) = 37.97497 48.21323 43.09410
# Shear Modulus (GPa) = 24.98775 32.90308 28.94541
#
# Velocity S-wave (km/s) = 3.42954 3.93542 3.69116
# Velocity P-wave (km/s) = 5.79286 6.58362 6.20086
#
# Compressibility (1/GPa) = 0.02633314
#
# Stress axis : x y z
#
# Youngs Moduli (GPa) = 102.82509 39.06230 110.76362
#
# Poissons Ratio (x) = 0.15244 0.13612
# Poissons Ratio (y) = 0.40128 0.42963
# Poissons Ratio (z) = 0.12636 0.15152
#
# Static dielectric constant tensor:
#      x y z
#    x 1.757290 0.000000 0.012890 
#    y 0.000000 1.786870 0.000000 
#    z 0.012890 0.000000 1.760670 
# 
# From -- ./inp_files/5660.got.cif
#   From: 2010.05.17/outbox.cif.g08.bks.cpg/sg4_3_cif.got.tgz:5660.got - 2010.06.03 18:43:04.
