data_PCOD9118450
_publ_section_title
;
Structure prediction by ZEFSAII (Michael W. Deem and Ramdas Pophale) SiO2 
 PCOD9118450
Probable space group: P 21
;
_chemical_formula_sum "Si O2"
_cell_formula_units_Z 14
_cell_length_a 10.797505
_cell_length_b 9.069542
_cell_length_c 12.322289
_cell_angle_alpha 90.000000
_cell_angle_beta 154.939010
_cell_angle_gamma 90.000000
_cell_volume 511.138321
_symmetry_space_group_name_H-M "P 21"
_symmetry_group_IT_number 4
_symmetry_cell_setting 'monoclinic'
loop_
_space_group_symop_operation_xyz
x,y,z
-x,1/2+y,-z
loop_
_atom_site_type_symbol
_atom_site_label
_atom_site_fract_x
_atom_site_fract_y
_atom_site_fract_z
Si Si1 0.484840 0.872170 0.005726
Si Si2 0.142429 0.510199 0.514151
Si Si3 0.785908 0.184492 0.036198
Si Si4 0.272998 0.941542 0.386073
Si Si5 0.266546 0.651252 0.238205
Si Si6 0.752296 0.492145 0.913545
Si Si7 0.524826 0.276889 0.237360
O O1 0.396701 0.721096 0.000820
O O2 0.545731 0.862445 0.927335
O O3 0.178821 0.960120 0.766539
O O4 0.737742 0.945924 0.277278
O O5 0.175553 0.685886 0.544302
O O6 0.402138 0.459711 0.637131
O O7 0.899634 0.347931 0.085340
O O8 0.607258 0.155198 0.783609
O O9 0.016855 0.051386 0.224814
O O10 0.221616 0.808023 0.259533
O O11 0.427217 0.859849 0.611820
O O12 0.507124 0.052055 0.517989
O O13 0.972354 0.555620 0.999012
O O14 0.718279 0.647377 0.952051
#
# Coordination Sequence:
#
# PCOD9118450 Si02
#       7
#     2   2   2   2   2   2   2
#     4  11  25  50  80 117 167 210 284 340 425 498
#     4   9  25  46  78 114 155 224 260 349 412 498
#     4  11  27  48  78 114 159 220 271 346 424 502
#     4  12  30  45  83 115 166 220 285 349 432 504
#     4  12  28  49  74 119 165 212 283 347 422 512
#     4   9  24  48  74 111 160 211 272 337 424 489
#     4  10  27  48  77 120 158 219 281 346 425 503
#
# _framework density 27.389847
#
# number of rings (size 3 to 8) (size 9 to 14) (size 15 to 20)
#    0.857    0.571    0.000    1.714   18.000    3.429 
#    0.000    0.000    0.000    0.000    0.000    0.000 
#    0.000    0.000    0.000    0.000    0.000    0.000 
#
# Total GULP energy -78140.681299 kJ/mol
# GULP energy per Si atom -5581.477236 kJ/mol
# Density = 2.732751 g / cm^3
# Si number density = 27.389847 Si / 1000 Ang^3
#
#
#
# Elastic Constant Matrix: (Units=GPa)
#
#
# Indices 1 2 3 4 5 6 
#
# 1 67.6509 27.7921 28.2556 0.0000 -8.3813 0.0000
# 2 27.7921 185.0331 69.0003 0.0000 10.1959 0.0000
# 3 28.2556 69.0003 113.7506 0.0000 -16.1143 0.0000
# 4 0.0000 0.0000 0.0000 50.2707 0.0000 9.1900
# 5 -8.3813 10.1959 -16.1143 0.0000 38.4677 0.0000
# 6 0.0000 0.0000 0.0000 9.1900 0.0000 45.3121
#
#
#
# Elastic Compliance Matrix: (Units=1/GPa)
#
#
# Indices 1 2 3 4 5 6 
#
# 1 0.017004 -0.001682 -0.002781 0.000000 0.002986 0.000000
# 2 -0.001682 0.007733 -0.004907 0.000000 -0.004471 0.000000
# 3 -0.002781 -0.004907 0.013349 0.000000 0.006287 0.000000
# 4 0.000000 0.000000 0.000000 0.020658 0.000000 -0.004190
# 5 0.002986 -0.004471 0.006287 0.000000 0.030465 0.000000
# 6 0.000000 0.000000 0.000000 -0.004190 0.000000 0.022919
#
#
# Mechanical properties :
#
#
# Convention : Reuss Voigt Hill
#
# Bulk Modulus (GPa) = 51.68508 68.50340 60.09424
# Shear Modulus (GPa) = 36.41261 42.90255 39.65758
#
# Velocity S-wave (km/s) = 3.65008 3.96203 3.80925
# Velocity P-wave (km/s) = 6.05601 6.78196 6.42924
#
# Compressibility (1/GPa) = 0.01934794
#
# Stress axis : x y z
#
# Youngs Moduli (GPa) = 58.81004 129.31416 74.91313
#
# Poissons Ratio (x) = 0.21745 0.20832
# Poissons Ratio (y) = 0.09889 0.36757
# Poissons Ratio (z) = 0.16354 0.63449
#
# Static dielectric constant tensor:
#      x y z
#    x 2.214270 0.000000 -0.051740 
#    y 0.000000 2.247030 0.000000 
#    z -0.051740 0.000000 2.168780 
# 
# From -- ./inp_files/12070.got.cif
#   From: 2010.05.17/outbox.cif.g08.bks.cpg/sg4_7_cif.got.tgz:12070.got - 2010.06.03 18:43:04.
