data_PCOD9118604
_publ_section_title
;
Structure prediction by ZEFSAII (Michael W. Deem and Ramdas Pophale) SiO2 
 PCOD9118604
Probable space group: P 21
;
_chemical_formula_sum "Si O2"
_cell_formula_units_Z 14
_cell_length_a 9.593369
_cell_length_b 7.892944
_cell_length_c 15.278437
_cell_angle_alpha 90.000000
_cell_angle_beta 149.843749
_cell_angle_gamma 90.000000
_cell_volume 581.171139
_symmetry_space_group_name_H-M "P 21"
_symmetry_group_IT_number 4
_symmetry_cell_setting 'monoclinic'
loop_
_space_group_symop_operation_xyz
x,y,z
-x,1/2+y,-z
loop_
_atom_site_type_symbol
_atom_site_label
_atom_site_fract_x
_atom_site_fract_y
_atom_site_fract_z
Si Si1 0.734147 0.936920 0.604426
Si Si2 0.810990 0.021189 0.038438
Si Si3 0.956785 0.155031 0.865039
Si Si4 0.415038 0.164099 0.692628
Si Si5 0.516929 0.043680 0.216270
Si Si6 0.633861 0.677202 0.696084
Si Si7 0.930292 0.137198 0.298733
O O1 0.605596 0.831080 0.614829
O O2 0.946343 0.816311 0.668553
O O3 0.882346 0.098029 0.726767
O O4 0.483596 0.006910 0.411884
O O5 0.863713 0.040296 0.171385
O O6 0.038146 0.147896 0.118745
O O7 0.515330 0.071667 0.836282
O O8 0.896562 0.835329 0.055108
O O9 0.678153 0.155741 0.770048
O O10 0.187861 0.021682 0.022513
O O11 0.362104 0.360880 0.690690
O O12 0.163457 0.088092 0.498415
O O13 0.529468 0.178384 0.302328
O O14 0.652900 0.122150 0.204394
#
# Coordination Sequence:
#
# PCOD9118604 Si02
#       7
#     2   2   2   2   2   2   2
#     4  11  24  45  75 107 149 192 254 309 374 442
#     4  11  24  45  78 107 146 193 248 301 373 441
#     4  12  24  45  79 109 142 195 254 310 364 446
#     4  12  24  49  76 107 150 196 249 309 367 450
#     4  12  26  46  71 109 150 191 247 304 380 440
#     4  11  21  45  72 107 142 191 251 308 362 442
#     4  11  27  49  69 110 157 192 243 309 378 447
#
# _framework density 24.089289000000001
#
# number of rings (size 3 to 8) (size 9 to 14) (size 15 to 20)
#    0.000    0.571    4.286    4.286    2.000    3.429 
#   10.286    0.000    0.000    0.000    0.000    0.000 
#    0.000    0.000    0.000    0.000    0.000    0.000 
#
# Total GULP energy -78274.682507 kJ/mol
# GULP energy per Si atom -5591.048751 kJ/mol
# Density = 2.403446 g / cm^3
# Si number density = 24.089289 Si / 1000 Ang^3
#
#
#
# Elastic Constant Matrix: (Units=GPa)
#
#
# Indices 1 2 3 4 5 6 
#
# 1 126.6556 25.3914 10.2849 0.0000 -0.6662 0.0000
# 2 25.3914 85.0964 11.4954 0.0000 -6.0767 0.0000
# 3 10.2849 11.4954 94.9422 0.0000 -25.3069 0.0000
# 4 0.0000 0.0000 0.0000 36.0710 0.0000 -10.8669
# 5 -0.6662 -6.0767 -25.3069 0.0000 34.3556 0.0000
# 6 0.0000 0.0000 0.0000 -10.8669 0.0000 21.4695
#
#
#
# Elastic Compliance Matrix: (Units=1/GPa)
#
#
# Indices 1 2 3 4 5 6 
#
# 1 0.008456 -0.002472 -0.000858 0.000000 -0.000905 0.000000
# 2 -0.002472 0.012716 -0.000853 0.000000 0.001573 0.000000
# 3 -0.000858 -0.000853 0.013295 0.000000 0.009626 0.000000
# 4 0.000000 0.000000 0.000000 0.032711 0.000000 0.016557
# 5 -0.000905 0.001573 0.009626 0.000000 0.036458 0.000000
# 6 0.000000 0.000000 0.000000 0.016557 0.000000 0.054958
#
#
# Mechanical properties :
#
#
# Convention : Reuss Voigt Hill
#
# Bulk Modulus (GPa) = 38.31106 44.55973 41.43539
# Shear Modulus (GPa) = 28.46404 35.68072 32.07238
#
# Velocity S-wave (km/s) = 3.44118 3.85279 3.65279
# Velocity P-wave (km/s) = 5.63269 6.19112 5.91849
#
# Compressibility (1/GPa) = 0.02610212
#
# Stress axis : x y z
#
# Youngs Moduli (GPa) = 118.26085 78.63830 75.21847
#
# Poissons Ratio (x) = 0.19438 0.06454
# Poissons Ratio (y) = 0.29232 0.06413
# Poissons Ratio (z) = 0.10147 0.06704
#
# Static dielectric constant tensor:
#      x y z
#    x 1.904530 0.000000 -0.077920 
#    y 0.000000 1.920990 0.000000 
#    z -0.077920 0.000000 2.004380 
# 
# From -- ./inp_files/5298.got.cif
#   From: 2010.05.17/outbox.cif.g08.bks.cpg/sg4_3_cif.got.tgz:5298.got - 2010.06.03 18:43:04.
