data_PCOD9118080
_publ_section_title
;
Structure prediction by ZEFSAII (Michael W. Deem and Ramdas Pophale) SiO2 
 PCOD9118080
Probable space group: P 21
;
_chemical_formula_sum "Si O2"
_cell_formula_units_Z 16
_cell_length_a 8.319062
_cell_length_b 12.472491
_cell_length_c 11.999398
_cell_angle_alpha 90.000000
_cell_angle_beta 38.933940
_cell_angle_gamma 90.000000
_cell_volume 782.419648
_symmetry_space_group_name_H-M "P 21"
_symmetry_group_IT_number 4
_symmetry_cell_setting 'monoclinic'
loop_
_space_group_symop_operation_xyz
x,y,z
-x,1/2+y,-z
loop_
_atom_site_type_symbol
_atom_site_label
_atom_site_fract_x
_atom_site_fract_y
_atom_site_fract_z
Si Si1 0.060210 0.648200 0.662024
Si Si2 0.178784 0.339403 0.836798
Si Si3 0.804758 0.919750 0.918536
Si Si4 0.115794 0.047462 0.032794
Si Si5 0.658889 0.803129 0.789106
Si Si6 0.353487 0.847628 0.568795
Si Si7 0.598820 0.973056 0.639920
Si Si8 0.816549 0.152338 0.006384
O O1 0.269126 0.723702 0.609897
O O2 0.201061 0.552239 0.524558
O O3 0.863482 0.605662 0.861250
O O4 0.900289 0.724281 0.667237
O O5 0.454366 0.363727 0.636979
O O6 0.977986 0.426485 0.899944
O O7 0.183249 0.357183 0.968603
O O8 0.070326 0.225643 0.852784
O O9 0.621913 0.858469 0.930661
O O10 0.085131 0.909903 0.711993
O O11 0.763767 0.045769 0.962257
O O12 0.883978 0.103202 0.090616
O O13 0.366245 0.040286 0.821230
O O14 0.709634 0.899507 0.677300
O O15 0.419101 0.732862 0.878143
O O16 0.488910 0.892026 0.606147
#
# Coordination Sequence:
#
# PCOD9118080 Si02
#       8
#     2   2   2   2   2   2   2   2
#     4  11  26  44  67  99 137 183 218 275 345 395
#     4  11  21  40  71 100 124 177 231 274 327 386
#     4  10  24  45  64  98 142 169 223 280 330 407
#     4  11  22  42  71  96 127 176 231 278 324 392
#     4  11  25  45  65 100 144 178 216 276 339 415
#     4  11  22  44  69 100 130 166 231 288 317 394
#     4  12  23  47  69  98 139 172 228 286 323 403
#     4  11  21  41  72  97 127 183 220 269 343 384
#
# _framework density 20.449383999999998
#
# number of rings (size 3 to 8) (size 9 to 14) (size 15 to 20)
#    0.000    1.000    5.000    3.000    1.750    0.000 
#   11.250    1.250    0.000    0.000    0.000    0.000 
#    0.000    0.000    0.000    0.000    0.000    0.000 
#
# Total GULP energy -89293.037750 kJ/mol
# GULP energy per Si atom -5580.814859 kJ/mol
# Density = 2.040284 g / cm^3
# Si number density = 20.449384 Si / 1000 Ang^3
#
#
#
# Elastic Constant Matrix: (Units=GPa)
#
#
# Indices 1 2 3 4 5 6 
#
# 1 88.7445 60.3420 29.3986 0.0000 4.0220 0.0000
# 2 60.3420 95.9165 43.9438 0.0000 18.1792 0.0000
# 3 29.3986 43.9438 105.1131 0.0000 -3.2744 0.0000
# 4 0.0000 0.0000 0.0000 21.9302 0.0000 1.3042
# 5 4.0220 18.1792 -3.2744 0.0000 9.6703 0.0000
# 6 0.0000 0.0000 0.0000 1.3042 0.0000 46.7388
#
#
#
# Elastic Compliance Matrix: (Units=1/GPa)
#
#
# Indices 1 2 3 4 5 6 
#
# 1 0.025220 -0.025458 0.004804 0.000000 0.038996 0.000000
# 2 -0.025458 0.052288 -0.017658 0.000000 -0.093687 0.000000
# 3 0.004804 -0.017658 0.016700 0.000000 0.036852 0.000000
# 4 0.000000 0.000000 0.000000 0.045675 0.000000 -0.001274
# 5 0.038996 -0.093687 0.036852 0.000000 0.275791 0.000000
# 6 0.000000 0.000000 0.000000 -0.001274 0.000000 0.021431
#
#
# Mechanical properties :
#
#
# Convention : Reuss Voigt Hill
#
# Bulk Modulus (GPa) = 56.86836 61.90474 59.38655
# Shear Modulus (GPa) = 9.62299 26.07384 17.84841
#
# Velocity S-wave (km/s) = 2.17163 3.57465 2.95754
# Velocity P-wave (km/s) = 5.84446 6.88298 6.38487
#
# Compressibility (1/GPa) = 0.01758447
#
# Stress axis : x y z
#
# Youngs Moduli (GPa) = 39.65176 19.12482 59.88011
#
# Poissons Ratio (x) = 0.48688 -0.28767
# Poissons Ratio (y) = 1.00945 1.05736
# Poissons Ratio (z) = -0.19049 0.33771
#
# Static dielectric constant tensor:
#      x y z
#    x 1.756900 0.000000 0.001610 
#    y 0.000000 1.786050 0.000000 
#    z 0.001610 0.000000 1.728860 
# 
# From -- ./inp_files/11341.got.cif
#   From: 2010.05.17/outbox.cif.g08.bks.cpg/sg4_6_cif.got.tgz:11341.got - 2010.06.03 18:43:04.
