data_PCOD9118679
_publ_section_title
;
Structure prediction by ZEFSAII (Michael W. Deem and Ramdas Pophale) SiO2 
 PCOD9118679
Probable space group: P 21
;
_chemical_formula_sum "Si O2"
_cell_formula_units_Z 10
_cell_length_a 5.865753
_cell_length_b 5.432459
_cell_length_c 12.183624
_cell_angle_alpha 90.000000
_cell_angle_beta 73.277540
_cell_angle_gamma 90.000000
_cell_volume 371.818194
_symmetry_space_group_name_H-M "P 21"
_symmetry_group_IT_number 4
_symmetry_cell_setting 'monoclinic'
loop_
_space_group_symop_operation_xyz
x,y,z
-x,1/2+y,-z
loop_
_atom_site_type_symbol
_atom_site_label
_atom_site_fract_x
_atom_site_fract_y
_atom_site_fract_z
Si Si1 0.040299 0.320630 0.669889
Si Si2 0.886883 0.260206 0.439549
Si Si3 0.443748 0.093345 0.634940
Si Si4 0.630303 0.987321 0.825052
Si Si5 0.847072 0.702411 0.997184
O O1 0.015194 0.323867 0.534763
O O2 0.831168 0.189327 0.765616
O O3 0.979454 0.613799 0.672011
O O4 0.304638 0.336117 0.691899
O O5 0.632521 0.157918 0.517091
O O6 0.804235 0.502795 0.384367
O O7 0.543494 0.919658 0.713171
O O8 0.738381 0.798809 0.896758
O O9 0.391267 0.113439 0.906271
O O10 0.015440 0.453287 0.977195
#
# Coordination Sequence:
#
# PCOD9118679 Si02
#       5
#     2   2   2   2   2
#     4  11  23  45  70 113 150 208 252 319 387 477
#     4  11  22  42  70 102 162 196 254 307 384 476
#     4  11  23  45  70 113 150 208 252 319 387 477
#     4  11  28  54  80 118 150 206 280 323 420 474
#     4  12  28  62  88 116 166 210 270 360 414 488
#
# _framework density 26.894862
#
# number of rings (size 3 to 8) (size 9 to 14) (size 15 to 20)
#    0.000    0.800    4.000    2.400    0.000    0.000 
#   36.000    0.000    0.000    0.000    0.000    0.000 
#    0.000    0.000    0.000    0.000    0.000    0.000 
#
# Total GULP energy -55678.419588 kJ/mol
# GULP energy per Si atom -5567.841959 kJ/mol
# Density = 2.683365 g / cm^3
# Si number density = 26.894862 Si / 1000 Ang^3
#
#
#
# Elastic Constant Matrix: (Units=GPa)
#
#
# Indices 1 2 3 4 5 6 
#
# 1 161.9512 52.1520 49.7033 0.0000 -26.5409 0.0000
# 2 52.1520 72.7523 27.8383 0.0000 -12.1449 0.0000
# 3 49.7033 27.8383 121.4746 0.0000 -19.4925 0.0000
# 4 0.0000 0.0000 0.0000 27.6024 0.0000 -12.2966
# 5 -26.5409 -12.1449 -19.4925 0.0000 65.7099 0.0000
# 6 0.0000 0.0000 0.0000 -12.2966 0.0000 16.8504
#
#
#
# Elastic Compliance Matrix: (Units=1/GPa)
#
#
# Indices 1 2 3 4 5 6 
#
# 1 0.008813 -0.005183 -0.002101 0.000000 0.001978 0.000000
# 2 -0.005183 0.018332 -0.001966 0.000000 0.000711 0.000000
# 3 -0.002101 -0.001966 0.009815 0.000000 0.001700 0.000000
# 4 0.000000 0.000000 0.000000 0.053680 0.000000 0.039173
# 5 0.001978 0.000711 0.001700 0.000000 0.016653 0.000000
# 6 0.000000 0.000000 0.000000 0.039173 0.000000 0.087932
#
#
# Mechanical properties :
#
#
# Convention : Reuss Voigt Hill
#
# Bulk Modulus (GPa) = 54.17212 68.39616 61.28414
# Shear Modulus (GPa) = 22.73985 37.13151 29.93568
#
# Velocity S-wave (km/s) = 2.91092 3.71970 3.33988
# Velocity P-wave (km/s) = 5.61105 6.62830 6.14077
#
# Compressibility (1/GPa) = 0.01845968
#
# Stress axis : x y z
#
# Youngs Moduli (GPa) = 113.47204 54.54946 101.88511
#
# Poissons Ratio (x) = 0.28275 0.21401
# Poissons Ratio (y) = 0.58816 0.20032
# Poissons Ratio (z) = 0.23835 0.10725
#
# Static dielectric constant tensor:
#      x y z
#    x 2.248220 0.000000 0.292100 
#    y 0.000000 2.871830 0.000000 
#    z 0.292100 0.000000 2.348980 
# 
# From -- ./inp_files/3248.got.cif
#   From: 2010.05.17/outbox.cif.g08.bks.cpg/sg4_2_cif.got.tgz:3248.got - 2010.06.03 18:43:04.
