data_PCOD9118182
_publ_section_title
;
Structure prediction by ZEFSAII (Michael W. Deem and Ramdas Pophale) SiO2 
 PCOD9118182
Probable space group: P 21
;
_chemical_formula_sum "Si O2"
_cell_formula_units_Z 16
_cell_length_a 5.345163
_cell_length_b 13.742291
_cell_length_c 8.622146
_cell_angle_alpha 90.000000
_cell_angle_beta 86.116561
_cell_angle_gamma 90.000000
_cell_volume 631.883675
_symmetry_space_group_name_H-M "P 21"
_symmetry_group_IT_number 4
_symmetry_cell_setting 'monoclinic'
loop_
_space_group_symop_operation_xyz
x,y,z
-x,1/2+y,-z
loop_
_atom_site_type_symbol
_atom_site_label
_atom_site_fract_x
_atom_site_fract_y
_atom_site_fract_z
Si Si1 0.141276 0.681090 0.589880
Si Si2 0.783521 0.522805 0.507558
Si Si3 0.933305 0.876224 0.339548
Si Si4 0.431165 0.250851 0.036422
Si Si5 0.863853 0.930082 0.010035
Si Si6 0.567224 0.250048 0.682886
Si Si7 0.773414 0.383196 0.249899
Si Si8 0.463837 0.566340 0.807647
O O1 0.378590 0.675657 0.459781
O O2 0.113205 0.791775 0.655751
O O3 0.227818 0.620337 0.737014
O O4 0.906565 0.630329 0.513713
O O5 0.659128 0.464319 0.370229
O O6 0.603218 0.512867 0.663263
O O7 0.030681 0.455563 0.529122
O O8 0.976821 0.932649 0.175845
O O9 0.671888 0.818124 0.345616
O O10 0.167382 0.804595 0.336265
O O11 0.597485 0.324895 0.134770
O O12 0.373712 0.154764 0.133782
O O13 0.194299 0.316183 0.008447
O O14 0.540657 0.220635 0.863986
O O15 0.621788 0.996765 0.049158
O O16 0.035462 0.949375 0.857769
#
# Coordination Sequence:
#
# PCOD9118182 Si02
#       8
#     2   2   2   2   2   2   2   2
#     4  11  26  43  71 107 149 193 255 310 377 445
#     4  12  25  45  72 107 146 197 250 319 370 455
#     4  11  23  45  77 101 150 192 257 293 391 432
#     4  10  24  47  71 101 148 194 252 303 384 444
#     4  11  23  45  71 100 142 197 243 312 370 454
#     4  11  24  46  75 111 144 206 240 317 371 459
#     4  11  25  44  70 104 144 195 248 309 380 448
#     4  11  26  45  69 107 147 198 253 313 377 449
#
# _framework density 25.321121000000002
#
# number of rings (size 3 to 8) (size 9 to 14) (size 15 to 20)
#    0.000    1.000    3.750    2.250    3.500    3.000 
#    0.000    0.000    0.000    0.000    0.000    0.000 
#    0.000    0.000    0.000    0.000    0.000    0.000 
#
# Total GULP energy -89320.380667 kJ/mol
# GULP energy per Si atom -5582.523792 kJ/mol
# Density = 2.526349 g / cm^3
# Si number density = 25.321121 Si / 1000 Ang^3
#
#
#
# Elastic Constant Matrix: (Units=GPa)
#
#
# Indices 1 2 3 4 5 6 
#
# 1 76.8332 19.4498 8.0255 0.0000 -10.4270 0.0000
# 2 19.4498 84.0238 39.6745 0.0000 0.0023 0.0000
# 3 8.0255 39.6745 118.0647 0.0000 -19.3422 0.0000
# 4 0.0000 0.0000 0.0000 46.2964 0.0000 2.6536
# 5 -10.4270 0.0023 -19.3422 0.0000 35.8253 0.0000
# 6 0.0000 0.0000 0.0000 2.6536 0.0000 33.7561
#
#
#
# Elastic Compliance Matrix: (Units=1/GPa)
#
#
# Indices 1 2 3 4 5 6 
#
# 1 0.014540 -0.003890 0.001110 0.000000 0.004832 0.000000
# 2 -0.003890 0.015451 -0.005609 0.000000 -0.004162 0.000000
# 3 0.001110 -0.005609 0.011335 0.000000 0.006443 0.000000
# 4 0.000000 0.000000 0.000000 0.021698 0.000000 -0.001706
# 5 0.004832 -0.004162 0.006443 0.000000 0.032799 0.000000
# 6 0.000000 0.000000 0.000000 -0.001706 0.000000 0.029758
#
#
# Mechanical properties :
#
#
# Convention : Reuss Voigt Hill
#
# Bulk Modulus (GPa) = 40.73785 45.91349 43.32567
# Shear Modulus (GPa) = 33.21365 37.29368 35.25367
#
# Velocity S-wave (km/s) = 3.62567 3.84191 3.73535
# Velocity P-wave (km/s) = 5.80092 6.15241 5.97925
#
# Compressibility (1/GPa) = 0.02454719
#
# Stress axis : x y z
#
# Youngs Moduli (GPa) = 68.77739 64.72226 88.22198
#
# Poissons Ratio (x) = 0.25178 -0.09796
# Poissons Ratio (y) = 0.26755 0.49487
# Poissons Ratio (z) = -0.07637 0.36305
#
# Static dielectric constant tensor:
#      x y z
#    x 2.059160 0.000000 0.062530 
#    y 0.000000 2.114390 0.000000 
#    z 0.062530 0.000000 2.067420 
# 
# From -- ./inp_files/4628.got.cif
#   From: 2010.05.17/outbox.cif.g08.bks.cpg/sg4_3_cif.got.tgz:4628.got - 2010.06.03 18:43:04.
