data_PCOD9118917
_publ_section_title
;
Structure prediction by ZEFSAII (Michael W. Deem and Ramdas Pophale) SiO2 
 PCOD9118917
Probable space group: P 21
;
_chemical_formula_sum "Si O2"
_cell_formula_units_Z 10
_cell_length_a 7.247376
_cell_length_b 7.823383
_cell_length_c 9.653309
_cell_angle_alpha 90.000000
_cell_angle_beta 129.488437
_cell_angle_gamma 90.000000
_cell_volume 422.405811
_symmetry_space_group_name_H-M "P 21"
_symmetry_group_IT_number 4
_symmetry_cell_setting 'monoclinic'
loop_
_space_group_symop_operation_xyz
x,y,z
-x,1/2+y,-z
loop_
_atom_site_type_symbol
_atom_site_label
_atom_site_fract_x
_atom_site_fract_y
_atom_site_fract_z
Si Si1 0.124939 0.058780 0.265600
Si Si2 0.301133 0.689907 0.766110
Si Si3 0.052533 0.344937 0.032019
Si Si4 0.462400 0.994893 0.658522
Si Si5 0.503598 0.318637 0.860429
O O1 0.151661 0.166153 0.137225
O O2 0.961712 0.169742 0.291779
O O3 0.368648 0.017356 0.458671
O O4 0.978796 0.892857 0.144130
O O5 0.330029 0.829218 0.659822
O O6 0.371752 0.495316 0.768040
O O7 0.478850 0.758621 0.971714
O O8 0.252683 0.470540 0.190947
O O9 0.782215 0.346265 0.956377
O O10 0.406213 0.161942 0.722980
#
# Coordination Sequence:
#
# PCOD9118917 Si02
#       5
#     2   2   2   2   2
#     4  11  27  46  72 107 140 194 238 296 364 420
#     4  11  23  47  71 105 146 186 240 302 348 428
#     4  11  23  49  69 101 147 184 236 301 349 424
#     4  12  26  46  73 107 144 191 248 288 361 432
#     4  11  23  44  75 102 145 195 236 293 368 410
#
# _framework density 23.673919000000001
#
# number of rings (size 3 to 8) (size 9 to 14) (size 15 to 20)
#    0.000    0.800    6.000    1.200    5.600    0.000 
#    3.600    0.000    0.000    0.000    0.000    0.000 
#    0.000    0.000    0.000    0.000    0.000    0.000 
#
# Total GULP energy -55874.278408 kJ/mol
# GULP energy per Si atom -5587.427841 kJ/mol
# Density = 2.362004 g / cm^3
# Si number density = 23.673919 Si / 1000 Ang^3
#
#
#
# Elastic Constant Matrix: (Units=GPa)
#
#
# Indices 1 2 3 4 5 6 
#
# 1 26.9262 14.8302 -3.4066 0.0000 3.2917 0.0000
# 2 14.8302 142.8485 16.6172 0.0000 -12.7949 0.0000
# 3 -3.4066 16.6172 137.5337 0.0000 -9.0799 0.0000
# 4 0.0000 0.0000 0.0000 18.8941 0.0000 -3.1757
# 5 3.2917 -12.7949 -9.0799 0.0000 24.2951 0.0000
# 6 0.0000 0.0000 0.0000 -3.1757 0.0000 44.7370
#
#
#
# Elastic Compliance Matrix: (Units=1/GPa)
#
#
# Indices 1 2 3 4 5 6 
#
# 1 0.041040 -0.005091 0.001115 0.000000 -0.007825 0.000000
# 2 -0.005091 0.008035 -0.000792 0.000000 0.004626 0.000000
# 3 0.001115 -0.000792 0.007543 0.000000 0.002251 0.000000
# 4 0.000000 0.000000 0.000000 0.053566 0.000000 0.003802
# 5 -0.007825 0.004626 0.002251 0.000000 0.045498 0.000000
# 6 0.000000 0.000000 0.000000 0.003802 0.000000 0.022623
#
#
# Mechanical properties :
#
#
# Convention : Reuss Voigt Hill
#
# Bulk Modulus (GPa) = 21.23910 40.37666 30.80788
# Shear Modulus (GPa) = 24.56577 36.20309 30.38443
#
# Velocity S-wave (km/s) = 3.22479 3.91479 3.58642
# Velocity P-wave (km/s) = 4.78086 6.12589 5.49469
#
# Compressibility (1/GPa) = 0.04708298
#
# Stress axis : x y z
#
# Youngs Moduli (GPa) = 24.36624 124.44920 132.57644
#
# Poissons Ratio (x) = 0.63361 -0.14783
# Poissons Ratio (y) = 0.12406 0.10494
# Poissons Ratio (z) = -0.02717 0.09851
#
# Static dielectric constant tensor:
#      x y z
#    x 1.951710 0.000000 -0.017520 
#    y 0.000000 2.013270 0.000000 
#    z -0.017520 0.000000 1.871240 
# 
# From -- ./inp_files/7436.got.cif
#   From: 2010.05.17/outbox.cif.g08.bks.cpg/sg4_4_cif.got.tgz:7436.got - 2010.06.03 18:43:04.
