data_PCOD9118153
_publ_section_title
;
Structure prediction by ZEFSAII (Michael W. Deem and Ramdas Pophale) SiO2 
 PCOD9118153
Probable space group: P 21
;
_chemical_formula_sum "Si O2"
_cell_formula_units_Z 16
_cell_length_a 5.426527
_cell_length_b 9.843381
_cell_length_c 12.172597
_cell_angle_alpha 90.000000
_cell_angle_beta 107.770428
_cell_angle_gamma 90.000000
_cell_volume 619.180661
_symmetry_space_group_name_H-M "P 21"
_symmetry_group_IT_number 4
_symmetry_cell_setting 'monoclinic'
loop_
_space_group_symop_operation_xyz
x,y,z
-x,1/2+y,-z
loop_
_atom_site_type_symbol
_atom_site_label
_atom_site_fract_x
_atom_site_fract_y
_atom_site_fract_z
Si Si1 0.317287 0.768320 0.624824
Si Si2 0.990357 0.044761 0.816191
Si Si3 0.018007 0.069414 0.346774
Si Si4 0.213913 0.271955 0.191547
Si Si5 0.095558 0.504449 0.441267
Si Si6 0.590653 0.344483 0.595005
Si Si7 0.696104 0.282460 0.849366
Si Si8 0.731047 0.773839 0.053495
O O1 0.550100 0.846418 0.714619
O O2 0.391062 0.745030 0.507551
O O3 0.268202 0.634586 0.692474
O O4 0.072942 0.866920 0.596288
O O5 0.783986 0.123438 0.865840
O O6 0.241399 0.131732 0.877193
O O7 0.007694 0.885836 0.839542
O O8 0.910217 0.069904 0.679068
O O9 0.153123 0.150044 0.266618
O O10 0.129599 0.919174 0.358383
O O11 0.050201 0.093086 0.484453
O O12 0.286637 0.242788 0.077233
O O13 0.368877 0.450063 0.525680
O O14 0.547929 0.298673 0.713294
O O15 0.515707 0.337875 0.921197
O O16 0.988485 0.346336 0.890360
#
# Coordination Sequence:
#
# PCOD9118153 Si02
#       8
#     2   2   2   2   2   2   2   2
#     4  11  23  40  73 106 148 191 240 312 370 467
#     4  10  24  46  73 104 143 201 243 312 370 456
#     4  11  25  40  70 109 146 191 238 310 374 453
#     4  12  25  49  70 110 145 196 258 309 383 442
#     4  11  23  41  71 108 146 191 241 304 388 453
#     4  11  24  45  68 112 149 192 243 311 384 456
#     4  10  26  49  73 105 145 197 248 311 376 444
#     4  10  28  48  74 106 142 205 253 309 361 455
#
# _framework density 25.840600999999999
#
# number of rings (size 3 to 8) (size 9 to 14) (size 15 to 20)
#    0.750    0.500    2.500    1.500    7.000    3.000 
#    2.250    0.000    0.000    0.000    0.000    0.000 
#    0.000    0.000    0.000    0.000    0.000    0.000 
#
# Total GULP energy -89189.361158 kJ/mol
# GULP energy per Si atom -5574.335072 kJ/mol
# Density = 2.578179 g / cm^3
# Si number density = 25.840601 Si / 1000 Ang^3
#
#
#
# Elastic Constant Matrix: (Units=GPa)
#
#
# Indices 1 2 3 4 5 6 
#
# 1 118.6906 1.4994 49.7135 0.0000 -21.5816 0.0000
# 2 1.4994 38.5034 1.9918 0.0000 3.6195 0.0000
# 3 49.7135 1.9918 170.4679 0.0000 -18.4928 0.0000
# 4 0.0000 0.0000 0.0000 20.9810 0.0000 0.5010
# 5 -21.5816 3.6195 -18.4928 0.0000 41.4863 0.0000
# 6 0.0000 0.0000 0.0000 0.5010 0.0000 24.6213
#
#
#
# Elastic Compliance Matrix: (Units=1/GPa)
#
#
# Indices 1 2 3 4 5 6 
#
# 1 0.010268 -0.000671 -0.002523 0.000000 0.004275 0.000000
# 2 -0.000671 0.026285 -0.000418 0.000000 -0.002829 0.000000
# 3 -0.002523 -0.000418 0.006797 0.000000 0.001754 0.000000
# 4 0.000000 0.000000 0.000000 0.047685 0.000000 -0.000970
# 5 0.004275 -0.002829 0.001754 0.000000 0.027357 0.000000
# 6 0.000000 0.000000 0.000000 -0.000970 0.000000 0.040635
#
#
# Mechanical properties :
#
#
# Convention : Reuss Voigt Hill
#
# Bulk Modulus (GPa) = 27.68106 48.23015 37.95560
# Shear Modulus (GPa) = 28.04353 35.71487 31.87920
#
# Velocity S-wave (km/s) = 3.29789 3.72172 3.51620
# Velocity P-wave (km/s) = 5.02364 6.09699 5.58615
#
# Compressibility (1/GPa) = 0.03612579
#
# Stress axis : x y z
#
# Youngs Moduli (GPa) = 97.39183 38.04391 147.12211
#
# Poissons Ratio (x) = 0.02554 0.37115
# Poissons Ratio (y) = 0.06537 0.06154
# Poissons Ratio (z) = 0.24569 0.01591
#
# Static dielectric constant tensor:
#      x y z
#    x 2.140100 0.000000 -0.007350 
#    y 0.000000 2.193720 0.000000 
#    z -0.007350 0.000000 2.004690 
# 
# From -- ./inp_files/10483.got.cif
#   From: 2010.05.17/outbox.cif.g08.bks.cpg/sg4_6_cif.got.tgz:10483.got - 2010.06.03 18:43:04.
