data_PCOD9118765
_publ_section_title
;
Structure prediction by ZEFSAII (Michael W. Deem and Ramdas Pophale) SiO2 
 PCOD9118765
Probable space group: P 21
;
_chemical_formula_sum "Si O2"
_cell_formula_units_Z 16
_cell_length_a 6.126086
_cell_length_b 12.489406
_cell_length_c 10.822177
_cell_angle_alpha 90.000000
_cell_angle_beta 52.466530
_cell_angle_gamma 90.000000
_cell_volume 656.615867
_symmetry_space_group_name_H-M "P 21"
_symmetry_group_IT_number 4
_symmetry_cell_setting 'monoclinic'
loop_
_space_group_symop_operation_xyz
x,y,z
-x,1/2+y,-z
loop_
_atom_site_type_symbol
_atom_site_label
_atom_site_fract_x
_atom_site_fract_y
_atom_site_fract_z
Si Si1 0.387917 0.254040 0.984349
Si Si2 0.998815 0.545087 0.638765
Si Si3 0.377334 0.423336 0.188525
Si Si4 0.714849 0.337207 0.647358
Si Si5 0.943156 0.539163 0.941319
Si Si6 0.742550 0.735179 0.600610
Si Si7 0.481586 0.170491 0.563569
Si Si8 0.889224 0.104341 0.861613
O O1 0.487332 0.313940 0.827444
O O2 0.665619 0.198469 0.941004
O O3 0.283525 0.341414 0.114640
O O4 0.176226 0.159935 0.028338
O O5 0.294254 0.579645 0.483597
O O6 0.834286 0.455198 0.620237
O O7 0.033987 0.511637 0.770099
O O8 0.822645 0.654116 0.682378
O O9 0.355001 0.349628 0.316391
O O10 0.194590 0.527567 0.224005
O O11 0.688292 0.461415 0.059588
O O12 0.588970 0.288372 0.566030
O O13 0.982450 0.261572 0.572774
O O14 0.130846 0.544327 0.998641
O O15 0.544802 0.676197 0.574470
O O16 0.199596 0.142601 0.729908
#
# Coordination Sequence:
#
# PCOD9118765 Si02
#       8
#     2   2   2   2   2   2   2   2
#     4  11  22  47  68  98 145 181 229 296 350 416
#     4  11  26  45  70 108 142 179 243 297 353 423
#     4  11  26  44  71 101 146 186 227 303 357 409
#     4  11  24  46  71 100 142 190 232 288 360 415
#     4  11  24  44  71 104 137 184 233 291 357 425
#     4  11  26  46  67 104 146 185 236 292 355 425
#     4  11  26  47  73 103 142 192 238 294 349 440
#     4  11  26  45  73 104 138 187 242 281 361 433
#
# _framework density 24.367366000000001
#
# number of rings (size 3 to 8) (size 9 to 14) (size 15 to 20)
#    0.000    1.000    5.000    0.000    5.250    4.000 
#    2.250    0.000    0.000    0.000    0.000    0.000 
#    0.000    0.000    0.000    0.000    0.000    0.000 
#
# Total GULP energy -89502.913650 kJ/mol
# GULP energy per Si atom -5593.932103 kJ/mol
# Density = 2.431190 g / cm^3
# Si number density = 24.367366 Si / 1000 Ang^3
#
#
#
# Elastic Constant Matrix: (Units=GPa)
#
#
# Indices 1 2 3 4 5 6 
#
# 1 61.0838 13.3917 11.2767 0.0000 12.6016 0.0000
# 2 13.3917 96.5290 9.8844 0.0000 -5.4008 0.0000
# 3 11.2767 9.8844 59.7842 0.0000 8.0480 0.0000
# 4 0.0000 0.0000 0.0000 37.2974 0.0000 7.5477
# 5 12.6016 -5.4008 8.0480 0.0000 38.7444 0.0000
# 6 0.0000 0.0000 0.0000 7.5477 0.0000 19.0932
#
#
#
# Elastic Compliance Matrix: (Units=1/GPa)
#
#
# Indices 1 2 3 4 5 6 
#
# 1 0.018606 -0.002683 -0.002264 0.000000 -0.005955 0.000000
# 2 -0.002683 0.011060 -0.001695 0.000000 0.002766 0.000000
# 3 -0.002264 -0.001695 0.017866 0.000000 -0.003211 0.000000
# 4 0.000000 0.000000 0.000000 0.029143 0.000000 -0.011520
# 5 -0.005955 0.002766 -0.003211 0.000000 0.028800 0.000000
# 6 0.000000 0.000000 0.000000 -0.011520 0.000000 0.056929
#
#
# Mechanical properties :
#
#
# Convention : Reuss Voigt Hill
#
# Bulk Modulus (GPa) = 29.19840 31.83361 30.51600
# Shear Modulus (GPa) = 26.72322 31.21663 28.96992
#
# Velocity S-wave (km/s) = 3.31521 3.58311 3.45176
# Velocity P-wave (km/s) = 5.16360 5.49642 5.33260
#
# Compressibility (1/GPa) = 0.03424845
#
# Stress axis : x y z
#
# Youngs Moduli (GPa) = 53.74733 90.41532 55.97088
#
# Poissons Ratio (x) = 0.24254 0.12673
# Poissons Ratio (y) = 0.14418 0.09487
# Poissons Ratio (z) = 0.12170 0.15326
#
# Static dielectric constant tensor:
#      x y z
#    x 1.931250 0.000000 0.015580 
#    y 0.000000 1.880200 0.000000 
#    z 0.015580 0.000000 1.964230 
# 
# From -- ./inp_files/1333.got.cif
#   From: 2010.05.17/outbox.cif.g08.bks.cpg/sg4_1_cif.got.tgz:1333.got - 2010.06.03 18:43:04.
