data_PCOD9118910
_publ_section_title
;
Structure prediction by ZEFSAII (Michael W. Deem and Ramdas Pophale) SiO2 
 PCOD9118910
Probable space group: P 21
;
_chemical_formula_sum "Si O2"
_cell_formula_units_Z 16
_cell_length_a 6.701351
_cell_length_b 9.084418
_cell_length_c 18.051241
_cell_angle_alpha 90.000000
_cell_angle_beta 136.580318
_cell_angle_gamma 90.000000
_cell_volume 755.329245
_symmetry_space_group_name_H-M "P 21"
_symmetry_group_IT_number 4
_symmetry_cell_setting 'monoclinic'
loop_
_space_group_symop_operation_xyz
x,y,z
-x,1/2+y,-z
loop_
_atom_site_type_symbol
_atom_site_label
_atom_site_fract_x
_atom_site_fract_y
_atom_site_fract_z
Si Si1 0.837521 0.590910 0.639744
Si Si2 0.738216 0.534526 0.201716
Si Si3 0.762007 0.868969 0.712172
Si Si4 0.346602 0.558919 0.872647
Si Si5 0.336361 0.270179 0.152473
Si Si6 0.330772 0.763634 0.011756
Si Si7 0.144715 0.933123 0.500792
Si Si8 0.154089 0.594788 0.451438
O O1 0.853032 0.760745 0.669473
O O2 0.955568 0.539043 0.592743
O O3 0.496171 0.561019 0.541507
O O4 0.031285 0.514145 0.755252
O O5 0.519328 0.409880 0.173069
O O6 0.539543 0.664585 0.118736
O O7 0.957315 0.469016 0.198557
O O8 0.963813 0.583167 0.326159
O O9 0.661961 0.777229 0.757306
O O10 0.482361 0.959218 0.611516
O O11 0.519088 0.631935 0.850065
O O12 0.517573 0.421371 0.950910
O O13 0.313239 0.679991 0.928119
O O14 0.993316 0.276241 0.042549
O O15 0.120976 0.762429 0.471789
O O16 0.970246 0.975734 0.525733
#
# Coordination Sequence:
#
# PCOD9118910 Si02
#       8
#     2   2   2   2   2   2   2   2
#     4  11  24  43  70 103 142 184 227 287 348 422
#     4  12  24  48  72 101 147 181 237 292 349 421
#     4  11  23  44  72  97 140 189 229 281 355 410
#     4  12  26  46  72 104 141 183 237 295 349 419
#     4  12  23  46  72 100 133 190 234 284 354 408
#     4  12  27  47  71 107 136 187 239 292 354 409
#     4  11  25  42  70 106 139 183 236 278 346 420
#     4  11  26  44  69 108 138 189 231 289 349 423
#
# _framework density 21.182817
#
# number of rings (size 3 to 8) (size 9 to 14) (size 15 to 20)
#    0.000    0.500    5.000    3.000    5.250    0.000 
#    2.250    0.000    0.000    0.000    0.000    0.000 
#    0.000    0.000    0.000    0.000    0.000    0.000 
#
# Total GULP energy -89411.655933 kJ/mol
# GULP energy per Si atom -5588.228496 kJ/mol
# Density = 2.113460 g / cm^3
# Si number density = 21.182817 Si / 1000 Ang^3
#
#
#
# Elastic Constant Matrix: (Units=GPa)
#
#
# Indices 1 2 3 4 5 6 
#
# 1 79.4634 35.5177 46.2228 0.0000 6.3448 0.0000
# 2 35.5177 65.9270 37.8037 0.0000 4.4765 0.0000
# 3 46.2228 37.8037 171.9657 0.0000 13.6953 0.0000
# 4 0.0000 0.0000 0.0000 41.5909 0.0000 0.0808
# 5 6.3448 4.4765 13.6953 0.0000 41.6972 0.0000
# 6 0.0000 0.0000 0.0000 0.0808 0.0000 30.2964
#
#
#
# Elastic Compliance Matrix: (Units=1/GPa)
#
#
# Indices 1 2 3 4 5 6 
#
# 1 0.017928 -0.007867 -0.003018 0.000000 -0.000892 0.000000
# 2 -0.007867 0.020824 -0.002445 0.000000 -0.000236 0.000000
# 3 -0.003018 -0.002445 0.007297 0.000000 -0.001675 0.000000
# 4 0.000000 0.000000 0.000000 0.024044 0.000000 -0.000064
# 5 -0.000892 -0.000236 -0.001675 0.000000 0.024694 0.000000
# 6 0.000000 0.000000 0.000000 -0.000064 0.000000 0.033007
#
#
# Mechanical properties :
#
#
# Convention : Reuss Voigt Hill
#
# Bulk Modulus (GPa) = 51.57452 61.82717 56.70085
# Shear Modulus (GPa) = 31.07192 35.90437 33.48815
#
# Velocity S-wave (km/s) = 3.83410 4.12148 3.98038
# Velocity P-wave (km/s) = 6.63329 7.20413 6.92460
#
# Compressibility (1/GPa) = 0.01938942
#
# Stress axis : x y z
#
# Youngs Moduli (GPa) = 55.77969 48.02068 137.03902
#
# Poissons Ratio (x) = 0.37778 0.41363
# Poissons Ratio (y) = 0.43882 0.33499
# Poissons Ratio (z) = 0.16836 0.11739
#
# Static dielectric constant tensor:
#      x y z
#    x 1.762710 0.000000 -0.001330 
#    y 0.000000 1.748760 0.000000 
#    z -0.001330 0.000000 1.792870 
# 
# From -- ./inp_files/3503.got.cif
#   From: 2010.05.17/outbox.cif.g08.bks.cpg/sg4_2_cif.got.tgz:3503.got - 2010.06.03 18:43:04.
