data_PCOD9118448
_publ_section_title
;
Structure prediction by ZEFSAII (Michael W. Deem and Ramdas Pophale) SiO2 
 PCOD9118448
Probable space group: P 21
;
_chemical_formula_sum "Si O2"
_cell_formula_units_Z 16
_cell_length_a 14.994102
_cell_length_b 5.169343
_cell_length_c 9.498135
_cell_angle_alpha 90.000000
_cell_angle_beta 63.754628
_cell_angle_gamma 90.000000
_cell_volume 660.301481
_symmetry_space_group_name_H-M "P 21"
_symmetry_group_IT_number 4
_symmetry_cell_setting 'monoclinic'
loop_
_space_group_symop_operation_xyz
x,y,z
-x,1/2+y,-z
loop_
_atom_site_type_symbol
_atom_site_label
_atom_site_fract_x
_atom_site_fract_y
_atom_site_fract_z
Si Si1 0.100591 0.597650 0.279671
Si Si2 0.591137 0.411919 0.149460
Si Si3 0.477688 0.907595 0.190713
Si Si4 0.117290 0.305058 0.563958
Si Si5 0.239101 0.292015 0.013764
Si Si6 0.743700 0.526915 0.738958
Si Si7 0.389282 0.982157 0.550996
Si Si8 0.265274 0.488349 0.684529
O O1 0.100457 0.487164 0.439202
O O2 0.129707 0.389089 0.138152
O O3 0.180938 0.832459 0.232476
O O4 0.989664 0.690466 0.327613
O O5 0.556632 0.139621 0.111645
O O6 0.561176 0.426255 0.333637
O O7 0.527747 0.637062 0.120899
O O8 0.704654 0.521020 0.067043
O O9 0.366028 0.922723 0.210279
O O10 0.458594 0.928888 0.371471
O O11 0.165199 0.430370 0.668476
O O12 0.198009 0.104383 0.442790
O O13 0.274930 0.284956 0.153301
O O14 0.259993 0.456381 0.858065
O O15 0.302861 0.766929 0.612260
O O16 0.342962 0.267250 0.582596
#
# Coordination Sequence:
#
# PCOD9118448 Si02
#       8
#     2   2   2   2   2   2   2   2
#     4  11  24  46  75 104 148 192 247 315 380 437
#     4  11  25  42  69 104 147 192 239 297 367 441
#     4  12  24  41  71 108 137 192 247 300 358 439
#     4  11  23  46  74 111 136 195 253 308 369 453
#     4  10  27  46  68 104 150 199 234 308 378 445
#     4  11  25  44  73 101 150 186 251 305 377 434
#     4  11  22  43  70 105 148 185 245 305 368 421
#     4  11  24  44  76 105 148 193 240 304 369 446
#
# _framework density 24.231356999999999
#
# number of rings (size 3 to 8) (size 9 to 14) (size 15 to 20)
#    0.000    1.000    2.500    3.750    8.750    1.000 
#    2.250    0.000    0.000    0.000    0.000    0.000 
#    0.000    0.000    0.000    0.000    0.000    0.000 
#
# Total GULP energy -89278.169780 kJ/mol
# GULP energy per Si atom -5579.885611 kJ/mol
# Density = 2.417620 g / cm^3
# Si number density = 24.231357 Si / 1000 Ang^3
#
#
#
# Elastic Constant Matrix: (Units=GPa)
#
#
# Indices 1 2 3 4 5 6 
#
# 1 147.4557 62.5387 47.7571 0.0000 -20.1499 0.0000
# 2 62.5387 66.3426 49.6526 0.0000 -9.1346 0.0000
# 3 47.7571 49.6526 130.3242 0.0000 -17.6388 0.0000
# 4 0.0000 0.0000 0.0000 38.8395 0.0000 -12.6659
# 5 -20.1499 -9.1346 -17.6388 0.0000 34.1737 0.0000
# 6 0.0000 0.0000 0.0000 -12.6659 0.0000 45.0946
#
#
#
# Elastic Compliance Matrix: (Units=1/GPa)
#
#
# Indices 1 2 3 4 5 6 
#
# 1 0.011853 -0.010865 0.000375 0.000000 0.004278 0.000000
# 2 -0.010865 0.031127 -0.008191 0.000000 -0.002314 0.000000
# 3 0.000375 -0.008191 0.011170 0.000000 0.003797 0.000000
# 4 0.000000 0.000000 0.000000 0.028343 0.000000 0.007961
# 5 0.004278 -0.002314 0.003797 0.000000 0.033126 0.000000
# 6 0.000000 0.000000 0.000000 0.007961 0.000000 0.024412
#
#
# Mechanical properties :
#
#
# Convention : Reuss Voigt Hill
#
# Bulk Modulus (GPa) = 59.56408 73.77991 66.67199
# Shear Modulus (GPa) = 27.32412 35.89984 31.61198
#
# Velocity S-wave (km/s) = 3.36167 3.85326 3.61583
# Velocity P-wave (km/s) = 6.30099 7.09303 6.70871
#
# Compressibility (1/GPa) = 0.01678864
#
# Stress axis : x y z
#
# Youngs Moduli (GPa) = 84.36802 32.12668 89.52273
#
# Poissons Ratio (x) = 0.34905 -0.03357
# Poissons Ratio (y) = 0.91664 0.73327
# Poissons Ratio (z) = -0.03164 0.26314
#
# Static dielectric constant tensor:
#      x y z
#    x 1.932730 0.000000 0.002330 
#    y 0.000000 2.008030 0.000000 
#    z 0.002330 0.000000 1.985830 
# 
# From -- ./inp_files/8932.got.cif
#   From: 2010.05.17/outbox.cif.g08.bks.cpg/sg4_5_cif.got.tgz:8932.got - 2010.06.03 18:43:04.
