data_PCOD9118894
_publ_section_title
;
Structure prediction by ZEFSAII (Michael W. Deem and Ramdas Pophale) SiO2 
 PCOD9118894
Probable space group: P 21
;
_chemical_formula_sum "Si O2"
_cell_formula_units_Z 16
_cell_length_a 17.625954
_cell_length_b 10.151933
_cell_length_c 10.200569
_cell_angle_alpha 90.000000
_cell_angle_beta 150.016350
_cell_angle_gamma 90.000000
_cell_volume 912.181063
_symmetry_space_group_name_H-M "P 21"
_symmetry_group_IT_number 4
_symmetry_cell_setting 'monoclinic'
loop_
_space_group_symop_operation_xyz
x,y,z
-x,1/2+y,-z
loop_
_atom_site_type_symbol
_atom_site_label
_atom_site_fract_x
_atom_site_fract_y
_atom_site_fract_z
Si Si1 0.594758 0.070820 0.034310
Si Si2 0.631707 0.353509 0.209102
Si Si3 0.856912 0.333767 0.793423
Si Si4 0.844426 0.379439 0.282159
Si Si5 0.564604 0.613343 0.484145
Si Si6 0.352767 0.835014 0.274070
Si Si7 0.083373 0.119995 0.021097
Si Si8 0.946991 0.097491 0.525669
O O1 0.579123 0.206796 0.091539
O O2 0.774415 0.047818 0.286795
O O3 0.521770 0.093090 0.782259
O O4 0.506203 0.951840 0.969917
O O5 0.737495 0.345543 0.495723
O O6 0.735855 0.402552 0.244338
O O7 0.763639 0.296997 0.784484
O O8 0.927233 0.477384 0.926434
O O9 0.982951 0.227924 0.943885
O O10 0.932812 0.243657 0.444625
O O11 0.957319 0.498692 0.420644
O O12 0.740500 0.356884 0.998995
O O13 0.476692 0.723070 0.434927
O O14 0.574399 0.473571 0.572847
O O15 0.738276 0.654054 0.715828
O O16 0.024499 0.106898 0.784100
#
# Coordination Sequence:
#
# PCOD9118894 Si02
#       8
#     2   2   2   2   2   2   2   2
#     4  11  23  44  67  95 134 168 215 271 320 380
#     4  11  23  44  67  95 134 168 215 271 320 380
#     4  11  23  44  67  95 134 168 215 271 320 380
#     4  11  23  44  67  95 134 168 215 271 320 380
#     4  11  23  44  67  95 134 168 215 271 320 380
#     4  11  23  44  67  95 134 168 215 271 320 380
#     4  11  23  44  67  95 134 168 215 271 320 380
#     4  11  23  44  67  95 134 168 215 271 320 380
#
# _framework density 17.540375999999998
#
# number of rings (size 3 to 8) (size 9 to 14) (size 15 to 20)
#    0.000    1.000   10.000    0.000    0.000    6.000 
#    0.000    0.000    0.000    0.000    0.000    0.000 
#    0.000    0.000    0.000    0.000    0.000    0.000 
#
# Total GULP energy -89362.280423 kJ/mol
# GULP energy per Si atom -5585.142526 kJ/mol
# Density = 1.750045 g / cm^3
# Si number density = 17.540376 Si / 1000 Ang^3
#
#
#
# Elastic Constant Matrix: (Units=GPa)
#
#
# Indices 1 2 3 4 5 6 
#
# 1 57.8457 -5.2217 -18.7699 0.0000 3.7190 0.0000
# 2 -5.2217 51.4925 -19.9910 0.0000 10.2990 0.0000
# 3 -18.7699 -19.9910 69.1334 0.0000 -9.7671 0.0000
# 4 0.0000 0.0000 0.0000 35.3537 0.0000 9.1687
# 5 3.7190 10.2990 -9.7671 0.0000 43.7003 0.0000
# 6 0.0000 0.0000 0.0000 9.1687 0.0000 53.6879
#
#
#
# Elastic Compliance Matrix: (Units=1/GPa)
#
#
# Indices 1 2 3 4 5 6 
#
# 1 0.019969 0.004875 0.006639 0.000000 -0.001365 0.000000
# 2 0.004875 0.023717 0.007573 0.000000 -0.004312 0.000000
# 3 0.006639 0.007573 0.018716 0.000000 0.001833 0.000000
# 4 0.000000 0.000000 0.000000 0.029596 0.000000 -0.005054
# 5 -0.001365 -0.004312 0.001833 0.000000 0.024425 0.000000
# 6 0.000000 0.000000 0.000000 -0.005054 0.000000 0.019489
#
#
# Mechanical properties :
#
#
# Convention : Reuss Voigt Hill
#
# Bulk Modulus (GPa) = 9.94278 10.05629 9.99953
# Shear Modulus (GPa) = 38.09079 41.37864 39.73471
#
# Velocity S-wave (km/s) = 4.66511 4.86228 4.76471
# Velocity P-wave (km/s) = 5.89054 6.10475 5.99860
#
# Compressibility (1/GPa) = 0.10057550
#
# Stress axis : x y z
#
# Youngs Moduli (GPa) = 50.07679 42.16384 53.43028
#
# Poissons Ratio (x) = -0.20556 -0.35471
# Poissons Ratio (y) = -0.24414 -0.40461
# Poissons Ratio (z) = -0.33244 -0.31929
#
# Static dielectric constant tensor:
#      x y z
#    x 1.581330 0.000000 -0.000320 
#    y 0.000000 1.584150 0.000000 
#    z -0.000320 0.000000 1.581940 
# 
# From -- ./inp_files/9652.got.cif
#   From: 2010.05.17/outbox.cif.g08.bks.cpg/sg4_5_cif.got.tgz:9652.got - 2010.06.03 18:43:04.
