data_PCOD9118492
_publ_section_title
;
Structure prediction by ZEFSAII (Michael W. Deem and Ramdas Pophale) SiO2 
 PCOD9118492
Probable space group: P 21
;
_chemical_formula_sum "Si O2"
_cell_formula_units_Z 14
_cell_length_a 11.661437
_cell_length_b 7.267907
_cell_length_c 9.209429
_cell_angle_alpha 90.000000
_cell_angle_beta 70.458180
_cell_angle_gamma 90.000000
_cell_volume 735.577278
_symmetry_space_group_name_H-M "P 21"
_symmetry_group_IT_number 4
_symmetry_cell_setting 'monoclinic'
loop_
_space_group_symop_operation_xyz
x,y,z
-x,1/2+y,-z
loop_
_atom_site_type_symbol
_atom_site_label
_atom_site_fract_x
_atom_site_fract_y
_atom_site_fract_z
Si Si1 0.792858 0.325500 0.875550
Si Si2 0.828913 0.742540 0.191316
Si Si3 0.819375 0.852867 0.522038
Si Si4 0.626514 0.650866 0.047729
Si Si5 0.978928 0.605123 0.667653
Si Si6 0.639057 0.990785 0.819503
Si Si7 0.062529 0.637153 0.942645
O O1 0.902672 0.421055 0.741337
O O2 0.735980 0.144514 0.828965
O O3 0.691876 0.482946 0.936179
O O4 0.845045 0.265891 0.009997
O O5 0.808456 0.752814 0.371686
O O6 0.709961 0.687552 0.152626
O O7 0.871614 0.944976 0.119206
O O8 0.944790 0.620089 0.096155
O O9 0.897087 0.731015 0.601123
O O10 0.692259 0.901138 0.650962
O O11 0.897689 0.037121 0.459128
O O12 0.490577 0.588774 0.142569
O O13 0.628228 0.831061 0.945221
O O14 0.011062 0.699036 0.807863
#
# Coordination Sequence:
#
# PCOD9118492 Si02
#       7
#     2   2   2   2   2   2   2
#     4  12  22  40  69 101 124 169 224 271 321 383
#     4  11  22  40  66 100 134 171 217 266 334 386
#     4  11  24  40  62 101 138 170 212 272 337 387
#     4  12  24  44  69  94 126 181 227 266 312 394
#     4  11  23  39  66 100 139 170 210 272 338 388
#     4  12  25  44  69  94 133 172 230 270 318 390
#     4  11  20  37  65  98 130 167 212 267 320 396
#
# _framework density 19.032668999999999
#
# number of rings (size 3 to 8) (size 9 to 14) (size 15 to 20)
#    0.000    0.571    8.571    0.857    0.000    1.143 
#    0.000    5.714    0.000    0.000    0.000    0.000 
#    0.000    0.000    0.000    0.000    0.000    0.000 
#
# Total GULP energy -78241.560006 kJ/mol
# GULP energy per Si atom -5588.682858 kJ/mol
# Density = 1.898935 g / cm^3
# Si number density = 19.032669 Si / 1000 Ang^3
#
#
#
# Elastic Constant Matrix: (Units=GPa)
#
#
# Indices 1 2 3 4 5 6 
#
# 1 86.0654 23.2349 51.1252 0.0000 -0.6110 0.0000
# 2 23.2349 64.8792 30.1364 0.0000 13.3957 0.0000
# 3 51.1252 30.1364 115.4824 0.0000 3.3465 0.0000
# 4 0.0000 0.0000 0.0000 34.2351 0.0000 -0.0389
# 5 -0.6110 13.3957 3.3465 0.0000 29.1052 0.0000
# 6 0.0000 0.0000 0.0000 -0.0389 0.0000 44.8738
#
#
#
# Elastic Compliance Matrix: (Units=1/GPa)
#
#
# Indices 1 2 3 4 5 6 
#
# 1 0.016387 -0.003428 -0.006437 0.000000 0.002662 0.000000
# 2 -0.003428 0.020094 -0.003467 0.000000 -0.008921 0.000000
# 3 -0.006437 -0.003467 0.012413 0.000000 0.000033 0.000000
# 4 0.000000 0.000000 0.000000 0.029210 0.000000 0.000025
# 5 0.002662 -0.008921 0.000033 0.000000 0.038516 0.000000
# 6 0.000000 0.000000 0.000000 0.000025 0.000000 0.022285
#
#
# Mechanical properties :
#
#
# Convention : Reuss Voigt Hill
#
# Bulk Modulus (GPa) = 44.98807 52.82446 48.90626
# Shear Modulus (GPa) = 28.90499 32.43819 30.67159
#
# Velocity S-wave (km/s) = 3.90128 4.13285 4.01873
# Velocity P-wave (km/s) = 6.63189 7.11258 6.87644
#
# Compressibility (1/GPa) = 0.02222812
#
# Stress axis : x y z
#
# Youngs Moduli (GPa) = 61.02215 49.76702 80.55987
#
# Poissons Ratio (x) = 0.17061 0.51860
# Poissons Ratio (y) = 0.20920 0.27933
# Poissons Ratio (z) = 0.39282 0.17256
#
# Static dielectric constant tensor:
#      x y z
#    x 1.649520 0.000000 -0.003680 
#    y 0.000000 1.693210 0.000000 
#    z -0.003680 0.000000 1.656070 
# 
# From -- ./inp_files/7794.got.cif
#   From: 2010.05.17/outbox.cif.g08.bks.cpg/sg4_4_cif.got.tgz:7794.got - 2010.06.03 18:43:04.
