data_PCOD9118813
_publ_section_title
;
Structure prediction by ZEFSAII (Michael W. Deem and Ramdas Pophale) SiO2 
 PCOD9118813
Probable space group: P 21
;
_chemical_formula_sum "Si O2"
_cell_formula_units_Z 14
_cell_length_a 13.386691
_cell_length_b 5.458444
_cell_length_c 8.752532
_cell_angle_alpha 90.000000
_cell_angle_beta 80.479642
_cell_angle_gamma 90.000000
_cell_volume 630.743302
_symmetry_space_group_name_H-M "P 21"
_symmetry_group_IT_number 4
_symmetry_cell_setting 'monoclinic'
loop_
_space_group_symop_operation_xyz
x,y,z
-x,1/2+y,-z
loop_
_atom_site_type_symbol
_atom_site_label
_atom_site_fract_x
_atom_site_fract_y
_atom_site_fract_z
Si Si1 0.056655 0.253540 0.972222
Si Si2 0.243383 0.498140 0.486230
Si Si3 0.843906 0.386417 0.638936
Si Si4 0.237745 0.268738 0.146809
Si Si5 0.451656 0.358399 0.579592
Si Si6 0.937741 0.727824 0.360022
Si Si7 0.453045 0.348696 0.944570
O O1 0.094933 0.147124 0.800277
O O2 0.142035 0.335968 0.068766
O O3 0.000536 0.512162 0.947537
O O4 0.243964 0.783828 0.448782
O O5 0.244660 0.392330 0.312497
O O6 0.334292 0.392085 0.559801
O O7 0.133410 0.463300 0.591710
O O8 0.786006 0.489653 0.799532
O O9 0.903719 0.570991 0.513472
O O10 0.940645 0.231518 0.670731
O O11 0.337755 0.313678 0.027135
O O12 0.506447 0.602864 0.499727
O O13 0.462790 0.352909 0.759325
O O14 0.490495 0.608523 0.002896
#
# Coordination Sequence:
#
# PCOD9118813 Si02
#       7
#     2   2   2   2   2   2   2
#     4  12  27  43  67 101 146 191 244 298 367 437
#     4  11  25  44  74 103 146 196 247 303 374 442
#     4  11  23  42  71 101 146 191 250 298 368 445
#     4  11  26  46  71 108 147 197 247 307 377 441
#     4  12  28  52  80 115 151 198 258 311 378 459
#     4  11  23  41  66 102 140 193 238 303 356 443
#     4  12  28  52  81 114 152 196 250 322 386 449
#
# _framework density 22.196034999999998
#
# number of rings (size 3 to 8) (size 9 to 14) (size 15 to 20)
#    0.000    0.571    2.857    4.286   12.000    0.000 
#    2.571    0.000    0.000    0.000    0.000    0.000 
#    0.000    0.000    0.000    0.000    0.000    0.000 
#
# Total GULP energy -78062.501994 kJ/mol
# GULP energy per Si atom -5575.893000 kJ/mol
# Density = 2.214552 g / cm^3
# Si number density = 22.196035 Si / 1000 Ang^3
#
#
#
# Elastic Constant Matrix: (Units=GPa)
#
#
# Indices 1 2 3 4 5 6 
#
# 1 89.5703 46.1283 33.5878 0.0000 14.6261 0.0000
# 2 46.1283 83.2150 24.0391 0.0000 0.7266 0.0000
# 3 33.5878 24.0391 133.1342 0.0000 15.5129 0.0000
# 4 0.0000 0.0000 0.0000 33.0571 0.0000 1.6518
# 5 14.6261 0.7266 15.5129 0.0000 38.1069 0.0000
# 6 0.0000 0.0000 0.0000 1.6518 0.0000 14.9239
#
#
#
# Elastic Compliance Matrix: (Units=1/GPa)
#
#
# Indices 1 2 3 4 5 6 
#
# 1 0.017566 -0.009073 -0.002129 0.000000 -0.005703 0.000000
# 2 -0.009073 0.017383 -0.001278 0.000000 0.003671 0.000000
# 3 -0.002129 -0.001278 0.008588 0.000000 -0.002655 0.000000
# 4 0.000000 0.000000 0.000000 0.030419 0.000000 -0.003367
# 5 -0.005703 0.003671 -0.002655 0.000000 0.029441 0.000000
# 6 0.000000 0.000000 0.000000 -0.003367 0.000000 0.067379
#
#
# Mechanical properties :
#
#
# Convention : Reuss Voigt Hill
#
# Bulk Modulus (GPa) = 53.82328 57.04777 55.43552
# Shear Modulus (GPa) = 24.76109 30.69517 27.72813
#
# Velocity S-wave (km/s) = 3.34363 3.72279 3.53829
# Velocity P-wave (km/s) = 6.26164 6.65105 6.45928
#
# Compressibility (1/GPa) = 0.01857932
#
# Stress axis : x y z
#
# Youngs Moduli (GPa) = 56.92694 57.52644 116.43646
#
# Poissons Ratio (x) = 0.52192 0.24790
# Poissons Ratio (y) = 0.51648 0.14876
# Poissons Ratio (z) = 0.12120 0.07350
#
# Static dielectric constant tensor:
#      x y z
#    x 1.869520 0.000000 -0.008080 
#    y 0.000000 2.080970 0.000000 
#    z -0.008080 0.000000 1.806930 
# 
# From -- ./inp_files/7077.got.cif
#   From: 2010.05.17/outbox.cif.g08.bks.cpg/sg4_4_cif.got.tgz:7077.got - 2010.06.03 18:43:04.
