data_PCOD9118824
_publ_section_title
;
Structure prediction by ZEFSAII (Michael W. Deem and Ramdas Pophale) SiO2 
 PCOD9118824
Probable space group: P 21
;
_chemical_formula_sum "Si O2"
_cell_formula_units_Z 14
_cell_length_a 11.792285
_cell_length_b 12.210247
_cell_length_c 4.921470
_cell_angle_alpha 90.000000
_cell_angle_beta 50.010475
_cell_angle_gamma 90.000000
_cell_volume 542.922495
_symmetry_space_group_name_H-M "P 21"
_symmetry_group_IT_number 4
_symmetry_cell_setting 'monoclinic'
loop_
_space_group_symop_operation_xyz
x,y,z
-x,1/2+y,-z
loop_
_atom_site_type_symbol
_atom_site_label
_atom_site_fract_x
_atom_site_fract_y
_atom_site_fract_z
Si Si1 0.220322 0.167660 0.324795
Si Si2 0.628927 0.320113 0.189014
Si Si3 0.648998 0.883762 0.739756
Si Si4 0.741706 0.446502 0.523340
Si Si5 0.971661 0.684671 0.856309
Si Si6 0.070993 0.426980 0.058841
Si Si7 0.250356 0.590048 0.160199
O O1 0.322056 0.274301 0.130063
O O2 0.147994 0.127450 0.156585
O O3 0.309317 0.068873 0.327550
O O4 0.087219 0.190020 0.745558
O O5 0.471606 0.351371 0.298329
O O6 0.652623 0.374528 0.444984
O O7 0.737486 0.381653 0.812842
O O8 0.669379 0.191673 0.111102
O O9 0.632182 0.999104 0.918913
O O10 0.803540 0.906152 0.353375
O O11 0.913445 0.457064 0.174844
O O12 0.958133 0.808869 0.763001
O O13 0.137669 0.641216 0.559131
O O14 0.138484 0.518882 0.148021
#
# Coordination Sequence:
#
# PCOD9118824 Si02
#       7
#     2   2   2   2   2   2   2
#     4  11  24  44  75 106 153 188 259 313 383 456
#     4  12  32  48  75 111 164 204 260 314 398 463
#     4  11  29  49  75 113 154 214 256 315 396 471
#     4  12  27  49  75 114 151 201 257 327 384 462
#     4  11  23  41  71 119 139 192 246 325 378 448
#     4  11  25  45  83 111 155 195 269 319 390 461
#     4  12  26  48  80 112 158 206 259 331 389 469
#
# _framework density 25.786370999999999
#
# number of rings (size 3 to 8) (size 9 to 14) (size 15 to 20)
#    0.000    0.571    4.286    1.714   12.000    0.000 
#    0.000    0.000    0.000    0.000    0.000    0.000 
#    0.000    0.000    0.000    0.000    0.000    0.000 
#
# Total GULP energy -78368.214123 kJ/mol
# GULP energy per Si atom -5597.729580 kJ/mol
# Density = 2.572768 g / cm^3
# Si number density = 25.786371 Si / 1000 Ang^3
#
#
#
# Elastic Constant Matrix: (Units=GPa)
#
#
# Indices 1 2 3 4 5 6 
#
# 1 121.9260 59.9514 14.4149 0.0000 -3.6713 0.0000
# 2 59.9514 218.9004 22.3837 0.0000 -5.6629 0.0000
# 3 14.4149 22.3837 45.8162 0.0000 3.4638 0.0000
# 4 0.0000 0.0000 0.0000 23.0606 0.0000 6.6466
# 5 -3.6713 -5.6629 3.4638 0.0000 43.4548 0.0000
# 6 0.0000 0.0000 0.0000 6.6466 0.0000 47.0985
#
#
#
# Elastic Compliance Matrix: (Units=1/GPa)
#
#
# Indices 1 2 3 4 5 6 
#
# 1 0.009640 -0.002430 -0.001895 0.000000 0.000649 0.000000
# 2 -0.002430 0.005450 -0.001948 0.000000 0.000660 0.000000
# 3 -0.001895 -0.001948 0.023548 0.000000 -0.002291 0.000000
# 4 0.000000 0.000000 0.000000 0.045203 0.000000 -0.006379
# 5 0.000649 0.000660 -0.002291 0.000000 0.023336 0.000000
# 6 0.000000 0.000000 0.000000 -0.006379 0.000000 0.022132
#
#
# Mechanical properties :
#
#
# Convention : Reuss Voigt Hill
#
# Bulk Modulus (GPa) = 38.32597 64.46030 51.39313
# Shear Modulus (GPa) = 33.21134 42.04895 37.63014
#
# Velocity S-wave (km/s) = 3.59268 4.04253 3.82423
# Velocity P-wave (km/s) = 5.66613 6.84408 6.28277
#
# Compressibility (1/GPa) = 0.02609197
#
# Stress axis : x y z
#
# Youngs Moduli (GPa) = 103.73551 183.48712 42.46727
#
# Poissons Ratio (x) = 0.44579 0.08048
# Poissons Ratio (y) = 0.25203 0.08273
# Poissons Ratio (z) = 0.19658 0.35746
#
# Static dielectric constant tensor:
#      x y z
#    x 2.018790 0.000000 -0.006260 
#    y 0.000000 2.163330 0.000000 
#    z -0.006260 0.000000 2.021800 
# 
# From -- ./inp_files/2803.got.cif
#   From: 2010.05.17/outbox.cif.g08.bks.cpg/sg4_2_cif.got.tgz:2803.got - 2010.06.03 18:43:04.
