data_PCOD9118807
_publ_section_title
;
Structure prediction by ZEFSAII (Michael W. Deem and Ramdas Pophale) SiO2 
 PCOD9118807
Probable space group: P 21
;
_chemical_formula_sum "Si O2"
_cell_formula_units_Z 16
_cell_length_a 7.851052
_cell_length_b 9.710040
_cell_length_c 15.177265
_cell_angle_alpha 90.000000
_cell_angle_beta 148.588709
_cell_angle_gamma 90.000000
_cell_volume 603.015285
_symmetry_space_group_name_H-M "P 21"
_symmetry_group_IT_number 4
_symmetry_cell_setting 'monoclinic'
loop_
_space_group_symop_operation_xyz
x,y,z
-x,1/2+y,-z
loop_
_atom_site_type_symbol
_atom_site_label
_atom_site_fract_x
_atom_site_fract_y
_atom_site_fract_z
Si Si1 0.527711 0.279650 0.893801
Si Si2 0.404362 0.341622 0.113404
Si Si3 0.672350 0.061038 0.259447
Si Si4 0.595637 0.464399 0.386598
Si Si5 0.164030 0.268096 0.278774
Si Si6 0.527709 0.026368 0.393802
Si Si7 0.835963 0.537923 0.221223
Si Si8 0.672354 0.244982 0.759448
O O1 0.476149 0.443760 0.868327
O O2 0.280195 0.195197 0.847749
O O3 0.484643 0.240341 0.770969
O O4 0.897903 0.248394 0.083960
O O5 0.639482 0.210303 0.202328
O O6 0.500005 0.403011 0.250003
O O7 0.485077 0.469967 0.087986
O O8 0.039303 0.288870 0.943059
O O9 0.484646 0.065677 0.270972
O O10 0.039302 0.017150 0.443056
O O11 0.514912 0.336055 0.412010
O O12 0.360511 0.595718 0.297671
O O13 0.280196 0.110823 0.347750
O O14 0.999990 0.403008 0.249994
O O15 0.897904 0.057621 0.583962
O O16 0.476139 0.862259 0.368325
#
# Coordination Sequence:
#
# PCOD9118807 Si02
#       8
#     2   2   2   2   2   2   2   2
#     4  11  23  44  70 101 136 184 233 290 348 407
#     4  12  23  41  69 105 136 180 238 289 347 410
#     4  11  23  40  74 103 134 175 241 298 338 403
#     4  12  23  41  69 105 136 180 238 289 347 410
#     4  12  27  45  69 102 147 188 227 287 358 433
#     4  11  23  44  70 101 136 184 233 290 348 407
#     4  12  27  45  69 102 147 188 227 287 358 433
#     4  11  23  40  74 103 134 175 241 298 338 403
#
# _framework density 26.533324
#
# number of rings (size 3 to 8) (size 9 to 14) (size 15 to 20)
#    0.000    0.500    5.000    3.000    3.500    4.000 
#    0.000    3.750    0.000    0.000    0.000    0.000 
#    0.000    0.000    0.000    0.000    0.000    0.000 
#
# Total GULP energy -89410.374693 kJ/mol
# GULP energy per Si atom -5588.148418 kJ/mol
# Density = 2.647293 g / cm^3
# Si number density = 26.533324 Si / 1000 Ang^3
#
#
#
# Elastic Constant Matrix: (Units=GPa)
#
#
# Indices 1 2 3 4 5 6 
#
# 1 57.7080 22.9116 8.1761 0.0000 -2.2763 0.0000
# 2 22.9116 190.3320 41.4524 0.0000 7.9742 0.0000
# 3 8.1761 41.4524 131.7900 0.0000 20.0284 0.0000
# 4 0.0000 0.0000 0.0000 47.7066 0.0000 12.1243
# 5 -2.2763 7.9742 20.0284 0.0000 32.3223 0.0000
# 6 0.0000 0.0000 0.0000 12.1243 0.0000 54.2045
#
#
#
# Elastic Compliance Matrix: (Units=1/GPa)
#
#
# Indices 1 2 3 4 5 6 
#
# 1 0.018383 -0.002131 -0.000824 0.000000 0.002331 0.000000
# 2 -0.002131 0.005890 -0.001630 0.000000 -0.000593 0.000000
# 3 -0.000824 -0.001630 0.008942 0.000000 -0.005196 0.000000
# 4 0.000000 0.000000 0.000000 0.022225 0.000000 -0.004971
# 5 0.002331 -0.000593 -0.005196 0.000000 0.034469 0.000000
# 6 0.000000 0.000000 0.000000 -0.004971 0.000000 0.019561
#
#
# Mechanical properties :
#
#
# Convention : Reuss Voigt Hill
#
# Bulk Modulus (GPa) = 41.59127 58.32336 49.95731
# Shear Modulus (GPa) = 39.47697 47.33266 43.40481
#
# Velocity S-wave (km/s) = 3.86142 4.22820 4.04896
# Velocity P-wave (km/s) = 5.96573 6.77243 6.38184
#
# Compressibility (1/GPa) = 0.02404351
#
# Stress axis : x y z
#
# Youngs Moduli (GPa) = 54.39671 169.76658 111.83801
#
# Poissons Ratio (x) = 0.36178 0.09221
# Poissons Ratio (y) = 0.11592 0.18234
# Poissons Ratio (z) = 0.04485 0.27679
#
# Static dielectric constant tensor:
#      x y z
#    x 2.236680 0.000000 0.023870 
#    y 0.000000 2.029720 0.000000 
#    z 0.023870 0.000000 2.001060 
# 
# From -- ./inp_files/9142.got.cif
#   From: 2010.05.17/outbox.cif.g08.bks.cpg/sg4_5_cif.got.tgz:9142.got - 2010.06.03 18:43:04.
