data_PCOD9118638
_publ_section_title
;
Structure prediction by ZEFSAII (Michael W. Deem and Ramdas Pophale) SiO2 
 PCOD9118638
Probable space group: P 21
;
_chemical_formula_sum "Si O2"
_cell_formula_units_Z 14
_cell_length_a 22.904831
_cell_length_b 5.226959
_cell_length_c 28.334669
_cell_angle_alpha 90.000000
_cell_angle_beta 11.956855
_cell_angle_gamma 90.000000
_cell_volume 702.800097
_symmetry_space_group_name_H-M "P 21"
_symmetry_group_IT_number 4
_symmetry_cell_setting 'monoclinic'
loop_
_space_group_symop_operation_xyz
x,y,z
-x,1/2+y,-z
loop_
_atom_site_type_symbol
_atom_site_label
_atom_site_fract_x
_atom_site_fract_y
_atom_site_fract_z
Si Si1 0.193270 0.215700 0.405473
Si Si2 0.597059 0.561037 0.451619
Si Si3 0.431039 0.530074 0.294132
Si Si4 0.637483 0.495947 0.823237
Si Si5 0.091927 0.306446 0.304650
Si Si6 0.741855 0.026547 0.083798
Si Si7 0.814243 0.967325 0.137172
O O1 0.366205 0.449330 0.291335
O O2 0.368943 0.104213 0.223887
O O3 0.888596 0.288919 0.625142
O O4 0.109475 0.023796 0.513944
O O5 0.486971 0.824929 0.515946
O O6 0.442060 0.513538 0.623943
O O7 0.934354 0.569840 0.187075
O O8 0.568434 0.284155 0.209856
O O9 0.112265 0.608372 0.560625
O O10 0.623002 0.776469 0.151302
O O11 0.747436 0.687004 0.777195
O O12 0.334712 0.403229 0.078824
O O13 0.728904 0.972221 0.149962
O O14 0.964258 0.698385 0.030054
#
# Coordination Sequence:
#
# PCOD9118638 Si02
#       7
#     2   2   2   2   2   2   2
#     4  11  22  42  66 102 132 173 235 278 350 389
#     4  12  23  43  74 107 131 173 228 285 330 388
#     4  11  26  46  66  94 147 190 208 276 341 428
#     4  11  22  38  72  98 129 174 232 304 327 390
#     4  11  22  42  66 102 132 173 235 278 350 389
#     4  12  24  46  70  96 146 180 220 270 348 398
#     4  12  23  43  74 107 131 173 228 285 330 388
#
# _framework density 19.920314999999999
#
# number of rings (size 3 to 8) (size 9 to 14) (size 15 to 20)
#    0.000    0.571    7.143    1.714    0.000    0.000 
#    2.571    2.857    0.000    0.000    0.000    0.000 
#    0.000    0.000    0.000    0.000    0.000    0.000 
#
# Total GULP energy -78219.180914 kJ/mol
# GULP energy per Si atom -5587.084351 kJ/mol
# Density = 1.987498 g / cm^3
# Si number density = 19.920315 Si / 1000 Ang^3
#
#
#
# Elastic Constant Matrix: (Units=GPa)
#
#
# Indices 1 2 3 4 5 6 
#
# 1 61.1177 18.6938 72.6106 0.0000 4.0711 0.0000
# 2 18.6938 106.8690 40.7927 0.0000 -18.8521 0.0000
# 3 72.6106 40.7927 114.7163 0.0000 3.8167 0.0000
# 4 0.0000 0.0000 0.0000 43.0214 0.0000 -6.0507
# 5 4.0711 -18.8521 3.8167 0.0000 43.3620 0.0000
# 6 0.0000 0.0000 0.0000 -6.0507 0.0000 35.7688
#
#
#
# Elastic Compliance Matrix: (Units=1/GPa)
#
#
# Indices 1 2 3 4 5 6 
#
# 1 0.068455 0.005245 -0.045189 0.000000 -0.000169 0.000000
# 2 0.005245 0.012462 -0.007938 0.000000 0.005624 0.000000
# 3 -0.045189 -0.007938 0.040234 0.000000 -0.002750 0.000000
# 4 0.000000 0.000000 0.000000 0.023811 0.000000 0.004028
# 5 -0.000169 0.005624 -0.002750 0.000000 0.025765 0.000000
# 6 0.000000 0.000000 0.000000 0.004028 0.000000 0.028639
#
#
# Mechanical properties :
#
#
# Convention : Reuss Voigt Hill
#
# Bulk Modulus (GPa) = 39.39054 60.76636 50.07845
# Shear Modulus (GPa) = 16.46945 34.47082 25.47014
#
# Velocity S-wave (km/s) = 2.87847 4.16436 3.57963
# Velocity P-wave (km/s) = 5.55558 7.32759 6.50223
#
# Compressibility (1/GPa) = 0.02538681
#
# Stress axis : x y z
#
# Youngs Moduli (GPa) = 14.60809 80.24332 24.85461
#
# Poissons Ratio (x) = -0.42085 1.12315
# Poissons Ratio (y) = -0.07661 0.19730
# Poissons Ratio (z) = 0.66012 0.63699
#
# Static dielectric constant tensor:
#      x y z
#    x 1.664760 0.000000 -0.023170 
#    y 0.000000 1.781190 0.000000 
#    z -0.023170 0.000000 1.669030 
# 
# From -- ./inp_files/15881.got.cif
#   From: 2010.05.17/outbox.cif.g08.bks.cpg/sg4_8_cif.got.tgz:15881.got - 2010.06.03 18:43:04.
