data_PCOD9118375
_publ_section_title
;
Structure prediction by ZEFSAII (Michael W. Deem and Ramdas Pophale) SiO2 
 PCOD9118375
Probable space group: P 21
;
_chemical_formula_sum "Si O2"
_cell_formula_units_Z 12
_cell_length_a 7.182892
_cell_length_b 13.321896
_cell_length_c 6.991353
_cell_angle_alpha 90.000000
_cell_angle_beta 42.050367
_cell_angle_gamma 90.000000
_cell_volume 448.085748
_symmetry_space_group_name_H-M "P 21"
_symmetry_group_IT_number 4
_symmetry_cell_setting 'monoclinic'
loop_
_space_group_symop_operation_xyz
x,y,z
-x,1/2+y,-z
loop_
_atom_site_type_symbol
_atom_site_label
_atom_site_fract_x
_atom_site_fract_y
_atom_site_fract_z
Si Si1 0.248625 0.810470 0.597530
Si Si2 0.884752 0.516237 0.886238
Si Si3 0.224827 0.157847 0.377020
Si Si4 0.553233 0.341622 0.944517
Si Si5 0.425887 0.486024 0.720344
Si Si6 0.182444 0.198097 0.809092
O O1 0.282792 0.915654 0.039158
O O2 0.020320 0.758999 0.898369
O O3 0.238400 0.795300 0.375410
O O4 0.822333 0.991422 0.239153
O O5 0.695175 0.428689 0.427353
O O6 0.741301 0.596467 0.137287
O O7 0.915148 0.582423 0.668352
O O8 0.052832 0.180155 0.700475
O O9 0.477439 0.091756 0.274175
O O10 0.365831 0.255825 0.177741
O O11 0.367573 0.416295 0.951773
O O12 0.458292 0.261811 0.568351
#
# Coordination Sequence:
#
# PCOD9118375 Si02
#       6
#     2   2   2   2   2   2
#     4  10  25  53  79 119 170 218 281 351 424 499
#     4  11  23  52  86 121 174 224 289 354 428 512
#     4  11  24  50  82 125 168 227 290 351 432 515
#     4   9  23  51  86 122 168 226 285 350 425 514
#     4   9  23  48  85 120 170 224 289 347 432 503
#     4  12  26  50  84 119 172 223 280 357 423 503
#
# _framework density 26.780591999999999
#
# number of rings (size 3 to 8) (size 9 to 14) (size 15 to 20)
#    1.000    0.667    1.667    1.000    0.000    6.667 
#    9.000    8.333    0.000    2.000    0.000    0.000 
#    0.000    0.000    0.000    0.000    0.000    0.000 
#
# Total GULP energy -67289.897273 kJ/mol
# GULP energy per Si atom -5607.491439 kJ/mol
# Density = 2.671964 g / cm^3
# Si number density = 26.780592 Si / 1000 Ang^3
#
#
#
# Elastic Constant Matrix: (Units=GPa)
#
#
# Indices 1 2 3 4 5 6 
#
# 1 170.1993 49.6392 56.3872 0.0000 27.2194 0.0000
# 2 49.6392 144.0721 67.4889 0.0000 1.9137 0.0000
# 3 56.3872 67.4889 155.0570 0.0000 16.0524 0.0000
# 4 0.0000 0.0000 0.0000 65.0880 0.0000 16.5871
# 5 27.2194 1.9137 16.0524 0.0000 58.5057 0.0000
# 6 0.0000 0.0000 0.0000 16.5871 0.0000 43.0238
#
#
#
# Elastic Compliance Matrix: (Units=1/GPa)
#
#
# Indices 1 2 3 4 5 6 
#
# 1 0.007393 -0.001747 -0.001624 0.000000 -0.002937 0.000000
# 2 -0.001747 0.009166 -0.003507 0.000000 0.001475 0.000000
# 3 -0.001624 -0.003507 0.008724 0.000000 -0.001523 0.000000
# 4 0.000000 0.000000 0.000000 0.017038 0.000000 -0.006569
# 5 -0.002937 0.001475 -0.001523 0.000000 0.018828 0.000000
# 6 0.000000 0.000000 0.000000 -0.006569 0.000000 0.025775
#
#
# Mechanical properties :
#
#
# Convention : Reuss Voigt Hill
#
# Bulk Modulus (GPa) = 86.75652 90.70656 88.73154
# Shear Modulus (GPa) = 47.83647 53.04437 50.44042
#
# Velocity S-wave (km/s) = 4.23097 4.45534 4.34460
# Velocity P-wave (km/s) = 7.50559 7.77242 7.64017
#
# Compressibility (1/GPa) = 0.01152651
#
# Stress axis : x y z
#
# Youngs Moduli (GPa) = 135.26765 109.09635 114.62862
#
# Poissons Ratio (x) = 0.19064 0.18613
# Poissons Ratio (y) = 0.23638 0.40199
# Poissons Ratio (z) = 0.21965 0.38259
#
# Static dielectric constant tensor:
#      x y z
#    x 2.097010 0.000000 0.022190 
#    y 0.000000 2.122210 0.000000 
#    z 0.022190 0.000000 2.169610 
# 
# From -- ./inp_files/1488.got.cif
#   From: 2010.05.17/outbox.cif.g08.bks.cpg/sg4_1_cif.got.tgz:1488.got - 2010.06.03 18:43:04.
