data_PCOD9118342
_publ_section_title
;
Structure prediction by ZEFSAII (Michael W. Deem and Ramdas Pophale) SiO2 
 PCOD9118342
Probable space group: P 21
;
_chemical_formula_sum "Si O2"
_cell_formula_units_Z 16
_cell_length_a 5.304042
_cell_length_b 11.631823
_cell_length_c 11.538376
_cell_angle_alpha 90.000000
_cell_angle_beta 59.214971
_cell_angle_gamma 90.000000
_cell_volume 611.561224
_symmetry_space_group_name_H-M "P 21"
_symmetry_group_IT_number 4
_symmetry_cell_setting 'monoclinic'
loop_
_space_group_symop_operation_xyz
x,y,z
-x,1/2+y,-z
loop_
_atom_site_type_symbol
_atom_site_label
_atom_site_fract_x
_atom_site_fract_y
_atom_site_fract_z
Si Si1 0.209715 0.944790 0.235465
Si Si2 0.996677 0.347402 0.502845
Si Si3 0.795654 0.160019 0.369231
Si Si4 0.942610 0.762894 0.115680
Si Si5 0.655970 0.051668 0.972271
Si Si6 0.225478 0.184574 0.617577
Si Si7 0.082597 0.862880 0.839275
Si Si8 0.667768 0.015970 0.752360
O O1 0.252910 0.896181 0.353855
O O2 0.108067 0.852435 0.163687
O O3 0.982467 0.048883 0.297342
O O4 0.501007 0.000406 0.116817
O O5 0.919151 0.235736 0.446611
O O6 0.224595 0.304211 0.547155
O O7 0.126116 0.440285 0.387416
O O8 0.479096 0.118651 0.489691
O O9 0.831655 0.251932 0.255627
O O10 0.711056 0.707780 0.261758
O O11 0.153596 0.656948 0.037355
O O12 0.929123 0.826526 0.995687
O O13 0.463321 0.083674 0.908508
O O14 0.827281 0.952343 0.848846
O O15 0.906054 0.126610 0.689236
O O16 0.368177 0.940812 0.785787
#
# Coordination Sequence:
#
# PCOD9118342 Si02
#       8
#     2   2   2   2   2   2   2   2
#     4  11  27  48  78 112 156 200 255 323 387 462
#     4  11  24  47  70 109 153 197 252 317 371 454
#     4  12  27  47  80 115 153 206 260 317 391 467
#     4  10  26  47  71 111 146 193 260 308 380 456
#     4  11  26  47  75 108 152 205 249 315 383 459
#     4  10  25  47  74 107 151 198 252 312 376 457
#     4  12  26  46  79 112 153 200 257 315 390 461
#     4  11  23  47  71 108 154 193 249 309 378 450
#
# _framework density 26.16255
#
# number of rings (size 3 to 8) (size 9 to 14) (size 15 to 20)
#    0.000    1.000    3.750    0.750    7.000    7.000 
#    2.250    0.000    0.000    0.000    0.000    0.000 
#    0.000    0.000    0.000    0.000    0.000    0.000 
#
# Total GULP energy -89174.702670 kJ/mol
# GULP energy per Si atom -5573.418917 kJ/mol
# Density = 2.610300 g / cm^3
# Si number density = 26.162550 Si / 1000 Ang^3
#
#
#
# Elastic Constant Matrix: (Units=GPa)
#
#
# Indices 1 2 3 4 5 6 
#
# 1 78.1985 39.5913 49.8317 0.0000 6.6124 0.0000
# 2 39.5913 93.1958 89.5578 0.0000 -17.0739 0.0000
# 3 49.8317 89.5578 215.1749 0.0000 12.8816 0.0000
# 4 0.0000 0.0000 0.0000 52.2474 0.0000 10.7692
# 5 6.6124 -17.0739 12.8816 0.0000 42.2510 0.0000
# 6 0.0000 0.0000 0.0000 10.7692 0.0000 29.7190
#
#
#
# Elastic Compliance Matrix: (Units=1/GPa)
#
#
# Indices 1 2 3 4 5 6 
#
# 1 0.017716 -0.008421 -0.000232 0.000000 -0.006105 0.000000
# 2 -0.008421 0.026841 -0.010135 0.000000 0.015254 0.000000
# 3 -0.000232 -0.010135 0.009333 0.000000 -0.006904 0.000000
# 4 0.000000 0.000000 0.000000 0.020685 0.000000 -0.007495
# 5 -0.006105 0.015254 -0.006904 0.000000 0.032893 0.000000
# 6 0.000000 0.000000 0.000000 -0.007495 0.000000 0.036365
#
#
# Mechanical properties :
#
#
# Convention : Reuss Voigt Hill
#
# Bulk Modulus (GPa) = 61.29879 82.72565 72.01222
# Shear Modulus (GPa) = 26.76002 38.68271 32.72137
#
# Velocity S-wave (km/s) = 3.20165 3.84937 3.54035
# Velocity P-wave (km/s) = 6.09494 7.17254 6.65558
#
# Compressibility (1/GPa) = 0.01631354
#
# Stress axis : x y z
#
# Youngs Moduli (GPa) = 56.44679 37.25613 107.15120
#
# Poissons Ratio (x) = 0.31374 0.02489
# Poissons Ratio (y) = 0.47535 1.08593
# Poissons Ratio (z) = 0.01311 0.37757
#
# Static dielectric constant tensor:
#      x y z
#    x 2.158050 0.000000 -0.021830 
#    y 0.000000 2.079110 0.000000 
#    z -0.021830 0.000000 2.123790 
# 
# From -- ./inp_files/10393.got.cif
#   From: 2010.05.17/outbox.cif.g08.bks.cpg/sg4_6_cif.got.tgz:10393.got - 2010.06.03 18:43:04.
