data_PCOD9118951
_publ_section_title
;
Structure prediction by ZEFSAII (Michael W. Deem and Ramdas Pophale) SiO2 
 PCOD9118951
Probable space group: P 21
;
_chemical_formula_sum "Si O2"
_cell_formula_units_Z 16
_cell_length_a 9.225770
_cell_length_b 4.910680
_cell_length_c 16.689536
_cell_angle_alpha 90.000000
_cell_angle_beta 105.460086
_cell_angle_gamma 90.000000
_cell_volume 728.757146
_symmetry_space_group_name_H-M "P 21"
_symmetry_group_IT_number 4
_symmetry_cell_setting 'monoclinic'
loop_
_space_group_symop_operation_xyz
x,y,z
-x,1/2+y,-z
loop_
_atom_site_type_symbol
_atom_site_label
_atom_site_fract_x
_atom_site_fract_y
_atom_site_fract_z
Si Si1 0.817839 0.863870 0.147267
Si Si2 0.386517 0.849566 0.927981
Si Si3 0.944738 0.322637 0.943419
Si Si4 0.768139 0.151097 0.305433
Si Si5 0.908695 0.429691 0.465343
Si Si6 0.555378 0.490134 0.457275
Si Si7 0.598748 0.458280 0.887655
Si Si8 0.562532 0.672169 0.287794
O O1 0.709505 0.608420 0.114848
O O2 0.976439 0.805507 0.130934
O O3 0.737183 0.112325 0.091479
O O4 0.823746 0.980345 0.237563
O O5 0.522005 0.754765 0.889186
O O6 0.336715 0.915499 0.726493
O O7 0.437612 0.847634 0.028165
O O8 0.777472 0.438283 0.910574
O O9 0.039615 0.529875 0.012912
O O10 0.896779 0.278603 0.378206
O O11 0.488459 0.562945 0.359021
O O12 0.989075 0.719647 0.469728
O O13 0.736294 0.454628 0.470764
O O14 0.666253 0.923798 0.333722
O O15 0.518079 0.724093 0.515344
O O16 0.529360 0.307274 0.799754
#
# Coordination Sequence:
#
# PCOD9118951 Si02
#       8
#     2   2   2   2   2   2   2   2
#     4  12  24  47  68 100 141 192 232 299 361 436
#     4  12  26  41  72 104 136 188 256 297 348 415
#     4  12  26  47  68  96 146 194 232 292 378 419
#     4  11  24  43  73 105 142 184 242 295 367 424
#     4  11  23  45  77 110 143 184 236 299 359 443
#     4  11  23  47  77 107 148 191 236 292 373 446
#     4  12  27  45  73 106 143 185 258 305 348 431
#     4  11  25  43  74 108 143 186 240 313 350 424
#
# _framework density 21.955189000000001
#
# number of rings (size 3 to 8) (size 9 to 14) (size 15 to 20)
#    0.000    0.500    3.750    5.250    1.750    3.000 
#    2.250    0.000    2.750    0.000    0.000    0.000 
#    0.000    0.000    0.000    0.000    0.000    0.000 
#
# Total GULP energy -89354.117497 kJ/mol
# GULP energy per Si atom -5584.632344 kJ/mol
# Density = 2.190522 g / cm^3
# Si number density = 21.955189 Si / 1000 Ang^3
#
#
#
# Elastic Constant Matrix: (Units=GPa)
#
#
# Indices 1 2 3 4 5 6 
#
# 1 116.9154 26.3380 43.6948 0.0000 -8.6973 0.0000
# 2 26.3380 133.7952 31.4191 0.0000 1.1250 0.0000
# 3 43.6948 31.4191 122.2328 0.0000 -4.8114 0.0000
# 4 0.0000 0.0000 0.0000 40.3963 0.0000 4.3863
# 5 -8.6973 1.1250 -4.8114 0.0000 33.4842 0.0000
# 6 0.0000 0.0000 0.0000 4.3863 0.0000 32.8566
#
#
#
# Elastic Compliance Matrix: (Units=1/GPa)
#
#
# Indices 1 2 3 4 5 6 
#
# 1 0.010215 -0.001269 -0.003238 0.000000 0.002231 0.000000
# 2 -0.001269 0.008123 -0.001667 0.000000 -0.000842 0.000000
# 3 -0.003238 -0.001667 0.009791 0.000000 0.000622 0.000000
# 4 0.000000 0.000000 0.000000 0.025119 0.000000 -0.003353
# 5 0.002231 -0.000842 0.000622 0.000000 0.030562 0.000000
# 6 0.000000 0.000000 0.000000 -0.003353 0.000000 0.030883
#
#
# Mechanical properties :
#
#
# Convention : Reuss Voigt Hill
#
# Bulk Modulus (GPa) = 63.36781 63.98301 63.67541
# Shear Modulus (GPa) = 37.79251 39.44686 38.61968
#
# Velocity S-wave (km/s) = 4.15341 4.24335 4.19862
# Velocity P-wave (km/s) = 7.20598 7.29478 7.25051
#
# Compressibility (1/GPa) = 0.01578088
#
# Stress axis : x y z
#
# Youngs Moduli (GPa) = 97.89487 123.11349 102.12974
#
# Poissons Ratio (x) = 0.15627 0.33065
# Poissons Ratio (y) = 0.12426 0.17028
# Poissons Ratio (z) = 0.31694 0.20526
#
# Static dielectric constant tensor:
#      x y z
#    x 1.800660 0.000000 0.007200 
#    y 0.000000 1.877930 0.000000 
#    z 0.007200 0.000000 1.885590 
# 
# From -- ./inp_files/9974.got.cif
#   From: 2010.05.17/outbox.cif.g08.bks.cpg/sg4_5_cif.got.tgz:9974.got - 2010.06.03 18:43:04.
