data_PCOD9118254
_publ_section_title
;
Structure prediction by ZEFSAII (Michael W. Deem and Ramdas Pophale) SiO2 
 PCOD9118254
Probable space group: P 21
;
_chemical_formula_sum "Si O2"
_cell_formula_units_Z 12
_cell_length_a 9.342158
_cell_length_b 10.510572
_cell_length_c 4.984796
_cell_angle_alpha 90.000000
_cell_angle_beta 80.163903
_cell_angle_gamma 90.000000
_cell_volume 482.269325
_symmetry_space_group_name_H-M "P 21"
_symmetry_group_IT_number 4
_symmetry_cell_setting 'monoclinic'
loop_
_space_group_symop_operation_xyz
x,y,z
-x,1/2+y,-z
loop_
_atom_site_type_symbol
_atom_site_label
_atom_site_fract_x
_atom_site_fract_y
_atom_site_fract_z
Si Si1 0.755316 0.326490 0.371780
Si Si2 0.832639 0.603410 0.572657
Si Si3 0.456345 0.230524 0.494057
Si Si4 0.687176 0.090243 0.697319
Si Si5 0.736166 0.930341 0.187303
Si Si6 0.970703 0.726280 0.019047
O O1 0.794642 0.464258 0.472935
O O2 0.591370 0.303095 0.311725
O O3 0.752139 0.228610 0.623088
O O4 0.873941 0.272316 0.130728
O O5 0.680576 0.681990 0.629902
O O6 0.307600 0.537521 0.008862
O O7 0.938210 0.670606 0.322435
O O8 0.525779 0.110913 0.628412
O O9 0.391935 0.329806 0.727103
O O10 0.090968 0.119631 0.166358
O O11 0.763989 0.992394 0.468584
O O12 0.871112 0.851973 0.034588
#
# Coordination Sequence:
#
# PCOD9118254 Si02
#       6
#     2   2   2   2   2   2
#     4  10  26  45  72 105 136 185 228 285 342 410
#     4  11  25  49  67 103 141 177 236 280 342 413
#     4   9  23  45  69 102 130 186 223 289 336 403
#     4  10  25  39  70  97 133 175 229 273 342 398
#     4  11  22  45  65  98 138 178 224 280 342 405
#     4  11  27  43  73  99 140 185 224 285 344 401
#
# _framework density 24.882363000000002
#
# number of rings (size 3 to 8) (size 9 to 14) (size 15 to 20)
#    1.000    0.667    0.000    3.000    4.667    9.333 
#    0.000    0.000    0.000    0.000    0.000    0.000 
#    0.000    0.000    0.000    0.000    0.000    0.000 
#
# Total GULP energy -67168.354978 kJ/mol
# GULP energy per Si atom -5597.362915 kJ/mol
# Density = 2.482573 g / cm^3
# Si number density = 24.882363 Si / 1000 Ang^3
#
#
#
# Elastic Constant Matrix: (Units=GPa)
#
#
# Indices 1 2 3 4 5 6 
#
# 1 79.7265 12.6308 51.9802 0.0000 -25.0137 0.0000
# 2 12.6308 89.3183 7.2045 0.0000 -11.6529 0.0000
# 3 51.9802 7.2045 86.7225 0.0000 -22.9595 0.0000
# 4 0.0000 0.0000 0.0000 35.5066 0.0000 -6.1536
# 5 -25.0137 -11.6529 -22.9595 0.0000 55.0452 0.0000
# 6 0.0000 0.0000 0.0000 -6.1536 0.0000 9.4765
#
#
#
# Elastic Compliance Matrix: (Units=1/GPa)
#
#
# Indices 1 2 3 4 5 6 
#
# 1 0.021949 -0.001536 -0.011774 0.000000 0.004738 0.000000
# 2 -0.001536 0.011631 0.000474 0.000000 0.001962 0.000000
# 3 -0.011774 0.000474 0.019289 0.000000 0.002795 0.000000
# 4 0.000000 0.000000 0.000000 0.031735 0.000000 0.020608
# 5 0.004738 0.001962 0.002795 0.000000 0.021901 0.000000
# 6 0.000000 0.000000 0.000000 0.020608 0.000000 0.118906
#
#
# Mechanical properties :
#
#
# Convention : Reuss Voigt Hill
#
# Bulk Modulus (GPa) = 36.76946 44.37759 40.57353
# Shear Modulus (GPa) = 19.21967 32.26909 25.74438
#
# Velocity S-wave (km/s) = 2.78226 3.60511 3.22008
# Velocity P-wave (km/s) = 5.01305 5.93319 5.49243
#
# Compressibility (1/GPa) = 0.02719648
#
# Stress axis : x y z
#
# Youngs Moduli (GPa) = 45.55963 85.97810 51.84315
#
# Poissons Ratio (x) = 0.13207 0.61041
# Poissons Ratio (y) = 0.06998 -0.02457
# Poissons Ratio (z) = 0.53642 -0.04074
#
# Static dielectric constant tensor:
#      x y z
#    x 2.079610 0.000000 -0.070380 
#    y 0.000000 1.953890 0.000000 
#    z -0.070380 0.000000 1.915870 
# 
# From -- ./inp_files/6011.got.cif
#   From: 2010.05.17/outbox.cif.g08.bks.cpg/sg4_4_cif.got.tgz:6011.got - 2010.06.03 18:43:04.
