data_PCOD9118902
_publ_section_title
;
Structure prediction by ZEFSAII (Michael W. Deem and Ramdas Pophale) SiO2 
 PCOD9118902
Probable space group: P 21
;
_chemical_formula_sum "Si O2"
_cell_formula_units_Z 14
_cell_length_a 7.779057
_cell_length_b 8.474172
_cell_length_c 8.385126
_cell_angle_alpha 90.000000
_cell_angle_beta 67.928293
_cell_angle_gamma 90.000000
_cell_volume 512.247309
_symmetry_space_group_name_H-M "P 21"
_symmetry_group_IT_number 4
_symmetry_cell_setting 'monoclinic'
loop_
_space_group_symop_operation_xyz
x,y,z
-x,1/2+y,-z
loop_
_atom_site_type_symbol
_atom_site_label
_atom_site_fract_x
_atom_site_fract_y
_atom_site_fract_z
Si Si1 0.597860 0.112970 0.642597
Si Si2 0.493259 0.780789 0.027520
Si Si3 0.019772 0.942885 0.872939
Si Si4 0.599644 0.756236 0.545139
Si Si5 0.639946 0.068256 0.146641
Si Si6 0.126932 0.120408 0.131597
Si Si7 0.976421 0.592431 0.488989
O O1 0.569303 0.139993 0.836834
O O2 0.449076 0.235340 0.622067
O O3 0.815894 0.151902 0.546369
O O4 0.561910 0.931768 0.614197
O O5 0.494786 0.944789 0.116337
O O6 0.355759 0.741705 0.934237
O O7 0.695930 0.732384 0.894772
O O8 0.017709 0.005866 0.688592
O O9 0.029115 0.754842 0.847056
O O10 0.831047 0.981141 0.041352
O O11 0.154017 0.030460 0.953486
O O12 0.456294 0.620404 0.655877
O O13 0.810628 0.715899 0.514270
O O14 0.079461 0.026017 0.312409
#
# Coordination Sequence:
#
# PCOD9118902 Si02
#       7
#     2   2   2   2   2   2   2
#     4  12  27  48  74 111 150 195 255 313 380 459
#     4  11  23  44  70  99 138 187 239 298 368 440
#     4  11  26  47  72 108 146 190 250 308 375 454
#     4  12  27  48  74 111 150 195 255 313 380 459
#     4  11  23  44  70  99 138 187 239 298 368 440
#     4  11  26  47  72 108 146 190 250 308 375 454
#     4  12  26  48  76 106 154 202 252 312 376 454
#
# _framework density 27.330546999999999
#
# number of rings (size 3 to 8) (size 9 to 14) (size 15 to 20)
#    0.000    0.571    2.857    4.286    0.000   13.714 
#    0.000    0.000    0.000    0.000    0.000    0.000 
#    0.000    0.000    0.000    0.000    0.000    0.000 
#
# Total GULP energy -78096.137491 kJ/mol
# GULP energy per Si atom -5578.295535 kJ/mol
# Density = 2.726834 g / cm^3
# Si number density = 27.330547 Si / 1000 Ang^3
#
#
#
# Elastic Constant Matrix: (Units=GPa)
#
#
# Indices 1 2 3 4 5 6 
#
# 1 104.5407 24.0602 25.5790 0.0000 -0.6373 0.0000
# 2 24.0602 133.2003 49.7353 0.0000 18.8864 0.0000
# 3 25.5790 49.7353 137.0706 0.0000 6.0650 0.0000
# 4 0.0000 0.0000 0.0000 35.7387 0.0000 5.3722
# 5 -0.6373 18.8864 6.0650 0.0000 45.3811 0.0000
# 6 0.0000 0.0000 0.0000 5.3722 0.0000 37.5685
#
#
#
# Elastic Compliance Matrix: (Units=1/GPa)
#
#
# Indices 1 2 3 4 5 6 
#
# 1 0.010255 -0.001452 -0.001428 0.000000 0.000939 0.000000
# 2 -0.001452 0.009381 -0.002977 0.000000 -0.003527 0.000000
# 3 -0.001428 -0.002977 0.008639 0.000000 0.000064 0.000000
# 4 0.000000 0.000000 0.000000 0.028596 0.000000 -0.004089
# 5 0.000939 -0.003527 0.000064 0.000000 0.023508 0.000000
# 6 0.000000 0.000000 0.000000 -0.004089 0.000000 0.027203
#
#
# Mechanical properties :
#
#
# Convention : Reuss Voigt Hill
#
# Bulk Modulus (GPa) = 60.38338 63.72894 62.05616
# Shear Modulus (GPa) = 40.05847 42.10013 41.07930
#
# Velocity S-wave (km/s) = 3.83260 3.92906 3.88113
# Velocity P-wave (km/s) = 6.45963 6.62961 6.54517
#
# Compressibility (1/GPa) = 0.01656085
#
# Stress axis : x y z
#
# Youngs Moduli (GPa) = 97.51239 106.59352 115.74906
#
# Poissons Ratio (x) = 0.15480 0.16533
# Poissons Ratio (y) = 0.14161 0.34458
# Poissons Ratio (z) = 0.13928 0.31732
#
# Static dielectric constant tensor:
#      x y z
#    x 2.232670 0.000000 0.032190 
#    y 0.000000 2.084500 0.000000 
#    z 0.032190 0.000000 2.237840 
# 
# From -- ./inp_files/5237.got.cif
#   From: 2010.05.17/outbox.cif.g08.bks.cpg/sg4_3_cif.got.tgz:5237.got - 2010.06.03 18:43:04.
