data_PCOD9118116
_publ_section_title
;
Structure prediction by ZEFSAII (Michael W. Deem and Ramdas Pophale) SiO2 
 PCOD9118116
Probable space group: P 21
;
_chemical_formula_sum "Si O2"
_cell_formula_units_Z 8
_cell_length_a 4.996591
_cell_length_b 5.091412
_cell_length_c 12.331303
_cell_angle_alpha 90.000000
_cell_angle_beta 84.778408
_cell_angle_gamma 90.000000
_cell_volume 312.402870
_symmetry_space_group_name_H-M "P 21"
_symmetry_group_IT_number 4
_symmetry_cell_setting 'monoclinic'
loop_
_space_group_symop_operation_xyz
x,y,z
-x,1/2+y,-z
loop_
_atom_site_type_symbol
_atom_site_label
_atom_site_fract_x
_atom_site_fract_y
_atom_site_fract_z
Si Si1 0.519219 0.479030 0.928414
Si Si2 0.259622 0.952111 0.400779
Si Si3 0.357888 0.957369 0.638475
Si Si4 0.058941 0.596025 0.783885
O O1 0.787299 0.587445 0.862075
O O2 0.712783 0.965608 0.152343
O O3 0.434640 0.696728 0.019809
O O4 0.195497 0.950188 0.530770
O O5 0.433619 0.213484 0.374144
O O6 0.010984 0.957126 0.327986
O O7 0.546795 0.209360 0.633208
O O8 0.164765 0.883963 0.745088
#
# Coordination Sequence:
#
# PCOD9118116 Si02
#       4
#     2   2   2   2
#     4  12  30  52  76 110 146 200 270 330 378 446
#     4  10  24  45  74 116 161 200 248 304 380 477
#     4  10  24  45  74 116 161 200 248 304 380 477
#     4  12  26  52  80 110 154 206 250 320 396 448
#
# _framework density 25.607959000000001
#
# number of rings (size 3 to 8) (size 9 to 14) (size 15 to 20)
#    0.000    1.000    2.500    1.500    3.500   12.000 
#    0.000    0.000    0.000    0.000    0.000    0.000 
#    0.000    0.000    0.000    0.000    0.000    0.000 
#
# Total GULP energy -44923.192964 kJ/mol
# GULP energy per Si atom -5615.399121 kJ/mol
# Density = 2.554967 g / cm^3
# Si number density = 25.607959 Si / 1000 Ang^3
#
#
#
# Elastic Constant Matrix: (Units=GPa)
#
#
# Indices 1 2 3 4 5 6 
#
# 1 139.8046 31.7204 53.1438 0.0000 14.1390 0.0000
# 2 31.7204 150.4663 25.3170 0.0000 22.8298 0.0000
# 3 53.1438 25.3170 105.6230 0.0000 39.0777 0.0000
# 4 0.0000 0.0000 0.0000 38.5868 0.0000 -0.6642
# 5 14.1390 22.8298 39.0777 0.0000 67.1227 0.0000
# 6 0.0000 0.0000 0.0000 -0.6642 0.0000 31.2455
#
#
#
# Elastic Compliance Matrix: (Units=1/GPa)
#
#
# Indices 1 2 3 4 5 6 
#
# 1 0.009129 -0.001321 -0.004756 0.000000 0.001295 0.000000
# 2 -0.001321 0.007286 -0.000341 0.000000 -0.002001 0.000000
# 3 -0.004756 -0.000341 0.014694 0.000000 -0.007436 0.000000
# 4 0.000000 0.000000 0.000000 0.025925 0.000000 0.000551
# 5 0.001295 -0.002001 -0.007436 0.000000 0.019635 0.000000
# 6 0.000000 0.000000 0.000000 0.000551 0.000000 0.032016
#
#
# Mechanical properties :
#
#
# Convention : Reuss Voigt Hill
#
# Bulk Modulus (GPa) = 54.72792 68.47292 61.60042
# Shear Modulus (GPa) = 39.18111 46.43852 42.80982
#
# Velocity S-wave (km/s) = 3.91581 4.26307 4.09313
# Velocity P-wave (km/s) = 6.47013 7.14344 6.81510
#
# Compressibility (1/GPa) = 0.01827221
#
# Stress axis : x y z
#
# Youngs Moduli (GPa) = 109.53569 137.25882 68.05636
#
# Poissons Ratio (x) = 0.18130 0.32367
# Poissons Ratio (y) = 0.14468 0.02323
# Poissons Ratio (z) = 0.52095 0.04686
#
# Static dielectric constant tensor:
#      x y z
#    x 1.979180 0.000000 -0.022540 
#    y 0.000000 2.014850 0.000000 
#    z -0.022540 0.000000 2.010330 
# 
# From -- ./inp_files/10213.got.cif
#   From: 2010.05.17/outbox.cif.g08.bks.cpg/sg4_6_cif.got.tgz:10213.got - 2010.06.03 18:43:04.
