data_PCOD9118920
_publ_section_title
;
Structure prediction by ZEFSAII (Michael W. Deem and Ramdas Pophale) SiO2 
 PCOD9118920
Probable space group: P 21
;
_chemical_formula_sum "Si O2"
_cell_formula_units_Z 14
_cell_length_a 11.244844
_cell_length_b 9.318427
_cell_length_c 9.022796
_cell_angle_alpha 90.000000
_cell_angle_beta 38.850989
_cell_angle_gamma 90.000000
_cell_volume 593.076166
_symmetry_space_group_name_H-M "P 21"
_symmetry_group_IT_number 4
_symmetry_cell_setting 'monoclinic'
loop_
_space_group_symop_operation_xyz
x,y,z
-x,1/2+y,-z
loop_
_atom_site_type_symbol
_atom_site_label
_atom_site_fract_x
_atom_site_fract_y
_atom_site_fract_z
Si Si1 0.716510 0.459780 0.221664
Si Si2 0.683180 0.614117 0.750796
Si Si3 0.565293 0.872732 0.067016
Si Si4 0.209502 0.777294 0.582714
Si Si5 0.080838 0.459952 0.690754
Si Si6 0.625440 0.738100 0.490943
Si Si7 0.949633 0.949430 0.628278
O O1 0.835600 0.383269 0.238444
O O2 0.647689 0.614742 0.346157
O O3 0.544215 0.350882 0.362263
O O4 0.859999 0.472108 0.945808
O O5 0.641698 0.734268 0.908989
O O6 0.599821 0.657260 0.672369
O O7 0.903046 0.580370 0.511337
O O8 0.570015 0.470362 0.904017
O O9 0.757309 0.961388 0.909739
O O10 0.424600 0.818648 0.330227
O O11 0.072950 0.821010 0.579085
O O12 0.178825 0.610348 0.640197
O O13 0.104571 0.434916 0.491750
O O14 0.183967 0.331315 0.675861
#
# Coordination Sequence:
#
# PCOD9118920 Si02
#       7
#     2   2   2   2   2   2   2
#     4  12  28  51  75 105 155 204 253 311 372 455
#     4  11  25  45  71 114 149 189 248 306 380 440
#     4  11  23  44  78 103 155 189 243 309 373 442
#     4  11  26  49  73 115 148 203 251 304 387 447
#     4  12  27  46  80 112 151 196 256 312 378 454
#     4  12  27  51  71 111 149 201 254 307 380 450
#     4  11  24  44  76 110 145 190 249 309 378 434
#
# _framework density 23.605736
#
# number of rings (size 3 to 8) (size 9 to 14) (size 15 to 20)
#    0.000    0.571    4.286    3.429    4.000    6.857 
#    2.571    0.000    0.000    0.000    0.000    0.000 
#    0.000    0.000    0.000    0.000    0.000    0.000 
#
# Total GULP energy -78348.524119 kJ/mol
# GULP energy per Si atom -5596.323151 kJ/mol
# Density = 2.355201 g / cm^3
# Si number density = 23.605736 Si / 1000 Ang^3
#
#
#
# Elastic Constant Matrix: (Units=GPa)
#
#
# Indices 1 2 3 4 5 6 
#
# 1 71.3562 22.5313 23.7955 0.0000 -21.8384 0.0000
# 2 22.5313 110.5286 23.5620 0.0000 -16.3087 0.0000
# 3 23.7955 23.5620 125.2677 0.0000 -30.6445 0.0000
# 4 0.0000 0.0000 0.0000 29.2339 0.0000 -9.3943
# 5 -21.8384 -16.3087 -30.6445 0.0000 33.0443 0.0000
# 6 0.0000 0.0000 0.0000 -9.3943 0.0000 49.7467
#
#
#
# Elastic Compliance Matrix: (Units=1/GPa)
#
#
# Indices 1 2 3 4 5 6 
#
# 1 0.018016 -0.002026 -0.000483 0.000000 0.010459 0.000000
# 2 -0.002026 0.010056 -0.000802 0.000000 0.002880 0.000000
# 3 -0.000483 -0.000802 0.010413 0.000000 0.008942 0.000000
# 4 0.000000 0.000000 0.000000 0.036417 0.000000 0.006877
# 5 0.010459 0.002880 0.008942 0.000000 0.046889 0.000000
# 6 0.000000 0.000000 0.000000 0.006877 0.000000 0.021401
#
#
# Mechanical properties :
#
#
# Convention : Reuss Voigt Hill
#
# Bulk Modulus (GPa) = 31.38415 49.65891 40.52153
# Shear Modulus (GPa) = 31.16544 38.22256 34.69400
#
# Velocity S-wave (km/s) = 3.63746 4.02830 3.83786
# Velocity P-wave (km/s) = 5.56467 6.53596 6.06977
#
# Compressibility (1/GPa) = 0.03186322
#
# Stress axis : x y z
#
# Youngs Moduli (GPa) = 55.50670 99.43836 96.03460
#
# Poissons Ratio (x) = 0.20151 0.04634
# Poissons Ratio (y) = 0.11248 0.07702
# Poissons Ratio (z) = 0.02678 0.07975
#
# Static dielectric constant tensor:
#      x y z
#    x 1.923250 0.000000 -0.011800 
#    y 0.000000 1.913550 0.000000 
#    z -0.011800 0.000000 1.876640 
# 
# From -- ./inp_files/7477.got.cif
#   From: 2010.05.17/outbox.cif.g08.bks.cpg/sg4_4_cif.got.tgz:7477.got - 2010.06.03 18:43:04.
