data_PCOD9118506
_publ_section_title
;
Structure prediction by ZEFSAII (Michael W. Deem and Ramdas Pophale) SiO2 
 PCOD9118506
Probable space group: P 21
;
_chemical_formula_sum "Si O2"
_cell_formula_units_Z 14
_cell_length_a 5.355459
_cell_length_b 14.007361
_cell_length_c 8.000332
_cell_angle_alpha 90.000000
_cell_angle_beta 89.707611
_cell_angle_gamma 90.000000
_cell_volume 600.143871
_symmetry_space_group_name_H-M "P 21"
_symmetry_group_IT_number 4
_symmetry_cell_setting 'monoclinic'
loop_
_space_group_symop_operation_xyz
x,y,z
-x,1/2+y,-z
loop_
_atom_site_type_symbol
_atom_site_label
_atom_site_fract_x
_atom_site_fract_y
_atom_site_fract_z
Si Si1 0.819779 0.088160 0.577927
Si Si2 0.149893 0.456613 0.134554
Si Si3 0.632939 0.556864 0.023407
Si Si4 0.504713 0.754577 0.549060
Si Si5 0.128308 0.135780 0.289478
Si Si6 0.383221 0.732493 0.201289
Si Si7 0.824087 0.283326 0.139562
O O1 0.028436 0.071724 0.439054
O O2 0.602499 0.145369 0.480552
O O3 0.851770 0.171027 0.721379
O O4 0.779704 0.991954 0.678975
O O5 0.888890 0.508015 0.084082
O O6 0.392079 0.488558 0.032316
O O7 0.068508 0.347996 0.122481
O O8 0.567924 0.647795 0.141002
O O9 0.674073 0.591917 0.835341
O O10 0.777013 0.730754 0.614479
O O11 0.481675 0.792196 0.360237
O O12 0.344738 0.804396 0.695756
O O13 0.911506 0.174590 0.168265
O O14 0.316218 0.788837 0.035755
#
# Coordination Sequence:
#
# PCOD9118506 Si02
#       7
#     2   2   2   2   2   2   2
#     4   8  20  38  63  90 127 171 221 268 327 398
#     4  11  25  42  64 101 139 180 214 297 345 388
#     4  11  23  41  69  94 133 179 231 267 339 406
#     4   9  20  37  64  95 120 170 227 271 324 407
#     4  11  20  39  71  97 123 183 236 272 317 429
#     4   9  19  42  67  92 126 178 227 269 321 422
#     4  11  23  41  66  99 140 169 232 282 349 380
#
# _framework density 23.327739999999999
#
# number of rings (size 3 to 8) (size 9 to 14) (size 15 to 20)
#    0.857    1.143    1.429    2.571    4.000    0.000 
#    2.571    0.000    0.000    0.000    0.000    0.000 
#    0.000    0.000    0.000    0.000    0.000    0.000 
#
# Total GULP energy -77985.204422 kJ/mol
# GULP energy per Si atom -5570.371744 kJ/mol
# Density = 2.327464 g / cm^3
# Si number density = 23.327740 Si / 1000 Ang^3
#
#
#
# Elastic Constant Matrix: (Units=GPa)
#
#
# Indices 1 2 3 4 5 6 
#
# 1 77.6031 12.5726 36.0872 0.0000 -6.6847 0.0000
# 2 12.5726 28.6407 27.4998 0.0000 -3.0166 0.0000
# 3 36.0872 27.4998 174.9087 0.0000 -17.9503 0.0000
# 4 0.0000 0.0000 0.0000 17.3433 0.0000 5.2819
# 5 -6.6847 -3.0166 -17.9503 0.0000 42.7085 0.0000
# 6 0.0000 0.0000 0.0000 5.2819 0.0000 32.8845
#
#
#
# Elastic Compliance Matrix: (Units=1/GPa)
#
#
# Indices 1 2 3 4 5 6 
#
# 1 0.014708 -0.004164 -0.002272 0.000000 0.001053 0.000000
# 2 -0.004164 0.042304 -0.005803 0.000000 -0.000103 0.000000
# 3 -0.002272 -0.005803 0.007336 0.000000 0.002318 0.000000
# 4 0.000000 0.000000 0.000000 0.060625 0.000000 -0.009738
# 5 0.001053 -0.000103 0.002318 0.000000 0.024546 0.000000
# 6 0.000000 0.000000 0.000000 -0.009738 0.000000 0.031974
#
#
# Mechanical properties :
#
#
# Convention : Reuss Voigt Hill
#
# Bulk Modulus (GPa) = 25.08094 48.16350 36.62222
# Shear Modulus (GPa) = 22.80401 32.25347 27.52874
#
# Velocity S-wave (km/s) = 3.12997 3.72240 3.43896
# Velocity P-wave (km/s) = 4.88233 6.25830 5.61264
#
# Compressibility (1/GPa) = 0.03987091
#
# Stress axis : x y z
#
# Youngs Moduli (GPa) = 67.99084 23.63849 136.31130
#
# Poissons Ratio (x) = 0.09844 0.30966
# Poissons Ratio (y) = 0.28313 0.79095
# Poissons Ratio (z) = 0.15446 0.13716
#
# Static dielectric constant tensor:
#      x y z
#    x 1.933290 0.000000 0.038130 
#    y 0.000000 1.901960 0.000000 
#    z 0.038130 0.000000 1.941110 
# 
# From -- ./inp_files/4687.got.cif
#   From: 2010.05.17/outbox.cif.g08.bks.cpg/sg4_3_cif.got.tgz:4687.got - 2010.06.03 18:43:04.
