data_PCOD9118156
_publ_section_title
;
Structure prediction by ZEFSAII (Michael W. Deem and Ramdas Pophale) SiO2 
 PCOD9118156
Probable space group: P 21
;
_chemical_formula_sum "Si O2"
_cell_formula_units_Z 16
_cell_length_a 9.514009
_cell_length_b 14.131312
_cell_length_c 5.007764
_cell_angle_alpha 90.000000
_cell_angle_beta 64.660358
_cell_angle_gamma 90.000000
_cell_volume 608.493326
_symmetry_space_group_name_H-M "P 21"
_symmetry_group_IT_number 4
_symmetry_cell_setting 'monoclinic'
loop_
_space_group_symop_operation_xyz
x,y,z
-x,1/2+y,-z
loop_
_atom_site_type_symbol
_atom_site_label
_atom_site_fract_x
_atom_site_fract_y
_atom_site_fract_z
Si Si1 0.185238 0.689300 0.183608
Si Si2 0.906112 0.699649 0.036560
Si Si3 0.329811 0.877551 0.887734
Si Si4 0.658149 0.586920 0.001425
Si Si5 0.043487 0.889551 0.806563
Si Si6 0.341057 0.596883 0.553004
Si Si7 0.359604 0.260502 0.383160
Si Si8 0.846756 0.925037 0.496669
O O1 0.227066 0.799729 0.124773
O O2 0.291943 0.629503 0.886274
O O3 0.237811 0.656400 0.428994
O O4 0.012873 0.675517 0.205193
O O5 0.836278 0.608822 0.945396
O O6 0.745769 0.745093 0.271503
O O7 0.003447 0.777945 0.795518
O O8 0.481640 0.816323 0.692709
O O9 0.358196 0.974159 0.026062
O O10 0.225319 0.904144 0.714807
O O11 0.521372 0.606278 0.330838
O O12 0.627721 0.663382 0.792908
O O13 0.958669 0.907571 0.156601
O O14 0.959390 0.951378 0.649798
O O15 0.282739 0.493403 0.521137
O O16 0.251308 0.335816 0.316052
#
# Coordination Sequence:
#
# PCOD9118156 Si02
#       8
#     2   2   2   2   2   2   2   2
#     4  11  27  49  74 106 149 195 252 317 367 452
#     4  10  25  44  72 102 146 199 247 313 381 444
#     4  11  25  47  71 113 146 200 255 314 379 459
#     4  12  25  45  71 109 148 203 249 310 388 454
#     4  10  24  46  73 105 149 192 249 309 374 440
#     4  12  26  46  75 107 148 196 246 307 383 445
#     4  11  23  49  68 105 156 193 251 310 381 456
#     4  11  23  46  72 107 144 200 241 304 375 448
#
# _framework density 26.294459
#
# number of rings (size 3 to 8) (size 9 to 14) (size 15 to 20)
#    0.000    1.000    3.750    1.500    5.250    3.000 
#    4.500    0.000    0.000    0.000    0.000    0.000 
#    0.000    0.000    0.000    0.000    0.000    0.000 
#
# Total GULP energy -89557.417466 kJ/mol
# GULP energy per Si atom -5597.338592 kJ/mol
# Density = 2.623461 g / cm^3
# Si number density = 26.294459 Si / 1000 Ang^3
#
#
#
# Elastic Constant Matrix: (Units=GPa)
#
#
# Indices 1 2 3 4 5 6 
#
# 1 150.8209 26.2697 28.8634 0.0000 -16.6454 0.0000
# 2 26.2697 135.3274 31.2048 0.0000 -15.7656 0.0000
# 3 28.8634 31.2048 84.6755 0.0000 -27.4569 0.0000
# 4 0.0000 0.0000 0.0000 27.1017 0.0000 -7.3150
# 5 -16.6454 -15.7656 -27.4569 0.0000 15.0808 0.0000
# 6 0.0000 0.0000 0.0000 -7.3150 0.0000 53.6296
#
#
#
# Elastic Compliance Matrix: (Units=1/GPa)
#
#
# Indices 1 2 3 4 5 6 
#
# 1 0.007592 -0.000574 0.000357 0.000000 0.008430 0.000000
# 2 -0.000574 0.008470 -0.000635 0.000000 0.007066 0.000000
# 3 0.000357 -0.000635 0.028891 0.000000 0.052330 0.000000
# 4 0.000000 0.000000 0.000000 0.038308 0.000000 0.005225
# 5 0.008430 0.007066 0.052330 0.000000 0.178276 0.000000
# 6 0.000000 0.000000 0.000000 0.005225 0.000000 0.019359
#
#
# Mechanical properties :
#
#
# Convention : Reuss Voigt Hill
#
# Bulk Modulus (GPa) = 23.12129 60.38883 41.75506
# Shear Modulus (GPa) = 16.83404 38.12815 27.48110
#
# Velocity S-wave (km/s) = 2.53299 3.81208 3.23635
# Velocity P-wave (km/s) = 4.16737 6.51092 5.46622
#
# Compressibility (1/GPa) = 0.04325018
#
# Stress axis : x y z
#
# Youngs Moduli (GPa) = 131.71027 118.05751 34.61324
#
# Poissons Ratio (x) = 0.06777 -0.01236
# Poissons Ratio (y) = 0.07561 0.02197
# Poissons Ratio (z) = -0.04703 0.07493
#
# Static dielectric constant tensor:
#      x y z
#    x 2.080510 0.000000 0.003300 
#    y 0.000000 2.187750 0.000000 
#    z 0.003300 0.000000 2.064910 
# 
# From -- ./inp_files/1922.got.cif
#   From: 2010.05.17/outbox.cif.g08.bks.cpg/sg4_1_cif.got.tgz:1922.got - 2010.06.03 18:43:04.
