data_PCOD9118020
_publ_section_title
;
Structure prediction by ZEFSAII (Michael W. Deem and Ramdas Pophale) SiO2 
 PCOD9118020
Probable space group: P 21
;
_chemical_formula_sum "Si O2"
_cell_formula_units_Z 16
_cell_length_a 19.575241
_cell_length_b 7.934540
_cell_length_c 5.372543
_cell_angle_alpha 90.000000
_cell_angle_beta 125.367816
_cell_angle_gamma 90.000000
_cell_volume 680.468049
_symmetry_space_group_name_H-M "P 21"
_symmetry_group_IT_number 4
_symmetry_cell_setting 'monoclinic'
loop_
_space_group_symop_operation_xyz
x,y,z
-x,1/2+y,-z
loop_
_atom_site_type_symbol
_atom_site_label
_atom_site_fract_x
_atom_site_fract_y
_atom_site_fract_z
Si Si1 0.186271 0.489580 0.353151
Si Si2 0.555596 0.871672 0.433563
Si Si3 0.614290 0.550943 0.836216
Si Si4 0.109122 0.701166 0.823565
Si Si5 0.984487 0.988017 0.712312
Si Si6 0.202114 0.954081 0.719859
Si Si7 0.642350 0.906648 0.106464
Si Si8 0.149619 0.140733 0.105276
O O1 0.095990 0.468674 0.287992
O O2 0.265021 0.481524 0.698716
O O3 0.194606 0.319360 0.210629
O O4 0.181454 0.649398 0.165018
O O5 0.579985 0.673616 0.538162
O O6 0.596855 0.941241 0.269919
O O7 0.458666 0.925051 0.233124
O O8 0.594497 0.962198 0.758464
O O9 0.700403 0.447720 0.999000
O O10 0.639548 0.702324 0.078440
O O11 0.055753 0.538878 0.635725
O O12 0.150500 0.783487 0.665625
O O13 0.044271 0.829172 0.809325
O O14 0.049006 0.134947 0.927243
O O15 0.185472 0.029526 0.411280
O O16 0.164556 0.072698 0.859003
#
# Coordination Sequence:
#
# PCOD9118020 Si02
#       8
#     2   2   2   2   2   2   2   2
#     4  12  25  44  72 100 139 195 236 300 358 431
#     4  10  24  43  72 103 133 185 221 296 353 433
#     4  10  24  46  73 100 140 179 231 286 364 430
#     4  11  28  43  70 103 142 191 249 300 360 426
#     4  11  27  43  66 100 141 189 241 300 355 425
#     4  11  26  47  70 105 136 194 233 303 355 436
#     4  10  25  42  69 102 140 177 233 284 355 428
#     4  11  25  44  72  97 145 186 242 293 362 419
#
# _framework density 23.513226
#
# number of rings (size 3 to 8) (size 9 to 14) (size 15 to 20)
#    0.750    0.500    1.250    2.250   17.500    1.000 
#    0.000    0.000    0.000    0.000    0.000    0.000 
#    0.000    0.000    0.000    0.000    0.000    0.000 
#
# Total GULP energy -89333.893675 kJ/mol
# GULP energy per Si atom -5583.368355 kJ/mol
# Density = 2.345971 g / cm^3
# Si number density = 23.513226 Si / 1000 Ang^3
#
#
#
# Elastic Constant Matrix: (Units=GPa)
#
#
# Indices 1 2 3 4 5 6 
#
# 1 69.0771 6.8330 25.6201 0.0000 13.5859 0.0000
# 2 6.8330 53.5722 19.6149 0.0000 -3.5800 0.0000
# 3 25.6201 19.6149 83.8008 0.0000 6.2010 0.0000
# 4 0.0000 0.0000 0.0000 34.6352 0.0000 8.9221
# 5 13.5859 -3.5800 6.2010 0.0000 48.9370 0.0000
# 6 0.0000 0.0000 0.0000 8.9221 0.0000 21.7662
#
#
#
# Elastic Compliance Matrix: (Units=1/GPa)
#
#
# Indices 1 2 3 4 5 6 
#
# 1 0.017141 -0.000725 -0.004759 0.000000 -0.004209 0.000000
# 2 -0.000725 0.020667 -0.004787 0.000000 0.002320 0.000000
# 3 -0.004759 -0.004787 0.014573 0.000000 -0.000876 0.000000
# 4 0.000000 0.000000 0.000000 0.032281 0.000000 -0.013232
# 5 -0.004209 0.002320 -0.000876 0.000000 0.021884 0.000000
# 6 0.000000 0.000000 0.000000 -0.013232 0.000000 0.051367
#
#
# Mechanical properties :
#
#
# Convention : Reuss Voigt Hill
#
# Bulk Modulus (GPa) = 31.40905 34.50958 32.95932
# Shear Modulus (GPa) = 26.44538 31.35982 28.90260
#
# Velocity S-wave (km/s) = 3.35730 3.65596 3.50981
# Velocity P-wave (km/s) = 5.33063 5.70350 5.52022
#
# Compressibility (1/GPa) = 0.03183796
#
# Stress axis : x y z
#
# Youngs Moduli (GPa) = 58.33872 48.38690 68.61770
#
# Poissons Ratio (x) = 0.03508 0.32658
# Poissons Ratio (y) = 0.04229 0.32850
# Poissons Ratio (z) = 0.27766 0.23165
#
# Static dielectric constant tensor:
#      x y z
#    x 1.873930 0.000000 -0.016010 
#    y 0.000000 2.006000 0.000000 
#    z -0.016010 0.000000 1.908010 
# 
# From -- ./inp_files/4121.got.cif
#   From: 2010.05.17/outbox.cif.g08.bks.cpg/sg4_3_cif.got.tgz:4121.got - 2010.06.03 18:43:04.
