data_PCOD9118372
_publ_section_title
;
Structure prediction by ZEFSAII (Michael W. Deem and Ramdas Pophale) SiO2 
 PCOD9118372
Probable space group: P 21
;
_chemical_formula_sum "Si O2"
_cell_formula_units_Z 12
_cell_length_a 17.293868
_cell_length_b 4.923741
_cell_length_c 6.024176
_cell_angle_alpha 90.000000
_cell_angle_beta 110.181493
_cell_angle_gamma 90.000000
_cell_volume 481.468221
_symmetry_space_group_name_H-M "P 21"
_symmetry_group_IT_number 4
_symmetry_cell_setting 'monoclinic'
loop_
_space_group_symop_operation_xyz
x,y,z
-x,1/2+y,-z
loop_
_atom_site_type_symbol
_atom_site_label
_atom_site_fract_x
_atom_site_fract_y
_atom_site_fract_z
Si Si1 0.671589 0.693910 0.021656
Si Si2 0.903005 0.537566 0.554142
Si Si3 0.677330 0.203343 0.319636
Si Si4 0.788073 0.864478 0.765224
Si Si5 0.497720 0.593323 0.644696
Si Si6 0.906067 0.035379 0.247221
O O1 0.585316 0.199829 0.325946
O O2 0.676547 0.001108 0.109821
O O3 0.725715 0.688379 0.854452
O O4 0.577643 0.617433 0.876424
O O5 0.701081 0.495692 0.246958
O O6 0.845713 0.659259 0.686309
O O7 0.894185 0.736911 0.335291
O O8 0.998398 0.563535 0.723665
O O9 0.735724 0.063475 0.557203
O O10 0.889284 0.241773 0.434039
O O11 0.845373 0.049136 0.980892
O O12 0.513548 0.786519 0.448373
#
# Coordination Sequence:
#
# PCOD9118372 Si02
#       6
#     2   2   2   2   2   2
#     4  12  28  49  76 112 155 202 251 316 376 450
#     4  10  25  50  78 110 151 200 256 315 382 457
#     4  12  28  49  76 112 155 202 251 316 376 450
#     4  12  28  50  78 116 154 202 256 316 388 446
#     4  12  24  50  80 108 148 208 254 302 382 450
#     4  10  25  50  78 110 151 200 256 315 382 457
#
# _framework density 24.923763000000001
#
# number of rings (size 3 to 8) (size 9 to 14) (size 15 to 20)
#    0.000    0.667    1.667    4.000    0.000   13.333 
#    0.000    3.333    0.000    0.000    0.000    0.000 
#    0.000    0.000    0.000    0.000    0.000    0.000 
#
# Total GULP energy -67381.750094 kJ/mol
# GULP energy per Si atom -5615.145841 kJ/mol
# Density = 2.486704 g / cm^3
# Si number density = 24.923763 Si / 1000 Ang^3
#
#
#
# Elastic Constant Matrix: (Units=GPa)
#
#
# Indices 1 2 3 4 5 6 
#
# 1 182.2372 31.0801 65.1826 0.0000 -6.4331 0.0000
# 2 31.0801 80.6052 6.3206 0.0000 8.8612 0.0000
# 3 65.1826 6.3206 109.9152 0.0000 31.0859 0.0000
# 4 0.0000 0.0000 0.0000 45.4513 0.0000 -1.9051
# 5 -6.4331 8.8612 31.0859 0.0000 41.5591 0.0000
# 6 0.0000 0.0000 0.0000 -1.9051 0.0000 38.4422
#
#
#
# Elastic Compliance Matrix: (Units=1/GPa)
#
#
# Indices 1 2 3 4 5 6 
#
# 1 0.008999 -0.003738 -0.007281 0.000000 0.007636 0.000000
# 2 -0.003738 0.014257 0.003070 0.000000 -0.005915 0.000000
# 3 -0.007281 0.003070 0.017431 0.000000 -0.014820 0.000000
# 4 0.000000 0.000000 0.000000 0.022047 0.000000 0.001093
# 5 0.007636 -0.005915 -0.014820 0.000000 0.037590 0.000000
# 6 0.000000 0.000000 0.000000 0.001093 0.000000 0.026067
#
#
# Mechanical properties :
#
#
# Convention : Reuss Voigt Hill
#
# Bulk Modulus (GPa) = 40.34353 64.21382 52.27868
# Shear Modulus (GPa) = 33.21081 43.10214 38.15647
#
# Velocity S-wave (km/s) = 3.65430 4.16307 3.91695
# Velocity P-wave (km/s) = 5.83327 6.99487 6.44031
#
# Compressibility (1/GPa) = 0.02478712
#
# Stress axis : x y z
#
# Youngs Moduli (GPa) = 111.12510 70.14045 57.37026
#
# Poissons Ratio (x) = 0.26221 0.41773
# Poissons Ratio (y) = 0.41543 -0.17612
# Poissons Ratio (z) = 0.80914 -0.21533
#
# Static dielectric constant tensor:
#      x y z
#    x 1.992760 0.000000 0.003030 
#    y 0.000000 1.902480 0.000000 
#    z 0.003030 0.000000 1.960410 
# 
# From -- ./inp_files/3349.got.cif
#   From: 2010.05.17/outbox.cif.g08.bks.cpg/sg4_2_cif.got.tgz:3349.got - 2010.06.03 18:43:04.
