data_PCOD9118123
_publ_section_title
;
Structure prediction by ZEFSAII (Michael W. Deem and Ramdas Pophale) SiO2 
 PCOD9118123
Probable space group: P 21
;
_chemical_formula_sum "Si O2"
_cell_formula_units_Z 12
_cell_length_a 10.082492
_cell_length_b 8.032186
_cell_length_c 8.768901
_cell_angle_alpha 90.000000
_cell_angle_beta 44.813610
_cell_angle_gamma 90.000000
_cell_volume 500.511885
_symmetry_space_group_name_H-M "P 21"
_symmetry_group_IT_number 4
_symmetry_cell_setting 'monoclinic'
loop_
_space_group_symop_operation_xyz
x,y,z
-x,1/2+y,-z
loop_
_atom_site_type_symbol
_atom_site_label
_atom_site_fract_x
_atom_site_fract_y
_atom_site_fract_z
Si Si1 0.055726 0.460470 0.851842
Si Si2 0.012920 0.618387 0.202317
Si Si3 0.348472 0.505740 0.127304
Si Si4 0.476201 0.371419 0.484508
Si Si5 0.321778 0.676005 0.453719
Si Si6 0.639513 0.666593 0.691525
O O1 0.938752 0.312764 0.871207
O O2 0.260058 0.375069 0.720074
O O3 0.123899 0.605440 0.680589
O O4 0.972351 0.535382 0.072274
O O5 0.839540 0.619145 0.459496
O O6 0.183098 0.523452 0.141371
O O7 0.459954 0.033944 0.120454
O O8 0.336613 0.334841 0.228916
O O9 0.324629 0.653131 0.271961
O O10 0.479590 0.543665 0.388157
O O11 0.617803 0.340561 0.506421
O O12 0.489105 0.225400 0.347443
#
# Coordination Sequence:
#
# PCOD9118123 Si02
#       6
#     2   2   2   2   2   2
#     4   9  22  44  67  98 133 181 231 269 336 402
#     4  11  23  50  66 100 141 173 229 280 333 402
#     4  11  24  44  69 101 140 173 224 279 340 401
#     4   8  18  39  65  96 130 168 226 271 323 401
#     4   9  19  41  67  98 134 171 227 275 333 395
#     4  10  24  46  66 101 134 180 223 272 343 401
#
# _framework density 23.975453999999999
#
# number of rings (size 3 to 8) (size 9 to 14) (size 15 to 20)
#    1.000    1.333    1.667    1.000    2.333    1.333 
#   24.000    0.000    0.000    0.000    0.000    0.000 
#    0.000    0.000    0.000    0.000    0.000    0.000 
#
# Total GULP energy -67073.771711 kJ/mol
# GULP energy per Si atom -5589.480976 kJ/mol
# Density = 2.392088 g / cm^3
# Si number density = 23.975454 Si / 1000 Ang^3
#
#
#
# Elastic Constant Matrix: (Units=GPa)
#
#
# Indices 1 2 3 4 5 6 
#
# 1 22.9292 8.9945 11.1687 0.0000 8.4325 0.0000
# 2 8.9945 58.3094 24.5850 0.0000 -6.3797 0.0000
# 3 11.1687 24.5850 169.1935 0.0000 -4.0492 0.0000
# 4 0.0000 0.0000 0.0000 51.4426 0.0000 13.6776
# 5 8.4325 -6.3797 -4.0492 0.0000 28.7729 0.0000
# 6 0.0000 0.0000 0.0000 13.6776 0.0000 26.0293
#
#
#
# Elastic Compliance Matrix: (Units=1/GPa)
#
#
# Indices 1 2 3 4 5 6 
#
# 1 0.055565 -0.009469 -0.002741 0.000000 -0.018770 0.000000
# 2 -0.009469 0.020282 -0.002155 0.000000 0.006969 0.000000
# 3 -0.002741 -0.002155 0.006434 0.000000 0.001231 0.000000
# 4 0.000000 0.000000 0.000000 0.022596 0.000000 -0.011874
# 5 -0.018770 0.006969 0.001231 0.000000 0.041974 0.000000
# 6 0.000000 0.000000 0.000000 -0.011874 0.000000 0.044658
#
#
# Mechanical properties :
#
#
# Convention : Reuss Voigt Hill
#
# Bulk Modulus (GPa) = 18.67422 37.76984 28.22203
# Shear Modulus (GPa) = 21.00053 34.96122 27.98087
#
# Velocity S-wave (km/s) = 2.96280 3.82279 3.41994
# Velocity P-wave (km/s) = 4.41702 5.93909 5.23368
#
# Compressibility (1/GPa) = 0.05354977
#
# Stress axis : x y z
#
# Youngs Moduli (GPa) = 17.99694 49.30551 155.42488
#
# Poissons Ratio (x) = 0.46687 0.42606
# Poissons Ratio (y) = 0.17041 0.33498
# Poissons Ratio (z) = 0.04933 0.10626
#
# Static dielectric constant tensor:
#      x y z
#    x 1.876720 0.000000 -0.006820 
#    y 0.000000 2.029010 0.000000 
#    z -0.006820 0.000000 1.884390 
# 
# From -- ./inp_files/7613.got.cif
#   From: 2010.05.17/outbox.cif.g08.bks.cpg/sg4_4_cif.got.tgz:7613.got - 2010.06.03 18:43:04.
