data_PCOD9118356
_publ_section_title
;
Structure prediction by ZEFSAII (Michael W. Deem and Ramdas Pophale) SiO2 
 PCOD9118356
Probable space group: P 21
;
_chemical_formula_sum "Si O2"
_cell_formula_units_Z 16
_cell_length_a 8.479600
_cell_length_b 9.956172
_cell_length_c 10.998499
_cell_angle_alpha 90.000000
_cell_angle_beta 43.717387
_cell_angle_gamma 90.000000
_cell_volume 641.716465
_symmetry_space_group_name_H-M "P 21"
_symmetry_group_IT_number 4
_symmetry_cell_setting 'monoclinic'
loop_
_space_group_symop_operation_xyz
x,y,z
-x,1/2+y,-z
loop_
_atom_site_type_symbol
_atom_site_label
_atom_site_fract_x
_atom_site_fract_y
_atom_site_fract_z
Si Si1 0.822998 0.114660 0.410802
Si Si2 0.783680 0.494436 0.655159
Si Si3 0.229829 0.824748 0.977799
Si Si4 0.546226 0.807237 0.015236
Si Si5 0.031447 0.916454 0.695611
Si Si6 0.798279 0.702993 0.304243
Si Si7 0.581716 0.139808 0.314721
Si Si8 0.600580 0.603866 0.182586
O O1 0.715432 0.057332 0.345052
O O2 0.640715 0.079846 0.617203
O O3 0.068807 0.075527 0.327771
O O4 0.837787 0.274143 0.372153
O O5 0.652246 0.377412 0.797219
O O6 0.581557 0.562980 0.688803
O O7 0.960513 0.448611 0.452538
O O8 0.235039 0.720884 0.864699
O O9 0.245834 0.972764 0.916008
O O10 0.459599 0.800489 0.926477
O O11 0.022235 0.791973 0.182710
O O12 0.576483 0.665101 0.063038
O O13 0.779744 0.890302 0.886809
O O14 0.138857 0.046484 0.701589
O O15 0.599478 0.733093 0.510675
O O16 0.710890 0.709161 0.214951
#
# Coordination Sequence:
#
# PCOD9118356 Si02
#       8
#     2   2   2   2   2   2   2   2
#     4  11  24  48  79 109 147 210 251 320 389 451
#     4  11  25  48  74 107 151 197 247 325 380 453
#     4  12  27  46  76 106 153 198 249 319 383 465
#     4  12  28  45  71 109 150 198 251 310 388 459
#     4  11  24  46  77 103 156 192 253 318 385 454
#     4  10  26  48  75 109 148 198 251 321 384 452
#     4  10  25  48  73 111 147 192 263 309 383 458
#     4  11  27  49  71 114 150 195 265 310 382 472
#
# _framework density 24.933130999999999
#
# number of rings (size 3 to 8) (size 9 to 14) (size 15 to 20)
#    0.000    1.000    1.250    3.000   12.250    2.000 
#    2.250    0.000    0.000    0.000    0.000    0.000 
#    0.000    0.000    0.000    0.000    0.000    0.000 
#
# Total GULP energy -89561.212720 kJ/mol
# GULP energy per Si atom -5597.575795 kJ/mol
# Density = 2.487638 g / cm^3
# Si number density = 24.933131 Si / 1000 Ang^3
#
#
#
# Elastic Constant Matrix: (Units=GPa)
#
#
# Indices 1 2 3 4 5 6 
#
# 1 117.8414 19.6956 26.4136 0.0000 -0.6846 0.0000
# 2 19.6956 48.6509 18.0271 0.0000 -4.0858 0.0000
# 3 26.4136 18.0271 105.9333 0.0000 1.7999 0.0000
# 4 0.0000 0.0000 0.0000 27.5968 0.0000 2.0590
# 5 -0.6846 -4.0858 1.7999 0.0000 38.7479 0.0000
# 6 0.0000 0.0000 0.0000 2.0590 0.0000 27.9315
#
#
#
# Elastic Compliance Matrix: (Units=1/GPa)
#
#
# Indices 1 2 3 4 5 6 
#
# 1 0.009418 -0.003148 -0.001811 0.000000 -0.000081 0.000000
# 2 -0.003148 0.023233 -0.003212 0.000000 0.002543 0.000000
# 3 -0.001811 -0.003212 0.010453 0.000000 -0.000856 0.000000
# 4 0.000000 0.000000 0.000000 0.036436 0.000000 -0.002686
# 5 -0.000081 0.002543 -0.000856 0.000000 0.026114 0.000000
# 6 0.000000 0.000000 0.000000 -0.002686 0.000000 0.036000
#
#
# Mechanical properties :
#
#
# Convention : Reuss Voigt Hill
#
# Bulk Modulus (GPa) = 37.36834 44.52201 40.94517
# Shear Modulus (GPa) = 29.95509 32.74120 31.34814
#
# Velocity S-wave (km/s) = 3.46991 3.62769 3.54967
# Velocity P-wave (km/s) = 5.57437 5.95333 5.76697
#
# Compressibility (1/GPa) = 0.02676062
#
# Stress axis : x y z
#
# Youngs Moduli (GPa) = 106.18350 43.04249 95.67005
#
# Poissons Ratio (x) = 0.13551 0.17326
# Poissons Ratio (y) = 0.33430 0.30727
# Poissons Ratio (z) = 0.19231 0.13824
#
# Static dielectric constant tensor:
#      x y z
#    x 2.001600 0.000000 -0.016350 
#    y 0.000000 1.993820 0.000000 
#    z -0.016350 0.000000 1.907060 
# 
# From -- ./inp_files/11011.got.cif
#   From: 2010.05.17/outbox.cif.g08.bks.cpg/sg4_6_cif.got.tgz:11011.got - 2010.06.03 18:43:04.
