data_PCOD9118270
_publ_section_title
;
Structure prediction by ZEFSAII (Michael W. Deem and Ramdas Pophale) SiO2 
 PCOD9118270
Probable space group: P 21
;
_chemical_formula_sum "Si O2"
_cell_formula_units_Z 14
_cell_length_a 5.784564
_cell_length_b 8.954356
_cell_length_c 11.305909
_cell_angle_alpha 90.000000
_cell_angle_beta 103.737179
_cell_angle_gamma 90.000000
_cell_volume 568.861367
_symmetry_space_group_name_H-M "P 21"
_symmetry_group_IT_number 4
_symmetry_cell_setting 'monoclinic'
loop_
_space_group_symop_operation_xyz
x,y,z
-x,1/2+y,-z
loop_
_atom_site_type_symbol
_atom_site_label
_atom_site_fract_x
_atom_site_fract_y
_atom_site_fract_z
Si Si1 0.576300 0.797680 0.714600
Si Si2 0.222786 0.882262 0.364953
Si Si3 0.388280 0.171938 0.513163
Si Si4 0.229121 0.559332 0.761568
Si Si5 0.277554 0.080642 0.744557
Si Si6 0.967387 0.347881 0.130236
Si Si7 0.589997 0.336476 0.877317
O O1 0.705429 0.780212 0.603667
O O2 0.417080 0.650420 0.705708
O O3 0.752979 0.820277 0.846492
O O4 0.412832 0.939925 0.706259
O O5 0.341074 0.728593 0.428524
O O6 0.293375 0.870616 0.235852
O O7 0.359961 0.008333 0.455705
O O8 0.956950 0.952108 0.327500
O O9 0.241299 0.175577 0.618974
O O10 0.102354 0.694982 0.811730
O O11 0.382776 0.458113 0.868542
O O12 0.451174 0.179553 0.847487
O O13 0.074822 0.000405 0.798519
O O14 0.795898 0.351153 0.997804
#
# Coordination Sequence:
#
# PCOD9118270 Si02
#       7
#     2   2   2   2   2   2   2
#     4  11  23  45  69 101 142 185 235 298 365 423
#     4  11  24  45  71 103 142 190 233 301 357 424
#     4  11  21  47  66 100 147 185 240 293 358 435
#     4  11  23  44  69 106 136 185 241 289 373 417
#     4  10  25  43  65 105 136 187 243 287 356 433
#     4  11  24  44  72 100 143 191 233 299 357 424
#     4  11  24  44  68 105 144 183 243 293 356 434
#
# _framework density 24.610568000000001
#
# number of rings (size 3 to 8) (size 9 to 14) (size 15 to 20)
#    0.000    1.143    4.286    0.857    0.000    6.857 
#   12.857    0.000    0.000    0.000    0.000    0.000 
#    0.000    0.000    0.000    0.000    0.000    0.000 
#
# Total GULP energy -78106.541872 kJ/mol
# GULP energy per Si atom -5579.038705 kJ/mol
# Density = 2.455455 g / cm^3
# Si number density = 24.610568 Si / 1000 Ang^3
#
#
#
# Elastic Constant Matrix: (Units=GPa)
#
#
# Indices 1 2 3 4 5 6 
#
# 1 65.7107 48.5698 41.4736 0.0000 30.4111 0.0000
# 2 48.5698 113.1666 36.1348 0.0000 7.8236 0.0000
# 3 41.4736 36.1348 101.9240 0.0000 33.3587 0.0000
# 4 0.0000 0.0000 0.0000 34.0202 0.0000 6.9496
# 5 30.4111 7.8236 33.3587 0.0000 29.7896 0.0000
# 6 0.0000 0.0000 0.0000 6.9496 0.0000 20.0114
#
#
#
# Elastic Compliance Matrix: (Units=1/GPa)
#
#
# Indices 1 2 3 4 5 6 
#
# 1 0.050691 -0.019072 0.002261 0.000000 -0.049272 0.000000
# 2 -0.019072 0.017225 -0.005111 0.000000 0.020669 0.000000
# 3 0.002261 -0.005111 0.017395 0.000000 -0.020444 0.000000
# 4 0.000000 0.000000 0.000000 0.031639 0.000000 -0.010988
# 5 -0.049272 0.020669 -0.020444 0.000000 0.101334 0.000000
# 6 0.000000 0.000000 0.000000 -0.010988 0.000000 0.053787
#
#
# Mechanical properties :
#
#
# Convention : Reuss Voigt Hill
#
# Bulk Modulus (GPa) = 24.11565 59.23975 41.67770
# Shear Modulus (GPa) = 15.16363 27.07245 21.11804
#
# Velocity S-wave (km/s) = 2.48492 3.32027 2.93249
# Velocity P-wave (km/s) = 4.24891 6.23074 5.33270
#
# Compressibility (1/GPa) = 0.04146685
#
# Stress axis : x y z
#
# Youngs Moduli (GPa) = 19.72738 58.05538 57.48941
#
# Poissons Ratio (x) = 1.10721 -0.12998
# Poissons Ratio (y) = 0.37623 0.29384
# Poissons Ratio (z) = -0.04460 0.29673
#
# Static dielectric constant tensor:
#      x y z
#    x 2.044090 0.000000 -0.017200 
#    y 0.000000 1.995760 0.000000 
#    z -0.017200 0.000000 1.996090 
# 
# From -- ./inp_files/10277.got.cif
#   From: 2010.05.17/outbox.cif.g08.bks.cpg/sg4_6_cif.got.tgz:10277.got - 2010.06.03 18:43:04.
