data_PCOD9118023
_publ_section_title
;
Structure prediction by ZEFSAII (Michael W. Deem and Ramdas Pophale) SiO2 
 PCOD9118023
Probable space group: P 21
;
_chemical_formula_sum "Si O2"
_cell_formula_units_Z 14
_cell_length_a 4.779536
_cell_length_b 10.579239
_cell_length_c 10.090145
_cell_angle_alpha 90.000000
_cell_angle_beta 83.785107
_cell_angle_gamma 90.000000
_cell_volume 507.198117
_symmetry_space_group_name_H-M "P 21"
_symmetry_group_IT_number 4
_symmetry_cell_setting 'monoclinic'
loop_
_space_group_symop_operation_xyz
x,y,z
-x,1/2+y,-z
loop_
_atom_site_type_symbol
_atom_site_label
_atom_site_fract_x
_atom_site_fract_y
_atom_site_fract_z
Si Si1 0.781794 0.993830 0.041257
Si Si2 0.832000 0.649019 0.250636
Si Si3 0.013464 0.751272 0.676321
Si Si4 0.651341 0.969761 0.761173
Si Si5 0.102866 0.769040 0.985448
Si Si6 0.415533 0.836944 0.425861
Si Si7 0.898539 0.973075 0.333640
O O1 0.710749 0.140366 0.009965
O O2 0.740173 0.978322 0.198951
O O3 0.089374 0.919335 0.021203
O O4 0.656821 0.928318 0.917077
O O5 0.651692 0.522047 0.251764
O O6 0.645087 0.740059 0.352485
O O7 0.133933 0.588500 0.272900
O O8 0.868160 0.718397 0.105680
O O9 0.083397 0.761166 0.828009
O O10 0.254125 0.788071 0.561662
O O11 0.950073 0.605990 0.652100
O O12 0.762497 0.849735 0.677361
O O13 0.626119 0.954643 0.439959
O O14 0.154182 0.873601 0.340952
#
# Coordination Sequence:
#
# PCOD9118023 Si02
#       7
#     2   2   2   2   2   2   2
#     4   9  19  41  68 101 136 178 231 289 352 415
#     4  11  23  44  72 104 137 183 236 286 357 425
#     4  10  26  47  71 104 146 186 236 300 354 424
#     4  10  24  43  73 104 138 181 233 294 353 421
#     4   9  19  43  68 105 136 184 230 297 354 423
#     4  12  27  43  73  99 142 187 238 290 352 427
#     4  11  26  47  71 103 141 189 238 290 362 421
#
# _framework density 27.602627999999999
#
# number of rings (size 3 to 8) (size 9 to 14) (size 15 to 20)
#    0.000    1.714    1.429    0.857    6.000    5.714 
#    0.000    2.857    0.000    0.000    0.000    0.000 
#    0.000    0.000    0.000    0.000    0.000    0.000 
#
# Total GULP energy -78003.119461 kJ/mol
# GULP energy per Si atom -5571.651390 kJ/mol
# Density = 2.753980 g / cm^3
# Si number density = 27.602628 Si / 1000 Ang^3
#
#
#
# Elastic Constant Matrix: (Units=GPa)
#
#
# Indices 1 2 3 4 5 6 
#
# 1 96.6626 10.6752 20.9312 0.0000 -12.8669 0.0000
# 2 10.6752 84.1525 -7.5395 0.0000 -9.8386 0.0000
# 3 20.9312 -7.5395 121.5335 0.0000 -15.9857 0.0000
# 4 0.0000 0.0000 0.0000 46.9772 0.0000 -8.9571
# 5 -12.8669 -9.8386 -15.9857 0.0000 33.7439 0.0000
# 6 0.0000 0.0000 0.0000 -8.9571 0.0000 10.7440
#
#
#
# Elastic Compliance Matrix: (Units=1/GPa)
#
#
# Indices 1 2 3 4 5 6 
#
# 1 0.011246 -0.001197 -0.001592 0.000000 0.003185 0.000000
# 2 -0.001197 0.012631 0.001508 0.000000 0.003941 0.000000
# 3 -0.001592 0.001508 0.009144 0.000000 0.004164 0.000000
# 4 0.000000 0.000000 0.000000 0.025310 0.000000 0.021101
# 5 0.003185 0.003941 0.004164 0.000000 0.033971 0.000000
# 6 0.000000 0.000000 0.000000 0.021101 0.000000 0.110666
#
#
# Mechanical properties :
#
#
# Convention : Reuss Voigt Hill
#
# Bulk Modulus (GPa) = 32.83142 38.94249 35.88696
# Shear Modulus (GPa) = 23.18213 36.84515 30.01364
#
# Velocity S-wave (km/s) = 2.90116 3.65751 3.30107
# Velocity P-wave (km/s) = 4.81066 5.65468 5.24966
#
# Compressibility (1/GPa) = 0.03045862
#
# Stress axis : x y z
#
# Youngs Moduli (GPa) = 88.91908 79.17119 109.36500
#
# Poissons Ratio (x) = 0.09476 0.17413
# Poissons Ratio (y) = 0.10643 -0.16493
# Poissons Ratio (z) = 0.14158 -0.11939
#
# Static dielectric constant tensor:
#      x y z
#    x 2.194490 0.000000 0.060040 
#    y 0.000000 2.316420 0.000000 
#    z 0.060040 0.000000 2.131730 
# 
# From -- ./inp_files/10399.got.cif
#   From: 2010.05.17/outbox.cif.g08.bks.cpg/sg4_6_cif.got.tgz:10399.got - 2010.06.03 18:43:04.
