data_PCOD9118171
_publ_section_title
;
Structure prediction by ZEFSAII (Michael W. Deem and Ramdas Pophale) SiO2 
 PCOD9118171
Probable space group: P 21
;
_chemical_formula_sum "Si O2"
_cell_formula_units_Z 14
_cell_length_a 9.445688
_cell_length_b 5.430569
_cell_length_c 18.013644
_cell_angle_alpha 90.000000
_cell_angle_beta 139.017645
_cell_angle_gamma 90.000000
_cell_volume 605.995667
_symmetry_space_group_name_H-M "P 21"
_symmetry_group_IT_number 4
_symmetry_cell_setting 'monoclinic'
loop_
_space_group_symop_operation_xyz
x,y,z
-x,1/2+y,-z
loop_
_atom_site_type_symbol
_atom_site_label
_atom_site_fract_x
_atom_site_fract_y
_atom_site_fract_z
Si Si1 0.027666 0.315280 0.116906
Si Si2 0.093859 0.039715 0.629074
Si Si3 0.486970 0.228735 0.231305
Si Si4 0.306940 0.330897 0.596037
Si Si5 0.054410 0.109994 0.782017
Si Si6 0.441025 0.637870 0.434072
Si Si7 0.789081 0.805879 0.013398
O O1 0.983469 0.355332 0.187553
O O2 0.929665 0.567586 0.045394
O O3 0.275968 0.322892 0.191462
O O4 0.904142 0.066717 0.045563
O O5 0.131858 0.261841 0.588528
O O6 0.138130 0.090605 0.732389
O O7 0.277685 0.853253 0.672010
O O8 0.843770 0.973132 0.522107
O O9 0.518815 0.968219 0.284347
O O10 0.421709 0.264680 0.119324
O O11 0.428711 0.138719 0.591976
O O12 0.212173 0.265129 0.898140
O O13 0.808586 0.207801 0.680749
O O14 0.469806 0.367176 0.481326
#
# Coordination Sequence:
#
# PCOD9118171 Si02
#       7
#     2   2   2   2   2   2   2
#     4  10  24  46  77 112 140 190 248 313 359 437
#     4  12  27  48  70 106 154 195 245 302 376 447
#     4  12  26  46  76 107 147 202 241 312 375 443
#     4  12  28  45  73 108 150 199 250 307 368 457
#     4  10  26  47  74 108 151 189 246 315 361 450
#     4  12  28  45  82 109 147 197 254 310 377 435
#     4  10  25  47  78 110 147 186 258 305 370 433
#
# _framework density 23.102474999999998
#
# number of rings (size 3 to 8) (size 9 to 14) (size 15 to 20)
#    0.857    0.000    2.857    2.571   12.000    1.143 
#    5.143    0.000    0.000    0.000    0.000    0.000 
#    0.000    0.000    0.000    0.000    0.000    0.000 
#
# Total GULP energy -78007.032194 kJ/mol
# GULP energy per Si atom -5571.930871 kJ/mol
# Density = 2.304989 g / cm^3
# Si number density = 23.102475 Si / 1000 Ang^3
#
#
#
# Elastic Constant Matrix: (Units=GPa)
#
#
# Indices 1 2 3 4 5 6 
#
# 1 96.1589 0.4100 14.8124 0.0000 -26.6253 0.0000
# 2 0.4100 72.0902 30.0823 0.0000 -6.4387 0.0000
# 3 14.8124 30.0823 119.4439 0.0000 -16.4984 0.0000
# 4 0.0000 0.0000 0.0000 212.0932 0.0000 -87.6870
# 5 -26.6253 -6.4387 -16.4984 0.0000 48.1042 0.0000
# 6 0.0000 0.0000 0.0000 -87.6870 0.0000 64.4053
#
#
#
# Elastic Compliance Matrix: (Units=1/GPa)
#
#
# Indices 1 2 3 4 5 6 
#
# 1 0.012374 0.000873 -0.000832 0.000000 0.006680 0.000000
# 2 0.000873 0.015590 -0.003863 0.000000 0.001245 0.000000
# 3 -0.000832 -0.003863 0.009776 0.000000 0.002376 0.000000
# 4 0.000000 0.000000 0.000000 0.010787 0.000000 0.014686
# 5 0.006680 0.001245 0.002376 0.000000 0.025467 0.000000
# 6 0.000000 0.000000 0.000000 0.014686 0.000000 0.035521
#
#
# Mechanical properties :
#
#
# Convention : Reuss Voigt Hill
#
# Bulk Modulus (GPa) = 33.22540 42.03359 37.62950
# Shear Modulus (GPa) = 39.31177 81.07975 60.19576
#
# Velocity S-wave (km/s) = 4.12955 5.93059 5.11004
# Velocity P-wave (km/s) = 6.09513 8.07030 7.15124
#
# Compressibility (1/GPa) = 0.03009745
#
# Stress axis : x y z
#
# Youngs Moduli (GPa) = 80.81764 64.14544 102.28916
#
# Poissons Ratio (x) = -0.05602 0.08507
# Poissons Ratio (y) = -0.07058 0.39510
# Poissons Ratio (z) = 0.06721 0.24777
#
# Static dielectric constant tensor:
#      x y z
#    x 1.837130 0.000000 -0.033140 
#    y 0.000000 1.981780 0.000000 
#    z -0.033140 0.000000 1.970130 
# 
# From -- ./inp_files/14776.got.cif
#   From: 2010.05.17/outbox.cif.g08.bks.cpg/sg4_8_cif.got.tgz:14776.got - 2010.06.03 18:43:04.
