data_PCOD9118460
_publ_section_title
;
Structure prediction by ZEFSAII (Michael W. Deem and Ramdas Pophale) SiO2 
 PCOD9118460
Probable space group: P 21
;
_chemical_formula_sum "Si O2"
_cell_formula_units_Z 12
_cell_length_a 8.007661
_cell_length_b 4.904314
_cell_length_c 22.866830
_cell_angle_alpha 90.000000
_cell_angle_beta 33.779251
_cell_angle_gamma 90.000000
_cell_volume 499.298799
_symmetry_space_group_name_H-M "P 21"
_symmetry_group_IT_number 4
_symmetry_cell_setting 'monoclinic'
loop_
_space_group_symop_operation_xyz
x,y,z
-x,1/2+y,-z
loop_
_atom_site_type_symbol
_atom_site_label
_atom_site_fract_x
_atom_site_fract_y
_atom_site_fract_z
Si Si1 0.540245 0.562410 0.527483
Si Si2 0.539419 0.069749 0.950069
Si Si3 0.057584 0.867145 0.446341
Si Si4 0.046438 0.913928 0.249251
Si Si5 0.466719 0.775966 0.224618
Si Si6 0.573825 0.278727 0.127404
O O1 0.613147 0.293485 0.468889
O O2 0.809401 0.716719 0.479652
O O3 0.300372 0.470948 0.646094
O O4 0.824071 0.232052 0.840424
O O5 0.335346 0.946276 0.956858
O O6 0.381587 0.316317 0.031279
O O7 0.055163 0.666339 0.503086
O O8 0.362705 0.863939 0.318974
O O9 0.157832 0.765726 0.276119
O O10 0.240167 0.190420 0.200509
O O11 0.594172 0.478301 0.176746
O O12 0.663244 0.987772 0.128615
#
# Coordination Sequence:
#
# PCOD9118460 Si02
#       6
#     2   2   2   2   2   2
#     4  12  23  38  61  83 113 168 207 238 278 360
#     4  11  18  29  46  79 119 148 171 243 316 343
#     4  12  24  38  53  84 121 158 198 258 293 325
#     4   9  20  31  55  77 106 154 203 226 274 361
#     4   9  17  33  48  71 101 147 189 232 269 337
#     4   9  16  29  49  72 100 143 186 225 274 348
#
# _framework density 24.033705999999999
#
# number of rings (size 3 to 8) (size 9 to 14) (size 15 to 20)
#    1.000    0.667    3.333    3.000    2.333    0.000 
#    0.000    0.000    0.000    0.000    0.000    0.000 
#    0.000   26.667   12.000    0.000    0.000    0.000 
#
# Total GULP energy -66817.225211 kJ/mol
# GULP energy per Si atom -5568.102101 kJ/mol
# Density = 2.397900 g / cm^3
# Si number density = 24.033706 Si / 1000 Ang^3
#
#
#
# Elastic Constant Matrix: (Units=GPa)
#
#
# Indices 1 2 3 4 5 6 
#
# 1 41.8742 15.0351 35.7051 0.0000 11.9937 0.0000
# 2 15.0351 148.0989 20.1939 0.0000 11.4883 0.0000
# 3 35.7051 20.1939 77.0070 0.0000 16.6057 0.0000
# 4 0.0000 0.0000 0.0000 35.2414 0.0000 20.7755
# 5 11.9937 11.4883 16.6057 0.0000 29.6891 0.0000
# 6 0.0000 0.0000 0.0000 20.7755 0.0000 27.1507
#
#
#
# Elastic Compliance Matrix: (Units=1/GPa)
#
#
# Indices 1 2 3 4 5 6 
#
# 1 0.040868 -0.001305 -0.017234 0.000000 -0.006365 0.000000
# 2 -0.001305 0.007141 -0.000893 0.000000 -0.001737 0.000000
# 3 -0.017234 -0.000893 0.022328 0.000000 -0.005181 0.000000
# 4 0.000000 0.000000 0.000000 0.051695 0.000000 -0.039557
# 5 -0.006365 -0.001737 -0.005181 0.000000 0.039824 0.000000
# 6 0.000000 0.000000 0.000000 -0.039557 0.000000 0.067100
#
#
# Mechanical properties :
#
#
# Convention : Reuss Voigt Hill
#
# Bulk Modulus (GPa) = 31.77375 45.42760 38.60068
# Shear Modulus (GPa) = 17.96552 31.48597 24.72575
#
# Velocity S-wave (km/s) = 2.73704 3.62342 3.21096
# Velocity P-wave (km/s) = 4.82055 6.03724 5.46287
#
# Compressibility (1/GPa) = 0.03147253
#
# Stress axis : x y z
#
# Youngs Moduli (GPa) = 24.46917 140.03195 44.78710
#
# Poissons Ratio (x) = 0.18278 0.77186
# Poissons Ratio (y) = 0.03194 0.04000
# Poissons Ratio (z) = 0.42170 0.12505
#
# Static dielectric constant tensor:
#      x y z
#    x 1.995130 0.000000 0.023570 
#    y 0.000000 1.939880 0.000000 
#    z 0.023570 0.000000 2.107160 
# 
# From -- ./inp_files/16027.got.cif
#   From: 2010.05.17/outbox.cif.g08.bks.cpg/sg4_9_cif.got.tgz:16027.got - 2010.06.03 18:43:04.
