data_PCOD9118197
_publ_section_title
;
Structure prediction by ZEFSAII (Michael W. Deem and Ramdas Pophale) SiO2 
 PCOD9118197
Probable space group: P 21
;
_chemical_formula_sum "Si O2"
_cell_formula_units_Z 14
_cell_length_a 14.251063
_cell_length_b 8.966481
_cell_length_c 5.268048
_cell_angle_alpha 90.000000
_cell_angle_beta 124.289594
_cell_angle_gamma 90.000000
_cell_volume 556.166129
_symmetry_space_group_name_H-M "P 21"
_symmetry_group_IT_number 4
_symmetry_cell_setting 'monoclinic'
loop_
_space_group_symop_operation_xyz
x,y,z
-x,1/2+y,-z
loop_
_atom_site_type_symbol
_atom_site_label
_atom_site_fract_x
_atom_site_fract_y
_atom_site_fract_z
Si Si1 0.171627 0.027600 0.075179
Si Si2 0.813866 0.191869 0.014025
Si Si3 0.502537 0.421771 0.781779
Si Si4 0.063987 0.252591 0.585075
Si Si5 0.926522 0.950673 0.892283
Si Si6 0.400131 0.145357 0.419581
Si Si7 0.608264 0.127789 0.058889
O O1 0.135352 0.104203 0.753428
O O2 0.216018 0.859368 0.114383
O O3 0.274107 0.128203 0.331554
O O4 0.054119 0.015313 0.049012
O O5 0.932928 0.207109 0.345748
O O6 0.715572 0.128141 0.040589
O O7 0.844415 0.088985 0.821621
O O8 0.447808 0.312166 0.484671
O O9 0.587258 0.549785 0.815037
O O10 0.572765 0.300113 0.054722
O O11 0.393891 0.511745 0.718587
O O12 0.096943 0.351383 0.391932
O O13 0.075648 0.350683 0.857709
O O14 0.493834 0.072689 0.743558
#
# Coordination Sequence:
#
# PCOD9118197 Si02
#       7
#     2   2   2   2   2   2   2
#     4  11  22  49  79 107 155 203 259 318 388 469
#     4  11  23  50  78 109 152 205 259 317 390 468
#     4  10  24  47  75 108 147 189 263 304 394 445
#     4  11  26  49  76 117 160 204 261 324 391 459
#     4  11  26  49  75 120 157 204 264 323 391 465
#     4  10  24  48  75 109 146 200 246 318 384 461
#     4  10  25  48  76 110 145 199 250 320 380 463
#
# _framework density 25.172338
#
# number of rings (size 3 to 8) (size 9 to 14) (size 15 to 20)
#    0.857    0.571    1.429    3.429    2.000    2.286 
#   25.714    0.000    0.000    0.000    0.000    0.000 
#    0.000    0.000    0.000    0.000    0.000    0.000 
#
# Total GULP energy -78261.865001 kJ/mol
# GULP energy per Si atom -5590.133214 kJ/mol
# Density = 2.511504 g / cm^3
# Si number density = 25.172338 Si / 1000 Ang^3
#
#
#
# Elastic Constant Matrix: (Units=GPa)
#
#
# Indices 1 2 3 4 5 6 
#
# 1 159.8595 77.4530 30.7246 0.0000 -8.3201 0.0000
# 2 77.4530 126.6188 38.1142 0.0000 -26.2713 0.0000
# 3 30.7246 38.1142 82.5003 0.0000 -5.1763 0.0000
# 4 0.0000 0.0000 0.0000 21.2460 0.0000 -13.2825
# 5 -8.3201 -26.2713 -5.1763 0.0000 42.0432 0.0000
# 6 0.0000 0.0000 0.0000 -13.2825 0.0000 49.4353
#
#
#
# Elastic Compliance Matrix: (Units=1/GPa)
#
#
# Indices 1 2 3 4 5 6 
#
# 1 0.009076 -0.005674 -0.000875 0.000000 -0.001857 0.000000
# 2 -0.005674 0.014035 -0.003922 0.000000 0.007165 0.000000
# 3 -0.000875 -0.003922 0.014204 0.000000 -0.000875 0.000000
# 4 0.000000 0.000000 0.000000 0.056570 0.000000 0.015199
# 5 -0.001857 0.007165 -0.000875 0.000000 0.027787 0.000000
# 6 0.000000 0.000000 0.000000 0.015199 0.000000 0.024312
#
#
# Mechanical properties :
#
#
# Convention : Reuss Voigt Hill
#
# Bulk Modulus (GPa) = 61.07260 73.50691 67.28975
# Shear Modulus (GPa) = 29.00506 37.39068 33.19787
#
# Velocity S-wave (km/s) = 3.39818 3.85825 3.63550
# Velocity P-wave (km/s) = 6.30169 7.00807 6.66424
#
# Compressibility (1/GPa) = 0.01637396
#
# Stress axis : x y z
#
# Youngs Moduli (GPa) = 110.18089 71.24917 70.40237
#
# Poissons Ratio (x) = 0.40424 0.06163
# Poissons Ratio (y) = 0.62512 0.27610
# Poissons Ratio (z) = 0.09646 0.27942
#
# Static dielectric constant tensor:
#      x y z
#    x 2.029770 0.000000 -0.140490 
#    y 0.000000 2.000620 0.000000 
#    z -0.140490 0.000000 2.212860 
# 
# From -- ./inp_files/3642.got.cif
#   From: 2010.05.17/outbox.cif.g08.bks.cpg/sg4_2_cif.got.tgz:3642.got - 2010.06.03 18:43:04.
