data_PCOD9118694
_publ_section_title
;
Structure prediction by ZEFSAII (Michael W. Deem and Ramdas Pophale) SiO2 
 PCOD9118694
Probable space group: P 21
;
_chemical_formula_sum "Si O2"
_cell_formula_units_Z 16
_cell_length_a 9.269990
_cell_length_b 5.021053
_cell_length_c 20.756413
_cell_angle_alpha 90.000000
_cell_angle_beta 132.324606
_cell_angle_gamma 90.000000
_cell_volume 714.285364
_symmetry_space_group_name_H-M "P 21"
_symmetry_group_IT_number 4
_symmetry_cell_setting 'monoclinic'
loop_
_space_group_symop_operation_xyz
x,y,z
-x,1/2+y,-z
loop_
_atom_site_type_symbol
_atom_site_label
_atom_site_fract_x
_atom_site_fract_y
_atom_site_fract_z
Si Si1 0.450416 0.631050 0.329055
Si Si2 0.959412 0.591038 0.334455
Si Si3 0.865821 0.827923 0.961693
Si Si4 0.378606 0.732260 0.446350
Si Si5 0.231577 0.591229 0.766820
Si Si6 0.574946 0.624601 0.765483
Si Si7 0.120390 0.225158 0.551302
Si Si8 0.479775 0.301382 0.038013
O O1 0.329508 0.659719 0.357704
O O2 0.452263 0.338643 0.299551
O O3 0.668736 0.713721 0.417271
O O4 0.385999 0.841008 0.255604
O O5 0.858503 0.799046 0.255987
O O6 0.842117 0.617101 0.365722
O O7 0.174354 0.680830 0.419461
O O8 0.940283 0.296669 0.301755
O O9 0.743908 0.727598 0.863354
O O10 0.715451 0.830205 0.976904
O O11 0.040206 0.615737 0.022609
O O12 0.460425 0.027017 0.479154
O O13 0.384779 0.600409 0.753585
O O14 0.351262 0.692036 0.864035
O O15 0.030649 0.518849 0.525508
O O16 0.461909 0.080903 0.976604
#
# Coordination Sequence:
#
# PCOD9118694 Si02
#       8
#     2   2   2   2   2   2   2   2
#     4  12  23  42  65  94 126 168 217 259 328 383
#     4  12  23  42  65  94 126 168 217 259 328 383
#     4  11  24  45  70 103 140 179 222 274 336 401
#     4  12  26  46  62  88 134 172 206 266 336 386
#     4  11  22  43  68  95 131 168 213 271 320 376
#     4  11  22  43  68  95 131 168 213 271 320 376
#     4  12  22  36  62  94 118 156 216 268 306 380
#     4  11  24  45  70 103 140 179 222 274 336 401
#
# _framework density 22.400008
#
# number of rings (size 3 to 8) (size 9 to 14) (size 15 to 20)
#    0.000    0.500    2.500    6.750    0.000    4.000 
#   13.500    0.000    0.000    0.000    0.000    0.000 
#    0.000    0.000    0.000    0.000    0.000    0.000 
#
# Total GULP energy -89579.705008 kJ/mol
# GULP energy per Si atom -5598.731563 kJ/mol
# Density = 2.234902 g / cm^3
# Si number density = 22.400008 Si / 1000 Ang^3
#
#
#
# Elastic Constant Matrix: (Units=GPa)
#
#
# Indices 1 2 3 4 5 6 
#
# 1 58.0175 3.2013 4.8273 0.0000 -3.0877 0.0000
# 2 3.2013 67.9920 -8.0180 0.0000 -5.9716 0.0000
# 3 4.8273 -8.0180 52.2845 0.0000 -1.0538 0.0000
# 4 0.0000 0.0000 0.0000 47.5758 0.0000 0.2116
# 5 -3.0877 -5.9716 -1.0538 0.0000 23.5250 0.0000
# 6 0.0000 0.0000 0.0000 0.2116 0.0000 25.4841
#
#
#
# Elastic Compliance Matrix: (Units=1/GPa)
#
#
# Indices 1 2 3 4 5 6 
#
# 1 0.017532 -0.000851 -0.001709 0.000000 0.002009 0.000000
# 2 -0.000851 0.015388 0.002517 0.000000 0.003907 0.000000
# 3 -0.001709 0.002517 0.019696 0.000000 0.001297 0.000000
# 4 0.000000 0.000000 0.000000 0.021020 0.000000 -0.000175
# 5 0.002009 0.003907 0.001297 0.000000 0.043822 0.000000
# 6 0.000000 0.000000 0.000000 -0.000175 0.000000 0.039242
#
#
# Mechanical properties :
#
#
# Convention : Reuss Voigt Hill
#
# Bulk Modulus (GPa) = 19.03623 19.81282 19.42453
# Shear Modulus (GPa) = 28.68720 31.20253 29.94487
#
# Velocity S-wave (km/s) = 3.58254 3.73630 3.66023
# Velocity P-wave (km/s) = 5.06256 5.24189 5.15301
#
# Compressibility (1/GPa) = 0.05253140
#
# Stress axis : x y z
#
# Youngs Moduli (GPa) = 57.03802 64.98725 50.77170
#
# Poissons Ratio (x) = 0.05528 0.08675
# Poissons Ratio (y) = 0.04851 -0.12779
# Poissons Ratio (z) = 0.09746 -0.16357
#
# Static dielectric constant tensor:
#      x y z
#    x 1.768850 0.000000 -0.011540 
#    y 0.000000 1.780700 0.000000 
#    z -0.011540 0.000000 1.821450 
# 
# From -- ./inp_files/13486.got.cif
#   From: 2010.05.17/outbox.cif.g08.bks.cpg/sg4_7_cif.got.tgz:13486.got - 2010.06.03 18:43:04.
