data_PCOD9118552
_publ_section_title
;
Structure prediction by ZEFSAII (Michael W. Deem and Ramdas Pophale) SiO2 
 PCOD9118552
Probable space group: P 21
;
_chemical_formula_sum "Si O2"
_cell_formula_units_Z 16
_cell_length_a 19.477338
_cell_length_b 5.282474
_cell_length_c 9.160151
_cell_angle_alpha 90.000000
_cell_angle_beta 127.912940
_cell_angle_gamma 90.000000
_cell_volume 743.560845
_symmetry_space_group_name_H-M "P 21"
_symmetry_group_IT_number 4
_symmetry_cell_setting 'monoclinic'
loop_
_space_group_symop_operation_xyz
x,y,z
-x,1/2+y,-z
loop_
_atom_site_type_symbol
_atom_site_label
_atom_site_fract_x
_atom_site_fract_y
_atom_site_fract_z
Si Si1 0.778265 0.506400 0.626789
Si Si2 0.017915 0.426129 0.429471
Si Si3 0.955945 0.413328 0.015446
Si Si4 0.600895 0.304146 0.494188
Si Si5 0.431012 0.547419 0.286609
Si Si6 0.204715 0.502269 0.539460
Si Si7 0.631715 0.803970 0.074262
Si Si8 0.495044 0.949666 0.137267
O O1 0.854383 0.443911 0.841140
O O2 0.678658 0.485812 0.550897
O O3 0.784407 0.280462 0.514776
O O4 0.796817 0.784021 0.586696
O O5 0.986255 0.661142 0.487950
O O6 0.116628 0.487836 0.514584
O O7 0.970202 0.406726 0.209027
O O8 0.006121 0.656916 0.010412
O O9 0.517245 0.421519 0.466083
O O10 0.632435 0.124957 0.665999
O O11 0.555757 0.154109 0.302624
O O12 0.477604 0.735156 0.232479
O O13 0.377861 0.370497 0.107111
O O14 0.283445 0.412615 0.744046
O O15 0.550532 0.895672 0.066804
O O16 0.604760 0.510668 0.041245
#
# Coordination Sequence:
#
# PCOD9118552 Si02
#       8
#     2   2   2   2   2   2   2   2
#     4  12  25  44  75 104 133 182 241 288 334 427
#     4  12  26  48  76 109 146 183 222 297 376 424
#     4  12  23  48  76 106 140 188 237 286 356 440
#     4  11  24  40  65  92 132 181 233 285 345 398
#     4  11  23  41  60  90 136 180 227 288 344 402
#     4  12  26  46  72 105 140 176 235 290 345 424
#     4  11  24  37  65  94 128 180 228 278 334 411
#     4  11  21  40  61  90 127 180 227 270 338 400
#
# _framework density 21.518079
#
# number of rings (size 3 to 8) (size 9 to 14) (size 15 to 20)
#    0.000    0.500    6.250    2.250    3.500    1.000 
#    2.250    0.000    0.000    0.000    0.000    0.000 
#    0.000    0.000    0.000    0.000    0.000    0.000 
#
# Total GULP energy -89253.401880 kJ/mol
# GULP energy per Si atom -5578.337617 kJ/mol
# Density = 2.146910 g / cm^3
# Si number density = 21.518079 Si / 1000 Ang^3
#
#
#
# Elastic Constant Matrix: (Units=GPa)
#
#
# Indices 1 2 3 4 5 6 
#
# 1 43.8742 -2.6083 7.9556 0.0000 -17.2835 0.0000
# 2 -2.6083 59.8006 -9.8138 0.0000 -18.0059 0.0000
# 3 7.9556 -9.8138 103.7324 0.0000 -4.2260 0.0000
# 4 0.0000 0.0000 0.0000 27.7323 0.0000 -6.1095
# 5 -17.2835 -18.0059 -4.2260 0.0000 40.6817 0.0000
# 6 0.0000 0.0000 0.0000 -6.1095 0.0000 20.4508
#
#
#
# Elastic Compliance Matrix: (Units=1/GPa)
#
#
# Indices 1 2 3 4 5 6 
#
# 1 0.029109 0.005510 -0.001113 0.000000 0.014690 0.000000
# 2 0.005510 0.020841 0.002029 0.000000 0.011776 0.000000
# 3 -0.001113 0.002029 0.009977 0.000000 0.001462 0.000000
# 4 0.000000 0.000000 0.000000 0.038599 0.000000 0.011531
# 5 0.014690 0.011776 0.001462 0.000000 0.036186 0.000000
# 6 0.000000 0.000000 0.000000 0.011531 0.000000 0.052343
#
#
# Mechanical properties :
#
#
# Convention : Reuss Voigt Hill
#
# Bulk Modulus (GPa) = 13.74009 22.05269 17.89639
# Shear Modulus (GPa) = 25.19368 31.89787 28.54578
#
# Velocity S-wave (km/s) = 3.42543 3.85434 3.64620
# Velocity P-wave (km/s) = 4.69510 5.48440 5.10503
#
# Compressibility (1/GPa) = 0.07277975
#
# Stress axis : x y z
#
# Youngs Moduli (GPa) = 34.35403 47.98151 100.23035
#
# Poissons Ratio (x) = -0.26439 0.11152
# Poissons Ratio (y) = -0.18930 -0.20336
# Poissons Ratio (z) = 0.03823 -0.09735
#
# Static dielectric constant tensor:
#      x y z
#    x 1.723590 0.000000 -0.006380 
#    y 0.000000 1.994420 0.000000 
#    z -0.006380 0.000000 1.802210 
# 
# From -- ./inp_files/8806.got.cif
#   From: 2010.05.17/outbox.cif.g08.bks.cpg/sg4_5_cif.got.tgz:8806.got - 2010.06.03 18:43:04.
