data_PCOD9118959
_publ_section_title
;
Structure prediction by ZEFSAII (Michael W. Deem and Ramdas Pophale) SiO2 
 PCOD9118959
Probable space group: P 21
;
_chemical_formula_sum "Si O2"
_cell_formula_units_Z 16
_cell_length_a 9.104761
_cell_length_b 9.966387
_cell_length_c 7.975980
_cell_angle_alpha 90.000000
_cell_angle_beta 107.955383
_cell_angle_gamma 90.000000
_cell_volume 688.503922
_symmetry_space_group_name_H-M "P 21"
_symmetry_group_IT_number 4
_symmetry_cell_setting 'monoclinic'
loop_
_space_group_symop_operation_xyz
x,y,z
-x,1/2+y,-z
loop_
_atom_site_type_symbol
_atom_site_label
_atom_site_fract_x
_atom_site_fract_y
_atom_site_fract_z
Si Si1 0.483826 0.221450 0.104463
Si Si2 0.134010 0.116506 0.362443
Si Si3 0.362583 0.469337 0.277049
Si Si4 0.556310 0.510413 0.660530
Si Si5 0.957792 0.904248 0.777557
Si Si6 0.675273 0.260846 0.876202
Si Si7 0.003616 0.865960 0.162813
Si Si8 0.203533 0.126710 0.772761
O O1 0.400503 0.343196 0.172190
O O2 0.538783 0.112075 0.258732
O O3 0.629851 0.276425 0.053380
O O4 0.363015 0.148669 0.932004
O O5 0.275343 0.082336 0.286253
O O6 0.040153 0.247353 0.269989
O O7 0.204670 0.135462 0.571707
O O8 0.033256 0.981811 0.308451
O O9 0.501970 0.489976 0.454304
O O10 0.211338 0.451018 0.342246
O O11 0.347253 0.606606 0.172576
O O12 0.561712 0.364343 0.743757
O O13 0.104878 0.992115 0.779284
O O14 0.932745 0.925473 0.968315
O O15 0.839294 0.303662 0.858722
O O16 0.902374 0.748704 0.201360
#
# Coordination Sequence:
#
# PCOD9118959 Si02
#       8
#     2   2   2   2   2   2   2   2
#     4  12  25  47  73 104 138 191 233 296 357 417
#     4  11  25  44  73 102 139 183 237 292 349 417
#     4  12  24  42  71 101 140 186 235 287 359 417
#     4  11  24  46  69  99 145 186 231 299 352 411
#     4  12  24  45  71 100 139 192 229 290 357 417
#     4  11  25  43  70 104 138 183 241 287 352 426
#     4  11  23  46  70 102 142 183 229 295 353 421
#     4  12  24  45  73 104 141 180 237 286 359 424
#
# _framework density 23.238793000000001
#
# number of rings (size 3 to 8) (size 9 to 14) (size 15 to 20)
#    0.000    0.500    3.750    5.250    1.750    1.000 
#    2.250    0.000    0.000    0.000    0.000    0.000 
#    0.000    0.000    0.000    0.000    0.000    0.000 
#
# Total GULP energy -89460.720072 kJ/mol
# GULP energy per Si atom -5591.295004 kJ/mol
# Density = 2.318590 g / cm^3
# Si number density = 23.238793 Si / 1000 Ang^3
#
#
#
# Elastic Constant Matrix: (Units=GPa)
#
#
# Indices 1 2 3 4 5 6 
#
# 1 56.4356 37.0868 -8.3202 0.0000 -14.3263 0.0000
# 2 37.0868 145.7209 32.5699 0.0000 5.5192 0.0000
# 3 -8.3202 32.5699 77.3208 0.0000 -16.4576 0.0000
# 4 0.0000 0.0000 0.0000 25.0317 0.0000 -4.5975
# 5 -14.3263 5.5192 -16.4576 0.0000 18.5272 0.0000
# 6 0.0000 0.0000 0.0000 -4.5975 0.0000 -5.1099
#
#
#
# Elastic Compliance Matrix: (Units=1/GPa)
#
#
# Indices 1 2 3 4 5 6 
#
# 1 0.069497 -0.030803 0.041736 0.000000 0.099989 0.000000
# 2 -0.030803 0.021871 -0.023410 0.000000 -0.051129 0.000000
# 3 0.041736 -0.023410 0.043948 0.000000 0.078285 0.000000
# 4 0.000000 0.000000 0.000000 0.034284 0.000000 -0.030846
# 5 0.099989 -0.051129 0.078285 0.000000 0.216063 0.000000
# 6 0.000000 0.000000 0.000000 -0.030846 0.000000 -0.167944
#
#
# Mechanical properties :
#
#
# Convention : Reuss Voigt Hill
#
# Bulk Modulus (GPa) = 9.06108 44.68337 26.87223
# Shear Modulus (GPa) = 17.89166 22.23249 20.06208
#
# Velocity S-wave (km/s) = 2.77773 3.09641 2.94139
# Velocity P-wave (km/s) = 3.76766 5.66157 4.80877
#
# Compressibility (1/GPa) = 0.11036212
#
# Stress axis : x y z
#
# Youngs Moduli (GPa) = 14.38913 45.72325 22.75417
#
# Poissons Ratio (x) = 1.40840 -0.94966
# Poissons Ratio (y) = 0.44323 0.53267
# Poissons Ratio (z) = -0.60054 1.07037
#
# Static dielectric constant tensor:
#      x y z
#    x 1.933400 0.000000 0.048260 
#    y 0.000000 1.845210 0.000000 
#    z 0.048260 0.000000 1.930040 
# 
# From -- ./inp_files/5505.got.cif
#   From: 2010.05.17/outbox.cif.g08.bks.cpg/sg4_3_cif.got.tgz:5505.got - 2010.06.03 18:43:04.
