data_PCOD9118008
_publ_section_title
;
Structure prediction by ZEFSAII (Michael W. Deem and Ramdas Pophale) SiO2 
 PCOD9118008
Probable space group: P 21
;
_chemical_formula_sum "Si O2"
_cell_formula_units_Z 14
_cell_length_a 5.175238
_cell_length_b 10.139925
_cell_length_c 11.295172
_cell_angle_alpha 90.000000
_cell_angle_beta 89.995055
_cell_angle_gamma 90.000000
_cell_volume 592.731376
_symmetry_space_group_name_H-M "P 21"
_symmetry_group_IT_number 4
_symmetry_cell_setting 'monoclinic'
loop_
_space_group_symop_operation_xyz
x,y,z
-x,1/2+y,-z
loop_
_atom_site_type_symbol
_atom_site_label
_atom_site_fract_x
_atom_site_fract_y
_atom_site_fract_z
Si Si1 0.465343 0.573720 0.398084
Si Si2 0.669597 0.539925 0.037231
Si Si3 0.465034 0.780850 0.602043
Si Si4 0.669361 0.814540 0.962916
Si Si5 0.019227 0.140914 0.747382
Si Si6 0.999807 0.927321 0.170291
Si Si7 0.019536 0.213740 0.252479
O O1 0.403196 0.677242 0.500081
O O2 0.499940 0.427247 0.447778
O O3 0.725766 0.620050 0.331889
O O4 0.225463 0.569815 0.308215
O O5 0.500114 0.427180 0.097369
O O6 0.899763 0.586049 0.123597
O O7 0.531992 0.677202 0.000065
O O8 0.774413 0.471242 0.918946
O O9 0.725152 0.734498 0.668458
O O10 0.224799 0.784975 0.691723
O O11 0.899782 0.768519 0.876620
O O12 0.773807 0.883326 0.081216
O O13 0.947370 0.295577 0.756479
O O14 0.947260 0.059120 0.243486
#
# Coordination Sequence:
#
# PCOD9118008 Si02
#       7
#     2   2   2   2   2   2   2
#     4  12  29  51  79 107 142 191 251 314 371 431
#     4  10  24  43  69 110 151 196 242 290 359 440
#     4  12  29  51  79 107 142 191 251 314 371 431
#     4  10  24  43  69 110 151 196 242 290 359 440
#     4  11  27  47  77 108 151 190 246 302 370 435
#     4  10  26  42  74 110 150 204 230 296 358 458
#     4  11  27  47  77 108 151 190 246 302 370 435
#
# _framework density 23.619467
#
# number of rings (size 3 to 8) (size 9 to 14) (size 15 to 20)
#    0.000    1.143    0.000    2.571   20.000    1.143 
#    0.000    0.000    0.000    0.000    0.000    0.000 
#    0.000    0.000    0.000    0.000    0.000    0.000 
#
# Total GULP energy -78440.332937 kJ/mol
# GULP energy per Si atom -5602.880924 kJ/mol
# Density = 2.356571 g / cm^3
# Si number density = 23.619467 Si / 1000 Ang^3
#
#
#
# Elastic Constant Matrix: (Units=GPa)
#
#
# Indices 1 2 3 4 5 6 
#
# 1 98.2637 43.5263 16.7865 0.0000 0.4006 0.0000
# 2 43.5263 179.6359 36.7305 0.0000 0.0668 0.0000
# 3 16.7865 36.7305 61.5159 0.0000 0.1566 0.0000
# 4 0.0000 0.0000 0.0000 50.0229 0.0000 -0.0496
# 5 0.4006 0.0668 0.1566 0.0000 21.4362 0.0000
# 6 0.0000 0.0000 0.0000 -0.0496 0.0000 28.7667
#
#
#
# Elastic Compliance Matrix: (Units=1/GPa)
#
#
# Indices 1 2 3 4 5 6 
#
# 1 0.011553 -0.002454 -0.001687 0.000000 -0.000196 0.000000
# 2 -0.002454 0.006862 -0.003428 0.000000 0.000050 0.000000
# 3 -0.001687 -0.003428 0.018763 0.000000 -0.000095 0.000000
# 4 0.000000 0.000000 0.000000 0.019991 0.000000 0.000034
# 5 -0.000196 0.000050 -0.000095 0.000000 0.046654 0.000000
# 6 0.000000 0.000000 0.000000 0.000034 0.000000 0.034763
#
#
# Mechanical properties :
#
#
# Convention : Reuss Voigt Hill
#
# Bulk Modulus (GPa) = 45.37036 59.27800 52.32418
# Shear Modulus (GPa) = 31.04231 36.20330 33.62281
#
# Velocity S-wave (km/s) = 3.62922 3.91931 3.77705
# Velocity P-wave (km/s) = 6.06731 6.75522 6.42048
#
# Compressibility (1/GPa) = 0.02204082
#
# Stress axis : x y z
#
# Youngs Moduli (GPa) = 86.55928 145.72179 53.29594
#
# Poissons Ratio (x) = 0.35765 0.08989
# Poissons Ratio (y) = 0.21245 0.18269
# Poissons Ratio (z) = 0.14599 0.49951
#
# Static dielectric constant tensor:
#      x y z
#    x 1.891710 0.000000 0.000070 
#    y 0.000000 1.955510 0.000000 
#    z 0.000070 0.000000 1.883330 
# 
# From -- ./inp_files/10259.got.cif
#   From: 2010.05.17/outbox.cif.g08.bks.cpg/sg4_6_cif.got.tgz:10259.got - 2010.06.03 18:43:04.
