data_PCOD9118129
_publ_section_title
;
Structure prediction by ZEFSAII (Michael W. Deem and Ramdas Pophale) SiO2 
 PCOD9118129
Probable space group: P 21
;
_chemical_formula_sum "Si O2"
_cell_formula_units_Z 14
_cell_length_a 9.941257
_cell_length_b 7.534996
_cell_length_c 9.305558
_cell_angle_alpha 90.000000
_cell_angle_beta 61.163187
_cell_angle_gamma 90.000000
_cell_volume 610.617646
_symmetry_space_group_name_H-M "P 21"
_symmetry_group_IT_number 4
_symmetry_cell_setting 'monoclinic'
loop_
_space_group_symop_operation_xyz
x,y,z
-x,1/2+y,-z
loop_
_atom_site_type_symbol
_atom_site_label
_atom_site_fract_x
_atom_site_fract_y
_atom_site_fract_z
Si Si1 0.845916 0.394460 0.608410
Si Si2 0.659031 0.673912 0.514079
Si Si3 0.828575 0.021488 0.475303
Si Si4 0.596304 0.083179 0.152559
Si Si5 0.223692 0.077307 0.853627
Si Si6 0.891413 0.171219 0.126351
Si Si7 0.618571 0.440895 0.972161
O O1 0.774993 0.545873 0.542675
O O2 0.797265 0.201275 0.577835
O O3 0.775576 0.416647 0.802590
O O4 0.027729 0.421143 0.524967
O O5 0.493458 0.604031 0.650597
O O6 0.695748 0.653831 0.328332
O O7 0.692970 0.877803 0.537864
O O8 0.880168 0.088832 0.290939
O O9 0.774816 0.055948 0.088508
O O10 0.508449 0.962716 0.084674
O O11 0.576658 0.270910 0.084829
O O12 0.176833 0.871181 0.844147
O O13 0.062248 0.167179 0.976812
O O14 0.339395 0.084979 0.928803
#
# Coordination Sequence:
#
# PCOD9118129 Si02
#       7
#     2   2   2   2   2   2   2
#     4  11  23  43  68 105 140 177 240 295 342 426
#     4  11  25  44  70 101 141 188 231 293 356 425
#     4  12  23  42  73 105 138 189 234 293 358 406
#     4  10  26  46  66 101 142 188 232 289 370 416
#     4  11  23  44  72 103 142 180 246 295 341 431
#     4  11  24  43  70 105 142 185 238 291 357 421
#     4  10  24  46  69 100 143 183 239 294 352 429
#
# _framework density 22.927602
#
# number of rings (size 3 to 8) (size 9 to 14) (size 15 to 20)
#    0.000    1.143    4.286    0.857    4.000    4.571 
#    0.000    0.000    0.000    0.000    0.000    0.000 
#    0.000    0.000    0.000    0.000    0.000    0.000 
#
# Total GULP energy -78312.171851 kJ/mol
# GULP energy per Si atom -5593.726561 kJ/mol
# Density = 2.287542 g / cm^3
# Si number density = 22.927602 Si / 1000 Ang^3
#
#
#
# Elastic Constant Matrix: (Units=GPa)
#
#
# Indices 1 2 3 4 5 6 
#
# 1 46.4317 36.2738 20.4983 0.0000 5.4367 0.0000
# 2 36.2738 98.5643 11.0360 0.0000 9.0890 0.0000
# 3 20.4983 11.0360 91.2624 0.0000 29.9334 0.0000
# 4 0.0000 0.0000 0.0000 28.7367 0.0000 6.5075
# 5 5.4367 9.0890 29.9334 0.0000 13.6395 0.0000
# 6 0.0000 0.0000 0.0000 6.5075 0.0000 23.7413
#
#
#
# Elastic Compliance Matrix: (Units=1/GPa)
#
#
# Indices 1 2 3 4 5 6 
#
# 1 0.036779 -0.014660 -0.017431 0.000000 0.033363 0.000000
# 2 -0.014660 0.017029 0.010846 0.000000 -0.029307 0.000000
# 3 -0.017431 0.010846 0.048727 0.000000 -0.107217 0.000000
# 4 0.000000 0.000000 0.000000 0.037102 0.000000 -0.010170
# 5 0.033363 -0.029307 -0.107217 0.000000 0.314846 0.000000
# 6 0.000000 0.000000 0.000000 -0.010170 0.000000 0.044908
#
#
# Mechanical properties :
#
#
# Convention : Reuss Voigt Hill
#
# Bulk Modulus (GPa) = 16.65423 41.31939 28.98681
# Shear Modulus (GPa) = 8.89844 24.45353 16.67599
#
# Velocity S-wave (km/s) = 1.97219 3.26936 2.69984
# Velocity P-wave (km/s) = 3.53067 5.68440 4.73170
#
# Compressibility (1/GPa) = 0.06004482
#
# Stress axis : x y z
#
# Youngs Moduli (GPa) = 27.18965 58.72340 20.52241
#
# Poissons Ratio (x) = 0.86090 0.35772
# Poissons Ratio (y) = 0.39860 -0.22258
# Poissons Ratio (z) = 0.47394 -0.63691
#
# Static dielectric constant tensor:
#      x y z
#    x 1.890640 0.000000 0.010750 
#    y 0.000000 1.888900 0.000000 
#    z 0.010750 0.000000 1.817870 
# 
# From -- ./inp_files/5252.got.cif
#   From: 2010.05.17/outbox.cif.g08.bks.cpg/sg4_3_cif.got.tgz:5252.got - 2010.06.03 18:43:04.
