data_PCOD9118898
_publ_section_title
;
Structure prediction by ZEFSAII (Michael W. Deem and Ramdas Pophale) SiO2 
 PCOD9118898
Probable space group: P 21
;
_chemical_formula_sum "Si O2"
_cell_formula_units_Z 14
_cell_length_a 9.507057
_cell_length_b 5.032175
_cell_length_c 16.422231
_cell_angle_alpha 90.000000
_cell_angle_beta 135.150376
_cell_angle_gamma 90.000000
_cell_volume 554.084709
_symmetry_space_group_name_H-M "P 21"
_symmetry_group_IT_number 4
_symmetry_cell_setting 'monoclinic'
loop_
_space_group_symop_operation_xyz
x,y,z
-x,1/2+y,-z
loop_
_atom_site_type_symbol
_atom_site_label
_atom_site_fract_x
_atom_site_fract_y
_atom_site_fract_z
Si Si1 0.258058 0.050120 0.278888
Si Si2 0.618157 0.724134 0.365096
Si Si3 0.258908 0.427961 0.130781
Si Si4 0.111638 0.234888 0.381822
Si Si5 0.143537 0.246524 0.696723
Si Si6 0.378023 0.944280 0.931132
Si Si7 0.926286 0.695052 0.086962
O O1 0.223361 0.186831 0.177939
O O2 0.232173 0.236898 0.346355
O O3 0.475964 0.925669 0.356708
O O4 0.079262 0.836755 0.210559
O O5 0.461448 0.548084 0.249824
O O6 0.753103 0.605517 0.491716
O O7 0.766947 0.815143 0.355143
O O8 0.075195 0.617627 0.075868
O O9 0.245108 0.358256 0.030634
O O10 0.032693 0.523909 0.376759
O O11 0.928753 0.029367 0.298912
O O12 0.305189 0.094091 0.819585
O O13 0.184814 0.962034 0.911148
O O14 0.540364 0.147269 0.036100
#
# Coordination Sequence:
#
# PCOD9118898 Si02
#       7
#     2   2   2   2   2   2   2
#     4  11  26  45  74 105 145 191 246 304 364 439
#     4  11  29  45  75 109 140 195 252 304 360 434
#     4  11  24  42  72 100 148 180 244 297 371 430
#     4  12  28  50  77 104 154 194 246 302 371 436
#     4  12  27  51  74 109 148 198 242 301 374 439
#     4  12  27  43  74 104 146 185 241 294 361 436
#     4  11  23  44  68 105 139 193 229 302 369 438
#
# _framework density 25.266895999999999
#
# number of rings (size 3 to 8) (size 9 to 14) (size 15 to 20)
#    0.000    0.571    2.857    3.429   12.000    0.000 
#    0.000    0.000    0.000    0.000    0.000    0.000 
#    0.000    0.000    0.000    0.000    0.000    0.000 
#
# Total GULP energy -78287.790386 kJ/mol
# GULP energy per Si atom -5591.985028 kJ/mol
# Density = 2.520939 g / cm^3
# Si number density = 25.266896 Si / 1000 Ang^3
#
#
#
# Elastic Constant Matrix: (Units=GPa)
#
#
# Indices 1 2 3 4 5 6 
#
# 1 107.7108 18.4015 34.3814 0.0000 -1.4284 0.0000
# 2 18.4015 78.3423 -0.7584 0.0000 11.8591 0.0000
# 3 34.3814 -0.7584 88.9166 0.0000 0.1385 0.0000
# 4 0.0000 0.0000 0.0000 30.6078 0.0000 0.4832
# 5 -1.4284 11.8591 0.1385 0.0000 25.2839 0.0000
# 6 0.0000 0.0000 0.0000 0.4832 0.0000 26.0935
#
#
#
# Elastic Compliance Matrix: (Units=1/GPa)
#
#
# Indices 1 2 3 4 5 6 
#
# 1 0.011215 -0.002988 -0.004365 0.000000 0.002059 0.000000
# 2 -0.002988 0.014538 0.001290 0.000000 -0.006995 0.000000
# 3 -0.004365 0.001290 0.012947 0.000000 -0.000923 0.000000
# 4 0.000000 0.000000 0.000000 0.032681 0.000000 -0.000605
# 5 0.002059 -0.006995 -0.000923 0.000000 0.042953 0.000000
# 6 0.000000 0.000000 0.000000 -0.000605 0.000000 0.038335
#
#
# Mechanical properties :
#
#
# Convention : Reuss Voigt Hill
#
# Bulk Modulus (GPa) = 37.63156 42.11320 39.87238
# Shear Modulus (GPa) = 28.79303 31.26006 30.02655
#
# Velocity S-wave (km/s) = 3.37939 3.52119 3.45102
# Velocity P-wave (km/s) = 5.49118 5.76500 5.62975
#
# Compressibility (1/GPa) = 0.02657344
#
# Stress axis : x y z
#
# Youngs Moduli (GPa) = 89.16332 68.78664 77.23865
#
# Poissons Ratio (x) = 0.20555 0.33717
# Poissons Ratio (y) = 0.26645 -0.09967
# Poissons Ratio (z) = 0.38923 -0.08876
#
# Static dielectric constant tensor:
#      x y z
#    x 1.997740 0.000000 0.084950 
#    y 0.000000 2.117510 0.000000 
#    z 0.084950 0.000000 2.060850 
# 
# From -- ./inp_files/7057.got.cif
#   From: 2010.05.17/outbox.cif.g08.bks.cpg/sg4_4_cif.got.tgz:7057.got - 2010.06.03 18:43:04.
