data_PCOD9118357
_publ_section_title
;
Structure prediction by ZEFSAII (Michael W. Deem and Ramdas Pophale) SiO2 
 PCOD9118357
Probable space group: P 21
;
_chemical_formula_sum "Si O2"
_cell_formula_units_Z 14
_cell_length_a 14.237530
_cell_length_b 6.062004
_cell_length_c 9.322831
_cell_angle_alpha 90.000000
_cell_angle_beta 49.628136
_cell_angle_gamma 90.000000
_cell_volume 613.016058
_symmetry_space_group_name_H-M "P 21"
_symmetry_group_IT_number 4
_symmetry_cell_setting 'monoclinic'
loop_
_space_group_symop_operation_xyz
x,y,z
-x,1/2+y,-z
loop_
_atom_site_type_symbol
_atom_site_label
_atom_site_fract_x
_atom_site_fract_y
_atom_site_fract_z
Si Si1 0.120148 0.928630 0.772039
Si Si2 0.935167 0.611811 0.862582
Si Si3 0.051949 0.445414 0.487713
Si Si4 0.277497 0.241320 0.128601
Si Si5 0.322517 0.576078 0.586613
Si Si6 0.458059 0.399173 0.713791
Si Si7 0.670809 0.682067 0.609821
O O1 0.198165 0.710000 0.734417
O O2 0.998849 0.852890 0.806862
O O3 0.216241 0.059283 0.579175
O O4 0.087226 0.046124 0.952127
O O5 0.809546 0.607329 0.895251
O O6 0.029846 0.459071 0.680756
O O7 0.186629 0.428719 0.283803
O O8 0.999194 0.194300 0.503766
O O9 0.322172 0.125330 0.229731
O O10 0.391450 0.321156 0.923173
O O11 0.355072 0.434656 0.694550
O O12 0.440337 0.732562 0.447981
O O13 0.314361 0.434220 0.450690
O O14 0.540209 0.610226 0.672908
#
# Coordination Sequence:
#
# PCOD9118357 Si02
#       7
#     2   2   2   2   2   2   2
#     4  11  28  46  75 109 145 195 250 312 380 463
#     4  11  27  46  78 109 148 198 253 311 387 463
#     4  10  25  48  73 111 153 200 250 311 385 464
#     4  11  27  45  76 107 149 197 248 314 391 451
#     4  11  24  49  74 105 142 193 246 312 380 449
#     4  11  25  46  77 105 140 193 249 312 376 455
#     4  11  26  50  71 106 151 186 252 314 381 461
#
# _framework density 22.837900000000001
#
# number of rings (size 3 to 8) (size 9 to 14) (size 15 to 20)
#    0.000    1.143    1.429    1.714   20.000    0.000 
#    2.571    0.000    0.000    0.000    0.000    0.000 
#    0.000    0.000    0.000    0.000    0.000    0.000 
#
# Total GULP energy -78165.511101 kJ/mol
# GULP energy per Si atom -5583.250793 kJ/mol
# Density = 2.278592 g / cm^3
# Si number density = 22.837900 Si / 1000 Ang^3
#
#
#
# Elastic Constant Matrix: (Units=GPa)
#
#
# Indices 1 2 3 4 5 6 
#
# 1 91.5414 12.0717 2.9632 0.0000 10.8968 0.0000
# 2 12.0717 44.5965 -5.6760 0.0000 1.9478 0.0000
# 3 2.9632 -5.6760 121.2435 0.0000 11.1849 0.0000
# 4 0.0000 0.0000 0.0000 24.7357 0.0000 1.2140
# 5 10.8968 1.9478 11.1849 0.0000 30.9024 0.0000
# 6 0.0000 0.0000 0.0000 1.2140 0.0000 32.4796
#
#
#
# Elastic Compliance Matrix: (Units=1/GPa)
#
#
# Indices 1 2 3 4 5 6 
#
# 1 0.011795 -0.003029 -0.000066 0.000000 -0.003944 0.000000
# 2 -0.003029 0.023440 0.001251 0.000000 -0.000862 0.000000
# 3 -0.000066 0.001251 0.008600 0.000000 -0.003168 0.000000
# 4 0.000000 0.000000 0.000000 0.040502 0.000000 -0.001514
# 5 -0.003944 -0.000862 -0.003168 0.000000 0.034952 0.000000
# 6 0.000000 0.000000 0.000000 -0.001514 0.000000 0.030845
#
#
# Mechanical properties :
#
#
# Convention : Reuss Voigt Hill
#
# Bulk Modulus (GPa) = 24.90846 30.67769 27.79308
# Shear Modulus (GPa) = 29.90342 34.15838 32.03090
#
# Velocity S-wave (km/s) = 3.62246 3.87161 3.74910
# Velocity P-wave (km/s) = 5.33166 5.78340 5.56212
#
# Compressibility (1/GPa) = 0.04014700
#
# Stress axis : x y z
#
# Youngs Moduli (GPa) = 84.78095 42.66209 116.27465
#
# Poissons Ratio (x) = 0.12922 0.00770
# Poissons Ratio (y) = 0.25680 -0.14545
# Poissons Ratio (z) = 0.00561 -0.05337
#
# Static dielectric constant tensor:
#      x y z
#    x 1.905370 0.000000 0.021220 
#    y 0.000000 1.909890 0.000000 
#    z 0.021220 0.000000 1.781450 
# 
# From -- ./inp_files/7182.got.cif
#   From: 2010.05.17/outbox.cif.g08.bks.cpg/sg4_4_cif.got.tgz:7182.got - 2010.06.03 18:43:04.
