data_PCOD9118518
_publ_section_title
;
Structure prediction by ZEFSAII (Michael W. Deem and Ramdas Pophale) SiO2 
 PCOD9118518
Probable space group: P 21
;
_chemical_formula_sum "Si O2"
_cell_formula_units_Z 12
_cell_length_a 14.890359
_cell_length_b 5.905424
_cell_length_c 9.514100
_cell_angle_alpha 90.000000
_cell_angle_beta 138.819394
_cell_angle_gamma 90.000000
_cell_volume 550.854245
_symmetry_space_group_name_H-M "P 21"
_symmetry_group_IT_number 4
_symmetry_cell_setting 'monoclinic'
loop_
_space_group_symop_operation_xyz
x,y,z
-x,1/2+y,-z
loop_
_atom_site_type_symbol
_atom_site_label
_atom_site_fract_x
_atom_site_fract_y
_atom_site_fract_z
Si Si1 0.199469 0.335990 0.352165
Si Si2 0.286906 0.790796 0.986908
Si Si3 0.832661 0.030664 0.391789
Si Si4 0.473273 0.164323 0.544072
Si Si5 0.868759 0.694126 0.178496
Si Si6 0.917037 0.071536 0.030518
O O1 0.234744 0.430395 0.548063
O O2 0.320884 0.201693 0.420878
O O3 0.066087 0.176931 0.204255
O O4 0.155798 0.550642 0.204641
O O5 0.424710 0.680186 0.202226
O O6 0.241982 0.740893 0.773476
O O7 0.171901 0.703838 0.960475
O O8 0.270532 0.055102 0.998035
O O9 0.991294 0.070878 0.614498
O O10 0.837177 0.856961 0.269850
O O11 0.505786 0.409088 0.499052
O O12 0.909233 0.819750 0.084018
#
# Coordination Sequence:
#
# PCOD9118518 Si02
#       6
#     2   2   2   2   2   2
#     4  12  25  45  71 112 140 184 252 308 358 432
#     4  11  24  46  71  99 145 195 230 290 378 443
#     4  11  22  39  67 108 138 184 233 300 360 431
#     4  12  29  53  75 105 149 202 245 302 374 443
#     4  11  20  42  69 102 144 183 235 291 373 428
#     4  11  24  41  71 104 136 184 245 305 351 425
#
# _framework density 21.784348000000001
#
# number of rings (size 3 to 8) (size 9 to 14) (size 15 to 20)
#    0.000    0.667    5.000    3.000    4.667    1.333 
#    3.000    0.000    0.000    0.000    0.000    0.000 
#    0.000    0.000    0.000    0.000    0.000    0.000 
#
# Total GULP energy -66928.682174 kJ/mol
# GULP energy per Si atom -5577.390181 kJ/mol
# Density = 2.173477 g / cm^3
# Si number density = 21.784348 Si / 1000 Ang^3
#
#
#
# Elastic Constant Matrix: (Units=GPa)
#
#
# Indices 1 2 3 4 5 6 
#
# 1 104.9989 14.1932 20.3429 0.0000 -5.0856 0.0000
# 2 14.1932 50.2325 -3.9169 0.0000 -9.8206 0.0000
# 3 20.3429 -3.9169 66.4000 0.0000 -0.6343 0.0000
# 4 0.0000 0.0000 0.0000 31.6016 0.0000 -13.8567
# 5 -5.0856 -9.8206 -0.6343 0.0000 40.9954 0.0000
# 6 0.0000 0.0000 0.0000 -13.8567 0.0000 2.5355
#
#
#
# Elastic Compliance Matrix: (Units=1/GPa)
#
#
# Indices 1 2 3 4 5 6 
#
# 1 0.010645 -0.003177 -0.003444 0.000000 0.000506 0.000000
# 2 -0.003177 0.021943 0.002315 0.000000 0.004898 0.000000
# 3 -0.003444 0.002315 0.016256 0.000000 0.000379 0.000000
# 4 0.000000 0.000000 0.000000 -0.022662 0.000000 -0.123851
# 5 0.000506 0.004898 0.000379 0.000000 0.025635 0.000000
# 6 0.000000 0.000000 0.000000 -0.123851 0.000000 -0.282454
#
#
# Mechanical properties :
#
#
# Convention : Reuss Voigt Hill
#
# Bulk Modulus (GPa) = 24.85668 31.42998 28.14333
# Shear Modulus (GPa) = -23.96779 27.76065 1.89643
#
# Velocity S-wave (km/s) = -3.32057 3.57366 0.93404
# Velocity P-wave (km/s) = 1.80734 5.61134 3.75638
#
# Compressibility (1/GPa) = 0.04023064
#
# Stress axis : x y z
#
# Youngs Moduli (GPa) = 93.93926 45.57198 61.51758
#
# Poissons Ratio (x) = 0.14480 0.21186
# Poissons Ratio (y) = 0.29848 -0.14239
# Poissons Ratio (z) = 0.32352 -0.10548
#
# Static dielectric constant tensor:
#      x y z
#    x 1.747920 0.000000 -0.023310 
#    y 0.000000 2.011300 0.000000 
#    z -0.023310 0.000000 1.889400 
# 
# From -- ./inp_files/8765.got.cif
#   From: 2010.05.17/outbox.cif.g08.bks.cpg/sg4_5_cif.got.tgz:8765.got - 2010.06.03 18:43:04.
