data_PCOD9118761
_publ_section_title
;
Structure prediction by ZEFSAII (Michael W. Deem and Ramdas Pophale) SiO2 
 PCOD9118761
Probable space group: P 21
;
_chemical_formula_sum "Si O2"
_cell_formula_units_Z 14
_cell_length_a 16.341214
_cell_length_b 8.317326
_cell_length_c 11.148143
_cell_angle_alpha 90.000000
_cell_angle_beta 21.476899
_cell_angle_gamma 90.000000
_cell_volume 554.754991
_symmetry_space_group_name_H-M "P 21"
_symmetry_group_IT_number 4
_symmetry_cell_setting 'monoclinic'
loop_
_space_group_symop_operation_xyz
x,y,z
-x,1/2+y,-z
loop_
_atom_site_type_symbol
_atom_site_label
_atom_site_fract_x
_atom_site_fract_y
_atom_site_fract_z
Si Si1 0.358765 0.525210 0.420090
Si Si2 0.788099 0.682989 0.789660
Si Si3 0.992729 0.711722 0.762759
Si Si4 0.427913 0.251474 0.495314
Si Si5 0.885253 0.590970 0.402422
Si Si6 0.236281 0.784682 0.772707
Si Si7 0.468527 0.985334 0.276365
O O1 0.326136 0.355427 0.526547
O O2 0.357687 0.639820 0.538034
O O3 0.180454 0.600880 0.570987
O O4 0.606005 0.539852 0.030534
O O5 0.941359 0.660651 0.696776
O O6 0.906277 0.676951 0.501454
O O7 0.641398 0.845930 0.007728
O O8 0.773625 0.698664 0.144434
O O9 0.043878 0.903156 0.687854
O O10 0.604831 0.342881 0.336966
O O11 0.559569 0.106985 0.251249
O O12 0.629404 0.575748 0.704742
O O13 0.025031 0.699526 0.119188
O O14 0.247971 0.914677 0.649507
#
# Coordination Sequence:
#
# PCOD9118761 Si02
#       7
#     2   2   2   2   2   2   2
#     4  11  24  48  77 112 150 203 259 319 389 454
#     4  11  27  51  73 109 161 200 253 320 390 472
#     4  12  24  48  78 113 157 202 263 322 385 471
#     4  12  24  44  81 114 155 197 261 330 380 456
#     4  12  26  47  79 114 154 204 261 317 397 467
#     4  11  22  46  77 116 149 198 262 322 386 447
#     4  11  25  48  75 112 154 196 259 324 381 459
#
# _framework density 25.236363999999998
#
# number of rings (size 3 to 8) (size 9 to 14) (size 15 to 20)
#    0.000    0.571    7.143    2.571    0.000    2.286 
#    7.714    1.429    0.000    0.000    0.000    0.000 
#    0.000    0.000    0.000    0.000    0.000    0.000 
#
# Total GULP energy -78307.769999 kJ/mol
# GULP energy per Si atom -5593.412143 kJ/mol
# Density = 2.517892 g / cm^3
# Si number density = 25.236364 Si / 1000 Ang^3
#
#
#
# Elastic Constant Matrix: (Units=GPa)
#
#
# Indices 1 2 3 4 5 6 
#
# 1 144.7134 68.5758 30.3703 0.0000 -15.3419 0.0000
# 2 68.5758 70.5569 16.9535 0.0000 9.5132 0.0000
# 3 30.3703 16.9535 52.6741 0.0000 5.5596 0.0000
# 4 0.0000 0.0000 0.0000 27.5846 0.0000 0.2056
# 5 -15.3419 9.5132 5.5596 0.0000 44.7519 0.0000
# 6 0.0000 0.0000 0.0000 0.2056 0.0000 42.1196
#
#
#
# Elastic Compliance Matrix: (Units=1/GPa)
#
#
# Indices 1 2 3 4 5 6 
#
# 1 0.016941 -0.016488 -0.005516 0.000000 0.009998 0.000000
# 2 -0.016488 0.031733 0.000609 0.000000 -0.012474 0.000000
# 3 -0.005516 0.000609 0.022477 0.000000 -0.004813 0.000000
# 4 0.000000 0.000000 0.000000 0.036253 0.000000 -0.000177
# 5 0.009998 -0.012474 -0.004813 0.000000 0.029022 0.000000
# 6 0.000000 0.000000 0.000000 -0.000177 0.000000 0.023743
#
#
# Mechanical properties :
#
#
# Convention : Reuss Voigt Hill
#
# Bulk Modulus (GPa) = 35.25843 55.52705 45.39274
# Shear Modulus (GPa) = 23.53902 33.02755 28.28328
#
# Velocity S-wave (km/s) = 3.05740 3.62156 3.35137
# Velocity P-wave (km/s) = 5.14443 6.28794 5.74471
#
# Compressibility (1/GPa) = 0.02836201
#
# Stress axis : x y z
#
# Youngs Moduli (GPa) = 59.02849 31.51262 44.48994
#
# Poissons Ratio (x) = 0.51958 0.24541
# Poissons Ratio (y) = 0.97326 -0.02711
# Poissons Ratio (z) = 0.32561 -0.01920
#
# Static dielectric constant tensor:
#      x y z
#    x 1.944880 0.000000 -0.042370 
#    y 0.000000 2.100370 0.000000 
#    z -0.042370 0.000000 2.009640 
# 
# From -- ./inp_files/12864.got.cif
#   From: 2010.05.17/outbox.cif.g08.bks.cpg/sg4_7_cif.got.tgz:12864.got - 2010.06.03 18:43:04.
