data_PCOD9118957
_publ_section_title
;
Structure prediction by ZEFSAII (Michael W. Deem and Ramdas Pophale) SiO2 
 PCOD9118957
Probable space group: P 21
;
_chemical_formula_sum "Si O2"
_cell_formula_units_Z 16
_cell_length_a 9.302179
_cell_length_b 8.802113
_cell_length_c 18.038844
_cell_angle_alpha 90.000000
_cell_angle_beta 25.065391
_cell_angle_gamma 90.000000
_cell_volume 625.734282
_symmetry_space_group_name_H-M "P 21"
_symmetry_group_IT_number 4
_symmetry_cell_setting 'monoclinic'
loop_
_space_group_symop_operation_xyz
x,y,z
-x,1/2+y,-z
loop_
_atom_site_type_symbol
_atom_site_label
_atom_site_fract_x
_atom_site_fract_y
_atom_site_fract_z
Si Si1 0.702900 0.357710 0.097682
Si Si2 0.970838 0.196888 0.440176
Si Si3 0.513342 0.867005 0.063415
Si Si4 0.797246 0.259850 0.213173
Si Si5 0.735362 0.139325 0.712846
Si Si6 0.887674 0.184458 0.871776
Si Si7 0.575074 0.001090 0.520967
Si Si8 0.404033 0.986877 0.435675
O O1 0.858371 0.342188 0.106527
O O2 0.589572 0.528728 0.131566
O O3 0.345380 0.265360 0.266897
O O4 0.916007 0.275219 0.935413
O O5 0.874136 0.128640 0.564621
O O6 0.895048 0.084345 0.407613
O O7 0.711283 0.334931 0.549403
O O8 0.356563 0.805223 0.213993
O O9 0.272620 0.801094 0.112162
O O10 0.870250 0.774643 0.892433
O O11 0.630559 0.040540 0.000939
O O12 0.508164 0.352965 0.392060
O O13 0.646845 0.093296 0.274140
O O14 0.040321 0.070213 0.619255
O O15 0.248686 0.110525 0.684246
O O16 0.584065 0.965032 0.430382
#
# Coordination Sequence:
#
# PCOD9118957 Si02
#       8
#     2   2   2   2   2   2   2   2
#     4  11  25  43  68  98 138 172 223 276 334 400
#     4  11  25  42  71  99 133 178 222 275 342 393
#     4  11  26  44  69  95 135 175 225 271 339 394
#     4  11  25  43  66  99 132 174 220 281 332 396
#     4  11  23  46  67  96 138 176 220 281 329 398
#     4  11  26  44  68  99 134 180 221 274 334 404
#     4  11  24  47  66  97 134 177 223 278 335 401
#     4  11  24  43  69  99 134 172 226 278 333 402
#
# _framework density 25.569958
#
# number of rings (size 3 to 8) (size 9 to 14) (size 15 to 20)
#    0.000    1.000    3.750    1.500   10.500    3.000 
#    0.000    0.000    0.000    0.000    0.000    0.000 
#    0.000    0.000    0.000    0.000    0.000    0.000 
#
# Total GULP energy -89741.993472 kJ/mol
# GULP energy per Si atom -5608.874592 kJ/mol
# Density = 2.551176 g / cm^3
# Si number density = 25.569958 Si / 1000 Ang^3
#
#
#
# Elastic Constant Matrix: (Units=GPa)
#
#
# Indices 1 2 3 4 5 6 
#
# 1 112.2741 25.9537 8.5589 0.0000 5.7715 0.0000
# 2 25.9537 81.5113 9.4088 0.0000 -10.4963 0.0000
# 3 8.5589 9.4088 67.4390 0.0000 -21.3111 0.0000
# 4 0.0000 0.0000 0.0000 41.3628 0.0000 -2.5576
# 5 5.7715 -10.4963 -21.3111 0.0000 38.5212 0.0000
# 6 0.0000 0.0000 0.0000 -2.5576 0.0000 30.0130
#
#
#
# Elastic Compliance Matrix: (Units=1/GPa)
#
#
# Indices 1 2 3 4 5 6 
#
# 1 0.010021 -0.003420 -0.001895 0.000000 -0.003482 0.000000
# 2 -0.003420 0.013920 -0.000179 0.000000 0.004206 0.000000
# 3 -0.001895 -0.000179 0.018381 0.000000 0.010404 0.000000
# 4 0.000000 0.000000 0.000000 0.024304 0.000000 0.002071
# 5 -0.003482 0.004206 0.010404 0.000000 0.033384 0.000000
# 6 0.000000 0.000000 0.000000 0.002071 0.000000 0.033495
#
#
# Mechanical properties :
#
#
# Convention : Reuss Voigt Hill
#
# Bulk Modulus (GPa) = 31.91389 38.78525 35.34957
# Shear Modulus (GPa) = 32.27108 36.46627 34.36867
#
# Velocity S-wave (km/s) = 3.55642 3.78052 3.67018
# Velocity P-wave (km/s) = 5.41962 5.85300 5.64047
#
# Compressibility (1/GPa) = 0.03133432
#
# Stress axis : x y z
#
# Youngs Moduli (GPa) = 99.79200 71.84132 54.40265
#
# Poissons Ratio (x) = 0.24572 0.10308
# Poissons Ratio (y) = 0.34132 0.00972
# Poissons Ratio (z) = 0.18909 0.01284
#
# Static dielectric constant tensor:
#      x y z
#    x 1.932800 0.000000 -0.013910 
#    y 0.000000 1.988210 0.000000 
#    z -0.013910 0.000000 2.007530 
# 
# From -- ./inp_files/5408.got.cif
#   From: 2010.05.17/outbox.cif.g08.bks.cpg/sg4_3_cif.got.tgz:5408.got - 2010.06.03 18:43:04.
