data_PCOD9118347
_publ_section_title
;
Structure prediction by ZEFSAII (Michael W. Deem and Ramdas Pophale) SiO2 
 PCOD9118347
Probable space group: P 21
;
_chemical_formula_sum "Si O2"
_cell_formula_units_Z 12
_cell_length_a 8.539791
_cell_length_b 7.525747
_cell_length_c 7.232276
_cell_angle_alpha 90.000000
_cell_angle_beta 108.875763
_cell_angle_gamma 90.000000
_cell_volume 439.809924
_symmetry_space_group_name_H-M "P 21"
_symmetry_group_IT_number 4
_symmetry_cell_setting 'monoclinic'
loop_
_space_group_symop_operation_xyz
x,y,z
-x,1/2+y,-z
loop_
_atom_site_type_symbol
_atom_site_label
_atom_site_fract_x
_atom_site_fract_y
_atom_site_fract_z
Si Si1 0.749427 0.382340 0.398033
Si Si2 0.286643 0.400185 0.714253
Si Si3 0.196446 0.381810 0.056615
Si Si4 0.390301 0.038689 0.035375
Si Si5 0.630166 0.236492 0.724075
Si Si6 0.929888 0.726478 0.640794
O O1 0.661758 0.457234 0.180648
O O2 0.640932 0.280322 0.510956
O O3 0.837756 0.550282 0.533695
O O4 0.891987 0.250950 0.380980
O O5 0.439368 0.258816 0.720723
O O6 0.183595 0.384855 0.489998
O O7 0.145312 0.398394 0.822079
O O8 0.414278 0.540959 0.847958
O O9 0.335575 0.235115 0.064477
O O10 0.276426 0.558889 0.175465
O O11 0.072301 0.279019 0.144823
O O12 0.298171 0.908267 0.143918
#
# Coordination Sequence:
#
# PCOD9118347 Si02
#       6
#     2   2   2   2   2   2
#     4  12  26  53  70 114 156 202 253 311 386 458
#     4  10  25  47  76 113 145 200 256 313 375 457
#     4  12  23  47  77 114 147 197 252 312 380 447
#     4  10  25  49  75 108 151 195 249 316 366 455
#     4  10  26  44  81 111 147 195 253 314 377 445
#     4  12  27  46  77 106 154 201 251 312 380 458
#
# _framework density 27.284514000000001
#
# number of rings (size 3 to 8) (size 9 to 14) (size 15 to 20)
#    1.000    0.000    3.333    2.000    2.333    5.333 
#    3.000    0.000    0.000    0.000    0.000    0.000 
#    0.000    0.000    0.000    0.000    0.000    0.000 
#
# Total GULP energy -66975.266581 kJ/mol
# GULP energy per Si atom -5581.272215 kJ/mol
# Density = 2.722241 g / cm^3
# Si number density = 27.284514 Si / 1000 Ang^3
#
#
#
# Elastic Constant Matrix: (Units=GPa)
#
#
# Indices 1 2 3 4 5 6 
#
# 1 70.6892 24.7170 53.6354 0.0000 -31.5786 0.0000
# 2 24.7170 137.0032 41.6538 0.0000 -10.3084 0.0000
# 3 53.6354 41.6538 144.6259 0.0000 -28.2519 0.0000
# 4 0.0000 0.0000 0.0000 23.9229 0.0000 -15.3785
# 5 -31.5786 -10.3084 -28.2519 0.0000 66.3358 0.0000
# 6 0.0000 0.0000 0.0000 -15.3785 0.0000 35.7533
#
#
#
# Elastic Compliance Matrix: (Units=1/GPa)
#
#
# Indices 1 2 3 4 5 6 
#
# 1 0.023312 -0.001589 -0.006619 0.000000 0.008032 0.000000
# 2 -0.001589 0.008113 -0.001798 0.000000 -0.000262 0.000000
# 3 -0.006619 -0.001798 0.010053 0.000000 0.000851 0.000000
# 4 0.000000 0.000000 0.000000 0.057776 0.000000 0.024851
# 5 0.008032 -0.000262 0.000851 0.000000 0.019220 0.000000
# 6 0.000000 0.000000 0.000000 0.024851 0.000000 0.038659
#
#
# Mechanical properties :
#
#
# Convention : Reuss Voigt Hill
#
# Bulk Modulus (GPa) = 46.58614 65.81451 56.20032
# Shear Modulus (GPa) = 27.12955 40.68987 33.90971
#
# Velocity S-wave (km/s) = 3.15671 3.86595 3.52919
# Velocity P-wave (km/s) = 5.51341 6.64088 6.10324
#
# Compressibility (1/GPa) = 0.02146561
#
# Stress axis : x y z
#
# Youngs Moduli (GPa) = 42.89628 123.26087 99.47011
#
# Poissons Ratio (x) = 0.19587 0.65837
# Poissons Ratio (y) = 0.06817 0.17889
# Poissons Ratio (z) = 0.28392 0.22167
#
# Static dielectric constant tensor:
#      x y z
#    x 2.121030 0.000000 0.016990 
#    y 0.000000 2.402710 0.000000 
#    z 0.016990 0.000000 2.243320 
# 
# From -- ./inp_files/5460.got.cif
#   From: 2010.05.17/outbox.cif.g08.bks.cpg/sg4_3_cif.got.tgz:5460.got - 2010.06.03 18:43:04.
