data_PCOD9118040
_publ_section_title
;
Structure prediction by ZEFSAII (Michael W. Deem and Ramdas Pophale) SiO2 
 PCOD9118040
Probable space group: P 21
;
_chemical_formula_sum "Si O2"
_cell_formula_units_Z 16
_cell_length_a 9.558194
_cell_length_b 7.932191
_cell_length_c 11.765994
_cell_angle_alpha 90.000000
_cell_angle_beta 134.199725
_cell_angle_gamma 90.000000
_cell_volume 639.535505
_symmetry_space_group_name_H-M "P 21"
_symmetry_group_IT_number 4
_symmetry_cell_setting 'monoclinic'
loop_
_space_group_symop_operation_xyz
x,y,z
-x,1/2+y,-z
loop_
_atom_site_type_symbol
_atom_site_label
_atom_site_fract_x
_atom_site_fract_y
_atom_site_fract_z
Si Si1 0.312090 0.908210 0.161668
Si Si2 0.049837 0.216325 0.019054
Si Si3 0.093163 0.933466 0.655306
Si Si4 0.885354 0.292687 0.578787
Si Si5 0.776800 0.912917 0.077096
Si Si6 0.556038 0.082626 0.499465
Si Si7 0.577389 0.272675 0.006899
Si Si8 0.199144 0.267964 0.351296
O O1 0.446377 0.996040 0.330380
O O2 0.146473 0.043861 0.029479
O O3 0.439376 0.851856 0.127479
O O4 0.177221 0.755726 0.131101
O O5 0.080662 0.212600 0.172449
O O6 0.172063 0.360890 0.022354
O O7 0.141672 0.890136 0.553711
O O8 0.277869 0.888774 0.837295
O O9 0.929171 0.806751 0.612431
O O10 0.002736 0.118648 0.618930
O O11 0.021224 0.398225 0.740136
O O12 0.684560 0.236043 0.523594
O O13 0.674803 0.090681 0.043694
O O14 0.626467 0.776312 0.043479
O O15 0.702119 0.944633 0.629390
O O16 0.380542 0.146034 0.477940
#
# Coordination Sequence:
#
# PCOD9118040 Si02
#       8
#     2   2   2   2   2   2   2   2
#     4  11  24  45  71 105 147 187 247 296 365 434
#     4  11  24  44  70 104 140 190 240 302 365 426
#     4  11  24  46  69 102 144 189 243 298 364 430
#     4  11  26  47  71 105 144 194 241 302 363 436
#     4  12  28  45  74 107 142 193 244 303 370 431
#     4  10  26  44  70 104 144 189 238 298 356 438
#     4  12  26  47  72 107 145 191 246 305 362 435
#     4  10  24  44  67 102 142 189 235 300 357 428
#
# _framework density 25.018156000000001
#
# number of rings (size 3 to 8) (size 9 to 14) (size 15 to 20)
#    0.000    1.000    1.250    3.750   14.000    2.000 
#    0.000    0.000    0.000    0.000    0.000    0.000 
#    0.000    0.000    0.000    0.000    0.000    0.000 
#
# Total GULP energy -89726.728336 kJ/mol
# GULP energy per Si atom -5607.920521 kJ/mol
# Density = 2.496121 g / cm^3
# Si number density = 25.018156 Si / 1000 Ang^3
#
#
#
# Elastic Constant Matrix: (Units=GPa)
#
#
# Indices 1 2 3 4 5 6 
#
# 1 113.3561 7.2241 29.7221 0.0000 4.4068 0.0000
# 2 7.2241 84.5944 16.3480 0.0000 -7.3822 0.0000
# 3 29.7221 16.3480 56.9685 0.0000 4.9828 0.0000
# 4 0.0000 0.0000 0.0000 44.3333 0.0000 6.8676
# 5 4.4068 -7.3822 4.9828 0.0000 36.4947 0.0000
# 6 0.0000 0.0000 0.0000 6.8676 0.0000 43.3475
#
#
#
# Elastic Compliance Matrix: (Units=1/GPa)
#
#
# Indices 1 2 3 4 5 6 
#
# 1 0.010230 0.000114 -0.005328 0.000000 -0.000485 0.000000
# 2 0.000114 0.012863 -0.004025 0.000000 0.003138 0.000000
# 3 -0.005328 -0.004025 0.021763 0.000000 -0.003142 0.000000
# 4 0.000000 0.000000 0.000000 0.023124 0.000000 -0.003664
# 5 -0.000485 0.003138 -0.003142 0.000000 0.028524 0.000000
# 6 0.000000 0.000000 0.000000 -0.003664 0.000000 0.023650
#
#
# Mechanical properties :
#
#
# Convention : Reuss Voigt Hill
#
# Bulk Modulus (GPa) = 37.90984 40.16749 39.03866
# Shear Modulus (GPa) = 33.91567 38.27673 36.09620
#
# Velocity S-wave (km/s) = 3.68590 3.91571 3.80254
# Velocity P-wave (km/s) = 5.77064 6.04433 5.90907
#
# Compressibility (1/GPa) = 0.02637838
#
# Stress axis : x y z
#
# Youngs Moduli (GPa) = 97.74909 77.74193 45.94955
#
# Poissons Ratio (x) = -0.00883 0.24480
# Poissons Ratio (y) = -0.01111 0.18495
# Poissons Ratio (z) = 0.52077 0.31291
#
# Static dielectric constant tensor:
#      x y z
#    x 1.905400 0.000000 0.039760 
#    y 0.000000 2.060080 0.000000 
#    z 0.039760 0.000000 1.933620 
# 
# From -- ./inp_files/11090.got.cif
#   From: 2010.05.17/outbox.cif.g08.bks.cpg/sg4_6_cif.got.tgz:11090.got - 2010.06.03 18:43:04.
