data_PCOD9118921
_publ_section_title
;
Structure prediction by ZEFSAII (Michael W. Deem and Ramdas Pophale) SiO2 
 PCOD9118921
Probable space group: P 21
;
_chemical_formula_sum "Si O2"
_cell_formula_units_Z 12
_cell_length_a 5.304302
_cell_length_b 6.959528
_cell_length_c 13.488992
_cell_angle_alpha 90.000000
_cell_angle_beta 97.357054
_cell_angle_gamma 90.000000
_cell_volume 493.852623
_symmetry_space_group_name_H-M "P 21"
_symmetry_group_IT_number 4
_symmetry_cell_setting 'monoclinic'
loop_
_space_group_symop_operation_xyz
x,y,z
-x,1/2+y,-z
loop_
_atom_site_type_symbol
_atom_site_label
_atom_site_fract_x
_atom_site_fract_y
_atom_site_fract_z
Si Si1 0.830000 0.604550 0.392207
Si Si2 0.591999 0.061277 0.753382
Si Si3 0.899051 0.408658 0.705258
Si Si4 0.743870 0.029125 0.110650
Si Si5 0.233609 0.265844 0.072119
Si Si6 0.233476 0.288572 0.411911
O O1 0.707051 0.587721 0.275812
O O2 0.034328 0.771474 0.382199
O O3 0.680672 0.700357 0.477948
O O4 0.968092 0.402161 0.417262
O O5 0.697850 0.935509 0.847356
O O6 0.625872 0.943766 0.650476
O O7 0.720591 0.269757 0.760843
O O8 0.147408 0.475165 0.777100
O O9 0.779862 0.602994 0.658770
O O10 0.461781 0.114192 0.096786
O O11 0.956540 0.179694 0.080747
O O12 0.754165 0.849249 0.037439
#
# Coordination Sequence:
#
# PCOD9118921 Si02
#       6
#     2   2   2   2   2   2
#     4  11  25  41  70  97 146 186 243 297 358 434
#     4  11  27  42  71 102 142 184 246 298 362 433
#     4  11  25  45  70 102 142 188 238 298 363 425
#     4  12  27  48  78 107 150 189 241 302 365 436
#     4  12  27  49  76 110 146 191 241 301 366 437
#     4  11  23  45  63 106 138 190 237 298 362 425
#
# _framework density 24.298748
#
# number of rings (size 3 to 8) (size 9 to 14) (size 15 to 20)
#    0.000    0.667    3.333    3.000    9.333    1.333 
#    0.000    0.000    0.000    0.000    0.000    0.000 
#    0.000    0.000    0.000    0.000    0.000    0.000 
#
# Total GULP energy -67008.084734 kJ/mol
# GULP energy per Si atom -5584.007061 kJ/mol
# Density = 2.424344 g / cm^3
# Si number density = 24.298748 Si / 1000 Ang^3
#
#
#
# Elastic Constant Matrix: (Units=GPa)
#
#
# Indices 1 2 3 4 5 6 
#
# 1 25.0504 -1.6680 -8.6464 0.0000 2.3782 0.0000
# 2 -1.6680 112.2830 11.0954 0.0000 -2.6901 0.0000
# 3 -8.6464 11.0954 46.6690 0.0000 4.1480 0.0000
# 4 0.0000 0.0000 0.0000 54.1462 0.0000 6.8036
# 5 2.3782 -2.6901 4.1480 0.0000 27.6910 0.0000
# 6 0.0000 0.0000 0.0000 6.8036 0.0000 43.6083
#
#
#
# Elastic Compliance Matrix: (Units=1/GPa)
#
#
# Indices 1 2 3 4 5 6 
#
# 1 0.043328 -0.000322 0.008551 0.000000 -0.005033 0.000000
# 2 -0.000322 0.009164 -0.002351 0.000000 0.001270 0.000000
# 3 0.008551 -0.002351 0.023976 0.000000 -0.004554 0.000000
# 4 0.000000 0.000000 0.000000 0.018838 0.000000 -0.002939
# 5 -0.005033 0.001270 -0.004554 0.000000 0.037351 0.000000
# 6 0.000000 0.000000 0.000000 -0.002939 0.000000 0.023390
#
#
# Mechanical properties :
#
#
# Convention : Reuss Voigt Hill
#
# Bulk Modulus (GPa) = 11.33486 20.61824 15.97655
# Shear Modulus (GPa) = 28.78570 37.30386 33.04478
#
# Velocity S-wave (km/s) = 3.44562 3.92244 3.69173
# Velocity P-wave (km/s) = 4.52821 5.38681 4.97606
#
# Compressibility (1/GPa) = 0.08822341
#
# Stress axis : x y z
#
# Youngs Moduli (GPa) = 23.07999 109.12195 41.70904
#
# Poissons Ratio (x) = 0.03513 -0.35667
# Poissons Ratio (y) = 0.00743 0.09807
# Poissons Ratio (z) = -0.19736 0.25657
#
# Static dielectric constant tensor:
#      x y z
#    x 2.150670 0.000000 -0.021390 
#    y 0.000000 1.925520 0.000000 
#    z -0.021390 0.000000 1.920070 
# 
# From -- ./inp_files/3284.got.cif
#   From: 2010.05.17/outbox.cif.g08.bks.cpg/sg4_2_cif.got.tgz:3284.got - 2010.06.03 18:43:04.
