data_PCOD9118964
_publ_section_title
;
Structure prediction by ZEFSAII (Michael W. Deem and Ramdas Pophale) SiO2 
 PCOD9118964
Probable space group: P 21
;
_chemical_formula_sum "Si O2"
_cell_formula_units_Z 16
_cell_length_a 9.190660
_cell_length_b 11.523858
_cell_length_c 7.290161
_cell_angle_alpha 90.000000
_cell_angle_beta 57.828516
_cell_angle_gamma 90.000000
_cell_volume 653.562720
_symmetry_space_group_name_H-M "P 21"
_symmetry_group_IT_number 4
_symmetry_cell_setting 'monoclinic'
loop_
_space_group_symop_operation_xyz
x,y,z
-x,1/2+y,-z
loop_
_atom_site_type_symbol
_atom_site_label
_atom_site_fract_x
_atom_site_fract_y
_atom_site_fract_z
Si Si1 0.929029 0.030380 0.774165
Si Si2 0.552561 0.194838 0.516380
Si Si3 0.513181 0.584399 0.799055
Si Si4 0.767191 0.763279 0.735572
Si Si5 0.781558 0.837142 0.124408
Si Si6 0.950376 0.296398 0.748115
Si Si7 0.359207 0.506263 0.271947
Si Si8 0.748097 0.388572 0.577463
O O1 0.932719 0.163816 0.825109
O O2 0.843170 0.028387 0.628083
O O3 0.107674 0.961522 0.631060
O O4 0.802178 0.960869 0.999909
O O5 0.577242 0.165380 0.287899
O O6 0.376833 0.269621 0.667341
O O7 0.559151 0.067193 0.607943
O O8 0.704674 0.268545 0.505311
O O9 0.696879 0.644892 0.706452
O O10 0.568380 0.458691 0.692033
O O11 0.938776 0.788549 0.512139
O O12 0.634377 0.868047 0.769817
O O13 0.800010 0.758450 0.929387
O O14 0.437664 0.577775 0.050752
O O15 0.932375 0.850713 0.172553
O O16 0.789616 0.363667 0.766100
#
# Coordination Sequence:
#
# PCOD9118964 Si02
#       8
#     2   2   2   2   2   2   2   2
#     4  11  24  46  69 109 146 188 244 303 363 444
#     4  12  26  47  74 105 145 199 245 303 371 433
#     4  12  27  46  73 108 150 190 250 303 366 441
#     4  11  23  46  72 102 150 188 240 306 366 426
#     4  11  24  45  73 104 146 193 250 297 366 440
#     4  12  24  48  73 106 152 195 235 312 374 429
#     4  11  25  43  69 103 144 190 245 306 356 435
#     4  12  25  47  75 107 147 193 249 296 374 440
#
# _framework density 24.481200999999999
#
# number of rings (size 3 to 8) (size 9 to 14) (size 15 to 20)
#    0.000    0.500    7.500    1.500    1.750    4.000 
#    2.250    0.000    0.000    0.000    0.000    0.000 
#    0.000    0.000    0.000    0.000    0.000    0.000 
#
# Total GULP energy -89227.968305 kJ/mol
# GULP energy per Si atom -5576.748019 kJ/mol
# Density = 2.442548 g / cm^3
# Si number density = 24.481201 Si / 1000 Ang^3
#
#
#
# Elastic Constant Matrix: (Units=GPa)
#
#
# Indices 1 2 3 4 5 6 
#
# 1 89.2863 17.7686 14.1824 0.0000 19.4565 0.0000
# 2 17.7686 64.3752 17.0684 0.0000 -1.8860 0.0000
# 3 14.1824 17.0684 86.6701 0.0000 1.7045 0.0000
# 4 0.0000 0.0000 0.0000 27.8974 0.0000 0.1765
# 5 19.4565 -1.8860 1.7045 0.0000 36.5550 0.0000
# 6 0.0000 0.0000 0.0000 0.1765 0.0000 39.0618
#
#
#
# Elastic Compliance Matrix: (Units=1/GPa)
#
#
# Indices 1 2 3 4 5 6 
#
# 1 0.013771 -0.003651 -0.001388 0.000000 -0.007453 0.000000
# 2 -0.003651 0.017394 -0.002887 0.000000 0.002976 0.000000
# 3 -0.001388 -0.002887 0.012333 0.000000 0.000015 0.000000
# 4 0.000000 0.000000 0.000000 0.035847 0.000000 -0.000162
# 5 -0.007453 0.002976 0.000015 0.000000 0.031476 0.000000
# 6 0.000000 0.000000 0.000000 -0.000162 0.000000 0.025601
#
#
# Mechanical properties :
#
#
# Convention : Reuss Voigt Hill
#
# Bulk Modulus (GPa) = 36.17008 37.59670 36.88339
# Shear Modulus (GPa) = 30.96164 33.45696 32.20930
#
# Velocity S-wave (km/s) = 3.56014 3.70082 3.63116
# Velocity P-wave (km/s) = 5.63082 5.80105 5.71657
#
# Compressibility (1/GPa) = 0.02764716
#
# Stress axis : x y z
#
# Youngs Moduli (GPa) = 72.61511 57.49001 81.08143
#
# Poissons Ratio (x) = 0.20992 0.11252
# Poissons Ratio (y) = 0.26515 0.23405
# Poissons Ratio (z) = 0.10078 0.16595
#
# Static dielectric constant tensor:
#      x y z
#    x 2.046280 0.000000 -0.085580 
#    y 0.000000 2.019930 0.000000 
#    z -0.085580 0.000000 1.936950 
# 
# From -- ./inp_files/6223.got.cif
#   From: 2010.05.17/outbox.cif.g08.bks.cpg/sg4_4_cif.got.tgz:6223.got - 2010.06.03 18:43:04.
