data_PCOD9118879
_publ_section_title
;
Structure prediction by ZEFSAII (Michael W. Deem and Ramdas Pophale) SiO2 
 PCOD9118879
Probable space group: P 21
;
_chemical_formula_sum "Si O2"
_cell_formula_units_Z 14
_cell_length_a 5.045732
_cell_length_b 5.210113
_cell_length_c 19.220134
_cell_angle_alpha 90.000000
_cell_angle_beta 93.584635
_cell_angle_gamma 90.000000
_cell_volume 504.286355
_symmetry_space_group_name_H-M "P 21"
_symmetry_group_IT_number 4
_symmetry_cell_setting 'monoclinic'
loop_
_space_group_symop_operation_xyz
x,y,z
-x,1/2+y,-z
loop_
_atom_site_type_symbol
_atom_site_label
_atom_site_fract_x
_atom_site_fract_y
_atom_site_fract_z
Si Si1 0.434517 0.870780 0.584029
Si Si2 0.507943 0.891741 0.877821
Si Si3 0.070352 0.382219 0.699429
Si Si4 0.090621 0.086865 0.042004
Si Si5 0.217573 0.863197 0.443776
Si Si6 0.438389 0.180314 0.274695
Si Si7 0.997427 0.722799 0.151142
O O1 0.182486 0.856053 0.527287
O O2 0.618041 0.621610 0.570805
O O3 0.415563 0.861844 0.666684
O O4 0.591922 0.124444 0.567789
O O5 0.023951 0.506524 0.883200
O O6 0.517997 0.757419 0.803117
O O7 0.733540 0.107916 0.873795
O O8 0.612900 0.692477 0.937467
O O9 0.012108 0.330135 0.617244
O O10 0.866955 0.621680 0.711892
O O11 0.994181 0.211510 0.764972
O O12 0.381587 0.428322 0.712931
O O13 0.050235 0.824401 0.998725
O O14 0.241905 0.051452 0.879880
#
# Coordination Sequence:
#
# PCOD9118879 Si02
#       7
#     2   2   2   2   2   2   2
#     4   9  19  39  67 102 147 197 250 312 379 445
#     4  12  27  51  82 118 159 208 261 322 389 474
#     4  11  23  43  73 109 150 201 255 318 381 455
#     4  12  28  58  84 124 162 210 260 332 402 486
#     4   9  19  39  67 102 147 197 250 312 379 445
#     4  11  23  43  73 109 150 201 255 318 381 455
#     4  12  27  51  82 118 159 208 261 322 389 474
#
# _framework density 27.762001000000001
#
# number of rings (size 3 to 8) (size 9 to 14) (size 15 to 20)
#    0.000    1.143    2.857    2.571    0.000    2.286 
#    5.143   12.857    0.000    0.000    0.000    0.000 
#    0.000    0.000    0.000    0.000    0.000    0.000 
#
# Total GULP energy -78423.812857 kJ/mol
# GULP energy per Si atom -5601.700918 kJ/mol
# Density = 2.769881 g / cm^3
# Si number density = 27.762001 Si / 1000 Ang^3
#
#
#
# Elastic Constant Matrix: (Units=GPa)
#
#
# Indices 1 2 3 4 5 6 
#
# 1 96.5899 37.1749 46.4706 0.0000 13.7039 0.0000
# 2 37.1749 154.4285 51.9648 0.0000 12.6957 0.0000
# 3 46.4706 51.9648 187.2303 0.0000 37.0192 0.0000
# 4 0.0000 0.0000 0.0000 75.5987 0.0000 2.5642
# 5 13.7039 12.6957 37.0192 0.0000 46.7030 0.0000
# 6 0.0000 0.0000 0.0000 2.5642 0.0000 35.2663
#
#
#
# Elastic Compliance Matrix: (Units=1/GPa)
#
#
# Indices 1 2 3 4 5 6 
#
# 1 0.012435 -0.002134 -0.002238 0.000000 -0.001295 0.000000
# 2 -0.002134 0.007516 -0.001514 0.000000 -0.000217 0.000000
# 3 -0.002238 -0.001514 0.007240 0.000000 -0.004671 0.000000
# 4 0.000000 0.000000 0.000000 0.013260 0.000000 -0.000964
# 5 -0.001295 -0.000217 -0.004671 0.000000 0.025553 0.000000
# 6 0.000000 0.000000 0.000000 -0.000964 0.000000 0.028426
#
#
# Mechanical properties :
#
#
# Convention : Reuss Voigt Hill
#
# Bulk Modulus (GPa) = 64.84972 78.82992 71.83982
# Shear Modulus (GPa) = 44.90689 51.68948 48.29818
#
# Velocity S-wave (km/s) = 4.02626 4.31963 4.17552
# Velocity P-wave (km/s) = 6.71001 7.30311 7.01284
#
# Compressibility (1/GPa) = 0.01542027
#
# Stress axis : x y z
#
# Youngs Moduli (GPa) = 80.41976 133.04376 138.12015
#
# Poissons Ratio (x) = 0.28389 0.30913
# Poissons Ratio (y) = 0.17160 0.20905
# Poissons Ratio (z) = 0.17999 0.20136
#
# Static dielectric constant tensor:
#      x y z
#    x 2.110780 0.000000 -0.008850 
#    y 0.000000 2.219750 0.000000 
#    z -0.008850 0.000000 2.292570 
# 
# From -- ./inp_files/3926.got.cif
#   From: 2010.05.17/outbox.cif.g08.bks.cpg/sg4_2_cif.got.tgz:3926.got - 2010.06.03 18:43:04.
