data_PCOD9118257
_publ_section_title
;
Structure prediction by ZEFSAII (Michael W. Deem and Ramdas Pophale) SiO2 
 PCOD9118257
Probable space group: P 21
;
_chemical_formula_sum "Si O2"
_cell_formula_units_Z 16
_cell_length_a 15.531954
_cell_length_b 8.552637
_cell_length_c 11.694825
_cell_angle_alpha 90.000000
_cell_angle_beta 28.838603
_cell_angle_gamma 90.000000
_cell_volume 749.336214
_symmetry_space_group_name_H-M "P 21"
_symmetry_group_IT_number 4
_symmetry_cell_setting 'monoclinic'
loop_
_space_group_symop_operation_xyz
x,y,z
-x,1/2+y,-z
loop_
_atom_site_type_symbol
_atom_site_label
_atom_site_fract_x
_atom_site_fract_y
_atom_site_fract_z
Si Si1 0.733283 0.217840 0.793343
Si Si2 0.171408 0.233643 0.549478
Si Si3 0.267367 0.062571 0.852549
Si Si4 0.381432 0.075175 0.108807
Si Si5 0.785075 0.212656 0.999600
Si Si6 0.109394 0.601362 0.611993
Si Si7 0.473056 0.728165 0.284344
Si Si8 0.580794 0.568664 0.569807
O O1 0.658691 0.394217 0.867748
O O2 0.795085 0.196231 0.850521
O O3 0.877497 0.183919 0.526934
O O4 0.570228 0.101561 0.953042
O O5 0.231640 0.147221 0.364496
O O6 0.136473 0.415373 0.565584
O O7 0.981353 0.171348 0.816597
O O8 0.328196 0.201853 0.457978
O O9 0.299151 0.045665 0.681262
O O10 0.425846 0.164388 0.722377
O O11 0.263875 0.890594 0.912411
O O12 0.076239 0.133825 0.109389
O O13 0.406292 0.171571 0.962718
O O14 0.619212 0.111920 0.234147
O O15 0.279119 0.655234 0.487853
O O16 0.437992 0.911606 0.334950
#
# Coordination Sequence:
#
# PCOD9118257 Si02
#       8
#     2   2   2   2   2   2   2   2
#     4  11  22  39  69 101 142 173 221 280 345 407
#     4  11  24  42  67 100 137 176 222 282 340 403
#     4  11  25  48  67  97 138 182 234 283 334 410
#     4  11  21  40  67 100 141 172 219 279 342 407
#     4  11  25  44  68 102 133 181 230 282 339 405
#     4  10  25  41  67 102 133 178 221 282 343 399
#     4  11  24  42  69 100 133 180 228 280 344 404
#     4  12  26  44  70  98 137 184 231 280 345 407
#
# _framework density 21.352229999999999
#
# number of rings (size 3 to 8) (size 9 to 14) (size 15 to 20)
#    0.000    1.000    2.500    4.500    3.500    5.000 
#    0.000    0.000    0.000    0.000    0.000    0.000 
#    0.000    0.000    0.000    0.000    0.000    0.000 
#
# Total GULP energy -89497.598765 kJ/mol
# GULP energy per Si atom -5593.599923 kJ/mol
# Density = 2.130363 g / cm^3
# Si number density = 21.352230 Si / 1000 Ang^3
#
#
#
# Elastic Constant Matrix: (Units=GPa)
#
#
# Indices 1 2 3 4 5 6 
#
# 1 45.9626 6.6530 18.4239 0.0000 16.1139 0.0000
# 2 6.6530 36.3129 23.3830 0.0000 16.9226 0.0000
# 3 18.4239 23.3830 132.1135 0.0000 13.0270 0.0000
# 4 0.0000 0.0000 0.0000 13.0305 0.0000 -5.5789
# 5 16.1139 16.9226 13.0270 0.0000 29.9215 0.0000
# 6 0.0000 0.0000 0.0000 -5.5789 0.0000 20.6927
#
#
#
# Elastic Compliance Matrix: (Units=1/GPa)
#
#
# Indices 1 2 3 4 5 6 
#
# 1 0.028060 0.004434 -0.003093 0.000000 -0.016272 0.000000
# 2 0.004434 0.041164 -0.005614 0.000000 -0.023225 0.000000
# 3 -0.003093 -0.005614 0.008899 0.000000 0.000967 0.000000
# 4 0.000000 0.000000 0.000000 0.086757 0.000000 0.023390
# 5 -0.016272 -0.023225 0.000967 0.000000 0.054899 0.000000
# 6 0.000000 0.000000 0.000000 0.023390 0.000000 0.054632
#
#
# Mechanical properties :
#
#
# Convention : Reuss Voigt Hill
#
# Bulk Modulus (GPa) = 14.37257 34.58986 24.48122
# Shear Modulus (GPa) = 16.33188 23.79090 20.06139
#
# Velocity S-wave (km/s) = 2.76865 3.34160 3.06853
# Velocity P-wave (km/s) = 4.11902 5.57882 4.90355
#
# Compressibility (1/GPa) = 0.06957698
#
# Stress axis : x y z
#
# Youngs Moduli (GPa) = 35.63813 24.29282 112.37268
#
# Poissons Ratio (x) = -0.10772 0.34761
# Poissons Ratio (y) = -0.15803 0.63087
# Poissons Ratio (z) = 0.11024 0.13638
#
# Static dielectric constant tensor:
#      x y z
#    x 1.773190 0.000000 -0.003220 
#    y 0.000000 1.771550 0.000000 
#    z -0.003220 0.000000 1.774400 
# 
# From -- ./inp_files/12547.got.cif
#   From: 2010.05.17/outbox.cif.g08.bks.cpg/sg4_7_cif.got.tgz:12547.got - 2010.06.03 18:43:04.
