data_PCOD9118548
_publ_section_title
;
Structure prediction by ZEFSAII (Michael W. Deem and Ramdas Pophale) SiO2 
 PCOD9118548
Probable space group: P 21
;
_chemical_formula_sum "Si O2"
_cell_formula_units_Z 14
_cell_length_a 12.357181
_cell_length_b 7.252368
_cell_length_c 11.416175
_cell_angle_alpha 90.000000
_cell_angle_beta 44.504197
_cell_angle_gamma 90.000000
_cell_volume 717.156649
_symmetry_space_group_name_H-M "P 21"
_symmetry_group_IT_number 4
_symmetry_cell_setting 'monoclinic'
loop_
_space_group_symop_operation_xyz
x,y,z
-x,1/2+y,-z
loop_
_atom_site_type_symbol
_atom_site_label
_atom_site_fract_x
_atom_site_fract_y
_atom_site_fract_z
Si Si1 0.319876 0.248480 0.514649
Si Si2 0.394037 0.313683 0.807988
Si Si3 0.846076 0.094110 0.113461
Si Si4 0.316731 0.993930 0.040492
Si Si5 0.391624 0.864027 0.571516
Si Si6 0.015247 0.881006 0.168328
Si Si7 0.464378 0.142020 0.159521
O O1 0.461608 0.369139 0.454868
O O2 0.359625 0.196994 0.351163
O O3 0.153973 0.339307 0.652553
O O4 0.324535 0.063982 0.591615
O O5 0.253546 0.416258 0.849316
O O6 0.352412 0.123686 0.901550
O O7 0.534404 0.295766 0.607974
O O8 0.445811 0.459480 0.867289
O O9 0.731965 0.229569 0.273456
O O10 0.910685 0.203639 0.952460
O O11 0.984595 0.029830 0.089655
O O12 0.415730 0.807083 0.954888
O O13 0.367526 0.096959 0.118919
O O14 0.136119 0.948991 0.170784
#
# Coordination Sequence:
#
# PCOD9118548 Si02
#       7
#     2   2   2   2   2   2   2
#     4  11  23  40  63 100 136 172 215 273 332 396
#     4  11  23  40  70 101 126 169 226 276 321 385
#     4  12  23  40  63 103 140 169 215 271 336 405
#     4  12  25  44  71  94 131 177 228 276 323 388
#     4  11  21  39  66  95 136 168 220 262 327 397
#     4  12  25  39  63  99 141 172 209 274 346 383
#     4  11  24  46  68  94 128 179 235 264 315 398
#
# _framework density 19.521536999999999
#
# number of rings (size 3 to 8) (size 9 to 14) (size 15 to 20)
#    0.000    0.571    7.143    1.714    6.000    0.000 
#    0.000    5.714    0.000    0.000    0.000    0.000 
#    0.000    0.000    0.000    0.000    0.000    0.000 
#
# Total GULP energy -78306.855488 kJ/mol
# GULP energy per Si atom -5593.346821 kJ/mol
# Density = 1.947711 g / cm^3
# Si number density = 19.521537 Si / 1000 Ang^3
#
#
#
# Elastic Constant Matrix: (Units=GPa)
#
#
# Indices 1 2 3 4 5 6 
#
# 1 139.7595 42.4191 33.7382 0.0000 -13.8695 0.0000
# 2 42.4191 71.3552 13.5924 0.0000 -7.2180 0.0000
# 3 33.7382 13.5924 53.2625 0.0000 -5.2607 0.0000
# 4 0.0000 0.0000 0.0000 31.9689 0.0000 2.9447
# 5 -13.8695 -7.2180 -5.2607 0.0000 22.2694 0.0000
# 6 0.0000 0.0000 0.0000 2.9447 0.0000 42.7005
#
#
#
# Elastic Compliance Matrix: (Units=1/GPa)
#
#
# Indices 1 2 3 4 5 6 
#
# 1 0.010119 -0.004726 -0.004846 0.000000 0.003626 0.000000
# 2 -0.004726 0.017290 -0.001184 0.000000 0.002381 0.000000
# 3 -0.004846 -0.001184 0.022331 0.000000 0.001874 0.000000
# 4 0.000000 0.000000 0.000000 0.031480 0.000000 -0.002171
# 5 0.003626 0.002381 0.001874 0.000000 0.048377 0.000000
# 6 0.000000 0.000000 0.000000 -0.002171 0.000000 0.023569
#
#
# Mechanical properties :
#
#
# Convention : Reuss Voigt Hill
#
# Bulk Modulus (GPa) = 35.42280 49.31963 42.37121
# Shear Modulus (GPa) = 27.16103 31.02959 29.09531
#
# Velocity S-wave (km/s) = 3.73411 3.99119 3.86479
# Velocity P-wave (km/s) = 6.06435 6.82338 6.45503
#
# Compressibility (1/GPa) = 0.02823041
#
# Stress axis : x y z
#
# Youngs Moduli (GPa) = 98.82360 57.83656 44.77984
#
# Poissons Ratio (x) = 0.27332 0.21699
# Poissons Ratio (y) = 0.46701 0.05301
# Poissons Ratio (z) = 0.47886 0.06846
#
# Static dielectric constant tensor:
#      x y z
#    x 1.672770 0.000000 0.008860 
#    y 0.000000 1.718210 0.000000 
#    z 0.008860 0.000000 1.662250 
# 
# From -- ./inp_files/11830.got.cif
#   From: 2010.05.17/outbox.cif.g08.bks.cpg/sg4_6_cif.got.tgz:11830.got - 2010.06.03 18:43:04.
