data_PCOD9118143
_publ_section_title
;
Structure prediction by ZEFSAII (Michael W. Deem and Ramdas Pophale) SiO2 
 PCOD9118143
Probable space group: P 21
;
_chemical_formula_sum "Si O2"
_cell_formula_units_Z 16
_cell_length_a 11.177999
_cell_length_b 11.317853
_cell_length_c 8.592353
_cell_angle_alpha 90.000000
_cell_angle_beta 146.145871
_cell_angle_gamma 90.000000
_cell_volume 605.561314
_symmetry_space_group_name_H-M "P 21"
_symmetry_group_IT_number 4
_symmetry_cell_setting 'monoclinic'
loop_
_space_group_symop_operation_xyz
x,y,z
-x,1/2+y,-z
loop_
_atom_site_type_symbol
_atom_site_label
_atom_site_fract_x
_atom_site_fract_y
_atom_site_fract_z
Si Si1 0.520682 0.233030 0.494748
Si Si2 0.793008 0.734353 0.550684
Si Si3 0.852009 0.330406 0.501763
Si Si4 0.842476 0.637913 0.053938
Si Si5 0.168835 0.941465 0.227961
Si Si6 0.102967 0.461207 0.514970
Si Si7 0.586447 0.137331 0.035347
Si Si8 0.807979 0.063685 0.953732
O O1 0.362752 0.247011 0.470593
O O2 0.695414 0.335920 0.698456
O O3 0.651289 0.112148 0.653852
O O4 0.374175 0.215736 0.183548
O O5 0.882210 0.860250 0.597043
O O6 0.987714 0.648633 0.800355
O O7 0.653530 0.678304 0.259739
O O8 0.738873 0.425483 0.493598
O O9 0.706723 0.256460 0.224788
O O10 0.960684 0.230599 0.729899
O O11 0.033896 0.396604 0.598816
O O12 0.910754 0.551649 0.266964
O O13 0.818455 0.549635 0.880098
O O14 0.916789 0.945271 0.005607
O O15 0.326764 0.533523 0.758995
O O16 0.679934 0.085212 0.973964
#
# Coordination Sequence:
#
# PCOD9118143 Si02
#       8
#     2   2   2   2   2   2   2   2
#     4  11  27  48  73 117 154 203 268 317 388 477
#     4  11  24  47  78 107 156 199 257 324 387 470
#     4  11  25  47  79 115 152 203 268 321 390 478
#     4  11  27  48  76 117 154 203 262 323 388 473
#     4  12  25  47  75 109 154 206 254 325 392 450
#     4  11  24  50  78 108 156 208 252 327 402 454
#     4  10  24  46  71 114 149 201 261 316 388 473
#     4  11  22  47  76 105 153 201 258 323 391 459
#
# _framework density 26.421768
#
# number of rings (size 3 to 8) (size 9 to 14) (size 15 to 20)
#    0.000    1.000    3.750    1.500    3.500    4.000 
#    6.750    0.000    0.000    0.000    0.000    0.000 
#    0.000    0.000    0.000    0.000    0.000    0.000 
#
# Total GULP energy -89390.281694 kJ/mol
# GULP energy per Si atom -5586.892606 kJ/mol
# Density = 2.636163 g / cm^3
# Si number density = 26.421768 Si / 1000 Ang^3
#
#
#
# Elastic Constant Matrix: (Units=GPa)
#
#
# Indices 1 2 3 4 5 6 
#
# 1 86.5985 37.2039 13.9324 0.0000 1.1482 0.0000
# 2 37.2039 105.7368 47.6706 0.0000 -3.2258 0.0000
# 3 13.9324 47.6706 155.4925 0.0000 6.1072 0.0000
# 4 0.0000 0.0000 0.0000 53.5367 0.0000 -0.6279
# 5 1.1482 -3.2258 6.1072 0.0000 22.3009 0.0000
# 6 0.0000 0.0000 0.0000 -0.6279 0.0000 44.1124
#
#
#
# Elastic Compliance Matrix: (Units=1/GPa)
#
#
# Indices 1 2 3 4 5 6 
#
# 1 0.013666 -0.005025 0.000376 0.000000 -0.001533 0.000000
# 2 -0.005025 0.012966 -0.003648 0.000000 0.003133 0.000000
# 3 0.000376 -0.003648 0.007619 0.000000 -0.002634 0.000000
# 4 0.000000 0.000000 0.000000 0.018682 0.000000 0.000266
# 5 -0.001533 0.003133 -0.002634 0.000000 0.046095 0.000000
# 6 0.000000 0.000000 0.000000 0.000266 0.000000 0.022673
#
#
# Mechanical properties :
#
#
# Convention : Reuss Voigt Hill
#
# Bulk Modulus (GPa) = 56.63122 60.60461 58.61792
# Shear Modulus (GPa) = 34.67898 40.59140 37.63519
#
# Velocity S-wave (km/s) = 3.62680 3.92380 3.77822
# Velocity P-wave (km/s) = 6.24646 6.59662 6.42393
#
# Compressibility (1/GPa) = 0.01765810
#
# Stress axis : x y z
#
# Youngs Moduli (GPa) = 73.17377 77.12704 131.24669
#
# Poissons Ratio (x) = 0.38755 -0.04938
# Poissons Ratio (y) = 0.36769 0.47876
# Poissons Ratio (z) = -0.02753 0.28134
#
# Static dielectric constant tensor:
#      x y z
#    x 2.094570 0.000000 -0.053210 
#    y 0.000000 2.145930 0.000000 
#    z -0.053210 0.000000 2.082600 
# 
# From -- ./inp_files/8409.got.cif
#   From: 2010.05.17/outbox.cif.g08.bks.cpg/sg4_5_cif.got.tgz:8409.got - 2010.06.03 18:43:04.
