data_PCOD9118385
_publ_section_title
;
Structure prediction by ZEFSAII (Michael W. Deem and Ramdas Pophale) SiO2 
 PCOD9118385
Probable space group: P 21
;
_chemical_formula_sum "Si O2"
_cell_formula_units_Z 16
_cell_length_a 15.642002
_cell_length_b 5.620090
_cell_length_c 12.044479
_cell_angle_alpha 90.000000
_cell_angle_beta 139.963496
_cell_angle_gamma 90.000000
_cell_volume 681.115342
_symmetry_space_group_name_H-M "P 21"
_symmetry_group_IT_number 4
_symmetry_cell_setting 'monoclinic'
loop_
_space_group_symop_operation_xyz
x,y,z
-x,1/2+y,-z
loop_
_atom_site_type_symbol
_atom_site_label
_atom_site_fract_x
_atom_site_fract_y
_atom_site_fract_z
Si Si1 0.532313 0.191650 0.678480
Si Si2 0.664374 0.381545 0.378399
Si Si3 0.344430 0.309766 0.298626
Si Si4 0.230803 0.081009 0.738998
Si Si5 0.061224 0.189600 0.029142
Si Si6 0.028927 0.786302 0.300427
Si Si7 0.585433 0.585651 0.872182
Si Si8 0.014549 0.785356 0.617711
O O1 0.459250 0.326274 0.505344
O O2 0.579179 0.308528 0.839246
O O3 0.415850 0.015505 0.604662
O O4 0.662301 0.078902 0.751739
O O5 0.683820 0.537511 0.286541
O O6 0.811848 0.304746 0.560665
O O7 0.563706 0.168614 0.249983
O O8 0.212630 0.205164 0.218796
O O9 0.375625 0.178058 0.212899
O O10 0.113084 0.260638 0.589246
O O11 0.315712 0.149564 0.930928
O O12 0.150668 0.835830 0.686944
O O13 0.988404 0.417524 0.012474
O O14 0.053080 0.264884 0.893227
O O15 0.003967 0.531908 0.334189
O O16 0.989548 0.039190 0.317788
#
# Coordination Sequence:
#
# PCOD9118385 Si02
#       8
#     2   2   2   2   2   2   2   2
#     4  11  24  45  70 101 139 196 244 305 374 430
#     4  10  26  42  67 106 141 197 234 312 367 441
#     4  11  25  46  74 102 143 190 253 298 372 446
#     4  11  25  47  73 107 150 188 253 301 374 447
#     4  12  28  44  76 114 148 196 248 319 369 443
#     4  11  25  47  73 105 153 195 255 299 381 441
#     4  11  26  44  72 104 142 195 242 309 361 446
#     4  11  25  47  73 105 142 207 237 311 368 452
#
# _framework density 23.490880000000001
#
# number of rings (size 3 to 8) (size 9 to 14) (size 15 to 20)
#    0.000    1.000    1.250    3.750   10.500    0.000 
#    9.000    0.000    0.000    0.000    0.000    0.000 
#    0.000    0.000    0.000    0.000    0.000    0.000 
#
# Total GULP energy -89266.088892 kJ/mol
# GULP energy per Si atom -5579.130556 kJ/mol
# Density = 2.343741 g / cm^3
# Si number density = 23.490880 Si / 1000 Ang^3
#
#
#
# Elastic Constant Matrix: (Units=GPa)
#
#
# Indices 1 2 3 4 5 6 
#
# 1 56.5964 14.9024 -4.8274 0.0000 2.6801 0.0000
# 2 14.9024 75.6000 3.0434 0.0000 -11.7984 0.0000
# 3 -4.8274 3.0434 77.8060 0.0000 -19.6702 0.0000
# 4 0.0000 0.0000 0.0000 25.8721 0.0000 -2.5521
# 5 2.6801 -11.7984 -19.6702 0.0000 30.8587 0.0000
# 6 0.0000 0.0000 0.0000 -2.5521 0.0000 42.2496
#
#
#
# Elastic Compliance Matrix: (Units=1/GPa)
#
#
# Indices 1 2 3 4 5 6 
#
# 1 0.018966 -0.004210 0.000618 0.000000 -0.002863 0.000000
# 2 -0.004210 0.015063 0.000832 0.000000 0.006655 0.000000
# 3 0.000618 0.000832 0.015408 0.000000 0.010086 0.000000
# 4 0.000000 0.000000 0.000000 0.038883 0.000000 0.002349
# 5 -0.002863 0.006655 0.010086 0.000000 0.041628 0.000000
# 6 0.000000 0.000000 0.000000 0.002349 0.000000 0.023811
#
#
# Mechanical properties :
#
#
# Convention : Reuss Voigt Hill
#
# Bulk Modulus (GPa) = 22.77121 26.24880 24.51000
# Shear Modulus (GPa) = 28.74908 32.92166 30.83537
#
# Velocity S-wave (km/s) = 3.50214 3.74768 3.62699
# Velocity P-wave (km/s) = 5.10568 5.47038 5.29117
#
# Compressibility (1/GPa) = 0.04391510
#
# Stress axis : x y z
#
# Youngs Moduli (GPa) = 52.72631 66.38966 64.90087
#
# Poissons Ratio (x) = 0.27952 -0.04008
# Poissons Ratio (y) = 0.22199 -0.05400
# Poissons Ratio (z) = -0.03256 -0.05524
#
# Static dielectric constant tensor:
#      x y z
#    x 1.938680 0.000000 -0.007690 
#    y 0.000000 2.099960 0.000000 
#    z -0.007690 0.000000 1.835480 
# 
# From -- ./inp_files/12464.got.cif
#   From: 2010.05.17/outbox.cif.g08.bks.cpg/sg4_7_cif.got.tgz:12464.got - 2010.06.03 18:43:04.
