data_PCOD9118309
_publ_section_title
;
Structure prediction by ZEFSAII (Michael W. Deem and Ramdas Pophale) SiO2 
 PCOD9118309
Probable space group: P 21
;
_chemical_formula_sum "Si O2"
_cell_formula_units_Z 12
_cell_length_a 5.259620
_cell_length_b 9.094712
_cell_length_c 9.398626
_cell_angle_alpha 90.000000
_cell_angle_beta 88.657525
_cell_angle_gamma 90.000000
_cell_volume 449.457326
_symmetry_space_group_name_H-M "P 21"
_symmetry_group_IT_number 4
_symmetry_cell_setting 'monoclinic'
loop_
_space_group_symop_operation_xyz
x,y,z
-x,1/2+y,-z
loop_
_atom_site_type_symbol
_atom_site_label
_atom_site_fract_x
_atom_site_fract_y
_atom_site_fract_z
Si Si1 0.836748 0.826200 0.810864
Si Si2 0.681694 0.651593 0.552339
Si Si3 0.996268 0.879911 0.359670
Si Si4 0.182602 0.582820 0.877404
Si Si5 0.685185 0.641184 0.041253
Si Si6 0.649149 0.128172 0.699115
O O1 0.672762 0.716168 0.711007
O O2 0.109868 0.745699 0.813880
O O3 0.801166 0.984310 0.744343
O O4 0.734260 0.801598 0.972311
O O5 0.832600 0.498745 0.559620
O O6 0.426413 0.628396 0.465580
O O7 0.840188 0.775390 0.465773
O O8 0.187425 0.772618 0.271898
O O9 0.823849 0.970222 0.252379
O O10 0.934496 0.556990 0.982800
O O11 0.433226 0.588943 0.965217
O O12 0.611442 0.632418 0.206138
#
# Coordination Sequence:
#
# PCOD9118309 Si02
#       6
#     2   2   2   2   2   2
#     4   9  24  45  69 105 142 191 237 301 351 430
#     4  11  25  46  69 105 142 190 245 295 361 426
#     4  11  26  43  73 104 145 192 240 301 357 430
#     4   9  24  46  74 101 149 182 239 289 365 414
#     4  10  25  45  75 107 144 188 234 302 354 431
#     4  12  26  41  74 104 144 187 245 292 368 421
#
# _framework density 26.698868000000001
#
# number of rings (size 3 to 8) (size 9 to 14) (size 15 to 20)
#    1.000    0.667    0.000    2.000    7.000    9.333 
#    0.000    0.000    0.000    0.000    0.000    0.000 
#    0.000    0.000    0.000    0.000    0.000    0.000 
#
# Total GULP energy -67271.853599 kJ/mol
# GULP energy per Si atom -5605.987800 kJ/mol
# Density = 2.663810 g / cm^3
# Si number density = 26.698868 Si / 1000 Ang^3
#
#
#
# Elastic Constant Matrix: (Units=GPa)
#
#
# Indices 1 2 3 4 5 6 
#
# 1 120.5656 27.6723 19.5461 0.0000 8.7655 0.0000
# 2 27.6723 165.3046 13.2839 0.0000 3.5061 0.0000
# 3 19.5461 13.2839 101.4470 0.0000 -0.8534 0.0000
# 4 0.0000 0.0000 0.0000 42.9810 0.0000 2.4130
# 5 8.7655 3.5061 -0.8534 0.0000 56.1634 0.0000
# 6 0.0000 0.0000 0.0000 2.4130 0.0000 25.5603
#
#
#
# Elastic Compliance Matrix: (Units=1/GPa)
#
#
# Indices 1 2 3 4 5 6 
#
# 1 0.008953 -0.001345 -0.001560 0.000000 -0.001337 0.000000
# 2 -0.001345 0.006325 -0.000571 0.000000 -0.000194 0.000000
# 3 -0.001560 -0.000571 0.010236 0.000000 0.000435 0.000000
# 4 0.000000 0.000000 0.000000 0.023390 0.000000 -0.002208
# 5 -0.001337 -0.000194 0.000435 0.000000 0.018033 0.000000
# 6 0.000000 0.000000 0.000000 -0.002208 0.000000 0.039332
#
#
# Mechanical properties :
#
#
# Convention : Reuss Voigt Hill
#
# Bulk Modulus (GPa) = 53.87245 56.48019 55.17632
# Shear Modulus (GPa) = 41.87349 46.72861 44.30105
#
# Velocity S-wave (km/s) = 3.96455 4.18809 4.07785
# Velocity P-wave (km/s) = 6.41705 6.67737 6.54850
#
# Compressibility (1/GPa) = 0.01856236
#
# Stress axis : x y z
#
# Youngs Moduli (GPa) = 111.69331 158.11372 97.69113
#
# Poissons Ratio (x) = 0.21267 0.15241
# Poissons Ratio (y) = 0.15023 0.05575
# Poissons Ratio (z) = 0.17426 0.09023
#
# Static dielectric constant tensor:
#      x y z
#    x 2.046520 0.000000 -0.025370 
#    y 0.000000 2.096590 0.000000 
#    z -0.025370 0.000000 2.102240 
# 
# From -- ./inp_files/2449.got.cif
#   From: 2010.05.17/outbox.cif.g08.bks.cpg/sg4_2_cif.got.tgz:2449.got - 2010.06.03 18:43:04.
