data_PCOD9118379
_publ_section_title
;
Structure prediction by ZEFSAII (Michael W. Deem and Ramdas Pophale) SiO2 
 PCOD9118379
Probable space group: P 21
;
_chemical_formula_sum "Si O2"
_cell_formula_units_Z 12
_cell_length_a 9.721085
_cell_length_b 6.645834
_cell_length_c 7.536238
_cell_angle_alpha 90.000000
_cell_angle_beta 90.000285
_cell_angle_gamma 90.000000
_cell_volume 486.876525
_symmetry_space_group_name_H-M "P 21"
_symmetry_group_IT_number 4
_symmetry_cell_setting 'monoclinic'
loop_
_space_group_symop_operation_xyz
x,y,z
-x,1/2+y,-z
loop_
_atom_site_type_symbol
_atom_site_label
_atom_site_fract_x
_atom_site_fract_y
_atom_site_fract_z
Si Si1 0.477237 0.430330 0.746614
Si Si2 0.146030 0.783187 0.893393
Si Si3 0.353972 0.589897 0.393391
Si Si4 0.924431 0.858861 0.627954
Si Si5 0.022764 0.942755 0.246614
Si Si6 0.575569 0.514226 0.127954
O O1 0.406894 0.553328 0.591450
O O2 0.612578 0.317463 0.665376
O O3 0.384103 0.235965 0.800486
O O4 0.517923 0.534291 0.929305
O O5 0.299103 0.861695 0.873619
O O6 0.049319 0.911310 0.759973
O O7 0.112578 0.555619 0.834627
O O8 0.093108 0.819757 0.091451
O O9 0.200899 0.511391 0.373618
O O10 0.450682 0.461774 0.259971
O O11 0.982078 0.838797 0.429306
O O12 0.884103 0.637122 0.699513
#
# Coordination Sequence:
#
# PCOD9118379 Si02
#       6
#     2   2   2   2   2   2
#     4  10  26  38  68  94 132 164 212 258 322 376
#     4  10  26  42  69  94 131 166 216 262 320 376
#     4  10  26  42  69  94 131 166 216 262 320 376
#     4  10  26  42  69  94 131 166 216 262 320 376
#     4  10  26  38  68  94 132 164 212 258 322 376
#     4  10  26  42  69  94 131 166 216 262 320 376
#
# _framework density 24.646909000000001
#
# number of rings (size 3 to 8) (size 9 to 14) (size 15 to 20)
#    2.000    0.000    0.000    0.000   14.000    2.667 
#    0.000    0.000    0.000    0.000    0.000    0.000 
#    0.000    0.000    0.000    0.000    0.000    0.000 
#
# Total GULP energy -67118.443801 kJ/mol
# GULP energy per Si atom -5593.203650 kJ/mol
# Density = 2.459081 g / cm^3
# Si number density = 24.646909 Si / 1000 Ang^3
#
#
#
# Elastic Constant Matrix: (Units=GPa)
#
#
# Indices 1 2 3 4 5 6 
#
# 1 138.0824 27.2873 75.6008 0.0000 -0.2348 0.0000
# 2 27.2873 58.2201 43.2501 0.0000 -1.5914 0.0000
# 3 75.6008 43.2501 222.7596 0.0000 -8.2027 0.0000
# 4 0.0000 0.0000 0.0000 37.6278 0.0000 -0.9865
# 5 -0.2348 -1.5914 -8.2027 0.0000 33.2082 0.0000
# 6 0.0000 0.0000 0.0000 -0.9865 0.0000 27.7222
#
#
#
# Elastic Compliance Matrix: (Units=1/GPa)
#
#
# Indices 1 2 3 4 5 6 
#
# 1 0.009171 -0.002321 -0.002688 0.000000 -0.000710 0.000000
# 2 -0.002321 0.020658 -0.003217 0.000000 0.000179 0.000000
# 3 -0.002688 -0.003217 0.006075 0.000000 0.001327 0.000000
# 4 0.000000 0.000000 0.000000 0.026601 0.000000 0.000947
# 5 -0.000710 0.000179 0.001327 0.000000 0.030444 0.000000
# 6 0.000000 0.000000 0.000000 0.000947 0.000000 0.036106
#
#
# Mechanical properties :
#
#
# Convention : Reuss Voigt Hill
#
# Bulk Modulus (GPa) = 51.40574 79.03761 65.22167
# Shear Modulus (GPa) = 32.89655 37.90659 35.40157
#
# Velocity S-wave (km/s) = 3.65734 3.92597 3.79403
# Velocity P-wave (km/s) = 6.22390 7.25869 6.76112
#
# Compressibility (1/GPa) = 0.01945308
#
# Stress axis : x y z
#
# Youngs Moduli (GPa) = 109.03636 48.40624 164.61315
#
# Poissons Ratio (x) = 0.11235 0.44249
# Poissons Ratio (y) = 0.25307 0.52951
# Poissons Ratio (z) = 0.29310 0.15571
#
# Static dielectric constant tensor:
#      x y z
#    x 1.914970 0.000000 0.003010 
#    y 0.000000 2.015700 0.000000 
#    z 0.003010 0.000000 1.884770 
# 
# From -- ./inp_files/1415.got.cif
#   From: 2010.05.17/outbox.cif.g08.bks.cpg/sg4_1_cif.got.tgz:1415.got - 2010.06.03 18:43:04.
