data_PCOD9118306
_publ_section_title
;
Structure prediction by ZEFSAII (Michael W. Deem and Ramdas Pophale) SiO2 
 PCOD9118306
Probable space group: P 21
;
_chemical_formula_sum "Si O2"
_cell_formula_units_Z 16
_cell_length_a 6.050792
_cell_length_b 16.814242
_cell_length_c 6.254537
_cell_angle_alpha 90.000000
_cell_angle_beta 103.125912
_cell_angle_gamma 90.000000
_cell_volume 619.708099
_symmetry_space_group_name_H-M "P 21"
_symmetry_group_IT_number 4
_symmetry_cell_setting 'monoclinic'
loop_
_space_group_symop_operation_xyz
x,y,z
-x,1/2+y,-z
loop_
_atom_site_type_symbol
_atom_site_label
_atom_site_fract_x
_atom_site_fract_y
_atom_site_fract_z
Si Si1 0.426358 0.895610 0.834926
Si Si2 0.777552 0.076771 0.540324
Si Si3 0.750714 0.822309 0.547203
Si Si4 0.064421 0.957117 0.429512
Si Si5 0.147299 0.127503 0.899480
Si Si6 0.524510 0.195052 0.727218
Si Si7 0.115931 0.748310 0.898490
Si Si8 0.407011 0.999254 0.206836
O O1 0.619233 0.856815 0.726484
O O2 0.251335 0.947449 0.656137
O O3 0.261269 0.828774 0.900504
O O4 0.523997 0.953450 0.038063
O O5 0.667813 0.162563 0.556334
O O6 0.567425 0.020719 0.440012
O O7 0.933705 0.072339 0.785517
O O8 0.950677 0.044702 0.400410
O O9 0.564607 0.780982 0.357846
O O10 0.881545 0.890782 0.448889
O O11 0.940910 0.757820 0.662778
O O12 0.200956 0.945205 0.243895
O O13 0.306233 0.142399 0.730412
O O14 0.298076 0.080950 0.101374
O O15 0.059079 0.213808 0.959903
O O16 0.672914 0.192989 0.977922
#
# Coordination Sequence:
#
# PCOD9118306 Si02
#       8
#     2   2   2   2   2   2   2   2
#     4  11  26  48  72 111 150 196 257 307 371 459
#     4  11  25  45  75 105 148 196 244 308 373 442
#     4  11  26  48  72 107 155 192 252 316 371 447
#     4  11  26  46  72 108 149 199 252 306 382 443
#     4  11  25  47  73 114 149 193 256 306 375 454
#     4  11  26  45  78 109 149 193 255 309 373 451
#     4  10  25  45  73 106 146 194 246 304 376 437
#     4  12  27  46  75 106 152 197 248 310 375 443
#
# _framework density 25.818605999999999
#
# number of rings (size 3 to 8) (size 9 to 14) (size 15 to 20)
#    0.000    1.000    1.250    3.000    7.000    9.000 
#    0.000    0.000    0.000    0.000    0.000    0.000 
#    0.000    0.000    0.000    0.000    0.000    0.000 
#
# Total GULP energy -89203.197613 kJ/mol
# GULP energy per Si atom -5575.199851 kJ/mol
# Density = 2.575984 g / cm^3
# Si number density = 25.818606 Si / 1000 Ang^3
#
#
#
# Elastic Constant Matrix: (Units=GPa)
#
#
# Indices 1 2 3 4 5 6 
#
# 1 121.5693 62.8584 57.2305 0.0000 2.5172 0.0000
# 2 62.8584 67.4404 43.1680 0.0000 -8.9141 0.0000
# 3 57.2305 43.1680 62.0422 0.0000 -0.2454 0.0000
# 4 0.0000 0.0000 0.0000 49.4133 0.0000 3.4850
# 5 2.5172 -8.9141 -0.2454 0.0000 39.7798 0.0000
# 6 0.0000 0.0000 0.0000 3.4850 0.0000 51.7951
#
#
#
# Elastic Compliance Matrix: (Units=1/GPa)
#
#
# Indices 1 2 3 4 5 6 
#
# 1 0.018926 -0.012610 -0.008701 0.000000 -0.004077 0.000000
# 2 -0.012610 0.036584 -0.013787 0.000000 0.008911 0.000000
# 3 -0.008701 -0.013787 0.033728 0.000000 -0.002331 0.000000
# 4 0.000000 0.000000 0.000000 0.020334 0.000000 -0.001368
# 5 -0.004077 0.008911 -0.002331 0.000000 0.027379 0.000000
# 6 0.000000 0.000000 0.000000 -0.001368 0.000000 0.019399
#
#
# Mechanical properties :
#
#
# Convention : Reuss Voigt Hill
#
# Bulk Modulus (GPa) = 52.51551 64.17398 58.34475
# Shear Modulus (GPa) = 21.46901 34.05062 27.75981
#
# Velocity S-wave (km/s) = 2.88676 3.63552 3.28256
# Velocity P-wave (km/s) = 5.61209 6.52169 6.08391
#
# Compressibility (1/GPa) = 0.01904199
#
# Stress axis : x y z
#
# Youngs Moduli (GPa) = 52.83658 27.33415 29.64910
#
# Poissons Ratio (x) = 0.34469 0.25797
# Poissons Ratio (y) = 0.66627 0.40879
# Poissons Ratio (z) = 0.45971 0.37687
#
# Static dielectric constant tensor:
#      x y z
#    x 2.021550 0.000000 0.011320 
#    y 0.000000 2.034890 0.000000 
#    z 0.011320 0.000000 1.979190 
# 
# From -- ./inp_files/501.got.cif
#   From: 2010.05.17/outbox.cif.g08.bks.cpg/sg4_1_cif.got.tgz:501.got - 2010.06.03 18:43:04.
