data_PCOD9118646
_publ_section_title
;
Structure prediction by ZEFSAII (Michael W. Deem and Ramdas Pophale) SiO2 
 PCOD9118646
Probable space group: P 21
;
_chemical_formula_sum "Si O2"
_cell_formula_units_Z 14
_cell_length_a 7.881206
_cell_length_b 8.115516
_cell_length_c 9.128687
_cell_angle_alpha 90.000000
_cell_angle_beta 109.387924
_cell_angle_gamma 90.000000
_cell_volume 550.761511
_symmetry_space_group_name_H-M "P 21"
_symmetry_group_IT_number 4
_symmetry_cell_setting 'monoclinic'
loop_
_space_group_symop_operation_xyz
x,y,z
-x,1/2+y,-z
loop_
_atom_site_type_symbol
_atom_site_label
_atom_site_fract_x
_atom_site_fract_y
_atom_site_fract_z
Si Si1 0.961100 0.412570 0.308600
Si Si2 0.940410 0.237433 0.841527
Si Si3 0.431658 0.749695 0.354673
Si Si4 0.587030 0.095083 0.353028
Si Si5 0.579620 0.534583 0.169006
Si Si6 0.964317 0.041813 0.343446
Si Si7 0.308422 0.262107 0.066351
O O1 0.040961 0.555654 0.226401
O O2 0.747643 0.410713 0.213903
O O3 0.035976 0.226079 0.328434
O O4 0.982680 0.484361 0.478336
O O5 0.987856 0.391624 0.749254
O O6 0.730239 0.264044 0.809335
O O7 0.093036 0.249352 0.008957
O O8 0.354751 0.701139 0.490157
O O9 0.563805 0.615240 0.324287
O O10 0.532770 0.918828 0.398777
O O11 0.749209 0.063979 0.289512
O O12 0.413669 0.174430 0.227934
O O13 0.393864 0.442509 0.084756
O O14 0.630015 0.671410 0.064844
#
# Coordination Sequence:
#
# PCOD9118646 Si02
#       7
#     2   2   2   2   2   2   2
#     4  11  22  39  73 101 139 179 245 282 344 420
#     4  11  26  45  69 105 142 187 237 290 357 423
#     4  12  27  45  72 108 144 182 235 303 356 414
#     4  12  25  45  71 106 142 185 238 292 359 418
#     4  11  24  44  73 104 141 185 238 289 355 424
#     4  12  22  43  71 104 134 192 235 292 339 433
#     4  11  24  47  71 100 140 194 234 284 350 440
#
# _framework density 25.419349
#
# number of rings (size 3 to 8) (size 9 to 14) (size 15 to 20)
#    0.000    0.571    4.286    4.286    2.000    1.143 
#    2.571    0.000    0.000    0.000    0.000    0.000 
#    0.000    0.000    0.000    0.000    0.000    0.000 
#
# Total GULP energy -78448.897512 kJ/mol
# GULP energy per Si atom -5603.492679 kJ/mol
# Density = 2.536149 g / cm^3
# Si number density = 25.419349 Si / 1000 Ang^3
#
#
#
# Elastic Constant Matrix: (Units=GPa)
#
#
# Indices 1 2 3 4 5 6 
#
# 1 34.6863 22.1854 -13.2310 0.0000 4.4320 0.0000
# 2 22.1854 170.4889 22.7984 0.0000 -12.1175 0.0000
# 3 -13.2310 22.7984 75.5302 0.0000 3.9058 0.0000
# 4 0.0000 0.0000 0.0000 35.1104 0.0000 5.4982
# 5 4.4320 -12.1175 3.9058 0.0000 36.0976 0.0000
# 6 0.0000 0.0000 0.0000 5.4982 0.0000 20.2853
#
#
#
# Elastic Compliance Matrix: (Units=1/GPa)
#
#
# Indices 1 2 3 4 5 6 
#
# 1 0.037492 -0.006633 0.008973 0.000000 -0.007801 0.000000
# 2 -0.006633 0.007475 -0.003610 0.000000 0.003714 0.000000
# 3 0.008973 -0.003610 0.016111 0.000000 -0.004057 0.000000
# 4 0.000000 0.000000 0.000000 0.029744 0.000000 -0.008062
# 5 -0.007801 0.003714 -0.004057 0.000000 0.030346 0.000000
# 6 0.000000 0.000000 0.000000 -0.008062 0.000000 0.051482
#
#
# Mechanical properties :
#
#
# Convention : Reuss Voigt Hill
#
# Bulk Modulus (GPa) = 17.08298 38.24567 27.66433
# Shear Modulus (GPa) = 25.67999 34.89550 30.28775
#
# Velocity S-wave (km/s) = 3.18190 3.70914 3.45559
# Velocity P-wave (km/s) = 4.49826 5.78119 5.17960
#
# Compressibility (1/GPa) = 0.05853778
#
# Stress axis : x y z
#
# Youngs Moduli (GPa) = 26.67244 133.77119 62.06858
#
# Poissons Ratio (x) = 0.88732 -0.55695
# Poissons Ratio (y) = 0.17692 0.22410
# Poissons Ratio (z) = -0.23934 0.48298
#
# Static dielectric constant tensor:
#      x y z
#    x 1.977030 0.000000 0.024220 
#    y 0.000000 1.996690 0.000000 
#    z 0.024220 0.000000 1.972750 
# 
# From -- ./inp_files/5295.got.cif
#   From: 2010.05.17/outbox.cif.g08.bks.cpg/sg4_3_cif.got.tgz:5295.got - 2010.06.03 18:43:04.
