data_PCOD9119148
_publ_section_title
;
Structure prediction by ZEFSAII (Michael W. Deem and Ramdas Pophale) SiO2 
 PCOD9119148
Probable space group: P 21
;
_chemical_formula_sum "Si O2"
_cell_formula_units_Z 10
_cell_length_a 7.545391
_cell_length_b 5.130810
_cell_length_c 15.406915
_cell_angle_alpha 90.000000
_cell_angle_beta 139.183040
_cell_angle_gamma 90.000000
_cell_volume 389.874725
_symmetry_space_group_name_H-M "P 21"
_symmetry_group_IT_number 4
_symmetry_cell_setting 'monoclinic'
loop_
_space_group_symop_operation_xyz
x,y,z
-x,1/2+y,-z
loop_
_atom_site_type_symbol
_atom_site_label
_atom_site_fract_x
_atom_site_fract_y
_atom_site_fract_z
Si Si1 0.217580 0.234960 0.645263
Si Si2 0.782593 0.900130 0.545223
Si Si3 0.174569 0.046950 0.281414
Si Si4 0.670563 0.733805 0.036751
Si Si5 0.412806 0.230155 0.190943
O O1 0.153081 0.245285 0.519298
O O2 0.939046 0.170833 0.590067
O O3 0.058341 0.336117 0.817483
O O4 0.425920 0.999334 0.739360
O O5 0.460175 0.930012 0.420175
O O6 0.887690 0.761615 0.669550
O O7 0.229480 0.179020 0.207672
O O8 0.628842 0.994804 0.270994
O O9 0.447439 0.959706 0.973707
O O10 0.726341 0.722431 0.954313
#
# Coordination Sequence:
#
# PCOD9119148 Si02
#       5
#     2   2   2   2   2
#     4  11  24  45  77 111 152 195 240 299 372 446
#     4  11  24  46  76 115 152 192 241 305 374 444
#     4  11  27  47  77 112 151 193 247 308 369 437
#     4  12  29  51  76 106 148 200 253 305 364 437
#     4  11  26  49  76 108 149 198 249 303 363 438
#
# _framework density 25.649266000000001
#
# number of rings (size 3 to 8) (size 9 to 14) (size 15 to 20)
#    0.000    0.800    0.000    6.000    0.000   16.000 
#    0.000    0.000    0.000    0.000    0.000    0.000 
#    0.000    0.000    0.000    0.000    0.000    0.000 
#
# Total GULP energy -56186.857647 kJ/mol
# GULP energy per Si atom -5618.685765 kJ/mol
# Density = 2.559089 g / cm^3
# Si number density = 25.649266 Si / 1000 Ang^3
#
#
#
# Elastic Constant Matrix: (Units=GPa)
#
#
# Indices 1 2 3 4 5 6 
#
# 1 105.5646 18.4780 51.3690 0.0000 -14.9294 0.0000
# 2 18.4780 108.3763 47.0652 0.0000 -4.7897 0.0000
# 3 51.3690 47.0652 170.3196 0.0000 -36.9738 0.0000
# 4 0.0000 0.0000 0.0000 44.0565 0.0000 -8.8582
# 5 -14.9294 -4.7897 -36.9738 0.0000 53.2044 0.0000
# 6 0.0000 0.0000 0.0000 -8.8582 0.0000 33.5175
#
#
#
# Elastic Compliance Matrix: (Units=1/GPa)
#
#
# Indices 1 2 3 4 5 6 
#
# 1 0.011171 -0.000559 -0.002997 0.000000 0.001001 0.000000
# 2 -0.000559 0.010586 -0.003043 0.000000 -0.001318 0.000000
# 3 -0.002997 -0.003043 0.008684 0.000000 0.004920 0.000000
# 4 0.000000 0.000000 0.000000 0.023972 0.000000 0.006335
# 5 0.001001 -0.001318 0.004920 0.000000 0.022377 0.000000
# 6 0.000000 0.000000 0.000000 0.006335 0.000000 0.031509
#
#
# Mechanical properties :
#
#
# Convention : Reuss Voigt Hill
#
# Bulk Modulus (GPa) = 57.99540 68.67609 63.33575
# Shear Modulus (GPa) = 39.29448 43.97891 41.63670
#
# Velocity S-wave (km/s) = 3.91831 4.14530 4.03340
# Velocity P-wave (km/s) = 6.56741 7.05298 6.81452
#
# Compressibility (1/GPa) = 0.01724275
#
# Stress axis : x y z
#
# Youngs Moduli (GPa) = 89.51868 94.46853 115.15093
#
# Poissons Ratio (x) = 0.05278 0.34516
# Poissons Ratio (y) = 0.05001 0.35039
# Poissons Ratio (z) = 0.26833 0.28745
#
# Static dielectric constant tensor:
#      x y z
#    x 2.029340 0.000000 -0.008330 
#    y 0.000000 2.008230 0.000000 
#    z -0.008330 0.000000 1.990710 
# 
# From -- ./inp_files/3261.got.cif
#   From: 2010.05.17/outbox.cif.g08.bks.cpg/sg4_2_cif.got.tgz:3261.got - 2010.06.03 18:43:04.
