data_PCOD9119216
_publ_section_title
;
Structure prediction by ZEFSAII (Michael W. Deem and Ramdas Pophale) SiO2 
 PCOD9119216
Probable space group: P 21
;
_chemical_formula_sum "Si O2"
_cell_formula_units_Z 14
_cell_length_a 17.547930
_cell_length_b 5.174671
_cell_length_c 7.107640
_cell_angle_alpha 90.000000
_cell_angle_beta 57.559471
_cell_angle_gamma 90.000000
_cell_volume 544.690878
_symmetry_space_group_name_H-M "P 21"
_symmetry_group_IT_number 4
_symmetry_cell_setting 'monoclinic'
loop_
_space_group_symop_operation_xyz
x,y,z
-x,1/2+y,-z
loop_
_atom_site_type_symbol
_atom_site_label
_atom_site_fract_x
_atom_site_fract_y
_atom_site_fract_z
Si Si1 0.485135 0.921970 0.905266
Si Si2 0.661958 0.872776 0.458502
Si Si3 0.789143 0.207430 0.130534
Si Si4 0.703491 0.570786 0.013517
Si Si5 0.096182 0.205236 0.921364
Si Si6 0.034784 0.688592 0.570940
Si Si7 0.815531 0.830992 0.556811
O O1 0.557681 0.870601 0.645455
O O2 0.471364 0.646481 0.023356
O O3 0.390811 0.041067 0.966003
O O4 0.726624 0.788979 0.544793
O O5 0.682191 0.718866 0.238641
O O6 0.702488 0.160627 0.377784
O O7 0.739750 0.282910 0.005259
O O8 0.850598 0.449661 0.093054
O O9 0.860454 0.109612 0.540257
O O10 0.783321 0.708091 0.793015
O O11 0.006138 0.205018 0.163532
O O12 0.149064 0.459038 0.924224
O O13 0.105324 0.214776 0.683371
O O14 0.010237 0.944276 0.483084
#
# Coordination Sequence:
#
# PCOD9119216 Si02
#       7
#     2   2   2   2   2   2   2
#     4  12  31  52  81 124 170 210 280 334 410 485
#     4  11  28  52  82 120 162 215 270 338 405 485
#     4  11  24  47  82 110 160 203 272 318 410 476
#     4  12  27  52  88 121 162 222 272 338 412 490
#     4  11  26  51  78 117 161 209 268 341 404 483
#     4  12  29  51  82 121 161 211 279 340 413 489
#     4  11  27  55  83 117 162 216 269 341 406 492
#
# _framework density 25.702652
#
# number of rings (size 3 to 8) (size 9 to 14) (size 15 to 20)
#    0.000    0.571    4.286    1.714   10.000    5.714 
#    2.571    0.000    0.000    0.000    0.000    0.000 
#    0.000    0.000    0.000    0.000    0.000    0.000 
#
# Total GULP energy -78308.877678 kJ/mol
# GULP energy per Si atom -5593.491263 kJ/mol
# Density = 2.564415 g / cm^3
# Si number density = 25.702652 Si / 1000 Ang^3
#
#
#
# Elastic Constant Matrix: (Units=GPa)
#
#
# Indices 1 2 3 4 5 6 
#
# 1 82.8670 23.5527 45.4729 0.0000 0.8695 0.0000
# 2 23.5527 134.4304 48.2372 0.0000 -6.7224 0.0000
# 3 45.4729 48.2372 208.1461 0.0000 -27.0304 0.0000
# 4 0.0000 0.0000 0.0000 38.1396 0.0000 -6.6214
# 5 0.8695 -6.7224 -27.0304 0.0000 40.9695 0.0000
# 6 0.0000 0.0000 0.0000 -6.6214 0.0000 27.7849
#
#
#
# Elastic Compliance Matrix: (Units=1/GPa)
#
#
# Indices 1 2 3 4 5 6 
#
# 1 0.014222 -0.001511 -0.003093 0.000000 -0.002591 0.000000
# 2 -0.001511 0.008274 -0.001539 0.000000 0.000375 0.000000
# 3 -0.003093 -0.001539 0.006357 0.000000 0.004007 0.000000
# 4 0.000000 0.000000 0.000000 0.027351 0.000000 0.006518
# 5 -0.002591 0.000375 0.004007 0.000000 0.027169 0.000000
# 6 0.000000 0.000000 0.000000 0.006518 0.000000 0.037544
#
#
# Mechanical properties :
#
#
# Convention : Reuss Voigt Hill
#
# Bulk Modulus (GPa) = 60.36198 73.32990 66.84594
# Shear Modulus (GPa) = 36.04236 41.92419 38.98327
#
# Velocity S-wave (km/s) = 3.74877 4.04310 3.89871
# Velocity P-wave (km/s) = 6.50180 7.09842 6.80665
#
# Compressibility (1/GPa) = 0.01656672
#
# Stress axis : x y z
#
# Youngs Moduli (GPa) = 70.31553 120.85379 157.30514
#
# Poissons Ratio (x) = 0.18265 0.48656
# Poissons Ratio (y) = 0.10627 0.24206
# Poissons Ratio (z) = 0.21749 0.18597
#
# Static dielectric constant tensor:
#      x y z
#    x 2.062380 0.000000 0.034500 
#    y 0.000000 2.073410 0.000000 
#    z 0.034500 0.000000 2.051380 
# 
# From -- ./inp_files/4371.got.cif
#   From: 2010.05.17/outbox.cif.g08.bks.cpg/sg4_3_cif.got.tgz:4371.got - 2010.06.03 18:43:04.
