data_PCOD9119604
_publ_section_title
;
Structure prediction by ZEFSAII (Michael W. Deem and Ramdas Pophale) SiO2 
 PCOD9119604
Probable space group: P 21
;
_chemical_formula_sum "Si O2"
_cell_formula_units_Z 14
_cell_length_a 8.189889
_cell_length_b 4.894267
_cell_length_c 18.237765
_cell_angle_alpha 90.000000
_cell_angle_beta 45.019065
_cell_angle_gamma 90.000000
_cell_volume 517.090731
_symmetry_space_group_name_H-M "P 21"
_symmetry_group_IT_number 4
_symmetry_cell_setting 'monoclinic'
loop_
_space_group_symop_operation_xyz
x,y,z
-x,1/2+y,-z
loop_
_atom_site_type_symbol
_atom_site_label
_atom_site_fract_x
_atom_site_fract_y
_atom_site_fract_z
Si Si1 0.887564 0.789460 0.569821
Si Si2 0.482141 0.700983 0.107550
Si Si3 0.360241 0.245489 0.570435
Si Si4 0.534020 0.889238 0.300257
Si Si5 0.091523 0.062352 0.282106
Si Si6 0.316729 0.898406 0.825450
Si Si7 0.877741 0.895908 0.873020
O O1 0.669175 0.602271 0.617480
O O2 0.903158 0.779964 0.653174
O O3 0.085719 0.582297 0.475999
O O4 0.615051 0.471766 0.113533
O O5 0.259348 0.613138 0.131696
O O6 0.349410 0.934605 0.196337
O O7 0.676588 0.783803 0.988620
O O8 0.443481 0.940670 0.527338
O O9 0.362418 0.301566 0.655723
O O10 0.105020 0.347361 0.630420
O O11 0.683827 0.083577 0.198771
O O12 0.499761 0.598576 0.272368
O O13 0.037734 0.194994 0.219619
O O14 0.075692 0.995767 0.865574
#
# Coordination Sequence:
#
# PCOD9119604 Si02
#       7
#     2   2   2   2   2   2   2
#     4  12  26  45  75 113 154 210 272 334 412 488
#     4  12  28  51  83 120 161 218 279 340 419 500
#     4  12  26  45  75 113 154 210 272 334 412 488
#     4  12  24  49  72 111 153 204 266 327 410 492
#     4  12  26  51  78 111 169 212 267 358 404 484
#     4  12  28  50  82 112 166 208 265 341 416 488
#     4  12  28  51  83 120 161 218 279 340 419 500
#
# _framework density 27.074552000000001
#
# number of rings (size 3 to 8) (size 9 to 14) (size 15 to 20)
#    0.000    0.000    4.286    5.143    4.000    2.286 
#    0.000    0.000    0.000    0.000    0.000    0.000 
#    0.000    0.000    0.000    0.000    0.000    0.000 
#
# Total GULP energy -78366.724571 kJ/mol
# GULP energy per Si atom -5597.623184 kJ/mol
# Density = 2.701293 g / cm^3
# Si number density = 27.074552 Si / 1000 Ang^3
#
#
#
# Elastic Constant Matrix: (Units=GPa)
#
#
# Indices 1 2 3 4 5 6 
#
# 1 104.3957 8.7562 -3.6072 0.0000 -1.1886 0.0000
# 2 8.7562 121.9783 20.7590 0.0000 15.2072 0.0000
# 3 -3.6072 20.7590 103.9908 0.0000 -6.1629 0.0000
# 4 0.0000 0.0000 0.0000 29.3291 0.0000 2.4368
# 5 -1.1886 15.2072 -6.1629 0.0000 23.9724 0.0000
# 6 0.0000 0.0000 0.0000 2.4368 0.0000 38.0628
#
#
#
# Elastic Compliance Matrix: (Units=1/GPa)
#
#
# Indices 1 2 3 4 5 6 
#
# 1 0.009694 -0.000952 0.000600 0.000000 0.001239 0.000000
# 2 -0.000952 0.009493 -0.002323 0.000000 -0.006666 0.000000
# 3 0.000600 -0.002323 0.010348 0.000000 0.004164 0.000000
# 4 0.000000 0.000000 0.000000 0.034278 0.000000 -0.002194
# 5 0.001239 -0.006666 0.004164 0.000000 0.047075 0.000000
# 6 0.000000 0.000000 0.000000 -0.002194 0.000000 0.026413
#
#
# Mechanical properties :
#
#
# Convention : Reuss Voigt Hill
#
# Bulk Modulus (GPa) = 41.35184 42.46454 41.90819
# Shear Modulus (GPa) = 33.17562 38.56997 35.87280
#
# Velocity S-wave (km/s) = 3.50429 3.77846 3.64395
# Velocity P-wave (km/s) = 5.62849 5.89526 5.76341
#
# Compressibility (1/GPa) = 0.02418272
#
# Stress axis : x y z
#
# Youngs Moduli (GPa) = 103.16027 105.34038 96.64125
#
# Poissons Ratio (x) = 0.10033 -0.05796
# Poissons Ratio (y) = 0.09825 0.22451
# Poissons Ratio (z) = -0.06188 0.24472
#
# Static dielectric constant tensor:
#      x y z
#    x 2.261760 0.000000 -0.094790 
#    y 0.000000 2.148360 0.000000 
#    z -0.094790 0.000000 2.274930 
# 
# From -- ./inp_files/9455.got.cif
#   From: 2010.05.17/outbox.cif.g08.bks.cpg/sg4_5_cif.got.tgz:9455.got - 2010.06.03 18:43:04.
