data_PCOD9119307
_publ_section_title
;
Structure prediction by ZEFSAII (Michael W. Deem and Ramdas Pophale) SiO2 
 PCOD9119307
Probable space group: P 21
;
_chemical_formula_sum "Si O2"
_cell_formula_units_Z 12
_cell_length_a 4.950811
_cell_length_b 17.490749
_cell_length_c 6.139456
_cell_angle_alpha 90.000000
_cell_angle_beta 95.740400
_cell_angle_gamma 90.000000
_cell_volume 528.970322
_symmetry_space_group_name_H-M "P 21"
_symmetry_group_IT_number 4
_symmetry_cell_setting 'monoclinic'
loop_
_space_group_symop_operation_xyz
x,y,z
-x,1/2+y,-z
loop_
_atom_site_type_symbol
_atom_site_label
_atom_site_fract_x
_atom_site_fract_y
_atom_site_fract_z
Si Si1 0.436464 0.013910 0.514792
Si Si2 0.563680 0.338045 0.485147
Si Si3 0.944628 0.075319 0.754121
Si Si4 0.055524 0.276640 0.245831
Si Si5 0.680896 0.225888 0.847159
Si Si6 0.319197 0.126064 0.152801
O O1 0.676218 0.024809 0.708930
O O2 0.491625 0.069826 0.316322
O O3 0.159405 0.044585 0.598006
O O4 0.413043 0.925976 0.449341
O O5 0.323975 0.327136 0.290971
O O6 0.508508 0.282121 0.683596
O O7 0.840794 0.307395 0.401966
O O8 0.840364 0.162407 0.719702
O O9 0.101916 0.077894 0.996282
O O10 0.159749 0.189548 0.280270
O O11 0.898175 0.274057 0.003691
O O12 0.500029 0.175978 0.999969
#
# Coordination Sequence:
#
# PCOD9119307 Si02
#       6
#     2   2   2   2   2   2
#     4  12  27  44  67 102 144 180 224 288 353 403
#     4  12  27  44  67 102 144 180 224 288 353 403
#     4  11  25  46  71 100 134 183 233 282 336 414
#     4  11  25  46  71 100 134 183 233 282 336 414
#     4  11  25  45  76 101 134 183 240 281 333 413
#     4  11  25  45  76 101 134 183 240 281 333 413
#
# _framework density 22.685586000000001
#
# number of rings (size 3 to 8) (size 9 to 14) (size 15 to 20)
#    0.000    0.667    3.333    3.000    9.333    2.667 
#    0.000    0.000    0.000    0.000    0.000    0.000 
#    0.000    0.000    0.000    0.000    0.000    0.000 
#
# Total GULP energy -67140.437155 kJ/mol
# GULP energy per Si atom -5595.036430 kJ/mol
# Density = 2.263395 g / cm^3
# Si number density = 22.685586 Si / 1000 Ang^3
#
#
#
# Elastic Constant Matrix: (Units=GPa)
#
#
# Indices 1 2 3 4 5 6 
#
# 1 117.2799 34.7771 22.0973 0.0000 -0.1122 0.0000
# 2 34.7771 106.9344 66.6274 0.0000 1.8373 0.0000
# 3 22.0973 66.6274 59.4902 0.0000 7.3579 0.0000
# 4 0.0000 0.0000 0.0000 21.3001 0.0000 5.7853
# 5 -0.1122 1.8373 7.3579 0.0000 36.8072 0.0000
# 6 0.0000 0.0000 0.0000 5.7853 0.0000 11.3318
#
#
#
# Elastic Compliance Matrix: (Units=1/GPa)
#
#
# Indices 1 2 3 4 5 6 
#
# 1 0.009439 -0.002883 -0.000306 0.000000 0.000234 0.000000
# 2 -0.002883 0.032962 -0.036544 0.000000 0.005651 0.000000
# 3 -0.000306 -0.036544 0.059087 0.000000 -0.009989 0.000000
# 4 0.000000 0.000000 0.000000 0.054506 0.000000 -0.027827
# 5 0.000234 0.005651 -0.009989 0.000000 0.028884 0.000000
# 6 0.000000 0.000000 0.000000 -0.027827 0.000000 0.102454
#
#
# Mechanical properties :
#
#
# Convention : Reuss Voigt Hill
#
# Bulk Modulus (GPa) = 45.41045 58.96759 52.18902
# Shear Modulus (GPa) = 13.36397 24.56800 18.96598
#
# Velocity S-wave (km/s) = 2.42976 3.29443 2.89457
# Velocity P-wave (km/s) = 5.28511 6.36560 5.85036
#
# Compressibility (1/GPa) = 0.02202136
#
# Stress axis : x y z
#
# Youngs Moduli (GPa) = 105.93825 30.33824 16.92414
#
# Poissons Ratio (x) = 0.08747 0.00518
# Poissons Ratio (y) = 0.30545 0.61848
# Poissons Ratio (z) = 0.03242 1.10869
#
# Static dielectric constant tensor:
#      x y z
#    x 1.849290 0.000000 -0.026680 
#    y 0.000000 1.813140 0.000000 
#    z -0.026680 0.000000 1.852800 
# 
# From -- ./inp_files/376.got.cif
#   From: 2010.05.17/outbox.cif.g08.bks.cpg/sg4_1_cif.got.tgz:376.got - 2010.06.03 18:43:04.
