data_PCOD9119368
_publ_section_title
;
Structure prediction by ZEFSAII (Michael W. Deem and Ramdas Pophale) SiO2 
 PCOD9119368
Probable space group: P 21
;
_chemical_formula_sum "Si O2"
_cell_formula_units_Z 16
_cell_length_a 15.694968
_cell_length_b 8.808092
_cell_length_c 8.189170
_cell_angle_alpha 90.000000
_cell_angle_beta 141.655799
_cell_angle_gamma 90.000000
_cell_volume 702.332779
_symmetry_space_group_name_H-M "P 21"
_symmetry_group_IT_number 4
_symmetry_cell_setting 'monoclinic'
loop_
_space_group_symop_operation_xyz
x,y,z
-x,1/2+y,-z
loop_
_atom_site_type_symbol
_atom_site_label
_atom_site_fract_x
_atom_site_fract_y
_atom_site_fract_z
Si Si1 0.859264 0.578370 0.259514
Si Si2 0.593559 0.691791 0.288421
Si Si3 0.134708 0.203523 0.101925
Si Si4 0.603680 0.181446 0.534756
Si Si5 0.124468 0.399847 0.582064
Si Si6 0.415680 0.397995 0.038230
Si Si7 0.595101 0.412607 0.782790
Si Si8 0.135764 0.530111 0.231035
O O1 0.882372 0.718744 0.413816
O O2 0.989005 0.467956 0.459920
O O3 0.852113 0.645215 0.063506
O O4 0.714884 0.493012 0.065630
O O5 0.732334 0.654641 0.594236
O O6 0.505605 0.541769 0.122945
O O7 0.504256 0.805742 0.263759
O O8 0.618262 0.788885 0.164228
O O9 0.127341 0.385291 0.100279
O O10 0.997069 0.136486 0.975330
O O11 0.501237 0.293139 0.286569
O O12 0.664290 0.294404 0.761635
O O13 0.724015 0.116843 0.601943
O O14 0.504827 0.042739 0.443503
O O15 0.134114 0.464459 0.412979
O O16 0.267437 0.447608 0.883240
#
# Coordination Sequence:
#
# PCOD9119368 Si02
#       8
#     2   2   2   2   2   2   2   2
#     4  11  27  46  71 101 143 186 238 293 364 428
#     4  12  26  45  73 106 144 188 240 296 364 428
#     4  11  25  48  68 105 137 187 241 293 351 425
#     4  12  25  46  74 108 143 187 240 297 360 430
#     4  11  25  48  68 102 145 186 236 291 357 430
#     4  12  25  44  72 104 144 188 237 296 358 434
#     4  12  25  45  72 106 141 187 237 298 364 423
#     4  11  26  46  74 102 141 187 241 292 354 426
#
# _framework density 22.781223000000001
#
# number of rings (size 3 to 8) (size 9 to 14) (size 15 to 20)
#    0.000    0.500    3.750    3.750    7.000    2.000 
#    0.000    0.000    0.000    0.000    0.000    0.000 
#    0.000    0.000    0.000    0.000    0.000    0.000 
#
# Total GULP energy -89595.053429 kJ/mol
# GULP energy per Si atom -5599.690839 kJ/mol
# Density = 2.272937 g / cm^3
# Si number density = 22.781223 Si / 1000 Ang^3
#
#
#
# Elastic Constant Matrix: (Units=GPa)
#
#
# Indices 1 2 3 4 5 6 
#
# 1 50.8424 35.4185 34.8581 0.0000 26.2419 0.0000
# 2 35.4185 134.1073 60.0488 0.0000 17.0087 0.0000
# 3 34.8581 60.0488 109.7726 0.0000 36.4667 0.0000
# 4 0.0000 0.0000 0.0000 43.6405 0.0000 8.1040
# 5 26.2419 17.0087 36.4667 0.0000 31.0644 0.0000
# 6 0.0000 0.0000 0.0000 8.1040 0.0000 42.5432
#
#
#
# Elastic Compliance Matrix: (Units=1/GPa)
#
#
# Indices 1 2 3 4 5 6 
#
# 1 0.040019 -0.007394 0.002004 0.000000 -0.032110 0.000000
# 2 -0.007394 0.011286 -0.006308 0.000000 0.007472 0.000000
# 3 0.002004 -0.006308 0.018588 0.000000 -0.020059 0.000000
# 4 0.000000 0.000000 0.000000 0.023755 0.000000 -0.004525
# 5 -0.032110 0.007472 -0.020059 0.000000 0.078773 0.000000
# 6 0.000000 0.000000 0.000000 -0.004525 0.000000 0.024368
#
#
# Mechanical properties :
#
#
# Convention : Reuss Voigt Hill
#
# Bulk Modulus (GPa) = 21.50679 61.70814 41.60746
# Shear Modulus (GPa) = 21.21474 34.40939 27.81206
#
# Velocity S-wave (km/s) = 3.05493 3.89064 3.49783
# Velocity P-wave (km/s) = 4.68023 6.87960 5.88359
#
# Compressibility (1/GPa) = 0.04649695
#
# Stress axis : x y z
#
# Youngs Moduli (GPa) = 24.98795 88.60144 53.79836
#
# Poissons Ratio (x) = 0.65512 -0.10780
# Poissons Ratio (y) = 0.18476 0.33937
# Poissons Ratio (z) = -0.05007 0.55891
#
# Static dielectric constant tensor:
#      x y z
#    x 1.896100 0.000000 -0.019330 
#    y 0.000000 1.814460 0.000000 
#    z -0.019330 0.000000 1.848660 
# 
# From -- ./inp_files/9676.got.cif
#   From: 2010.05.17/outbox.cif.g08.bks.cpg/sg4_5_cif.got.tgz:9676.got - 2010.06.03 18:43:04.
