data_PCOD9119798
_publ_section_title
;
Structure prediction by ZEFSAII (Michael W. Deem and Ramdas Pophale) SiO2 
 PCOD9119798
Probable space group: P 21
;
_chemical_formula_sum "Si O2"
_cell_formula_units_Z 16
_cell_length_a 9.188964
_cell_length_b 11.273523
_cell_length_c 16.379991
_cell_angle_alpha 90.000000
_cell_angle_beta 22.033070
_cell_angle_gamma 90.000000
_cell_volume 636.553905
_symmetry_space_group_name_H-M "P 21"
_symmetry_group_IT_number 4
_symmetry_cell_setting 'monoclinic'
loop_
_space_group_symop_operation_xyz
x,y,z
-x,1/2+y,-z
loop_
_atom_site_type_symbol
_atom_site_label
_atom_site_fract_x
_atom_site_fract_y
_atom_site_fract_z
Si Si1 0.345298 0.500000 0.887407
Si Si2 0.506623 0.245135 0.249012
Si Si3 0.033482 0.490366 0.736764
Si Si4 0.654700 0.490270 0.112595
Si Si5 0.966515 0.499900 0.263238
Si Si6 0.153357 0.245133 0.612313
Si Si7 0.988956 0.245133 0.254969
Si Si8 0.349134 0.245135 0.885308
O O1 0.574229 0.621053 0.753037
O O2 0.552242 0.372088 0.769173
O O3 0.000000 0.495135 1.000000
O O4 0.143389 0.503976 0.080904
O O5 0.425767 0.369218 0.246967
O O6 0.318530 0.245134 0.435853
O O7 0.974600 0.245136 0.020865
O O8 0.499998 0.495133 0.500002
O O9 0.935274 0.368107 0.742748
O O10 0.916974 0.616364 0.756959
O O11 0.856605 0.486292 0.919100
O O12 0.447757 0.618183 0.230828
O O13 0.064726 0.622159 0.257253
O O14 0.083027 0.373902 0.243041
O O15 0.524376 0.245133 0.480244
O O16 0.175717 0.245134 0.067268
#
# Coordination Sequence:
#
# PCOD9119798 Si02
#       8
#     2   2   2   2   2   2   2   2
#     4   9  14  20  27  33  38  43  48  55  63  68
#     4   9  15  21  25  31  39  45  51  55  57  65
#     4   9  14  20  27  33  38  43  48  55  63  68
#     4   9  14  20  27  33  38  43  48  55  63  68
#     4   9  14  20  27  33  38  43  48  55  63  68
#     4   9  15  21  25  31  39  45  51  55  57  65
#     4   7  12  19  25  31  37  41  47  55  61  67
#     4   7  12  19  25  31  37  41  47  55  61  67
#
# _framework density 25.135339999999999
#
# number of rings (size 3 to 8) (size 9 to 14) (size 15 to 20)
#    0.000    3.500    0.000    5.250    0.000    0.000 
#    0.000    3.750    0.000    0.000    0.000    0.000 
#    0.000    0.000    0.000    0.000    0.000    0.000 
#
# Total GULP energy -89352.470957 kJ/mol
# GULP energy per Si atom -5584.529435 kJ/mol
# Density = 2.507813 g / cm^3
# Si number density = 25.135340 Si / 1000 Ang^3
#
#
#
# Elastic Constant Matrix: (Units=GPa)
#
#
# Indices 1 2 3 4 5 6 
#
# 1 85.8316 17.7986 24.4788 0.0000 -5.2268 0.0000
# 2 17.7986 363.8059 64.4197 0.0000 28.5938 0.0000
# 3 24.4788 64.4197 95.5151 0.0000 0.8165 0.0000
# 4 0.0000 0.0000 0.0000 23.6551 0.0000 27.0768
# 5 -5.2268 28.5938 0.8165 0.0000 37.0627 0.0000
# 6 0.0000 0.0000 0.0000 27.0768 0.0000 -12.5274
#
#
#
# Elastic Compliance Matrix: (Units=1/GPa)
#
#
# Indices 1 2 3 4 5 6 
#
# 1 0.012712 -0.000230 -0.003121 0.000000 0.002039 0.000000
# 2 -0.000230 0.003347 -0.002177 0.000000 -0.002567 0.000000
# 3 -0.003121 -0.002177 0.012729 0.000000 0.000959 0.000000
# 4 0.000000 0.000000 0.000000 0.012169 0.000000 0.026301
# 5 0.002039 -0.002567 0.000959 0.000000 0.029228 0.000000
# 6 0.000000 0.000000 0.000000 0.026301 0.000000 -0.022977
#
#
# Mechanical properties :
#
#
# Convention : Reuss Voigt Hill
#
# Bulk Modulus (GPa) = 56.38543 84.28298 70.33420
# Shear Modulus (GPa) = 77.91441 38.86844 58.39142
#
# Velocity S-wave (km/s) = 5.57362 3.93665 4.82506
# Velocity P-wave (km/s) = 7.99386 7.36664 7.68665
#
# Compressibility (1/GPa) = 0.01773508
#
# Stress axis : x y z
#
# Youngs Moduli (GPa) = 78.66302 298.76514 78.56003
#
# Poissons Ratio (x) = 0.06860 0.24515
# Poissons Ratio (y) = 0.01806 0.17100
# Poissons Ratio (z) = 0.24547 0.65031
#
# Static dielectric constant tensor:
#      x y z
#    x 1.942970 0.000000 -0.038720 
#    y 0.000000 2.093800 0.000000 
#    z -0.038720 0.000000 1.898140 
# 
# From -- ./inp_files/11155.got.cif
#   From: 2010.05.17/outbox.cif.g08.bks.cpg/sg4_6_cif.got.tgz:11155.got - 2010.06.03 18:43:04.
