data_PCOD9119894
_publ_section_title
;
Structure prediction by ZEFSAII (Michael W. Deem and Ramdas Pophale) SiO2 
 PCOD9119894
Probable space group: P 21
;
_chemical_formula_sum "Si O2"
_cell_formula_units_Z 16
_cell_length_a 12.000000
_cell_length_b 6.000000
_cell_length_c 12.000000
_cell_angle_alpha 90.000000
_cell_angle_beta 130.000000
_cell_angle_gamma 90.000000
_cell_volume 661.862399
_symmetry_space_group_name_H-M "P 21"
_symmetry_group_IT_number 4
_symmetry_cell_setting 'monoclinic'
loop_
_space_group_symop_operation_xyz
x,y,z
-x,1/2+y,-z
loop_
_atom_site_type_symbol
_atom_site_label
_atom_site_fract_x
_atom_site_fract_y
_atom_site_fract_z
Si Si1 0.181633 0.599380 0.956348
Si Si2 0.926440 0.490340 0.645608
Si Si3 0.388122 0.610991 0.269136
Si Si4 0.387185 0.789452 0.509479
Si Si5 0.723014 0.408105 0.184757
Si Si6 0.581406 0.727153 0.939181
Si Si7 0.597344 0.919217 0.307664
Si Si8 0.116084 0.242678 0.588364
O O1 0.215335 0.779587 0.881943
O O2 0.021646 0.517260 0.819530
O O3 0.230566 0.657834 0.112780
O O4 0.307330 0.412253 0.025553
O O5 0.758508 0.432204 0.558312
O O6 0.934735 0.708666 0.571466
O O7 0.014706 0.313007 0.625527
O O8 0.392961 0.758484 0.382246
O O9 0.451786 0.373393 0.349952
O O10 0.529869 0.678582 0.286601
O O11 0.362307 0.558488 0.557852
O O12 0.583866 0.288803 0.144034
O O13 0.831211 0.492839 0.347291
O O14 0.652369 0.634575 0.094835
O O15 0.549633 0.528503 0.835474
O O16 0.744896 0.904948 0.331613
#
# Coordination Sequence:
#
# PCOD9119894 Si02
#       8
#     2   2   2   2   2   2   2   2
#     4  12  25  43  66 103 147 182 231 292 355 426
#     4  12  26  45  67 107 149 187 229 284 367 440
#     4  12  25  48  74 103 131 186 250 301 344 408
#     4  12  26  48  76 101 137 185 248 298 350 419
#     4  12  22  38  64 101 145 188 236 282 343 425
#     4  12  21  37  64 103 142 182 233 286 349 420
#     4  12  23  43  75 103 136 184 242 299 349 416
#     4  12  24  44  68 107 147 192 233 282 363 442
#
# _framework density 24.174209000000001
#
# number of rings (size 3 to 8) (size 9 to 14) (size 15 to 20)
#    0.000    0.000    7.500    4.500    0.000    0.000 
#    0.000    5.000    0.000    0.000    0.000    0.000 
#    0.000    0.000    0.000    0.000    0.000    0.000 
#
# Total GULP energy -89126.262409 kJ/mol
# GULP energy per Si atom -5570.391401 kJ/mol
# Density = 2.411919 g / cm^3
# Si number density = 24.174209 Si / 1000 Ang^3
#
#
#
# Elastic Constant Matrix: (Units=GPa)
#
#
# Indices 1 2 3 4 5 6 
#
# 1 53.0164 7.9157 8.6472 0.0000 10.0301 0.0000
# 2 7.9157 47.1248 33.5650 0.0000 12.5844 0.0000
# 3 8.6472 33.5650 173.3320 0.0000 17.8789 0.0000
# 4 0.0000 0.0000 0.0000 -9.8120 0.0000 -6.5089
# 5 10.0301 12.5844 17.8789 0.0000 31.9319 0.0000
# 6 0.0000 0.0000 0.0000 -6.5089 0.0000 22.4799
#
#
#
# Elastic Compliance Matrix: (Units=1/GPa)
#
#
# Indices 1 2 3 4 5 6 
#
# 1 0.020206 -0.001852 -0.000074 0.000000 -0.005575 0.000000
# 2 -0.001852 0.026583 -0.004282 0.000000 -0.007497 0.000000
# 3 -0.000074 -0.004282 0.006820 0.000000 -0.002107 0.000000
# 4 0.000000 0.000000 0.000000 -0.085494 0.000000 -0.024755
# 5 -0.005575 -0.007497 -0.002107 0.000000 0.037203 0.000000
# 6 0.000000 0.000000 0.000000 -0.024755 0.000000 0.037317
#
#
# Mechanical properties :
#
#
# Convention : Reuss Voigt Hill
#
# Bulk Modulus (GPa) = 24.27698 41.52546 32.90122
# Shear Modulus (GPa) = 72.69479 23.80963 48.25221
#
# Velocity S-wave (km/s) = 5.48967 3.14175 4.47253
# Velocity P-wave (km/s) = 7.08846 5.51141 6.34909
#
# Compressibility (1/GPa) = 0.04119129
#
# Stress axis : x y z
#
# Youngs Moduli (GPa) = 49.49141 37.61753 146.63718
#
# Poissons Ratio (x) = 0.06968 0.01089
# Poissons Ratio (y) = 0.09167 0.62790
# Poissons Ratio (z) = 0.00368 0.16108
#
# Static dielectric constant tensor:
#      x y z
#    x 3.471020 0.000000 -1.569090 
#    y 0.000000 1.789660 0.000000 
#    z -1.569090 0.000000 3.680380 
# 
# From -- ./inp_files/11662.got.cif
#   From: 2010.05.17/outbox.ucp.g08.bks.cvg/sg4_6_cif.got.tgz:11662.got - 2010.06.11 12:51:24.
