data_PCOD9119855
_publ_section_title
;
Structure prediction by ZEFSAII (Michael W. Deem and Ramdas Pophale) SiO2 
 PCOD9119855
Probable space group: P 21
;
_chemical_formula_sum "Si O2"
_cell_formula_units_Z 14
_cell_length_a 6.000000
_cell_length_b 9.000000
_cell_length_c 12.000000
_cell_angle_alpha 90.000000
_cell_angle_beta 100.000000
_cell_angle_gamma 90.000000
_cell_volume 638.155424
_symmetry_space_group_name_H-M "P 21"
_symmetry_group_IT_number 4
_symmetry_cell_setting 'monoclinic'
loop_
_space_group_symop_operation_xyz
x,y,z
-x,1/2+y,-z
loop_
_atom_site_type_symbol
_atom_site_label
_atom_site_fract_x
_atom_site_fract_y
_atom_site_fract_z
Si Si1 0.520933 0.508180 0.589702
Si Si2 0.921358 0.731215 0.670412
Si Si3 0.289785 0.512401 0.808291
Si Si4 0.312068 0.663921 0.031407
Si Si5 0.763638 0.696536 0.215247
Si Si6 0.984513 0.423674 0.114662
Si Si7 0.848093 0.227641 0.546641
O O1 0.695898 0.644275 0.616846
O O2 0.430999 0.476871 0.707539
O O3 0.670404 0.362104 0.565134
O O4 0.311265 0.579063 0.495728
O O5 0.095352 0.618944 0.745139
O O6 0.885603 0.846704 0.768748
O O7 0.039505 0.775136 0.562767
O O8 0.176876 0.355877 0.832315
O O9 0.412082 0.594477 0.922859
O O10 0.489661 0.698580 0.148513
O O11 0.150387 0.530571 0.059496
O O12 0.160763 0.805174 0.972776
O O13 0.825543 0.542101 0.163850
O O14 0.937371 0.702130 0.344779
#
# Coordination Sequence:
#
# PCOD9119855 Si02
#       7
#     2   2   2   2   2   2   2
#     4  11  26  47  76 105 149 199 251 314 374 448
#     4  10  25  48  71 108 151 190 252 312 374 449
#     4  10  24  46  72 104 142 197 246 311 374 447
#     4  11  26  49  75 107 157 192 253 311 371 452
#     4  12  26  44  73 108 148 193 250 308 377 443
#     4  11  27  45  77 111 144 206 251 302 383 449
#     4  11  28  45  76 109 149 199 253 312 379 446
#
# _framework density 21.938229
#
# number of rings (size 3 to 8) (size 9 to 14) (size 15 to 20)
#    0.000    1.143    1.429    1.714    8.000    9.143 
#    0.000    0.000    0.000    0.000    0.000    0.000 
#    0.000    0.000    0.000    0.000    0.000    0.000 
#
# Total GULP energy -77938.694931 kJ/mol
# GULP energy per Si atom -5567.049638 kJ/mol
# Density = 2.188830 g / cm^3
# Si number density = 21.938229 Si / 1000 Ang^3
#
#
#
# Elastic Constant Matrix: (Units=GPa)
#
#
# Indices 1 2 3 4 5 6 
#
# 1 71.9154 31.9484 57.4361 0.0000 25.5642 0.0000
# 2 31.9484 130.4048 65.5183 0.0000 -1.4275 0.0000
# 3 57.4361 65.5183 130.7915 0.0000 29.6203 0.0000
# 4 0.0000 0.0000 0.0000 51.9244 0.0000 3.7582
# 5 25.5642 -1.4275 29.6203 0.0000 39.3677 0.0000
# 6 0.0000 0.0000 0.0000 3.7582 0.0000 43.0079
#
#
#
# Elastic Compliance Matrix: (Units=1/GPa)
#
#
# Indices 1 2 3 4 5 6 
#
# 1 0.024467 -0.002578 -0.007032 0.000000 -0.010691 0.000000
# 2 -0.002578 0.011447 -0.006117 0.000000 0.006692 0.000000
# 3 -0.007032 -0.006117 0.015446 0.000000 -0.007277 0.000000
# 4 0.000000 0.000000 0.000000 0.019381 0.000000 -0.001694
# 5 -0.010691 0.006692 -0.007277 0.000000 0.038062 0.000000
# 6 0.000000 0.000000 0.000000 -0.001694 0.000000 0.023400
#
#
# Mechanical properties :
#
#
# Convention : Reuss Voigt Hill
#
# Bulk Modulus (GPa) = 50.23856 71.43526 60.83691
# Shear Modulus (GPa) = 29.36106 38.74061 34.05084
#
# Velocity S-wave (km/s) = 3.66232 4.20681 3.94397
# Velocity P-wave (km/s) = 6.39008 7.49860 6.96643
#
# Compressibility (1/GPa) = 0.01990503
#
# Stress axis : x y z
#
# Youngs Moduli (GPa) = 40.87128 87.35951 64.74053
#
# Poissons Ratio (x) = 0.22525 0.45524
# Poissons Ratio (y) = 0.10538 0.39605
# Poissons Ratio (z) = 0.28740 0.53442
#
# Static dielectric constant tensor:
#      x y z
#    x 1.877750 0.000000 -0.021630 
#    y 0.000000 1.854140 0.000000 
#    z -0.021630 0.000000 1.862320 
# 
# From -- ./inp_files/2516.got.cif
#   From: 2010.05.17/outbox.ucp.g08.bks.cvg/sg4_2_cif.got.tgz:2516.got - 2010.06.11 12:51:24.
