data_PCOD9119429
_publ_section_title
;
Structure prediction by ZEFSAII (Michael W. Deem and Ramdas Pophale) SiO2 
 PCOD9119429
Probable space group: P 21
;
_chemical_formula_sum "Si O2"
_cell_formula_units_Z 12
_cell_length_a 12.260787
_cell_length_b 5.145578
_cell_length_c 7.294825
_cell_angle_alpha 90.000000
_cell_angle_beta 96.821120
_cell_angle_gamma 90.000000
_cell_volume 456.964471
_symmetry_space_group_name_H-M "P 21"
_symmetry_group_IT_number 4
_symmetry_cell_setting 'monoclinic'
loop_
_space_group_symop_operation_xyz
x,y,z
-x,1/2+y,-z
loop_
_atom_site_type_symbol
_atom_site_label
_atom_site_fract_x
_atom_site_fract_y
_atom_site_fract_z
Si Si1 0.525481 0.505360 0.885202
Si Si2 0.928918 0.529035 0.729820
Si Si3 0.146938 0.724594 0.952898
Si Si4 0.335974 0.554606 0.562457
Si Si5 0.199604 0.054986 0.641550
Si Si6 0.722343 0.844076 0.826402
O O1 0.449521 0.513838 0.690310
O O2 0.647155 0.599036 0.858721
O O3 0.514771 0.230818 0.983043
O O4 0.905887 0.505985 0.509954
O O5 0.838907 0.741611 0.774527
O O6 0.050621 0.596682 0.815046
O O7 0.896080 0.287507 0.851974
O O8 0.173340 0.984082 0.844666
O O9 0.249467 0.536001 0.002235
O O10 0.287748 0.839039 0.592932
O O11 0.251142 0.335583 0.619188
O O12 0.339576 0.500732 0.346724
#
# Coordination Sequence:
#
# PCOD9119429 Si02
#       6
#     2   2   2   2   2   2
#     4  12  29  48  76 113 149 198 262 315 385 455
#     4  11  26  46  74 114 152 204 255 307 383 458
#     4  12  25  47  79 109 158 204 253 312 382 453
#     4  11  26  51  74 110 152 201 258 313 385 453
#     4  11  27  47  77 112 157 200 254 315 377 452
#     4  11  27  49  76 106 156 203 252 320 382 451
#
# _framework density 26.260245999999999
#
# number of rings (size 3 to 8) (size 9 to 14) (size 15 to 20)
#    0.000    0.667    3.333    2.000    9.333    8.000 
#    0.000    0.000    0.000    0.000    0.000    0.000 
#    0.000    0.000    0.000    0.000    0.000    0.000 
#
# Total GULP energy -67386.189735 kJ/mol
# GULP energy per Si atom -5615.515811 kJ/mol
# Density = 2.620048 g / cm^3
# Si number density = 26.260246 Si / 1000 Ang^3
#
#
#
# Elastic Constant Matrix: (Units=GPa)
#
#
# Indices 1 2 3 4 5 6 
#
# 1 83.4706 28.2417 51.7259 0.0000 28.0840 0.0000
# 2 28.2417 63.2440 24.4416 0.0000 2.6332 0.0000
# 3 51.7259 24.4416 198.5796 0.0000 48.3183 0.0000
# 4 0.0000 0.0000 0.0000 45.6767 0.0000 1.3740
# 5 28.0840 2.6332 48.3183 0.0000 53.9810 0.0000
# 6 0.0000 0.0000 0.0000 1.3740 0.0000 45.1770
#
#
#
# Elastic Compliance Matrix: (Units=1/GPa)
#
#
# Indices 1 2 3 4 5 6 
#
# 1 0.018045 -0.006947 -0.002101 0.000000 -0.007168 0.000000
# 2 -0.006947 0.019348 -0.001562 0.000000 0.004069 0.000000
# 3 -0.002101 -0.001562 0.007020 0.000000 -0.005114 0.000000
# 4 0.000000 0.000000 0.000000 0.021913 0.000000 -0.000666
# 5 -0.007168 0.004069 -0.005114 0.000000 0.026634 0.000000
# 6 0.000000 0.000000 0.000000 -0.000666 0.000000 0.022155
#
#
# Mechanical properties :
#
#
# Convention : Reuss Voigt Hill
#
# Bulk Modulus (GPa) = 43.11771 61.56807 52.34289
# Shear Modulus (GPa) = 34.70641 45.02595 39.86618
#
# Velocity S-wave (km/s) = 3.63937 4.14527 3.90053
# Velocity P-wave (km/s) = 5.84081 6.81229 6.34517
#
# Compressibility (1/GPa) = 0.02319233
#
# Stress axis : x y z
#
# Youngs Moduli (GPa) = 55.41802 51.68404 142.45891
#
# Poissons Ratio (x) = 0.35907 0.29930
# Poissons Ratio (y) = 0.38501 0.22248
# Poissons Ratio (z) = 0.11643 0.08072
#
# Static dielectric constant tensor:
#      x y z
#    x 2.038680 0.000000 -0.032930 
#    y 0.000000 2.047250 0.000000 
#    z -0.032930 0.000000 2.026810 
# 
# From -- ./inp_files/7231.got.cif
#   From: 2010.05.17/outbox.cif.g08.bks.cpg/sg4_4_cif.got.tgz:7231.got - 2010.06.03 18:43:04.
