data_PCOD9119051
_publ_section_title
;
Structure prediction by ZEFSAII (Michael W. Deem and Ramdas Pophale) SiO2 
 PCOD9119051
Probable space group: P 21
;
_chemical_formula_sum "Si O2"
_cell_formula_units_Z 14
_cell_length_a 14.690300
_cell_length_b 4.937741
_cell_length_c 9.200613
_cell_angle_alpha 90.000000
_cell_angle_beta 51.567440
_cell_angle_gamma 90.000000
_cell_volume 522.788746
_symmetry_space_group_name_H-M "P 21"
_symmetry_group_IT_number 4
_symmetry_cell_setting 'monoclinic'
loop_
_space_group_symop_operation_xyz
x,y,z
-x,1/2+y,-z
loop_
_atom_site_type_symbol
_atom_site_label
_atom_site_fract_x
_atom_site_fract_y
_atom_site_fract_z
Si Si1 0.568693 0.651830 0.972155
Si Si2 0.863975 0.529815 0.453577
Si Si3 0.204080 0.503336 0.303435
Si Si4 0.688061 0.469308 0.385790
Si Si5 0.746252 0.091687 0.074016
Si Si6 0.039117 0.305355 0.048041
Si Si7 0.536952 0.745852 0.306448
O O1 0.679305 0.816672 0.805076
O O2 0.532414 0.379388 0.928556
O O3 0.581774 0.568239 0.126899
O O4 0.885931 0.777744 0.543012
O O5 0.772341 0.609045 0.417029
O O6 0.973693 0.420252 0.254645
O O7 0.809956 0.269142 0.586566
O O8 0.206526 0.619170 0.136304
O O9 0.590931 0.650598 0.404012
O O10 0.600893 0.259589 0.552168
O O11 0.755698 0.310161 0.192193
O O12 0.824775 0.843296 0.056381
O O13 0.610986 0.015026 0.200488
O O14 0.004051 0.508924 0.951836
#
# Coordination Sequence:
#
# PCOD9119051 Si02
#       7
#     2   2   2   2   2   2   2
#     4  11  24  43  67 101 148 195 237 292 360 435
#     4  12  27  48  75 107 145 190 247 302 362 441
#     4  11  27  46  70 107 148 191 241 297 374 436
#     4  12  24  44  72 105 143 189 246 303 359 437
#     4  11  27  46  72 104 147 192 240 304 370 437
#     4  12  26  49  78 110 142 187 247 306 366 431
#     4  11  25  40  72 102 141 188 242 294 365 429
#
# _framework density 26.779458999999999
#
# number of rings (size 3 to 8) (size 9 to 14) (size 15 to 20)
#    0.000    0.571    2.857    4.286   10.000    2.286 
#    0.000    0.000    0.000    0.000    0.000    0.000 
#    0.000    0.000    0.000    0.000    0.000    0.000 
#
# Total GULP energy -78369.643114 kJ/mol
# GULP energy per Si atom -5597.831651 kJ/mol
# Density = 2.671851 g / cm^3
# Si number density = 26.779459 Si / 1000 Ang^3
#
#
#
# Elastic Constant Matrix: (Units=GPa)
#
#
# Indices 1 2 3 4 5 6 
#
# 1 64.8804 11.3328 37.9198 0.0000 -3.9726 0.0000
# 2 11.3328 107.7472 40.4973 0.0000 13.4159 0.0000
# 3 37.9198 40.4973 158.5714 0.0000 22.2892 0.0000
# 4 0.0000 0.0000 0.0000 38.8586 0.0000 11.7485
# 5 -3.9726 13.4159 22.2892 0.0000 44.6224 0.0000
# 6 0.0000 0.0000 0.0000 11.7485 0.0000 28.7105
#
#
#
# Elastic Compliance Matrix: (Units=1/GPa)
#
#
# Indices 1 2 3 4 5 6 
#
# 1 0.018654 -0.000657 -0.004898 0.000000 0.004305 0.000000
# 2 -0.000657 0.010443 -0.002216 0.000000 -0.002091 0.000000
# 3 -0.004898 -0.002216 0.008616 0.000000 -0.004074 0.000000
# 4 0.000000 0.000000 0.000000 0.029368 0.000000 -0.012017
# 5 0.004305 -0.002091 -0.004074 0.000000 0.025457 0.000000
# 6 0.000000 0.000000 0.000000 -0.012017 0.000000 0.039748
#
#
# Mechanical properties :
#
#
# Convention : Reuss Voigt Hill
#
# Bulk Modulus (GPa) = 45.10352 56.74432 50.92392
# Shear Modulus (GPa) = 32.21248 38.53491 35.37369
#
# Velocity S-wave (km/s) = 3.47202 3.79749 3.63840
# Velocity P-wave (km/s) = 5.74042 6.36109 6.05871
#
# Compressibility (1/GPa) = 0.02217122
#
# Stress axis : x y z
#
# Youngs Moduli (GPa) = 53.60758 95.75414 116.06087
#
# Poissons Ratio (x) = 0.06292 0.56848
# Poissons Ratio (y) = 0.03522 0.25719
# Poissons Ratio (z) = 0.26258 0.21219
#
# Static dielectric constant tensor:
#      x y z
#    x 2.157290 0.000000 0.018020 
#    y 0.000000 2.101600 0.000000 
#    z 0.018020 0.000000 2.164100 
# 
# From -- ./inp_files/7120.got.cif
#   From: 2010.05.17/outbox.cif.g08.bks.cpg/sg4_4_cif.got.tgz:7120.got - 2010.06.03 18:43:04.
