data_PCOD9119603
_publ_section_title
;
Structure prediction by ZEFSAII (Michael W. Deem and Ramdas Pophale) SiO2 
 PCOD9119603
Probable space group: P 21
;
_chemical_formula_sum "Si O2"
_cell_formula_units_Z 14
_cell_length_a 9.865780
_cell_length_b 5.904060
_cell_length_c 15.569585
_cell_angle_alpha 90.000000
_cell_angle_beta 141.637827
_cell_angle_gamma 90.000000
_cell_volume 562.849342
_symmetry_space_group_name_H-M "P 21"
_symmetry_group_IT_number 4
_symmetry_cell_setting 'monoclinic'
loop_
_space_group_symop_operation_xyz
x,y,z
-x,1/2+y,-z
loop_
_atom_site_type_symbol
_atom_site_label
_atom_site_fract_x
_atom_site_fract_y
_atom_site_fract_z
Si Si1 0.897957 0.026570 0.458625
Si Si2 0.742593 0.838801 0.854842
Si Si3 0.494804 0.507253 0.857631
Si Si4 0.239363 0.720033 0.882461
Si Si5 0.070183 0.993332 0.161723
Si Si6 0.550946 0.132820 0.627601
Si Si7 0.186530 0.426001 0.398920
O O1 0.719931 0.942439 0.301180
O O2 0.809509 0.066371 0.511322
O O3 0.964970 0.286184 0.463757
O O4 0.633234 0.646692 0.857554
O O5 0.849291 0.743706 0.820840
O O6 0.569874 0.011740 0.729459
O O7 0.932826 0.930601 0.009361
O O8 0.413456 0.660935 0.896570
O O9 0.637040 0.311766 0.972103
O O10 0.095061 0.504159 0.840905
O O11 0.058817 0.894326 0.756820
O O12 0.283239 0.844092 0.279004
O O13 0.301823 0.191108 0.483828
O O14 0.652259 0.016983 0.593830
#
# Coordination Sequence:
#
# PCOD9119603 Si02
#       7
#     2   2   2   2   2   2   2
#     4  12  31  54  84 118 166 223 278 338 419 501
#     4  12  25  46  76 119 156 207 270 336 412 494
#     4  12  29  48  81 119 164 215 272 343 416 498
#     4  12  27  50  76 118 156 216 272 334 414 496
#     4  12  24  48  77 112 157 207 272 334 416 491
#     4  12  28  47  79 115 159 208 272 345 418 493
#     4  12  28  49  79 115 160 212 274 342 415 495
#
# _framework density 24.873442000000001
#
# number of rings (size 3 to 8) (size 9 to 14) (size 15 to 20)
#    0.000    0.000    4.286    4.286   10.000    0.000 
#    0.000    0.000    0.000    0.000    0.000    0.000 
#    0.000    0.000    0.000    0.000    0.000    0.000 
#
# Total GULP energy -78300.343372 kJ/mol
# GULP energy per Si atom -5592.881669 kJ/mol
# Density = 2.481683 g / cm^3
# Si number density = 24.873442 Si / 1000 Ang^3
#
#
#
# Elastic Constant Matrix: (Units=GPa)
#
#
# Indices 1 2 3 4 5 6 
#
# 1 92.5285 -0.3095 2.1091 0.0000 -10.8164 0.0000
# 2 -0.3095 33.4654 28.0782 0.0000 -0.7014 0.0000
# 3 2.1091 28.0782 137.6252 0.0000 -14.4574 0.0000
# 4 0.0000 0.0000 0.0000 44.8078 0.0000 -10.8207
# 5 -10.8164 -0.7014 -14.4574 0.0000 38.5185 0.0000
# 6 0.0000 0.0000 0.0000 -10.8207 0.0000 47.4380
#
#
#
# Elastic Compliance Matrix: (Units=1/GPa)
#
#
# Indices 1 2 3 4 5 6 
#
# 1 0.011178 0.000039 0.000157 0.000000 0.003198 0.000000
# 2 0.000039 0.036232 -0.007623 0.000000 -0.002190 0.000000
# 3 0.000157 -0.007623 0.009171 0.000000 0.003347 0.000000
# 4 0.000000 0.000000 0.000000 0.023619 0.000000 0.005387
# 5 0.003198 -0.002190 0.003347 0.000000 0.028076 0.000000
# 6 0.000000 0.000000 0.000000 0.005387 0.000000 0.022309
#
#
# Mechanical properties :
#
#
# Convention : Reuss Voigt Hill
#
# Bulk Modulus (GPa) = 23.96582 35.93051 29.94817
# Shear Modulus (GPa) = 31.37814 41.73560 36.55687
#
# Velocity S-wave (km/s) = 3.55563 4.10068 3.83785
# Velocity P-wave (km/s) = 5.14905 6.07433 5.63073
#
# Compressibility (1/GPa) = 0.04172609
#
# Stress axis : x y z
#
# Youngs Moduli (GPa) = 89.46198 27.60017 109.04520
#
# Poissons Ratio (x) = -0.00107 -0.01709
# Poissons Ratio (y) = -0.00348 0.83122
# Poissons Ratio (z) = -0.01402 0.21039
#
# Static dielectric constant tensor:
#      x y z
#    x 1.943080 0.000000 0.039270 
#    y 0.000000 2.124270 0.000000 
#    z 0.039270 0.000000 1.980950 
# 
# From -- ./inp_files/5158.got.cif
#   From: 2010.05.17/outbox.cif.g08.bks.cpg/sg4_3_cif.got.tgz:5158.got - 2010.06.03 18:43:04.
