data_PCOD9119901
_publ_section_title
;
Structure prediction by ZEFSAII (Michael W. Deem and Ramdas Pophale) SiO2 
 PCOD9119901
Probable space group: P 21
;
_chemical_formula_sum "Si O2"
_cell_formula_units_Z 14
_cell_length_a 12.000000
_cell_length_b 9.000000
_cell_length_c 9.000000
_cell_angle_alpha 90.000000
_cell_angle_beta 140.000000
_cell_angle_gamma 90.000000
_cell_volume 624.789557
_symmetry_space_group_name_H-M "P 21"
_symmetry_group_IT_number 4
_symmetry_cell_setting 'monoclinic'
loop_
_space_group_symop_operation_xyz
x,y,z
-x,1/2+y,-z
loop_
_atom_site_type_symbol
_atom_site_label
_atom_site_fract_x
_atom_site_fract_y
_atom_site_fract_z
Si Si1 0.878172 0.803990 0.879282
Si Si2 0.015237 0.121304 0.566168
Si Si3 0.423271 0.838359 0.692487
Si Si4 0.236440 0.952322 0.195050
Si Si5 0.296010 0.512887 0.545125
Si Si6 0.642631 0.427123 0.033586
Si Si7 0.829675 0.919209 0.156794
O O1 0.824283 0.629383 0.853453
O O2 0.752936 0.894842 0.635243
O O3 0.882835 0.888450 0.042053
O O4 0.074603 0.836642 0.027618
O O5 0.070202 0.293318 0.642294
O O6 0.204044 0.044227 0.774202
O O7 0.885420 0.064119 0.563767
O O8 0.907687 0.071680 0.307745
O O9 0.341759 0.924834 0.462154
O O10 0.394807 0.668042 0.608038
O O11 0.347709 0.842671 0.789052
O O12 0.621270 0.893276 0.925559
O O13 0.321757 0.915688 0.116451
O O14 0.433716 0.446635 0.804425
#
# Coordination Sequence:
#
# PCOD9119901 Si02
#       7
#     2   2   2   2   2   2   2
#     4  12  25  51  76 115 163 208 268 333 398 481
#     4  12  24  49  75 107 153 205 258 324 395 469
#     4  12  27  51  77 117 162 206 265 340 399 475
#     4  12  26  50  80 115 162 214 267 328 406 476
#     4  12  25  49  81 112 158 207 265 326 398 476
#     4  12  25  49  78 114 159 204 269 327 392 478
#     4  12  26  49  77 110 157 206 264 332 398 475
#
# _framework density 22.407544999999999
#
# number of rings (size 3 to 8) (size 9 to 14) (size 15 to 20)
#    0.000    0.000    5.714    4.286    0.000    3.429 
#   12.857    0.000    0.000    0.000    0.000    0.000 
#    0.000    0.000    0.000    0.000    0.000    0.000 
#
# Total GULP energy -77935.954561 kJ/mol
# GULP energy per Si atom -5566.853897 kJ/mol
# Density = 2.235654 g / cm^3
# Si number density = 22.407545 Si / 1000 Ang^3
#
#
#
# Elastic Constant Matrix: (Units=GPa)
#
#
# Indices 1 2 3 4 5 6 
#
# 1 89.8089 9.4514 12.2795 0.0000 -13.1458 0.0000
# 2 9.4514 61.9501 32.8582 0.0000 -16.1980 0.0000
# 3 12.2795 32.8582 176.3940 0.0000 -9.7831 0.0000
# 4 0.0000 0.0000 0.0000 50.3766 0.0000 -4.8199
# 5 -13.1458 -16.1980 -9.7831 0.0000 56.6672 0.0000
# 6 0.0000 0.0000 0.0000 -4.8199 0.0000 26.4922
#
#
#
# Elastic Compliance Matrix: (Units=1/GPa)
#
#
# Indices 1 2 3 4 5 6 
#
# 1 0.011644 -0.000887 -0.000515 0.000000 0.002359 0.000000
# 2 -0.000887 0.019244 -0.003261 0.000000 0.004732 0.000000
# 3 -0.000515 -0.003261 0.006314 0.000000 0.000039 0.000000
# 4 0.000000 0.000000 0.000000 0.020202 0.000000 0.003676
# 5 0.002359 0.004732 0.000039 0.000000 0.019553 0.000000
# 6 0.000000 0.000000 0.000000 0.003676 0.000000 0.038416
#
#
# Mechanical properties :
#
#
# Convention : Reuss Voigt Hill
#
# Bulk Modulus (GPa) = 35.86991 48.59234 42.23113
# Shear Modulus (GPa) = 37.31621 44.94478 41.13049
#
# Velocity S-wave (km/s) = 4.08529 4.48346 4.28900
# Velocity P-wave (km/s) = 6.18833 6.96668 6.58901
#
# Compressibility (1/GPa) = 0.02787852
#
# Stress axis : x y z
#
# Youngs Moduli (GPa) = 85.88329 51.96422 158.36662
#
# Poissons Ratio (x) = 0.04608 0.08149
# Poissons Ratio (y) = 0.07616 0.51636
# Poissons Ratio (z) = 0.04419 0.16943
#
# Static dielectric constant tensor:
#      x y z
#    x 1.941200 0.000000 0.008120 
#    y 0.000000 1.879690 0.000000 
#    z 0.008120 0.000000 1.834160 
# 
# From -- ./inp_files/7483.got.cif
#   From: 2010.05.17/outbox.ucp.g08.bks.cvg/sg4_4_cif.got.tgz:7483.got - 2010.06.11 12:51:24.
