data_PCOD9119176
_publ_section_title
;
Structure prediction by ZEFSAII (Michael W. Deem and Ramdas Pophale) SiO2 
 PCOD9119176
Probable space group: P 21
;
_chemical_formula_sum "Si O2"
_cell_formula_units_Z 14
_cell_length_a 5.180305
_cell_length_b 20.391652
_cell_length_c 6.846011
_cell_angle_alpha 90.000000
_cell_angle_beta 130.751073
_cell_angle_gamma 90.000000
_cell_volume 547.845651
_symmetry_space_group_name_H-M "P 21"
_symmetry_group_IT_number 4
_symmetry_cell_setting 'monoclinic'
loop_
_space_group_symop_operation_xyz
x,y,z
-x,1/2+y,-z
loop_
_atom_site_type_symbol
_atom_site_label
_atom_site_fract_x
_atom_site_fract_y
_atom_site_fract_z
Si Si1 0.833241 0.805350 0.836379
Si Si2 0.565074 0.966547 0.037772
Si Si3 0.943909 0.275395 0.634729
Si Si4 0.729034 0.140732 0.502900
Si Si5 0.968985 0.168751 0.200701
Si Si6 0.051675 0.389792 0.434426
Si Si7 0.043610 0.548958 0.093812
O O1 0.447270 0.780366 0.628072
O O2 0.070762 0.745534 0.869991
O O3 0.821217 0.874830 0.720638
O O4 0.971407 0.811077 0.122770
O O5 0.326375 0.913995 0.806123
O O6 0.312280 0.017104 0.022104
O O7 0.777495 0.002157 0.973876
O O8 0.788525 0.935865 0.322794
O O9 0.007135 0.198144 0.687138
O O10 0.127770 0.317486 0.561541
O O11 0.375097 0.159185 0.433882
O O12 0.747146 0.146054 0.276182
O O13 0.803765 0.068432 0.619659
O O14 0.927690 0.119150 0.000659
#
# Coordination Sequence:
#
# PCOD9119176 Si02
#       7
#     2   2   2   2   2   2   2
#     4  11  24  46  77 113 149 190 247 321 383 438
#     4  12  32  48  82 100 166 206 252 296 372 450
#     4  11  24  46  77 113 149 190 247 321 383 438
#     4  11  24  46  77 113 149 190 247 321 383 438
#     4  11  24  46  77 113 149 190 247 321 383 438
#     4  12  28  52  72 114 146 208 250 310 364 464
#     4  12  28  52  72 114 146 208 250 310 364 464
#
# _framework density 25.554642000000001
#
# number of rings (size 3 to 8) (size 9 to 14) (size 15 to 20)
#    0.000    0.571    2.857    3.429   12.000    0.000 
#    0.000    0.000    0.000    0.000    0.000    0.000 
#    0.000    0.000    0.000    0.000    0.000    0.000 
#
# Total GULP energy -78175.721185 kJ/mol
# GULP energy per Si atom -5583.980085 kJ/mol
# Density = 2.549648 g / cm^3
# Si number density = 25.554642 Si / 1000 Ang^3
#
#
#
# Elastic Constant Matrix: (Units=GPa)
#
#
# Indices 1 2 3 4 5 6 
#
# 1 111.1271 31.5061 32.8268 0.0000 -30.6866 0.0000
# 2 31.5061 68.0158 56.3997 0.0000 -23.1548 0.0000
# 3 32.8268 56.3997 122.4534 0.0000 -18.9326 0.0000
# 4 0.0000 0.0000 0.0000 58.6771 0.0000 -17.7067
# 5 -30.6866 -23.1548 -18.9326 0.0000 36.4470 0.0000
# 6 0.0000 0.0000 0.0000 -17.7067 0.0000 37.0265
#
#
#
# Elastic Compliance Matrix: (Units=1/GPa)
#
#
# Indices 1 2 3 4 5 6 
#
# 1 0.012201 -0.001825 -0.001111 0.000000 0.008537 0.000000
# 2 -0.001825 0.028188 -0.010832 0.000000 0.010744 0.000000
# 3 -0.001111 -0.010832 0.013314 0.000000 -0.000901 0.000000
# 4 0.000000 0.000000 0.000000 0.019917 0.000000 0.009524
# 5 0.008537 0.010744 -0.000901 0.000000 0.040983 0.000000
# 6 0.000000 0.000000 0.000000 0.009524 0.000000 0.031562
#
#
# Mechanical properties :
#
#
# Convention : Reuss Voigt Hill
#
# Bulk Modulus (GPa) = 38.21487 60.34017 49.27752
# Shear Modulus (GPa) = 27.40878 38.48771 32.94825
#
# Velocity S-wave (km/s) = 3.27854 3.88505 3.59461
# Velocity P-wave (km/s) = 5.41465 6.61728 6.04594
#
# Compressibility (1/GPa) = 0.02616782
#
# Stress axis : x y z
#
# Youngs Moduli (GPa) = 81.95721 35.47617 75.10885
#
# Poissons Ratio (x) = 0.06474 0.08341
# Poissons Ratio (y) = 0.14956 0.81361
# Poissons Ratio (z) = 0.09102 0.38429
#
# Static dielectric constant tensor:
#      x y z
#    x 1.993170 0.000000 0.007910 
#    y 0.000000 2.174960 0.000000 
#    z 0.007910 0.000000 2.150200 
# 
# From -- ./inp_files/371.got.cif
#   From: 2010.05.17/outbox.cif.g08.bks.cpg/sg4_1_cif.got.tgz:371.got - 2010.06.03 18:43:04.
