data_PCOD9119868
_publ_section_title
;
Structure prediction by ZEFSAII (Michael W. Deem and Ramdas Pophale) SiO2 
 PCOD9119868
Probable space group: P 21
;
_chemical_formula_sum "Si O2"
_cell_formula_units_Z 16
_cell_length_a 21.000000
_cell_length_b 6.000000
_cell_length_c 12.000000
_cell_angle_alpha 90.000000
_cell_angle_beta 30.000000
_cell_angle_gamma 90.000000
_cell_volume 756.000000
_symmetry_space_group_name_H-M "P 21"
_symmetry_group_IT_number 4
_symmetry_cell_setting 'monoclinic'
loop_
_space_group_symop_operation_xyz
x,y,z
-x,1/2+y,-z
loop_
_atom_site_type_symbol
_atom_site_label
_atom_site_fract_x
_atom_site_fract_y
_atom_site_fract_z
Si Si1 0.710115 0.024030 0.706985
Si Si2 0.232352 0.775496 0.833617
Si Si3 0.350362 0.527216 0.450983
Si Si4 0.940996 0.185442 0.470386
Si Si5 0.633084 0.530239 0.922734
Si Si6 0.153440 0.167382 0.793119
Si Si7 0.985781 0.476167 0.194014
Si Si8 0.808320 0.431181 0.864714
O O1 0.725128 0.072432 0.551694
O O2 0.846019 0.004972 0.561728
O O3 0.654278 0.272516 0.837128
O O4 0.647650 0.772827 0.831338
O O5 0.331989 0.677484 0.590441
O O6 0.173595 0.974848 0.851393
O O7 0.114931 0.606652 0.025549
O O8 0.264285 0.845947 0.913207
O O9 0.286306 0.298517 0.587461
O O10 0.491594 0.525616 0.188469
O O11 0.888866 0.247365 0.671755
O O12 0.934366 0.381171 0.387898
O O13 0.084933 0.103780 0.256643
O O14 0.722315 0.534687 0.897179
O O15 0.035792 0.302201 0.024660
O O16 0.118006 0.108542 0.720018
#
# Coordination Sequence:
#
# PCOD9119868 Si02
#       8
#     2   2   2   2   2   2   2   2
#     4  11  26  46  77 108 142 181 249 308 372 423
#     4  11  24  42  64 102 140 188 232 297 353 446
#     4  11  27  44  73 103 138 193 239 306 371 426
#     4  11  23  41  70 106 138 193 237 299 369 434
#     4  11  27  51  72 105 144 194 246 304 351 441
#     4  11  23  39  66 100 143 177 236 292 371 430
#     4  11  22  39  65 104 144 178 232 299 375 429
#     4  11  24  44  67 102 143 190 243 293 358 443
#
# _framework density 21.164021000000002
#
# number of rings (size 3 to 8) (size 9 to 14) (size 15 to 20)
#    0.000    1.000    2.500    3.000   10.500    1.000 
#    2.250    0.000    0.000    0.000    0.000    0.000 
#    0.000    0.000    0.000    0.000    0.000    0.000 
#
# Total GULP energy -89112.089051 kJ/mol
# GULP energy per Si atom -5569.505566 kJ/mol
# Density = 2.111585 g / cm^3
# Si number density = 21.164021 Si / 1000 Ang^3
#
#
#
# Elastic Constant Matrix: (Units=GPa)
#
#
# Indices 1 2 3 4 5 6 
#
# 1 94.7110 9.5667 10.4410 0.0000 28.9839 0.0000
# 2 9.5667 64.7439 25.8356 0.0000 6.2390 0.0000
# 3 10.4410 25.8356 78.1598 0.0000 21.2421 0.0000
# 4 0.0000 0.0000 0.0000 19.2884 0.0000 9.2611
# 5 28.9839 6.2390 21.2421 0.0000 44.0605 0.0000
# 6 0.0000 0.0000 0.0000 9.2611 0.0000 28.4503
#
#
#
# Elastic Compliance Matrix: (Units=1/GPa)
#
#
# Indices 1 2 3 4 5 6 
#
# 1 0.013392 -0.001585 0.001229 0.000000 -0.009177 0.000000
# 2 -0.001585 0.017985 -0.006127 0.000000 0.001450 0.000000
# 3 0.001229 -0.006127 0.016847 0.000000 -0.008063 0.000000
# 4 0.000000 0.000000 0.000000 0.061449 0.000000 -0.020003
# 5 -0.009177 0.001450 -0.008063 0.000000 0.032415 0.000000
# 6 0.000000 0.000000 0.000000 -0.020003 0.000000 0.041660
#
#
# Mechanical properties :
#
#
# Convention : Reuss Voigt Hill
#
# Bulk Modulus (GPa) = 28.36280 36.58902 32.47591
# Shear Modulus (GPa) = 23.98478 31.14461 27.56470
#
# Velocity S-wave (km/s) = 3.37008 3.84028 3.61284
# Velocity P-wave (km/s) = 5.34544 6.08190 5.72553
#
# Compressibility (1/GPa) = 0.03525745
#
# Stress axis : x y z
#
# Youngs Moduli (GPa) = 74.67399 55.60198 59.35857
#
# Poissons Ratio (x) = 0.08812 -0.07296
# Poissons Ratio (y) = 0.11835 0.36370
# Poissons Ratio (z) = -0.09179 0.34069
#
# Static dielectric constant tensor:
#      x y z
#    x 1.775960 0.000000 -0.024610 
#    y 0.000000 1.912280 0.000000 
#    z -0.024610 0.000000 1.790920 
# 
# From -- ./inp_files/11672.got.cif
#   From: 2010.05.17/outbox.ucp.g08.bks.cvg/sg4_6_cif.got.tgz:11672.got - 2010.06.11 12:51:24.
