data_PCOD9119754
_publ_section_title
;
Structure prediction by ZEFSAII (Michael W. Deem and Ramdas Pophale) SiO2 
 PCOD9119754
Probable space group: P 21
;
_chemical_formula_sum "Si O2"
_cell_formula_units_Z 14
_cell_length_a 11.821008
_cell_length_b 7.953664
_cell_length_c 8.726432
_cell_angle_alpha 90.000000
_cell_angle_beta 39.869492
_cell_angle_gamma 90.000000
_cell_volume 525.949810
_symmetry_space_group_name_H-M "P 21"
_symmetry_group_IT_number 4
_symmetry_cell_setting 'monoclinic'
loop_
_space_group_symop_operation_xyz
x,y,z
-x,1/2+y,-z
loop_
_atom_site_type_symbol
_atom_site_label
_atom_site_fract_x
_atom_site_fract_y
_atom_site_fract_z
Si Si1 0.679954 0.893940 0.376170
Si Si2 0.855838 0.452859 0.447129
Si Si3 0.289690 0.791187 0.689548
Si Si4 0.243012 0.397909 0.365837
Si Si5 0.372055 0.970286 0.023032
Si Si6 0.900222 0.273114 0.813490
Si Si7 0.182430 0.263809 0.092924
O O1 0.478159 0.840372 0.562459
O O2 0.739259 0.815787 0.478409
O O3 0.701883 0.095607 0.368061
O O4 0.775156 0.843249 0.117191
O O5 0.753266 0.422406 0.398011
O O6 0.713320 0.496662 0.722950
O O7 0.007821 0.593490 0.300681
O O8 0.972419 0.281320 0.338008
O O9 0.132382 0.801850 0.974941
O O10 0.030261 0.407338 0.596777
O O11 0.265379 0.333289 0.166811
O O12 0.421890 0.505528 0.191814
O O13 0.293669 0.785709 0.062165
O O14 0.274958 0.083449 0.997493
#
# Coordination Sequence:
#
# PCOD9119754 Si02
#       7
#     2   2   2   2   2   2   2
#     4  12  28  51  78 122 164 213 276 340 408 496
#     4  12  26  51  81 117 165 214 277 343 417 499
#     4  12  29  50  80 118 166 219 273 348 415 492
#     4  12  27  48  82 115 161 211 269 337 410 482
#     4  12  26  51  79 119 161 216 281 340 410 496
#     4  12  27  50  77 115 161 213 268 340 411 490
#     4  12  27  51  81 118 164 214 272 340 413 489
#
# _framework density 26.618507999999999
#
# number of rings (size 3 to 8) (size 9 to 14) (size 15 to 20)
#    0.000    0.000    5.714    2.571    4.000    3.429 
#    0.000    0.000    0.000    0.000    0.000    0.000 
#    0.000    0.000    0.000    0.000    0.000    0.000 
#
# Total GULP energy -78164.335740 kJ/mol
# GULP energy per Si atom -5583.166839 kJ/mol
# Density = 2.655792 g / cm^3
# Si number density = 26.618508 Si / 1000 Ang^3
#
#
#
# Elastic Constant Matrix: (Units=GPa)
#
#
# Indices 1 2 3 4 5 6 
#
# 1 127.5603 16.8075 35.1489 0.0000 29.8407 0.0000
# 2 16.8075 85.8238 20.9718 0.0000 15.4558 0.0000
# 3 35.1489 20.9718 194.5681 0.0000 29.8119 0.0000
# 4 0.0000 0.0000 0.0000 31.6085 0.0000 6.2936
# 5 29.8407 15.4558 29.8119 0.0000 62.7712 0.0000
# 6 0.0000 0.0000 0.0000 6.2936 0.0000 37.8971
#
#
#
# Elastic Compliance Matrix: (Units=1/GPa)
#
#
# Indices 1 2 3 4 5 6 
#
# 1 0.009077 -0.000883 -0.000989 0.000000 -0.003628 0.000000
# 2 -0.000883 0.012433 -0.000837 0.000000 -0.002244 0.000000
# 3 -0.000989 -0.000837 0.005721 0.000000 -0.002041 0.000000
# 4 0.000000 0.000000 0.000000 0.032719 0.000000 -0.005434
# 5 -0.003628 -0.002244 -0.002041 0.000000 0.019178 0.000000
# 6 0.000000 0.000000 0.000000 -0.005434 0.000000 0.027290
#
#
# Mechanical properties :
#
#
# Convention : Reuss Voigt Hill
#
# Bulk Modulus (GPa) = 45.83987 61.53429 53.68708
# Shear Modulus (GPa) = 41.97958 48.79029 45.38494
#
# Velocity S-wave (km/s) = 3.97556 4.28594 4.13366
# Velocity P-wave (km/s) = 6.19127 6.90360 6.55711
#
# Compressibility (1/GPa) = 0.02181507
#
# Stress axis : x y z
#
# Youngs Moduli (GPa) = 110.16962 80.42924 174.79061
#
# Poissons Ratio (x) = 0.07099 0.17282
# Poissons Ratio (y) = 0.09724 0.14627
# Poissons Ratio (z) = 0.10893 0.06730
#
# Static dielectric constant tensor:
#      x y z
#    x 2.066750 0.000000 0.004390 
#    y 0.000000 2.282050 0.000000 
#    z 0.004390 0.000000 2.086160 
# 
# From -- ./inp_files/7491.got.cif
#   From: 2010.05.17/outbox.cif.g08.bks.cpg/sg4_4_cif.got.tgz:7491.got - 2010.06.03 18:43:04.
