data_PCOD9119802
_publ_section_title
;
Structure prediction by ZEFSAII (Michael W. Deem and Ramdas Pophale) SiO2 
 PCOD9119802
Probable space group: P 21
;
_chemical_formula_sum "Si O2"
_cell_formula_units_Z 10
_cell_length_a 9.251594
_cell_length_b 6.610189
_cell_length_c 6.343078
_cell_angle_alpha 90.000000
_cell_angle_beta 46.715864
_cell_angle_gamma 90.000000
_cell_volume 282.383667
_symmetry_space_group_name_H-M "P 21"
_symmetry_group_IT_number 4
_symmetry_cell_setting 'monoclinic'
loop_
_space_group_symop_operation_xyz
x,y,z
-x,1/2+y,-z
loop_
_atom_site_type_symbol
_atom_site_label
_atom_site_fract_x
_atom_site_fract_y
_atom_site_fract_z
Si Si1 0.965247 0.049270 0.028315
Si Si2 0.359534 0.591909 0.390468
Si Si3 0.225691 0.191569 0.024309
Si Si4 0.302964 0.784488 0.947037
Si Si5 0.034753 0.549270 0.458809
O O1 0.886977 0.056025 0.363023
O O2 0.909980 0.805582 0.025615
O O3 0.971841 0.127666 0.778159
O O4 0.202491 0.986415 0.876907
O O5 0.545735 0.745727 0.204265
O O6 0.295984 0.632735 0.731384
O O7 0.470893 0.374698 0.279108
O O8 0.090020 0.305583 0.345576
O O9 0.295985 0.632736 0.176646
O O10 0.202491 0.986416 0.218112
#
# Coordination Sequence:
#
# PCOD9119802 Si02
#       5
#     2   2   2   2   2
#     4   9  19  40  55  80 115 138 183 229 260 328
#     4   9  19  40  55  80 115 138 183 229 260 328
#     4   9  19  40  55  80 115 138 183 229 260 328
#     4   8  20  40  52  82 116 132 184 236 252 322
#     4   9  19  40  55  80 115 138 183 229 260 328
#
# _framework density 35.412813
#
# number of rings (size 3 to 8) (size 9 to 14) (size 15 to 20)
#    2.400    0.800    0.000    0.000    0.000    1.600 
#   28.800    0.000    0.000    0.000    0.000    0.000 
#    0.000    0.000    0.000    0.000    0.000    0.000 
#
# Total GULP energy -55715.446070 kJ/mol
# GULP energy per Si atom -5571.544607 kJ/mol
# Density = 3.533221 g / cm^3
# Si number density = 35.412813 Si / 1000 Ang^3
#
#
#
# Elastic Constant Matrix: (Units=GPa)
#
#
# Indices 1 2 3 4 5 6 
#
# 1 419.9016 114.0361 180.8809 0.0000 28.8863 0.0000
# 2 114.0361 260.1077 111.1092 0.0000 22.8670 0.0000
# 3 180.8809 111.1092 412.3229 0.0000 30.3578 0.0000
# 4 0.0000 0.0000 0.0000 99.3944 0.0000 4.7866
# 5 28.8863 22.8670 30.3578 0.0000 106.1731 0.0000
# 6 0.0000 0.0000 0.0000 4.7866 0.0000 100.0068
#
#
#
# Elastic Compliance Matrix: (Units=1/GPa)
#
#
# Indices 1 2 3 4 5 6 
#
# 1 0.003118 -0.000862 -0.001110 0.000000 -0.000345 0.000000
# 2 -0.000862 0.004623 -0.000829 0.000000 -0.000524 0.000000
# 3 -0.001110 -0.000829 0.003167 0.000000 -0.000425 0.000000
# 4 0.000000 0.000000 0.000000 0.010084 0.000000 -0.000483
# 5 -0.000345 -0.000524 -0.000425 0.000000 0.009747 0.000000
# 6 0.000000 0.000000 0.000000 -0.000483 0.000000 0.010022
#
#
# Mechanical properties :
#
#
# Convention : Reuss Voigt Hill
#
# Bulk Modulus (GPa) = 188.49926 211.59829 200.04878
# Shear Modulus (GPa) = 103.88343 106.86860 105.37601
#
# Velocity S-wave (km/s) = 5.42205 5.49941 5.46087
# Velocity P-wave (km/s) = 9.61992 10.01031 9.81705
#
# Compressibility (1/GPa) = 0.00530506
#
# Stress axis : x y z
#
# Youngs Moduli (GPa) = 320.76659 216.32168 315.77770
#
# Poissons Ratio (x) = 0.18655 0.35046
# Poissons Ratio (y) = 0.27662 0.26172
# Poissons Ratio (z) = 0.35600 0.17929
#
# Static dielectric constant tensor:
#      x y z
#    x 3.060140 0.000000 -0.177770 
#    y 0.000000 3.732650 0.000000 
#    z -0.177770 0.000000 3.082750 
# 
# From -- ./inp_files/5183.got.cif
#   From: 2010.05.17/outbox.cif.g08.bks.cpg/sg4_3_cif.got.tgz:5183.got - 2010.06.03 18:43:04.
