data_PCOD9119020
_publ_section_title
;
Structure prediction by ZEFSAII (Michael W. Deem and Ramdas Pophale) SiO2 
 PCOD9119020
Probable space group: P 21
;
_chemical_formula_sum "Si O2"
_cell_formula_units_Z 16
_cell_length_a 5.278112
_cell_length_b 8.936010
_cell_length_c 14.420202
_cell_angle_alpha 90.000000
_cell_angle_beta 108.476887
_cell_angle_gamma 90.000000
_cell_volume 645.072838
_symmetry_space_group_name_H-M "P 21"
_symmetry_group_IT_number 4
_symmetry_cell_setting 'monoclinic'
loop_
_space_group_symop_operation_xyz
x,y,z
-x,1/2+y,-z
loop_
_atom_site_type_symbol
_atom_site_label
_atom_site_fract_x
_atom_site_fract_y
_atom_site_fract_z
Si Si1 0.065823 0.330710 0.283363
Si Si2 0.461053 0.392007 0.989701
Si Si3 0.004093 0.048463 0.164700
Si Si4 0.503632 0.980103 0.802174
Si Si5 0.143456 0.118412 0.982522
Si Si6 0.236734 0.746955 0.220790
Si Si7 0.744030 0.936069 0.495642
Si Si8 0.177257 0.770916 0.426041
O O1 0.790279 0.414068 0.230040
O O2 0.011056 0.158752 0.251376
O O3 0.306908 0.392558 0.247702
O O4 0.138554 0.363329 0.396987
O O5 0.383614 0.458008 0.081280
O O6 0.759718 0.447384 0.008732
O O7 0.409161 0.217418 0.994792
O O8 0.267262 0.457604 0.888173
O O9 0.231158 0.922873 0.203111
O O10 0.052898 0.142302 0.076764
O O11 0.498703 0.151925 0.768147
O O12 0.955548 0.172019 0.878457
O O13 0.145890 0.722674 0.315285
O O14 0.439294 0.877853 0.456163
O O15 0.926120 0.864267 0.435805
O O16 0.770975 0.116606 0.510081
#
# Coordination Sequence:
#
# PCOD9119020 Si02
#       8
#     2   2   2   2   2   2   2   2
#     4  12  27  50  78 111 148 210 258 320 393 477
#     4  11  24  39  69 102 152 206 251 312 368 463
#     4  11  26  46  70 113 160 200 265 315 393 461
#     4  12  24  45  77 106 153 203 258 305 385 468
#     4  11  24  46  67 111 155 209 253 317 390 461
#     4  11  27  48  78 113 156 204 261 332 387 481
#     4  12  29  53  86 113 159 204 266 336 408 474
#     4  12  29  55  81 121 155 208 264 335 410 475
#
# _framework density 24.803398000000001
#
# number of rings (size 3 to 8) (size 9 to 14) (size 15 to 20)
#    0.000    0.500    3.750    3.000    7.000    0.000 
#    2.250    0.000    0.000    0.000    0.000    0.000 
#    0.000    0.000    0.000    0.000    0.000    0.000 
#
# Total GULP energy -89637.445680 kJ/mol
# GULP energy per Si atom -5602.340355 kJ/mol
# Density = 2.474694 g / cm^3
# Si number density = 24.803398 Si / 1000 Ang^3
#
#
#
# Elastic Constant Matrix: (Units=GPa)
#
#
# Indices 1 2 3 4 5 6 
#
# 1 94.0533 30.8084 -6.3797 0.0000 -3.8617 0.0000
# 2 30.8084 130.2416 4.4773 0.0000 1.3347 0.0000
# 3 -6.3797 4.4773 48.1195 0.0000 -13.5356 0.0000
# 4 0.0000 0.0000 0.0000 39.2360 0.0000 -6.3559
# 5 -3.8617 1.3347 -13.5356 0.0000 31.5055 0.0000
# 6 0.0000 0.0000 0.0000 -6.3559 0.0000 32.1647
#
#
#
# Elastic Compliance Matrix: (Units=1/GPa)
#
#
# Indices 1 2 3 4 5 6 
#
# 1 0.011879 -0.002927 0.002607 0.000000 0.002700 0.000000
# 2 -0.002927 0.008438 -0.001564 0.000000 -0.001388 0.000000
# 3 0.002607 -0.001564 0.024320 0.000000 0.010834 0.000000
# 4 0.000000 0.000000 0.000000 0.026330 0.000000 0.005203
# 5 0.002700 -0.001388 0.010834 0.000000 0.036785 0.000000
# 6 0.000000 0.000000 0.000000 0.005203 0.000000 0.032118
#
#
# Mechanical properties :
#
#
# Convention : Reuss Voigt Hill
#
# Bulk Modulus (GPa) = 24.46832 36.69182 30.58007
# Shear Modulus (GPa) = 31.79416 36.81514 34.30465
#
# Velocity S-wave (km/s) = 3.58417 3.85681 3.72299
# Velocity P-wave (km/s) = 5.19757 5.88715 5.55307
#
# Compressibility (1/GPa) = 0.04086918
#
# Stress axis : x y z
#
# Youngs Moduli (GPa) = 84.18381 118.50537 41.11792
#
# Poissons Ratio (x) = 0.34689 -0.10718
# Poissons Ratio (y) = 0.24642 0.06430
# Poissons Ratio (z) = -0.21944 0.18531
#
# Static dielectric constant tensor:
#      x y z
#    x 1.992450 0.000000 0.032920 
#    y 0.000000 1.985610 0.000000 
#    z 0.032920 0.000000 1.950720 
# 
# From -- ./inp_files/13234.got.cif
#   From: 2010.05.17/outbox.cif.g08.bks.cpg/sg4_7_cif.got.tgz:13234.got - 2010.06.03 18:43:04.
