data_PCOD9119508
_publ_section_title
;
Structure prediction by ZEFSAII (Michael W. Deem and Ramdas Pophale) SiO2 
 PCOD9119508
Probable space group: P 21
;
_chemical_formula_sum "Si O2"
_cell_formula_units_Z 16
_cell_length_a 16.074527
_cell_length_b 8.880839
_cell_length_c 16.074938
_cell_angle_alpha 90.000000
_cell_angle_beta 17.585070
_cell_angle_gamma 90.000000
_cell_volume 693.303094
_symmetry_space_group_name_H-M "P 21"
_symmetry_group_IT_number 4
_symmetry_cell_setting 'monoclinic'
loop_
_space_group_symop_operation_xyz
x,y,z
-x,1/2+y,-z
loop_
_atom_site_type_symbol
_atom_site_label
_atom_site_fract_x
_atom_site_fract_y
_atom_site_fract_z
Si Si1 0.309305 0.265340 0.369988
Si Si2 0.628804 0.176348 0.692152
Si Si3 0.262207 0.470668 0.264969
Si Si4 0.296520 0.970848 0.293589
Si Si5 0.722322 0.083326 0.212779
Si Si6 0.212964 0.858933 0.722115
Si Si7 0.055038 0.133307 0.152262
Si Si8 0.150831 0.808807 0.056364
O O1 0.190751 0.344449 0.400952
O O2 0.582187 0.346593 0.142644
O O3 0.409463 0.105382 0.241311
O O4 0.092274 0.255998 0.651176
O O5 0.757383 0.336385 0.591986
O O6 0.855174 0.095273 0.419790
O O7 0.599993 0.096969 0.808636
O O8 0.347010 0.185880 0.910086
O O9 0.983539 0.517680 0.485205
O O10 0.480690 0.423726 0.987444
O O11 0.696594 0.221110 0.303419
O O12 0.772227 0.176316 0.080099
O O13 0.461666 0.971116 0.461426
O O14 0.980426 0.971120 0.980210
O O15 0.080488 0.765976 0.771776
O O16 0.080999 0.971126 0.081770
#
# Coordination Sequence:
#
# PCOD9119508 Si02
#       8
#     2   2   2   2   2   2   2   2
#     4  12  25  43  70 102 142 191 245 305 369 434
#     4  12  25  43  70 102 142 191 245 305 369 434
#     4  12  22  46  64 100 139 194 247 302 378 432
#     4  12  26  40  68 100 141 188 249 316 362 440
#     4  12  28  50  81 116 153 194 242 300 365 444
#     4  12  28  50  81 116 153 194 242 300 365 444
#     4  12  25  47  73 105 148 193 242 297 366 436
#     4  12  25  47  73 105 148 193 242 297 366 436
#
# _framework density 23.077929999999999
#
# number of rings (size 3 to 8) (size 9 to 14) (size 15 to 20)
#    0.000    0.000    2.500    7.500    5.250    2.000 
#    0.000    0.000    0.000    0.000    0.000    0.000 
#    0.000    0.000    0.000    0.000    0.000    0.000 
#
# Total GULP energy -89525.440994 kJ/mol
# GULP energy per Si atom -5595.340062 kJ/mol
# Density = 2.302540 g / cm^3
# Si number density = 23.077930 Si / 1000 Ang^3
#
#
#
# Elastic Constant Matrix: (Units=GPa)
#
#
# Indices 1 2 3 4 5 6 
#
# 1 90.3589 54.1663 39.6441 0.0000 2.7280 0.0000
# 2 54.1663 157.6646 25.7210 0.0000 5.5310 0.0000
# 3 39.6441 25.7210 117.1135 0.0000 -6.5771 0.0000
# 4 0.0000 0.0000 0.0000 43.4389 0.0000 -6.7944
# 5 2.7280 5.5310 -6.5771 0.0000 21.7970 0.0000
# 6 0.0000 0.0000 0.0000 -6.7944 0.0000 7.7883
#
#
#
# Elastic Compliance Matrix: (Units=1/GPa)
#
#
# Indices 1 2 3 4 5 6 
#
# 1 0.015884 -0.004651 -0.004477 0.000000 -0.002159 0.000000
# 2 -0.004651 0.008040 -0.000278 0.000000 -0.001542 0.000000
# 3 -0.004477 -0.000278 0.010326 0.000000 0.003746 0.000000
# 4 0.000000 0.000000 0.000000 0.026658 0.000000 0.023257
# 5 -0.002159 -0.001542 0.003746 0.000000 0.047670 0.000000
# 6 0.000000 0.000000 0.000000 0.023257 0.000000 0.148687
#
#
# Mechanical properties :
#
#
# Convention : Reuss Voigt Hill
#
# Bulk Modulus (GPa) = 64.77368 67.13332 65.95350
# Shear Modulus (GPa) = 17.77950 30.97852 24.37901
#
# Velocity S-wave (km/s) = 2.77864 3.66778 3.25372
# Velocity P-wave (km/s) = 6.19861 6.86220 6.53883
#
# Compressibility (1/GPa) = 0.01543837
#
# Stress axis : x y z
#
# Youngs Moduli (GPa) = 62.95473 124.37939 96.84670
#
# Poissons Ratio (x) = 0.57850 0.43356
# Poissons Ratio (y) = 0.29281 0.02691
# Poissons Ratio (z) = 0.28183 0.03457
#
# Static dielectric constant tensor:
#      x y z
#    x 1.818640 0.000000 -0.000680 
#    y 0.000000 1.979730 0.000000 
#    z -0.000680 0.000000 1.820280 
# 
# From -- ./inp_files/14188.got.cif
#   From: 2010.05.17/outbox.cif.g08.bks.cpg/sg4_8_cif.got.tgz:14188.got - 2010.06.03 18:43:04.
