data_PCOD9119838
_publ_section_title
;
Structure prediction by ZEFSAII (Michael W. Deem and Ramdas Pophale) SiO2 
 PCOD9119838
Probable space group: P 21
;
_chemical_formula_sum "Si O2"
_cell_formula_units_Z 16
_cell_length_a 15.000000
_cell_length_b 6.000000
_cell_length_c 21.000000
_cell_angle_alpha 90.000000
_cell_angle_beta 20.000000
_cell_angle_gamma 90.000000
_cell_volume 646.418071
_symmetry_space_group_name_H-M "P 21"
_symmetry_group_IT_number 4
_symmetry_cell_setting 'monoclinic'
loop_
_space_group_symop_operation_xyz
x,y,z
-x,1/2+y,-z
loop_
_atom_site_type_symbol
_atom_site_label
_atom_site_fract_x
_atom_site_fract_y
_atom_site_fract_z
Si Si1 0.677701 0.475950 0.631699
Si Si2 0.475530 0.914039 0.591470
Si Si3 0.148333 0.640155 0.581227
Si Si4 0.841722 0.252801 0.748491
Si Si5 0.910199 0.996823 0.827518
Si Si6 0.747477 0.300114 0.043510
Si Si7 0.279857 0.418267 0.714744
Si Si8 0.529368 0.187938 0.837746
O O1 0.676793 0.256517 0.588853
O O2 0.413697 0.616654 0.810065
O O3 0.715537 0.361499 0.675413
O O4 0.907793 0.633394 0.452748
O O5 0.361889 0.669155 0.683105
O O6 0.572783 0.921002 0.453175
O O7 0.726782 0.932229 0.467591
O O8 0.338213 0.157467 0.697636
O O9 0.896566 0.517990 0.719622
O O10 0.115980 0.838684 0.654258
O O11 0.784872 0.132637 0.853380
O O12 0.617646 0.184814 0.850589
O O13 0.933862 0.180968 0.865752
O O14 0.744583 0.812442 0.975588
O O15 0.529330 0.452806 0.155459
O O16 0.966029 0.436899 0.932611
#
# Coordination Sequence:
#
# PCOD9119838 Si02
#       8
#     2   2   2   2   2   2   2   2
#     4  10  26  42  70  94 140 186 236 286 352 426
#     4  10  23  40  74 110 144 182 236 300 370 434
#     4  11  24  45  70 104 142 184 237 294 362 426
#     4  11  25  41  69  96 139 183 236 289 356 425
#     4  10  24  38  70 104 140 176 226 298 358 414
#     4  11  24  45  70 104 142 184 237 294 362 426
#     4  10  23  40  74 110 144 182 236 300 370 434
#     4  11  25  41  69  96 139 183 236 289 356 425
#
# _framework density 24.751783
#
# number of rings (size 3 to 8) (size 9 to 14) (size 15 to 20)
#    0.000    1.500    0.000    3.000   19.250    2.000 
#    0.000    0.000    5.500    0.000    0.000    0.000 
#    0.000    0.000    0.000    0.000    0.000    0.000 
#
# Total GULP energy -89190.355374 kJ/mol
# GULP energy per Si atom -5574.397211 kJ/mol
# Density = 2.469545 g / cm^3
# Si number density = 24.751783 Si / 1000 Ang^3
#
#
#
# Elastic Constant Matrix: (Units=GPa)
#
#
# Indices 1 2 3 4 5 6 
#
# 1 28.6937 21.2783 -0.9550 0.0000 2.3658 0.0000
# 2 21.2783 148.4181 30.9161 0.0000 -6.7278 0.0000
# 3 -0.9550 30.9161 26.2259 0.0000 0.0328 0.0000
# 4 0.0000 0.0000 0.0000 32.4343 0.0000 11.0245
# 5 2.3658 -6.7278 0.0328 0.0000 25.7013 0.0000
# 6 0.0000 0.0000 0.0000 11.0245 0.0000 35.7140
#
#
#
# Elastic Compliance Matrix: (Units=1/GPa)
#
#
# Indices 1 2 3 4 5 6 
#
# 1 0.042321 -0.008844 0.011975 0.000000 -0.006226 0.000000
# 2 -0.008844 0.010923 -0.013203 0.000000 0.003690 0.000000
# 3 0.011975 -0.013203 0.054137 0.000000 -0.004628 0.000000
# 4 0.000000 0.000000 0.000000 0.034446 0.000000 -0.010633
# 5 -0.006226 0.003690 -0.004628 0.000000 0.040454 0.000000
# 6 0.000000 0.000000 0.000000 -0.010633 0.000000 0.031283
#
#
# Mechanical properties :
#
#
# Convention : Reuss Voigt Hill
#
# Bulk Modulus (GPa) = 11.46321 33.97959 22.72140
# Shear Modulus (GPa) = 19.02678 28.90981 23.96829
#
# Velocity S-wave (km/s) = 2.77556 3.42129 3.11520
# Velocity P-wave (km/s) = 3.86173 5.41894 4.70520
#
# Compressibility (1/GPa) = 0.08723557
#
# Stress axis : x y z
#
# Youngs Moduli (GPa) = 23.62879 91.54762 18.47172
#
# Poissons Ratio (x) = 0.80965 -0.22119
# Poissons Ratio (y) = 0.20897 0.24389
# Poissons Ratio (z) = -0.28295 1.20874
#
# Static dielectric constant tensor:
#      x y z
#    x 2.097290 0.000000 -0.069790 
#    y 0.000000 1.958130 0.000000 
#    z -0.069790 0.000000 2.005670 
# 
# From -- ./inp_files/15790.got.cif
#   From: 2010.05.17/outbox.ucp.g08.bks.cvg/sg4_8_cif.got.tgz:15790.got - 2010.06.11 12:51:24.
