data_PCOD9119663
_publ_section_title
;
Structure prediction by ZEFSAII (Michael W. Deem and Ramdas Pophale) SiO2 
 PCOD9119663
Probable space group: P 21
;
_chemical_formula_sum "Si O2"
_cell_formula_units_Z 16
_cell_length_a 9.044484
_cell_length_b 8.369179
_cell_length_c 18.616381
_cell_angle_alpha 90.000000
_cell_angle_beta 149.724854
_cell_angle_gamma 90.000000
_cell_volume 710.434933
_symmetry_space_group_name_H-M "P 21"
_symmetry_group_IT_number 4
_symmetry_cell_setting 'monoclinic'
loop_
_space_group_symop_operation_xyz
x,y,z
-x,1/2+y,-z
loop_
_atom_site_type_symbol
_atom_site_label
_atom_site_fract_x
_atom_site_fract_y
_atom_site_fract_z
Si Si1 0.378847 0.938710 0.386286
Si Si2 0.883662 0.084556 0.522076
Si Si3 0.505691 0.076432 0.105544
Si Si4 0.596865 0.583237 0.456155
Si Si5 0.123633 0.438191 0.619901
Si Si6 0.492829 0.914126 0.817143
Si Si7 0.109336 0.416417 0.158876
Si Si8 0.828660 0.080340 0.087470
O O1 0.506238 0.762249 0.434731
O O2 0.644624 0.061784 0.483581
O O3 0.281493 0.987036 0.424786
O O4 0.101502 0.963643 0.218672
O O5 0.965001 0.268763 0.546159
O O6 0.721669 0.993928 0.388085
O O7 0.183793 0.991581 0.665212
O O8 0.561118 0.243214 0.168897
O O9 0.631800 0.083414 0.077506
O O10 0.666742 0.945874 0.223549
O O11 0.162896 0.036489 0.963339
O O12 0.328761 0.488079 0.309640
O O13 0.870987 0.573386 0.518039
O O14 0.706255 0.898806 0.837556
O O15 0.645148 0.021382 0.942354
O O16 0.971648 0.251183 0.129241
#
# Coordination Sequence:
#
# PCOD9119663 Si02
#       8
#     2   2   2   2   2   2   2   2
#     4  12  27  44  76 105 146 193 240 301 359 435
#     4  12  27  44  76 105 146 193 240 301 359 435
#     4  12  27  47  75 104 148 192 244 303 364 441
#     4  12  25  48  70 107 145 188 246 296 364 430
#     4  12  25  48  70 107 145 188 246 296 364 430
#     4  12  27  48  73 107 145 193 245 299 370 437
#     4  12  27  47  75 104 148 192 244 303 364 441
#     4  12  27  48  73 107 145 193 245 299 370 437
#
# _framework density 22.521415000000001
#
# number of rings (size 3 to 8) (size 9 to 14) (size 15 to 20)
#    0.000    0.000    2.500    7.500    7.000    0.000 
#    0.000    0.000    0.000    0.000    0.000    0.000 
#    0.000    0.000    0.000    0.000    0.000    0.000 
#
# Total GULP energy -89615.110439 kJ/mol
# GULP energy per Si atom -5600.944402 kJ/mol
# Density = 2.247016 g / cm^3
# Si number density = 22.521415 Si / 1000 Ang^3
#
#
#
# Elastic Constant Matrix: (Units=GPa)
#
#
# Indices 1 2 3 4 5 6 
#
# 1 90.4515 0.4850 14.1078 0.0000 2.7386 0.0000
# 2 0.4850 70.2656 -18.9647 0.0000 -8.1657 0.0000
# 3 14.1078 -18.9647 88.7383 0.0000 -5.5710 0.0000
# 4 0.0000 0.0000 0.0000 40.6497 0.0000 -1.6773
# 5 2.7386 -8.1657 -5.5710 0.0000 39.6206 0.0000
# 6 0.0000 0.0000 0.0000 -1.6773 0.0000 37.1805
#
#
#
# Elastic Compliance Matrix: (Units=1/GPa)
#
#
# Indices 1 2 3 4 5 6 
#
# 1 0.011419 -0.000779 -0.002060 0.000000 -0.001239 0.000000
# 2 -0.000779 0.015682 0.003714 0.000000 0.003808 0.000000
# 3 -0.002060 0.003714 0.012558 0.000000 0.002674 0.000000
# 4 0.000000 0.000000 0.000000 0.024646 0.000000 0.001112
# 5 -0.001239 0.003808 0.002674 0.000000 0.026486 0.000000
# 6 0.000000 0.000000 0.000000 0.001112 0.000000 0.026946
#
#
# Mechanical properties :
#
#
# Convention : Reuss Voigt Hill
#
# Bulk Modulus (GPa) = 24.14810 26.74574 25.44692
# Shear Modulus (GPa) = 38.52418 40.41198 39.46808
#
# Velocity S-wave (km/s) = 4.14038 4.24061 4.19079
# Velocity P-wave (km/s) = 5.79677 5.98986 5.89411
#
# Compressibility (1/GPa) = 0.04141112
#
# Stress axis : x y z
#
# Youngs Moduli (GPa) = 87.57655 63.76672 79.62922
#
# Poissons Ratio (x) = 0.04966 0.16400
# Poissons Ratio (y) = 0.06820 -0.29577
# Poissons Ratio (z) = 0.18037 -0.23685
#
# Static dielectric constant tensor:
#      x y z
#    x 1.788580 0.000000 -0.016750 
#    y 0.000000 1.809040 0.000000 
#    z -0.016750 0.000000 1.790640 
# 
# From -- ./inp_files/5382.got.cif
#   From: 2010.05.17/outbox.cif.g08.bks.cpg/sg4_3_cif.got.tgz:5382.got - 2010.06.03 18:43:04.
