data_PCOD9119512
_publ_section_title
;
Structure prediction by ZEFSAII (Michael W. Deem and Ramdas Pophale) SiO2 
 PCOD9119512
Probable space group: P 21
;
_chemical_formula_sum "Si O2"
_cell_formula_units_Z 14
_cell_length_a 9.843856
_cell_length_b 5.059357
_cell_length_c 21.656915
_cell_angle_alpha 90.000000
_cell_angle_beta 28.225525
_cell_angle_gamma 90.000000
_cell_volume 510.112867
_symmetry_space_group_name_H-M "P 21"
_symmetry_group_IT_number 4
_symmetry_cell_setting 'monoclinic'
loop_
_space_group_symop_operation_xyz
x,y,z
-x,1/2+y,-z
loop_
_atom_site_type_symbol
_atom_site_label
_atom_site_fract_x
_atom_site_fract_y
_atom_site_fract_z
Si Si1 0.898869 0.954910 0.283617
Si Si2 0.744632 0.602480 0.061194
Si Si3 0.351269 0.235890 0.029887
Si Si4 0.851269 0.735237 0.529882
Si Si5 0.398835 0.454736 0.783628
Si Si6 0.755284 0.602501 0.438782
Si Si7 0.750010 0.694996 0.750004
O O1 0.840491 0.660341 0.333200
O O2 0.584991 0.069139 0.422848
O O3 0.050954 0.074259 0.162894
O O4 0.143372 0.036073 0.234257
O O5 0.659231 0.660243 0.166843
O O6 0.530627 0.372941 0.125971
O O7 0.674922 0.802234 0.032636
O O8 0.084864 0.568805 0.922858
O O9 0.415515 0.510542 0.041051
O O10 0.550889 0.573627 0.662865
O O11 0.825310 0.801887 0.467276
O O12 0.084420 0.509812 0.458951
O O13 0.643211 0.536542 0.734283
O O14 0.969154 0.372768 0.374010
#
# Coordination Sequence:
#
# PCOD9119512 Si02
#       7
#     2   2   2   2   2   2   2
#     4  12  26  47  78 114 155 208 263 328 398 475
#     4  12  26  47  78 114 155 208 263 328 398 475
#     4  12  27  50  79 116 162 210 267 332 397 478
#     4  12  27  50  79 116 162 210 267 332 397 478
#     4  12  26  47  78 114 155 208 263 328 398 475
#     4  12  26  47  78 114 155 208 263 328 398 475
#     4  12  22  48  72 104 154 196 254 320 394 458
#
# _framework density 27.444908000000002
#
# number of rings (size 3 to 8) (size 9 to 14) (size 15 to 20)
#    0.000    0.000    5.714    5.143    0.000    0.000 
#    0.000    2.857    0.000    0.000    0.000    0.000 
#    0.000    0.000    0.000    0.000    0.000    0.000 
#
# Total GULP energy -78027.920083 kJ/mol
# GULP energy per Si atom -5573.422863 kJ/mol
# Density = 2.738244 g / cm^3
# Si number density = 27.444908 Si / 1000 Ang^3
#
#
#
# Elastic Constant Matrix: (Units=GPa)
#
#
# Indices 1 2 3 4 5 6 
#
# 1 66.4692 4.2491 12.7024 0.0000 -10.4820 0.0000
# 2 4.2491 80.7591 18.7887 0.0000 -15.2020 0.0000
# 3 12.7024 18.7887 220.9880 0.0000 -36.5218 0.0000
# 4 0.0000 0.0000 0.0000 45.0701 0.0000 -3.4016
# 5 -10.4820 -15.2020 -36.5218 0.0000 66.8558 0.0000
# 6 0.0000 0.0000 0.0000 -3.4016 0.0000 28.8058
#
#
#
# Elastic Compliance Matrix: (Units=1/GPa)
#
#
# Indices 1 2 3 4 5 6 
#
# 1 0.015491 -0.000303 -0.000522 0.000000 0.002075 0.000000
# 2 -0.000303 0.013034 -0.000669 0.000000 0.002551 0.000000
# 3 -0.000522 -0.000669 0.005027 0.000000 0.002512 0.000000
# 4 0.000000 0.000000 0.000000 0.022387 0.000000 0.002644
# 5 0.002075 0.002551 0.002512 0.000000 0.017235 0.000000
# 6 0.000000 0.000000 0.000000 0.002644 0.000000 0.035027
#
#
# Mechanical properties :
#
#
# Convention : Reuss Voigt Hill
#
# Bulk Modulus (GPa) = 32.71802 48.85519 40.78661
# Shear Modulus (GPa) = 41.19349 50.31141 45.75245
#
# Velocity S-wave (km/s) = 3.87842 4.28621 4.08740
# Velocity P-wave (km/s) = 5.65715 6.50656 6.09666
#
# Compressibility (1/GPa) = 0.03056419
#
# Stress axis : x y z
#
# Youngs Moduli (GPa) = 64.55430 76.72069 198.91724
#
# Poissons Ratio (x) = 0.02325 0.10379
# Poissons Ratio (y) = 0.01957 0.13312
# Poissons Ratio (z) = 0.03368 0.05134
#
# Static dielectric constant tensor:
#      x y z
#    x 2.307080 0.000000 0.339230 
#    y 0.000000 2.336290 0.000000 
#    z 0.339230 0.000000 2.442810 
# 
# From -- ./inp_files/10652.got.cif
#   From: 2010.05.17/outbox.cif.g08.bks.cpg/sg4_6_cif.got.tgz:10652.got - 2010.06.03 18:43:04.
