data_PCOD9119264
_publ_section_title
;
Structure prediction by ZEFSAII (Michael W. Deem and Ramdas Pophale) SiO2 
 PCOD9119264
Probable space group: P 21
;
_chemical_formula_sum "Si O2"
_cell_formula_units_Z 14
_cell_length_a 7.806106
_cell_length_b 9.341747
_cell_length_c 11.085419
_cell_angle_alpha 90.000000
_cell_angle_beta 136.064221
_cell_angle_gamma 90.000000
_cell_volume 560.894632
_symmetry_space_group_name_H-M "P 21"
_symmetry_group_IT_number 4
_symmetry_cell_setting 'monoclinic'
loop_
_space_group_symop_operation_xyz
x,y,z
-x,1/2+y,-z
loop_
_atom_site_type_symbol
_atom_site_label
_atom_site_fract_x
_atom_site_fract_y
_atom_site_fract_z
Si Si1 0.724541 0.286590 0.559709
Si Si2 0.639956 0.863850 0.833258
Si Si3 0.887993 0.535793 0.253276
Si Si4 0.494096 0.694185 0.297054
Si Si5 0.027929 0.033204 0.444415
Si Si6 0.396516 0.661763 0.896527
Si Si7 0.880249 0.314125 0.049730
O O1 0.513315 0.290882 0.352149
O O2 0.600072 0.249470 0.622713
O O3 0.864450 0.436447 0.608933
O O4 0.929234 0.167692 0.641856
O O5 0.527007 0.798763 0.899169
O O6 0.918055 0.806633 0.953148
O O7 0.616283 0.035646 0.796533
O O8 0.921139 0.458766 0.399443
O O9 0.958334 0.446906 0.171084
O O10 0.612939 0.587314 0.081372
O O11 0.785505 0.667786 0.449121
O O12 0.386527 0.809211 0.148859
O O13 0.746156 0.071381 0.277026
O O14 0.170508 0.697550 0.872226
#
# Coordination Sequence:
#
# PCOD9119264 Si02
#       7
#     2   2   2   2   2   2   2
#     4  11  24  50  77 108 162 200 264 328 388 481
#     4  11  25  48  78 113 156 206 262 325 394 472
#     4  12  26  50  75 117 153 203 265 328 399 476
#     4  11  24  50  76 115 157 203 266 327 394 478
#     4  11  26  50  82 110 155 213 262 327 399 470
#     4  12  27  48  81 114 155 205 260 328 394 470
#     4  12  26  46  77 111 160 198 259 327 394 469
#
# _framework density 24.960127
#
# number of rings (size 3 to 8) (size 9 to 14) (size 15 to 20)
#    0.000    0.571    4.286    3.429    2.000    1.143 
#    7.714    0.000    0.000    0.000    0.000    0.000 
#    0.000    0.000    0.000    0.000    0.000    0.000 
#
# Total GULP energy -78260.531104 kJ/mol
# GULP energy per Si atom -5590.037936 kJ/mol
# Density = 2.490332 g / cm^3
# Si number density = 24.960127 Si / 1000 Ang^3
#
#
#
# Elastic Constant Matrix: (Units=GPa)
#
#
# Indices 1 2 3 4 5 6 
#
# 1 89.9611 34.2475 22.3956 0.0000 -16.4563 0.0000
# 2 34.2475 70.6292 59.5760 0.0000 -3.3270 0.0000
# 3 22.3956 59.5760 109.5180 0.0000 -0.8757 0.0000
# 4 0.0000 0.0000 0.0000 38.8586 0.0000 2.5141
# 5 -16.4563 -3.3270 -0.8757 0.0000 45.2067 0.0000
# 6 0.0000 0.0000 0.0000 2.5141 0.0000 36.6204
#
#
#
# Elastic Compliance Matrix: (Units=1/GPa)
#
#
# Indices 1 2 3 4 5 6 
#
# 1 0.014731 -0.008147 0.001458 0.000000 0.004791 0.000000
# 2 -0.008147 0.030793 -0.015093 0.000000 -0.000992 0.000000
# 3 0.001458 -0.015093 0.017041 0.000000 -0.000250 0.000000
# 4 0.000000 0.000000 0.000000 0.025849 0.000000 -0.001775
# 5 0.004791 -0.000992 -0.000250 0.000000 0.023787 0.000000
# 6 0.000000 0.000000 0.000000 -0.001775 0.000000 0.027429
#
#
# Mechanical properties :
#
#
# Convention : Reuss Voigt Hill
#
# Bulk Modulus (GPa) = 52.62871 55.83850 54.23361
# Shear Modulus (GPa) = 26.38147 34.39642 30.38894
#
# Velocity S-wave (km/s) = 3.25460 3.71624 3.49305
# Velocity P-wave (km/s) = 5.93751 6.39012 6.16797
#
# Compressibility (1/GPa) = 0.01900103
#
# Stress axis : x y z
#
# Youngs Moduli (GPa) = 67.88478 32.47512 58.68186
#
# Poissons Ratio (x) = 0.26457 -0.08554
# Poissons Ratio (y) = 0.55304 0.88567
# Poissons Ratio (z) = -0.09895 0.49014
#
# Static dielectric constant tensor:
#      x y z
#    x 2.045030 0.000000 -0.022990 
#    y 0.000000 2.007780 0.000000 
#    z -0.022990 0.000000 1.936550 
# 
# From -- ./inp_files/10829.got.cif
#   From: 2010.05.17/outbox.cif.g08.bks.cpg/sg4_6_cif.got.tgz:10829.got - 2010.06.03 18:43:04.
