data_PCOD9119621
_publ_section_title
;
Structure prediction by ZEFSAII (Michael W. Deem and Ramdas Pophale) SiO2 
 PCOD9119621
Probable space group: P 21
;
_chemical_formula_sum "Si O2"
_cell_formula_units_Z 14
_cell_length_a 11.862261
_cell_length_b 8.633838
_cell_length_c 8.506091
_cell_angle_alpha 90.000000
_cell_angle_beta 40.560191
_cell_angle_gamma 90.000000
_cell_volume 566.473283
_symmetry_space_group_name_H-M "P 21"
_symmetry_group_IT_number 4
_symmetry_cell_setting 'monoclinic'
loop_
_space_group_symop_operation_xyz
x,y,z
-x,1/2+y,-z
loop_
_atom_site_type_symbol
_atom_site_label
_atom_site_fract_x
_atom_site_fract_y
_atom_site_fract_z
Si Si1 0.519594 0.043500 0.373101
Si Si2 0.886893 0.437730 0.457018
Si Si3 0.259815 0.779911 0.663318
Si Si4 0.372248 0.314471 0.309242
Si Si5 0.276113 0.976481 0.039416
Si Si6 0.010908 0.261875 0.807302
Si Si7 0.260065 0.310637 0.072006
O O1 0.629130 0.139178 0.385075
O O2 0.436234 0.162734 0.336487
O O3 0.367875 0.933325 0.600476
O O4 0.647301 0.932265 0.139902
O O5 0.769041 0.313979 0.489111
O O6 0.784961 0.493828 0.715847
O O7 0.943650 0.587599 0.294337
O O8 0.065824 0.360599 0.317424
O O9 0.064630 0.768532 0.937718
O O10 0.356014 0.298970 0.138311
O O11 0.185173 0.354960 0.581899
O O12 0.523588 0.435613 0.176567
O O13 0.153316 0.838707 0.107266
O O14 0.250178 0.145818 0.996247
#
# Coordination Sequence:
#
# PCOD9119621 Si02
#       7
#     2   2   2   2   2   2   2
#     4  12  28  52  77 115 160 214 270 322 400 477
#     4  12  24  53  79 114 163 204 264 326 400 475
#     4  12  28  51  78 111 168 212 257 325 396 488
#     4  12  24  51  82 111 159 204 271 335 389 466
#     4  12  25  49  80 123 152 205 267 338 400 459
#     4  12  26  51  76 114 157 207 264 324 387 476
#     4  12  25  47  82 114 157 204 267 340 394 461
#
# _framework density 24.714317000000001
#
# number of rings (size 3 to 8) (size 9 to 14) (size 15 to 20)
#    0.000    0.000    7.143    1.714    2.000    2.286 
#   10.286    0.000    0.000    0.000    0.000    0.000 
#    0.000    0.000    0.000    0.000    0.000    0.000 
#
# Total GULP energy -78438.451997 kJ/mol
# GULP energy per Si atom -5602.746571 kJ/mol
# Density = 2.465807 g / cm^3
# Si number density = 24.714317 Si / 1000 Ang^3
#
#
#
# Elastic Constant Matrix: (Units=GPa)
#
#
# Indices 1 2 3 4 5 6 
#
# 1 108.6214 51.1597 16.3315 0.0000 -15.1263 0.0000
# 2 51.1597 106.7891 47.2214 0.0000 -3.6872 0.0000
# 3 16.3315 47.2214 121.6440 0.0000 -31.2049 0.0000
# 4 0.0000 0.0000 0.0000 37.2112 0.0000 3.3606
# 5 -15.1263 -3.6872 -31.2049 0.0000 39.3035 0.0000
# 6 0.0000 0.0000 0.0000 3.3606 0.0000 28.3293
#
#
#
# Elastic Compliance Matrix: (Units=1/GPa)
#
#
# Indices 1 2 3 4 5 6 
#
# 1 0.013134 -0.007279 0.002742 0.000000 0.006549 0.000000
# 2 -0.007279 0.015636 -0.006825 0.000000 -0.006753 0.000000
# 3 0.002742 -0.006825 0.013322 0.000000 0.010992 0.000000
# 4 0.000000 0.000000 0.000000 0.027165 0.000000 -0.003222
# 5 0.006549 -0.006753 0.010992 0.000000 0.036057 0.000000
# 6 0.000000 0.000000 0.000000 -0.003222 0.000000 0.035681
#
#
# Mechanical properties :
#
#
# Convention : Reuss Voigt Hill
#
# Bulk Modulus (GPa) = 51.62876 62.94219 57.28548
# Shear Modulus (GPa) = 29.38172 35.79161 32.58667
#
# Velocity S-wave (km/s) = 3.45172 3.80967 3.63510
# Velocity P-wave (km/s) = 6.06806 6.69885 6.39124
#
# Compressibility (1/GPa) = 0.01936905
#
# Stress axis : x y z
#
# Youngs Moduli (GPa) = 76.13713 63.95484 75.06602
#
# Poissons Ratio (x) = 0.46551 -0.20585
# Poissons Ratio (y) = 0.55418 0.51232
# Poissons Ratio (z) = -0.20878 0.43649
#
# Static dielectric constant tensor:
#      x y z
#    x 1.997640 0.000000 0.055330 
#    y 0.000000 1.947720 0.000000 
#    z 0.055330 0.000000 1.946540 
# 
# From -- ./inp_files/7490.got.cif
#   From: 2010.05.17/outbox.cif.g08.bks.cpg/sg4_4_cif.got.tgz:7490.got - 2010.06.03 18:43:04.
