data_PCOD9119896
_publ_section_title
;
Structure prediction by ZEFSAII (Michael W. Deem and Ramdas Pophale) SiO2 
 PCOD9119896
Probable space group: P 21
;
_chemical_formula_sum "Si O2"
_cell_formula_units_Z 16
_cell_length_a 24.000000
_cell_length_b 6.000000
_cell_length_c 27.000000
_cell_angle_alpha 90.000000
_cell_angle_beta 10.000000
_cell_angle_gamma 90.000000
_cell_volume 675.144115
_symmetry_space_group_name_H-M "P 21"
_symmetry_group_IT_number 4
_symmetry_cell_setting 'monoclinic'
loop_
_space_group_symop_operation_xyz
x,y,z
-x,1/2+y,-z
loop_
_atom_site_type_symbol
_atom_site_label
_atom_site_fract_x
_atom_site_fract_y
_atom_site_fract_z
Si Si1 0.154062 0.723900 0.244966
Si Si2 0.880916 0.796731 0.590017
Si Si3 0.114560 0.306893 0.688080
Si Si4 0.456932 0.033697 0.610127
Si Si5 0.975199 0.320824 0.096769
Si Si6 0.301636 0.798624 0.370001
Si Si7 0.400821 0.557785 0.803347
Si Si8 0.155696 0.043507 0.160302
O O1 0.974244 0.836705 0.449795
O O2 0.928769 0.504917 0.440922
O O3 0.197588 0.798620 0.147681
O O4 0.537986 0.733997 0.916721
O O5 0.056021 0.552214 0.445082
O O6 0.360874 0.350496 0.516746
O O7 0.286442 0.131004 0.501167
O O8 0.049378 0.518833 0.710142
O O9 0.772208 0.245408 0.011619
O O10 0.219864 0.939131 0.776210
O O11 0.727386 0.172832 0.344871
O O12 0.250451 0.177373 0.829360
O O13 0.142410 0.484531 0.989042
O O14 0.049997 0.631303 0.614119
O O15 0.518729 0.871295 0.226851
O O16 0.535537 0.692759 0.123773
#
# Coordination Sequence:
#
# PCOD9119896 Si02
#       8
#     2   2   2   2   2   2   2   2
#     4  12  28  50  80 116 158 204 262 318 386 470
#     4  12  30  54  84 120 164 214 266 328 394 474
#     4  12  24  43  66  99 143 185 240 308 377 449
#     4  12  24  42  64  93 128 181 241 301 375 443
#     4  12  24  42  64  93 128 181 241 301 375 443
#     4  12  26  45  74 110 152 200 251 315 385 456
#     4  12  24  43  66  99 143 185 240 308 377 449
#     4  12  26  45  74 110 152 200 251 315 385 456
#
# _framework density 23.698644000000002
#
# number of rings (size 3 to 8) (size 9 to 14) (size 15 to 20)
#    0.000    0.000    1.250    9.000    7.000    0.000 
#    0.000    0.000    0.000    0.000    0.000    0.000 
#    0.000    0.000    0.000    0.000    0.000    0.000 
#
# Total GULP energy -89254.544451 kJ/mol
# GULP energy per Si atom -5578.409028 kJ/mol
# Density = 2.364470 g / cm^3
# Si number density = 23.698644 Si / 1000 Ang^3
#
#
#
# Elastic Constant Matrix: (Units=GPa)
#
#
# Indices 1 2 3 4 5 6 
#
# 1 108.3747 38.2160 28.2061 0.0000 32.3795 0.0000
# 2 38.2160 48.8208 24.7561 0.0000 -4.3778 0.0000
# 3 28.2061 24.7561 107.7558 0.0000 32.0883 0.0000
# 4 0.0000 0.0000 0.0000 16.0875 0.0000 -9.5189
# 5 32.3795 -4.3778 32.0883 0.0000 34.5294 0.0000
# 6 0.0000 0.0000 0.0000 -9.5189 0.0000 39.2137
#
#
#
# Elastic Compliance Matrix: (Units=1/GPa)
#
#
# Indices 1 2 3 4 5 6 
#
# 1 0.034776 -0.039782 0.015554 0.000000 -0.052109 0.000000
# 2 -0.039782 0.072100 -0.027628 0.000000 0.072121 0.000000
# 3 0.015554 -0.027628 0.023425 0.000000 -0.039858 0.000000
# 4 0.000000 0.000000 0.000000 0.072586 0.000000 0.017620
# 5 -0.052109 0.072121 -0.039858 0.000000 0.124009 0.000000
# 6 0.000000 0.000000 0.000000 0.017620 0.000000 0.029778
#
#
# Mechanical properties :
#
#
# Convention : Reuss Voigt Hill
#
# Bulk Modulus (GPa) = 37.60798 49.70086 43.65442
# Shear Modulus (GPa) = 10.65530 29.55100 20.10315
#
# Velocity S-wave (km/s) = 2.12272 3.53505 2.91569
# Velocity P-wave (km/s) = 4.68098 6.13837 5.45854
#
# Compressibility (1/GPa) = 0.02659010
#
# Stress axis : x y z
#
# Youngs Moduli (GPa) = 28.75534 13.86958 42.68896
#
# Poissons Ratio (x) = 0.55176 -0.66399
# Poissons Ratio (y) = 1.14394 1.17941
# Poissons Ratio (z) = -0.44726 0.38319
#
# Static dielectric constant tensor:
#      x y z
#    x 1.959070 0.000000 -0.145420 
#    y 0.000000 2.123760 0.000000 
#    z -0.145420 0.000000 1.986890 
# 
# From -- ./inp_files/15946.got.cif
#   From: 2010.05.17/outbox.ucp.g08.bks.cvg/sg4_8_cif.got.tgz:15946.got - 2010.06.11 12:51:24.
