data_PCOD9119382
_publ_section_title
;
Structure prediction by ZEFSAII (Michael W. Deem and Ramdas Pophale) SiO2 
 PCOD9119382
Probable space group: P 21
;
_chemical_formula_sum "Si O2"
_cell_formula_units_Z 8
_cell_length_a 5.049888
_cell_length_b 10.195389
_cell_length_c 7.767504
_cell_angle_alpha 90.000000
_cell_angle_beta 119.696000
_cell_angle_gamma 90.000000
_cell_volume 347.392075
_symmetry_space_group_name_H-M "P 21"
_symmetry_group_IT_number 4
_symmetry_cell_setting 'monoclinic'
loop_
_space_group_symop_operation_xyz
x,y,z
-x,1/2+y,-z
loop_
_atom_site_type_symbol
_atom_site_label
_atom_site_fract_x
_atom_site_fract_y
_atom_site_fract_z
Si Si1 0.563486 0.386300 0.422469
Si Si2 0.089290 0.565813 0.663758
Si Si3 0.796380 0.159708 0.663028
Si Si4 0.273671 0.166348 0.119420
O O1 0.560246 0.280819 0.577545
O O2 0.369582 0.519474 0.371099
O O3 0.435991 0.304331 0.219388
O O4 0.910465 0.437213 0.545733
O O5 0.070627 0.654768 0.487106
O O6 0.449797 0.563875 0.819593
O O7 0.920517 0.621165 0.777431
O O8 0.051553 0.176526 0.887494
#
# Coordination Sequence:
#
# PCOD9119382 Si02
#       4
#     2   2   2   2
#     4  11  25  50  74 112 147 191 241 308 358 436
#     4  11  25  49  68 108 147 189 241 299 353 432
#     4  11  28  48  78 106 153 189 246 302 364 432
#     4  11  28  45  76 108 143 199 240 291 371 432
#
# _framework density 23.028737
#
# number of rings (size 3 to 8) (size 9 to 14) (size 15 to 20)
#    0.000    1.000    5.000    0.000   14.000    0.000 
#    0.000    0.000    0.000    0.000    0.000    0.000 
#    0.000    0.000    0.000    0.000    0.000    0.000 
#
# Total GULP energy -44652.411062 kJ/mol
# GULP energy per Si atom -5581.551383 kJ/mol
# Density = 2.297632 g / cm^3
# Si number density = 23.028737 Si / 1000 Ang^3
#
#
#
# Elastic Constant Matrix: (Units=GPa)
#
#
# Indices 1 2 3 4 5 6 
#
# 1 95.8398 22.2817 28.6964 0.0000 17.5644 0.0000
# 2 22.2817 149.6299 65.2641 0.0000 30.8102 0.0000
# 3 28.6964 65.2641 228.9213 0.0000 40.4630 0.0000
# 4 0.0000 0.0000 0.0000 34.1982 0.0000 14.1526
# 5 17.5644 30.8102 40.4630 0.0000 30.6871 0.0000
# 6 0.0000 0.0000 0.0000 14.1526 0.0000 37.2831
#
#
#
# Elastic Compliance Matrix: (Units=1/GPa)
#
#
# Indices 1 2 3 4 5 6 
#
# 1 0.011698 -0.000393 -0.000314 0.000000 -0.005888 0.000000
# 2 -0.000393 0.008691 -0.001207 0.000000 -0.006909 0.000000
# 3 -0.000314 -0.001207 0.005875 0.000000 -0.006355 0.000000
# 4 0.000000 0.000000 0.000000 0.034691 0.000000 -0.013169
# 5 -0.005888 -0.006909 -0.006355 0.000000 0.051273 0.000000
# 6 0.000000 0.000000 0.000000 -0.013169 0.000000 0.031821
#
#
# Mechanical properties :
#
#
# Convention : Reuss Voigt Hill
#
# Bulk Modulus (GPa) = 44.57016 78.54174 61.55595
# Shear Modulus (GPa) = 32.18421 44.31027 38.24724
#
# Velocity S-wave (km/s) = 3.74246 4.39125 4.07977
# Velocity P-wave (km/s) = 6.17016 7.73891 6.99863
#
# Compressibility (1/GPa) = 0.02243653
#
# Stress axis : x y z
#
# Youngs Moduli (GPa) = 85.48195 115.06347 170.20947
#
# Poissons Ratio (x) = 0.04520 0.05341
# Poissons Ratio (y) = 0.03358 0.20549
# Poissons Ratio (z) = 0.02682 0.13891
#
# Static dielectric constant tensor:
#      x y z
#    x 1.964920 0.000000 0.032150 
#    y 0.000000 1.990460 0.000000 
#    z 0.032150 0.000000 1.816530 
# 
# From -- ./inp_files/207.got.cif
#   From: 2010.05.17/outbox.cif.g08.bks.cpg/sg4_1_cif.got.tgz:207.got - 2010.06.03 18:43:04.
