data_PCOD9119232
_publ_section_title
;
Structure prediction by ZEFSAII (Michael W. Deem and Ramdas Pophale) SiO2 
 PCOD9119232
Probable space group: P 21
;
_chemical_formula_sum "Si O2"
_cell_formula_units_Z 16
_cell_length_a 9.470673
_cell_length_b 12.044397
_cell_length_c 6.747795
_cell_angle_alpha 90.000000
_cell_angle_beta 105.716621
_cell_angle_gamma 90.000000
_cell_volume 740.934129
_symmetry_space_group_name_H-M "P 21"
_symmetry_group_IT_number 4
_symmetry_cell_setting 'monoclinic'
loop_
_space_group_symop_operation_xyz
x,y,z
-x,1/2+y,-z
loop_
_atom_site_type_symbol
_atom_site_label
_atom_site_fract_x
_atom_site_fract_y
_atom_site_fract_z
Si Si1 0.679521 0.002270 0.278696
Si Si2 0.019686 0.027064 0.357187
Si Si3 0.409043 0.747785 0.636707
Si Si4 0.405774 0.946213 0.943920
Si Si5 0.053706 0.233577 0.074608
Si Si6 0.219113 0.847456 0.223966
Si Si7 0.208227 0.145945 0.742272
Si Si8 0.293364 0.314451 0.428195
O O1 0.637824 0.130076 0.294580
O O2 0.851644 0.991040 0.303384
O O3 0.650803 0.931546 0.467585
O O4 0.576148 0.956495 0.065638
O O5 0.035140 0.125581 0.203923
O O6 0.079155 0.075783 0.586505
O O7 0.123959 0.928139 0.326914
O O8 0.380340 0.847020 0.780195
O O9 0.318119 0.771671 0.402457
O O10 0.580304 0.753374 0.647135
O O11 0.339556 0.060760 0.837145
O O12 0.320401 0.917366 0.114100
O O13 0.147683 0.320507 0.240138
O O14 0.145575 0.200359 0.916129
O O15 0.897247 0.279361 0.949594
O O16 0.258446 0.239391 0.606697
#
# Coordination Sequence:
#
# PCOD9119232 Si02
#       8
#     2   2   2   2   2   2   2   2
#     4  12  28  47  73 108 146 188 247 296 358 431
#     4  11  25  46  71 110 145 186 238 299 355 427
#     4  12  28  49  73 105 149 190 241 300 358 427
#     4  12  27  47  75 105 145 194 237 297 360 429
#     4  11  25  44  76 106 146 191 239 292 363 424
#     4  12  25  46  73 108 146 189 240 293 362 423
#     4  11  24  48  76 104 148 189 237 296 362 430
#     4  11  28  45  73 110 145 189 241 301 354 425
#
# _framework density 21.594360999999999
#
# number of rings (size 3 to 8) (size 9 to 14) (size 15 to 20)
#    0.000    0.500    3.750    3.000   10.500    4.000 
#    0.000    0.000    0.000    0.000    0.000    0.000 
#    0.000    0.000    0.000    0.000    0.000    0.000 
#
# Total GULP energy -89639.302415 kJ/mol
# GULP energy per Si atom -5602.456401 kJ/mol
# Density = 2.154521 g / cm^3
# Si number density = 21.594361 Si / 1000 Ang^3
#
#
#
# Elastic Constant Matrix: (Units=GPa)
#
#
# Indices 1 2 3 4 5 6 
#
# 1 87.3465 -3.6715 21.5968 0.0000 14.6405 0.0000
# 2 -3.6715 24.8866 1.6367 0.0000 1.1826 0.0000
# 3 21.5968 1.6367 92.2827 0.0000 13.5519 0.0000
# 4 0.0000 0.0000 0.0000 29.4346 0.0000 5.7617
# 5 14.6405 1.1826 13.5519 0.0000 42.3732 0.0000
# 6 0.0000 0.0000 0.0000 5.7617 0.0000 31.5875
#
#
#
# Elastic Compliance Matrix: (Units=1/GPa)
#
#
# Indices 1 2 3 4 5 6 
#
# 1 0.012774 0.002223 -0.002489 0.000000 -0.003680 0.000000
# 2 0.002223 0.040652 -0.001009 0.000000 -0.001580 0.000000
# 3 -0.002489 -0.001009 0.011863 0.000000 -0.002906 0.000000
# 4 0.000000 0.000000 0.000000 0.035232 0.000000 -0.006426
# 5 -0.003680 -0.001580 -0.002906 0.000000 0.025845 0.000000
# 6 0.000000 0.000000 0.000000 -0.006426 0.000000 0.032830
#
#
# Mechanical properties :
#
#
# Convention : Reuss Voigt Hill
#
# Bulk Modulus (GPa) = 15.93885 27.07108 21.50497
# Shear Modulus (GPa) = 27.37347 33.00933 30.19140
#
# Velocity S-wave (km/s) = 3.56423 3.91398 3.74319
# Velocity P-wave (km/s) = 4.93309 5.74361 5.35371
#
# Compressibility (1/GPa) = 0.06273979
#
# Stress axis : x y z
#
# Youngs Moduli (GPa) = 78.28282 24.59921 84.29329
#
# Poissons Ratio (x) = -0.05469 0.20977
# Poissons Ratio (y) = -0.17403 0.08507
# Poissons Ratio (z) = 0.19481 0.02483
#
# Static dielectric constant tensor:
#      x y z
#    x 1.758890 0.000000 0.007550 
#    y 0.000000 1.766640 0.000000 
#    z 0.007550 0.000000 1.761920 
# 
# From -- ./inp_files/1391.got.cif
#   From: 2010.05.17/outbox.cif.g08.bks.cpg/sg4_1_cif.got.tgz:1391.got - 2010.06.03 18:43:04.
