data_PCOD9119647
_publ_section_title
;
Structure prediction by ZEFSAII (Michael W. Deem and Ramdas Pophale) SiO2 
 PCOD9119647
Probable space group: P 21
;
_chemical_formula_sum "Si O2"
_cell_formula_units_Z 14
_cell_length_a 9.558890
_cell_length_b 7.803177
_cell_length_c 12.269512
_cell_angle_alpha 90.000000
_cell_angle_beta 144.339943
_cell_angle_gamma 90.000000
_cell_volume 533.526623
_symmetry_space_group_name_H-M "P 21"
_symmetry_group_IT_number 4
_symmetry_cell_setting 'monoclinic'
loop_
_space_group_symop_operation_xyz
x,y,z
-x,1/2+y,-z
loop_
_atom_site_type_symbol
_atom_site_label
_atom_site_fract_x
_atom_site_fract_y
_atom_site_fract_z
Si Si1 0.600973 0.078490 0.792926
Si Si2 0.742610 0.751398 0.583582
Si Si3 0.363367 0.713841 0.615797
Si Si4 0.979427 0.124186 0.755091
Si Si5 0.150846 0.118214 0.108048
Si Si6 0.405112 0.252485 0.887336
Si Si7 0.826046 0.124715 0.284823
O O1 0.507772 0.184591 0.627528
O O2 0.504026 0.180437 0.836169
O O3 0.888423 0.049134 0.978624
O O4 0.494376 0.889023 0.728169
O O5 0.929824 0.651062 0.624692
O O6 0.836368 0.947220 0.642675
O O7 0.776232 0.711575 0.732796
O O8 0.218821 0.754531 0.414780
O O9 0.170140 0.665193 0.585175
O O10 0.572019 0.567688 0.745697
O O11 0.064277 0.161431 0.930263
O O12 0.212535 0.134958 0.827253
O O13 0.280921 0.435860 0.797193
O O14 0.634753 0.253858 0.110941
#
# Coordination Sequence:
#
# PCOD9119647 Si02
#       7
#     2   2   2   2   2   2   2
#     4  12  27  48  76 109 148 194 246 301 363 432
#     4  12  27  48  76 109 148 194 246 301 363 432
#     4  12  27  48  76 109 148 194 246 301 363 432
#     4  12  27  48  76 109 148 194 246 301 363 432
#     4  12  28  46  74 104 152 194 246 296 368 428
#     4  12  25  46  77 109 145 189 244 302 365 432
#     4  12  25  46  77 109 145 189 244 302 365 432
#
# _framework density 26.240487999999999
#
# number of rings (size 3 to 8) (size 9 to 14) (size 15 to 20)
#    0.000    0.000    2.857    6.857    0.000    6.857 
#    0.000    0.000    0.000    0.000    0.000    0.000 
#    0.000    0.000    0.000    0.000    0.000    0.000 
#
# Total GULP energy -78245.758413 kJ/mol
# GULP energy per Si atom -5588.982744 kJ/mol
# Density = 2.618076 g / cm^3
# Si number density = 26.240488 Si / 1000 Ang^3
#
#
#
# Elastic Constant Matrix: (Units=GPa)
#
#
# Indices 1 2 3 4 5 6 
#
# 1 161.9599 24.6966 45.9889 0.0000 -14.5448 0.0000
# 2 24.6966 75.1799 -29.2690 0.0000 11.2657 0.0000
# 3 45.9889 -29.2690 101.3408 0.0000 13.1378 0.0000
# 4 0.0000 0.0000 0.0000 26.7053 0.0000 1.5665
# 5 -14.5448 11.2657 13.1378 0.0000 33.9693 0.0000
# 6 0.0000 0.0000 0.0000 1.5665 0.0000 -3.7601
#
#
#
# Elastic Compliance Matrix: (Units=1/GPa)
#
#
# Indices 1 2 3 4 5 6 
#
# 1 0.011089 -0.008832 -0.009031 0.000000 0.011170 0.000000
# 2 -0.008832 0.023787 0.013045 0.000000 -0.016716 0.000000
# 3 -0.009031 0.013045 0.019788 0.000000 -0.015846 0.000000
# 4 0.000000 0.000000 0.000000 0.036552 0.000000 0.015229
# 5 0.011170 -0.016716 -0.015846 0.000000 0.045893 0.000000
# 6 0.000000 0.000000 0.000000 0.015229 0.000000 -0.259605
#
#
# Mechanical properties :
#
#
# Convention : Reuss Voigt Hill
#
# Bulk Modulus (GPa) = 22.20914 46.81262 34.51088
# Shear Modulus (GPa) = -51.09852 31.18720 -9.95566
#
# Velocity S-wave (km/s) = -4.41763 3.45122 -1.94993
# Velocity P-wave (km/s) = 4.18790 5.81032 2.84792
#
# Compressibility (1/GPa) = 0.04502651
#
# Stress axis : x y z
#
# Youngs Moduli (GPa) = 90.18153 42.04059 50.53539
#
# Poissons Ratio (x) = 0.37132 0.45639
# Poissons Ratio (y) = 0.79653 -0.65925
# Poissons Ratio (z) = 0.81445 -0.54843
#
# Static dielectric constant tensor:
#      x y z
#    x 2.097380 0.000000 0.003420 
#    y 0.000000 2.151920 0.000000 
#    z 0.003420 0.000000 2.022660 
# 
# From -- ./inp_files/11104.got.cif
#   From: 2010.05.17/outbox.cif.g08.bks.cpg/sg4_6_cif.got.tgz:11104.got - 2010.06.03 18:43:04.
