data_PCOD9119152
_publ_section_title
;
Structure prediction by ZEFSAII (Michael W. Deem and Ramdas Pophale) SiO2 
 PCOD9119152
Probable space group: P 21
;
_chemical_formula_sum "Si O2"
_cell_formula_units_Z 16
_cell_length_a 9.675385
_cell_length_b 5.229757
_cell_length_c 13.029709
_cell_angle_alpha 90.000000
_cell_angle_beta 102.168519
_cell_angle_gamma 90.000000
_cell_volume 644.488841
_symmetry_space_group_name_H-M "P 21"
_symmetry_group_IT_number 4
_symmetry_cell_setting 'monoclinic'
loop_
_space_group_symop_operation_xyz
x,y,z
-x,1/2+y,-z
loop_
_atom_site_type_symbol
_atom_site_label
_atom_site_fract_x
_atom_site_fract_y
_atom_site_fract_z
Si Si1 0.578545 0.544530 0.385262
Si Si2 0.743235 0.946258 0.308476
Si Si3 0.708541 0.245795 0.599450
Si Si4 0.863797 0.694183 0.147299
Si Si5 0.702952 0.857716 0.932423
Si Si6 0.385920 0.822153 0.840035
Si Si7 0.924287 0.224313 0.485245
Si Si8 0.190141 0.847015 0.167282
O O1 0.653978 0.818705 0.384311
O O2 0.647258 0.402999 0.492865
O O3 0.414639 0.560713 0.384433
O O4 0.591330 0.448234 0.269812
O O5 0.854154 0.774001 0.265233
O O6 0.640385 0.034641 0.202398
O O7 0.830469 0.177432 0.370403
O O8 0.844376 0.113766 0.572053
O O9 0.757475 0.394042 0.708220
O O10 0.755097 0.447077 0.130985
O O11 0.029252 0.732199 0.144606
O O12 0.787714 0.873377 0.051651
O O13 0.533999 0.831959 0.921931
O O14 0.774232 0.609631 0.887579
O O15 0.724339 0.114904 0.870870
O O16 0.950455 0.521566 0.506939
#
# Coordination Sequence:
#
# PCOD9119152 Si02
#       8
#     2   2   2   2   2   2   2   2
#     4  11  24  46  68 114 141 207 245 323 364 472
#     4  11  25  47  72 104 153 187 255 316 374 458
#     4  12  25  44  78 101 156 197 252 300 393 443
#     4  11  29  48  82 108 154 205 256 323 403 448
#     4  12  29  52  78 113 157 200 264 326 386 462
#     4  11  26  48  76 110 151 196 268 320 382 468
#     4  12  27  45  69 106 149 192 243 297 369 457
#     4  12  29  50  77 118 157 204 259 321 389 472
#
# _framework density 24.825876999999998
#
# number of rings (size 3 to 8) (size 9 to 14) (size 15 to 20)
#    0.000    0.500    2.500    3.750   12.250    2.000 
#    0.000    0.000    0.000    0.000    0.000    0.000 
#    0.000    0.000    0.000    0.000    0.000    0.000 
#
# Total GULP energy -89324.681577 kJ/mol
# GULP energy per Si atom -5582.792599 kJ/mol
# Density = 2.476937 g / cm^3
# Si number density = 24.825877 Si / 1000 Ang^3
#
#
#
# Elastic Constant Matrix: (Units=GPa)
#
#
# Indices 1 2 3 4 5 6 
#
# 1 102.9923 19.2487 11.3336 0.0000 5.0055 0.0000
# 2 19.2487 70.0369 11.8762 0.0000 -13.9655 0.0000
# 3 11.3336 11.8762 103.2128 0.0000 6.4933 0.0000
# 4 0.0000 0.0000 0.0000 43.2656 0.0000 -1.9692
# 5 5.0055 -13.9655 6.4933 0.0000 43.6405 0.0000
# 6 0.0000 0.0000 0.0000 -1.9692 0.0000 27.7934
#
#
#
# Elastic Compliance Matrix: (Units=1/GPa)
#
#
# Indices 1 2 3 4 5 6 
#
# 1 0.010481 -0.003195 -0.000649 0.000000 -0.002128 0.000000
# 2 -0.003195 0.016681 -0.001946 0.000000 0.005994 0.000000
# 3 -0.000649 -0.001946 0.010113 0.000000 -0.002053 0.000000
# 4 0.000000 0.000000 0.000000 0.023188 0.000000 0.001643
# 5 -0.002128 0.005994 -0.002053 0.000000 0.025382 0.000000
# 6 0.000000 0.000000 0.000000 0.001643 0.000000 0.036096
#
#
# Mechanical properties :
#
#
# Convention : Reuss Voigt Hill
#
# Bulk Modulus (GPa) = 38.91678 40.12875 39.52277
# Shear Modulus (GPa) = 35.18955 38.52548 36.85751
#
# Velocity S-wave (km/s) = 3.76899 3.94360 3.85728
# Velocity P-wave (km/s) = 5.88645 6.07743 5.98270
#
# Compressibility (1/GPa) = 0.02569586
#
# Stress axis : x y z
#
# Youngs Moduli (GPa) = 95.40657 59.94679 98.88192
#
# Poissons Ratio (x) = 0.19152 0.06422
# Poissons Ratio (y) = 0.30481 0.19240
# Poissons Ratio (z) = 0.06196 0.11664
#
# Static dielectric constant tensor:
#      x y z
#    x 2.052430 0.000000 -0.004580 
#    y 0.000000 2.171940 0.000000 
#    z -0.004580 0.000000 1.935240 
# 
# From -- ./inp_files/10756.got.cif
#   From: 2010.05.17/outbox.cif.g08.bks.cpg/sg4_6_cif.got.tgz:10756.got - 2010.06.03 18:43:04.
