data_PCOD9119587
_publ_section_title
;
Structure prediction by ZEFSAII (Michael W. Deem and Ramdas Pophale) SiO2 
 PCOD9119587
Probable space group: P 21
;
_chemical_formula_sum "Si O2"
_cell_formula_units_Z 16
_cell_length_a 16.860769
_cell_length_b 5.680891
_cell_length_c 17.060193
_cell_angle_alpha 90.000000
_cell_angle_beta 154.502299
_cell_angle_gamma 90.000000
_cell_volume 703.437617
_symmetry_space_group_name_H-M "P 21"
_symmetry_group_IT_number 4
_symmetry_cell_setting 'monoclinic'
loop_
_space_group_symop_operation_xyz
x,y,z
-x,1/2+y,-z
loop_
_atom_site_type_symbol
_atom_site_label
_atom_site_fract_x
_atom_site_fract_y
_atom_site_fract_z
Si Si1 0.895063 0.283660 0.593323
Si Si2 0.568013 0.308292 0.527673
Si Si3 0.124120 0.556761 0.690463
Si Si4 0.183921 0.135190 0.962440
Si Si5 0.486150 0.936404 0.700776
Si Si6 0.773788 0.901599 0.383687
Si Si7 0.975944 0.139982 0.935052
Si Si8 0.638592 0.244808 0.959907
O O1 0.720269 0.451836 0.450168
O O2 0.020037 0.324811 0.628635
O O3 0.028208 0.303458 0.786370
O O4 0.797397 0.038420 0.486884
O O5 0.539795 0.559960 0.548923
O O6 0.525607 0.389384 0.401358
O O7 0.776540 0.220075 0.725678
O O8 0.214316 0.550272 0.686298
O O9 0.952561 0.735950 0.537472
O O10 0.275243 0.595433 0.892889
O O11 0.110699 0.079788 0.983095
O O12 0.391250 0.228518 0.153302
O O13 0.204351 0.936808 0.915276
O O14 0.605151 0.149598 0.841371
O O15 0.567350 0.803726 0.197416
O O16 0.043809 0.387459 0.036707
#
# Coordination Sequence:
#
# PCOD9119587 Si02
#       8
#     2   2   2   2   2   2   2   2
#     4  12  24  46  71 104 138 194 240 294 377 440
#     4  12  28  51  77 113 155 205 258 316 386 458
#     4  12  26  45  73 103 145 190 241 307 371 444
#     4  12  26  46  75 108 150 191 247 310 373 446
#     4  12  26  46  75 108 150 191 247 310 373 446
#     4  12  26  45  73 103 145 190 241 307 371 444
#     4  12  28  51  77 113 155 205 258 316 386 458
#     4  12  28  44  75 110 146 190 250 306 375 446
#
# _framework density 22.745442000000001
#
# number of rings (size 3 to 8) (size 9 to 14) (size 15 to 20)
#    0.000    0.000    7.500    2.250    5.250    3.000 
#    4.500    0.000    0.000    0.000    0.000    0.000 
#    0.000    0.000    0.000    0.000    0.000    0.000 
#
# Total GULP energy -89139.320331 kJ/mol
# GULP energy per Si atom -5571.207521 kJ/mol
# Density = 2.269367 g / cm^3
# Si number density = 22.745442 Si / 1000 Ang^3
#
#
#
# Elastic Constant Matrix: (Units=GPa)
#
#
# Indices 1 2 3 4 5 6 
#
# 1 76.0929 24.1493 40.3325 0.0000 -3.0410 0.0000
# 2 24.1493 66.8770 25.4326 0.0000 1.8752 0.0000
# 3 40.3325 25.4326 156.1489 0.0000 3.1350 0.0000
# 4 0.0000 0.0000 0.0000 37.8710 0.0000 -0.3956
# 5 -3.0410 1.8752 3.1350 0.0000 34.1303 0.0000
# 6 0.0000 0.0000 0.0000 -0.3956 0.0000 28.2814
#
#
#
# Elastic Compliance Matrix: (Units=1/GPa)
#
#
# Indices 1 2 3 4 5 6 
#
# 1 0.016605 -0.004698 -0.003565 0.000000 0.002065 0.000000
# 2 -0.004698 0.017283 -0.001577 0.000000 -0.001223 0.000000
# 3 -0.003565 -0.001577 0.007601 0.000000 -0.000929 0.000000
# 4 0.000000 0.000000 0.000000 0.026409 0.000000 0.000369
# 5 0.002065 -0.001223 -0.000929 0.000000 0.029636 0.000000
# 6 0.000000 0.000000 0.000000 0.000369 0.000000 0.035364
#
#
# Mechanical properties :
#
#
# Convention : Reuss Voigt Hill
#
# Bulk Modulus (GPa) = 45.85427 53.21641 49.53534
# Shear Modulus (GPa) = 31.27958 34.00350 32.64154
#
# Velocity S-wave (km/s) = 3.71240 3.87066 3.79236
# Velocity P-wave (km/s) = 6.21123 6.58964 6.40323
#
# Compressibility (1/GPa) = 0.02180822
#
# Stress axis : x y z
#
# Youngs Moduli (GPa) = 60.22220 57.85922 131.56975
#
# Poissons Ratio (x) = 0.27183 0.46908
# Poissons Ratio (y) = 0.28294 0.20747
# Poissons Ratio (z) = 0.21471 0.09124
#
# Static dielectric constant tensor:
#      x y z
#    x 1.828520 0.000000 -0.006030 
#    y 0.000000 1.999530 0.000000 
#    z -0.006030 0.000000 1.774360 
# 
# From -- ./inp_files/14118.got.cif
#   From: 2010.05.17/outbox.cif.g08.bks.cpg/sg4_8_cif.got.tgz:14118.got - 2010.06.03 18:43:04.
