data_PCOD9119817
_publ_section_title
;
Structure prediction by ZEFSAII (Michael W. Deem and Ramdas Pophale) SiO2 
 PCOD9119817
Probable space group: P 21
;
_chemical_formula_sum "Si O2"
_cell_formula_units_Z 16
_cell_length_a 15.000000
_cell_length_b 9.000000
_cell_length_c 12.000000
_cell_angle_alpha 90.000000
_cell_angle_beta 150.000000
_cell_angle_gamma 90.000000
_cell_volume 810.000000
_symmetry_space_group_name_H-M "P 21"
_symmetry_group_IT_number 4
_symmetry_cell_setting 'monoclinic'
loop_
_space_group_symop_operation_xyz
x,y,z
-x,1/2+y,-z
loop_
_atom_site_type_symbol
_atom_site_label
_atom_site_fract_x
_atom_site_fract_y
_atom_site_fract_z
Si Si1 0.657180 0.904520 0.736836
Si Si2 0.265006 0.629407 0.975860
Si Si3 0.993277 0.712306 0.191017
Si Si4 0.649003 0.165028 0.544802
Si Si5 0.941192 0.436861 0.532784
Si Si6 0.479931 0.978027 0.910698
Si Si7 0.876581 0.453314 0.207303
Si Si8 0.535778 0.640119 0.891688
O O1 0.479679 0.798773 0.547401
O O2 0.658141 0.014149 0.629499
O O3 0.819612 0.788560 0.943521
O O4 0.679048 0.029694 0.857535
O O5 0.219849 0.803280 0.940918
O O6 0.087749 0.556265 0.729731
O O7 0.427491 0.598688 0.067928
O O8 0.153703 0.722027 0.275128
O O9 0.033932 0.803324 0.350322
O O10 0.979150 0.540925 0.219630
O O11 0.564187 0.130601 0.332688
O O12 0.734905 0.485125 0.325004
O O13 0.963755 0.411008 0.422955
O O14 0.533062 0.810477 0.932506
O O15 0.541377 0.027728 0.099849
O O16 0.733171 0.580225 0.083864
#
# Coordination Sequence:
#
# PCOD9119817 Si02
#       8
#     2   2   2   2   2   2   2   2
#     4  11  27  47  72  96 134 179 233 293 330 406
#     4  11  23  42  66  98 140 180 225 280 339 402
#     4  11  23  47  69  98 140 176 235 277 342 404
#     4  12  26  49  74  97 135 183 228 287 348 391
#     4  10  21  39  64 100 137 183 215 278 335 403
#     4  11  21  41  67 102 139 177 224 271 342 417
#     4  11  23  39  67 103 144 179 221 274 344 410
#     4  11  22  42  69 102 139 179 217 282 338 413
#
# _framework density 19.753086
#
# number of rings (size 3 to 8) (size 9 to 14) (size 15 to 20)
#    0.000    1.000    3.750    3.000    3.500    3.000 
#    2.250    1.250    0.000    0.000    0.000    0.000 
#    0.000    0.000    0.000    0.000    0.000    0.000 
#
# Total GULP energy -89247.990061 kJ/mol
# GULP energy per Si atom -5577.999379 kJ/mol
# Density = 1.970813 g / cm^3
# Si number density = 19.753086 Si / 1000 Ang^3
#
#
#
# Elastic Constant Matrix: (Units=GPa)
#
#
# Indices 1 2 3 4 5 6 
#
# 1 97.0187 53.2933 43.0467 0.0000 -1.2609 0.0000
# 2 53.2933 123.2115 49.6817 0.0000 0.2536 0.0000
# 3 43.0467 49.6817 62.6464 0.0000 1.0991 0.0000
# 4 0.0000 0.0000 0.0000 28.2150 0.0000 -7.6133
# 5 -1.2609 0.2536 1.0991 0.0000 40.9673 0.0000
# 6 0.0000 0.0000 0.0000 -7.6133 0.0000 43.7256
#
#
#
# Elastic Compliance Matrix: (Units=1/GPa)
#
#
# Indices 1 2 3 4 5 6 
#
# 1 0.015879 -0.003624 -0.008050 0.000000 0.000727 0.000000
# 2 -0.003624 0.012760 -0.007629 0.000000 0.000014 0.000000
# 3 -0.008050 -0.007629 0.027561 0.000000 -0.000940 0.000000
# 4 0.000000 0.000000 0.000000 0.037189 0.000000 0.006475
# 5 0.000727 0.000014 -0.000940 0.000000 0.024457 0.000000
# 6 0.000000 0.000000 0.000000 0.006475 0.000000 0.023997
#
#
# Mechanical properties :
#
#
# Convention : Reuss Voigt Hill
#
# Bulk Modulus (GPa) = 56.83895 63.88000 60.35947
# Shear Modulus (GPa) = 26.83626 31.70522 29.27074
#
# Velocity S-wave (km/s) = 3.68990 4.01069 3.85363
# Velocity P-wave (km/s) = 6.85500 7.33873 7.10098
#
# Compressibility (1/GPa) = 0.01759357
#
# Stress axis : x y z
#
# Youngs Moduli (GPa) = 62.97588 78.37074 36.28305
#
# Poissons Ratio (x) = 0.28400 0.29208
# Poissons Ratio (y) = 0.22821 0.27682
# Poissons Ratio (z) = 0.50696 0.59792
#
# Static dielectric constant tensor:
#      x y z
#    x 1.765510 0.000000 0.011620 
#    y 0.000000 1.686190 0.000000 
#    z 0.011620 0.000000 1.728590 
# 
# From -- ./inp_files/12627.got.cif
#   From: 2010.05.17/outbox.ucp.g08.bks.cvg/sg4_7_cif.got.tgz:12627.got - 2010.06.11 12:51:24.
