data_PCOD9119076
_publ_section_title
;
Structure prediction by ZEFSAII (Michael W. Deem and Ramdas Pophale) SiO2 
 PCOD9119076
Probable space group: P 21
;
_chemical_formula_sum "Si O2"
_cell_formula_units_Z 16
_cell_length_a 12.954690
_cell_length_b 4.856246
_cell_length_c 12.451929
_cell_angle_alpha 90.000000
_cell_angle_beta 125.794194
_cell_angle_gamma 90.000000
_cell_volume 635.405697
_symmetry_space_group_name_H-M "P 21"
_symmetry_group_IT_number 4
_symmetry_cell_setting 'monoclinic'
loop_
_space_group_symop_operation_xyz
x,y,z
-x,1/2+y,-z
loop_
_atom_site_type_symbol
_atom_site_label
_atom_site_fract_x
_atom_site_fract_y
_atom_site_fract_z
Si Si1 0.972673 0.398790 0.054496
Si Si2 0.208662 0.422819 0.336892
Si Si3 0.460702 0.498672 0.741877
Si Si4 0.710440 0.462721 0.014986
Si Si5 0.541761 0.134832 0.596534
Si Si6 0.725758 0.974473 0.171024
Si Si7 0.076866 0.767555 0.572793
Si Si8 0.267835 0.910332 0.515995
O O1 0.079418 0.321004 0.206395
O O2 0.831232 0.388186 0.015431
O O3 0.007530 0.702690 0.035229
O O4 0.540187 0.411723 0.521675
O O5 0.319185 0.494671 0.317685
O O6 0.194170 0.708004 0.390280
O O7 0.498827 0.249593 0.685510
O O8 0.362955 0.429798 0.778720
O O9 0.390507 0.734587 0.630465
O O10 0.593835 0.583153 0.875647
O O11 0.749888 0.691764 0.125265
O O12 0.663494 0.193411 0.051114
O O13 0.263768 0.204139 0.455452
O O14 0.856881 0.120911 0.286747
O O15 0.184857 0.927078 0.572752
O O16 0.024544 0.508654 0.471924
#
# Coordination Sequence:
#
# PCOD9119076 Si02
#       8
#     2   2   2   2   2   2   2   2
#     4  12  28  52  77 112 153 207 263 323 394 466
#     4  12  26  48  75 110 155 196 269 316 396 462
#     4  11  27  52  80 113 165 197 270 320 399 466
#     4  12  27  50  83 112 156 213 254 323 390 476
#     4  12  27  47  75 114 154 207 260 324 399 463
#     4  11  27  48  76 121 153 204 264 312 397 471
#     4  11  24  43  74 110 155 199 261 316 390 459
#     4  11  26  46  74 112 151 205 245 340 377 463
#
# _framework density 25.180764
#
# number of rings (size 3 to 8) (size 9 to 14) (size 15 to 20)
#    0.000    0.500    1.250    5.250    5.250    7.000 
#    0.000    0.000    0.000    0.000    0.000    0.000 
#    0.000    0.000    0.000    0.000    0.000    0.000 
#
# Total GULP energy -89628.087237 kJ/mol
# GULP energy per Si atom -5601.755452 kJ/mol
# Density = 2.512345 g / cm^3
# Si number density = 25.180764 Si / 1000 Ang^3
#
#
#
# Elastic Constant Matrix: (Units=GPa)
#
#
# Indices 1 2 3 4 5 6 
#
# 1 110.3384 31.5113 29.9869 0.0000 -5.8662 0.0000
# 2 31.5113 132.2710 12.0705 0.0000 -6.9763 0.0000
# 3 29.9869 12.0705 106.4525 0.0000 15.9248 0.0000
# 4 0.0000 0.0000 0.0000 40.1147 0.0000 -11.4493
# 5 -5.8662 -6.9763 15.9248 0.0000 38.5374 0.0000
# 6 0.0000 0.0000 0.0000 -11.4493 0.0000 43.7958
#
#
#
# Elastic Compliance Matrix: (Units=1/GPa)
#
#
# Indices 1 2 3 4 5 6 
#
# 1 0.010657 -0.002118 -0.003141 0.000000 0.002537 0.000000
# 2 -0.002118 0.008187 -0.000538 0.000000 0.001382 0.000000
# 3 -0.003141 -0.000538 0.011113 0.000000 -0.005168 0.000000
# 4 0.000000 0.000000 0.000000 0.026939 0.000000 0.007042
# 5 0.002537 0.001382 -0.005168 0.000000 0.028721 0.000000
# 6 0.000000 0.000000 0.000000 0.007042 0.000000 0.024674
#
#
# Mechanical properties :
#
#
# Convention : Reuss Voigt Hill
#
# Bulk Modulus (GPa) = 54.46427 55.13326 54.79876
# Shear Modulus (GPa) = 39.06085 42.85580 40.95833
#
# Velocity S-wave (km/s) = 3.94282 4.12992 4.03745
# Velocity P-wave (km/s) = 6.51184 6.68462 6.59880
#
# Compressibility (1/GPa) = 0.01836066
#
# Stress axis : x y z
#
# Youngs Moduli (GPa) = 93.83919 122.14633 89.98627
#
# Poissons Ratio (x) = 0.25874 0.28266
# Poissons Ratio (y) = 0.19878 0.04844
# Poissons Ratio (z) = 0.29476 0.06576
#
# Static dielectric constant tensor:
#      x y z
#    x 2.128680 0.000000 0.055060 
#    y 0.000000 1.950890 0.000000 
#    z 0.055060 0.000000 1.999030 
# 
# From -- ./inp_files/11586.got.cif
#   From: 2010.05.17/outbox.cif.g08.bks.cpg/sg4_6_cif.got.tgz:11586.got - 2010.06.03 18:43:04.
