data_PCOD9119391
_publ_section_title
;
Structure prediction by ZEFSAII (Michael W. Deem and Ramdas Pophale) SiO2 
 PCOD9119391
Probable space group: P 21
;
_chemical_formula_sum "Si O2"
_cell_formula_units_Z 16
_cell_length_a 8.868198
_cell_length_b 13.540672
_cell_length_c 5.060832
_cell_angle_alpha 90.000000
_cell_angle_beta 79.649351
_cell_angle_gamma 90.000000
_cell_volume 597.822054
_symmetry_space_group_name_H-M "P 21"
_symmetry_group_IT_number 4
_symmetry_cell_setting 'monoclinic'
loop_
_space_group_symop_operation_xyz
x,y,z
-x,1/2+y,-z
loop_
_atom_site_type_symbol
_atom_site_label
_atom_site_fract_x
_atom_site_fract_y
_atom_site_fract_z
Si Si1 0.716342 0.009060 0.522874
Si Si2 0.452203 0.894393 0.882645
Si Si3 0.315484 0.709957 0.598973
Si Si4 0.999718 0.293925 0.153426
Si Si5 0.178015 0.291538 0.594102
Si Si6 0.977194 0.526492 0.259640
Si Si7 0.429999 0.221579 0.867477
Si Si8 0.771713 0.555181 0.837085
O O1 0.678187 0.094624 0.324882
O O2 0.851001 0.046173 0.682874
O O3 0.555503 0.973180 0.696354
O O4 0.787492 0.907948 0.388418
O O5 0.392868 0.802570 0.723719
O O6 0.314735 0.951142 0.071164
O O7 0.566951 0.833925 0.032374
O O8 0.140201 0.736421 0.680571
O O9 0.397496 0.705027 0.288080
O O10 0.972665 0.409556 0.205342
O O11 0.139577 0.270466 0.304700
O O12 0.037860 0.273216 0.838144
O O13 0.319634 0.227865 0.649412
O O14 0.907505 0.570441 0.011161
O O15 0.855227 0.549916 0.529931
O O16 0.361415 0.136075 0.070500
#
# Coordination Sequence:
#
# PCOD9119391 Si02
#       8
#     2   2   2   2   2   2   2   2
#     4  11  26  50  78 111 158 205 271 322 401 465
#     4  12  27  52  74 113 161 206 260 331 393 477
#     4  12  27  48  76 117 152 211 262 324 390 480
#     4  11  25  49  78 109 151 199 254 318 382 454
#     4  11  26  49  77 107 154 203 255 323 385 457
#     4  11  25  49  76 108 152 200 257 322 387 452
#     4  12  28  46  78 110 155 206 261 315 404 465
#     4  12  28  49  79 113 151 204 258 323 390 466
#
# _framework density 26.763817
#
# number of rings (size 3 to 8) (size 9 to 14) (size 15 to 20)
#    0.000    0.500    3.750    3.750    7.000    1.000 
#    6.750    0.000    0.000    0.000    0.000    0.000 
#    0.000    0.000    0.000    0.000    0.000    0.000 
#
# Total GULP energy -89657.283850 kJ/mol
# GULP energy per Si atom -5603.580241 kJ/mol
# Density = 2.670290 g / cm^3
# Si number density = 26.763817 Si / 1000 Ang^3
#
#
#
# Elastic Constant Matrix: (Units=GPa)
#
#
# Indices 1 2 3 4 5 6 
#
# 1 115.9621 29.6184 41.2260 0.0000 -11.7936 0.0000
# 2 29.6184 101.0999 22.6554 0.0000 -7.9834 0.0000
# 3 41.2260 22.6554 118.6109 0.0000 -10.4500 0.0000
# 4 0.0000 0.0000 0.0000 37.4693 0.0000 -13.6766
# 5 -11.7936 -7.9834 -10.4500 0.0000 43.4880 0.0000
# 6 0.0000 0.0000 0.0000 -13.6766 0.0000 52.3760
#
#
#
# Elastic Compliance Matrix: (Units=1/GPa)
#
#
# Indices 1 2 3 4 5 6 
#
# 1 0.010455 -0.002245 -0.003056 0.000000 0.001689 0.000000
# 2 -0.002245 0.010906 -0.001206 0.000000 0.001104 0.000000
# 3 -0.003056 -0.001206 0.009839 0.000000 0.001314 0.000000
# 4 0.000000 0.000000 0.000000 0.029500 0.000000 0.007703
# 5 0.001689 0.001104 0.001314 0.000000 0.023971 0.000000
# 6 0.000000 0.000000 0.000000 0.007703 0.000000 0.021104
#
#
# Mechanical properties :
#
#
# Convention : Reuss Voigt Hill
#
# Bulk Modulus (GPa) = 54.98419 58.07473 56.52946
# Shear Modulus (GPa) = 40.04731 42.81154 41.42943
#
# Velocity S-wave (km/s) = 3.87243 4.00385 3.93869
# Velocity P-wave (km/s) = 6.37049 6.56662 6.46930
#
# Compressibility (1/GPa) = 0.01818705
#
# Stress axis : x y z
#
# Youngs Moduli (GPa) = 95.64625 91.69137 101.63294
#
# Poissons Ratio (x) = 0.20582 0.31063
# Poissons Ratio (y) = 0.21470 0.12254
# Poissons Ratio (z) = 0.29233 0.11055
#
# Static dielectric constant tensor:
#      x y z
#    x 2.140540 0.000000 0.044460 
#    y 0.000000 2.124740 0.000000 
#    z 0.044460 0.000000 2.073110 
# 
# From -- ./inp_files/1925.got.cif
#   From: 2010.05.17/outbox.cif.g08.bks.cpg/sg4_1_cif.got.tgz:1925.got - 2010.06.03 18:43:04.
