data_PCOD9119246
_publ_section_title
;
Structure prediction by ZEFSAII (Michael W. Deem and Ramdas Pophale) SiO2 
 PCOD9119246
Probable space group: P 21
;
_chemical_formula_sum "Si O2"
_cell_formula_units_Z 16
_cell_length_a 8.215757
_cell_length_b 11.802756
_cell_length_c 6.538277
_cell_angle_alpha 90.000000
_cell_angle_beta 79.762869
_cell_angle_gamma 90.000000
_cell_volume 623.914413
_symmetry_space_group_name_H-M "P 21"
_symmetry_group_IT_number 4
_symmetry_cell_setting 'monoclinic'
loop_
_space_group_symop_operation_xyz
x,y,z
-x,1/2+y,-z
loop_
_atom_site_type_symbol
_atom_site_label
_atom_site_fract_x
_atom_site_fract_y
_atom_site_fract_z
Si Si1 0.266921 0.859010 0.264675
Si Si2 0.852627 0.998071 0.290831
Si Si3 0.334597 0.335724 0.360259
Si Si4 0.848765 0.143223 0.955199
Si Si5 0.374335 0.983670 0.848753
Si Si6 0.134537 0.300260 0.012450
Si Si7 0.559852 0.714719 0.314550
Si Si8 0.063903 0.000300 0.600568
O O1 0.231775 0.747966 0.138803
O O2 0.425023 0.813818 0.352924
O O3 0.124348 0.887899 0.460090
O O4 0.310401 0.960155 0.094397
O O5 0.988685 0.056470 0.406197
O O6 0.731218 0.928236 0.463483
O O7 0.755064 0.081195 0.160099
O O8 0.927171 0.904180 0.116304
O O9 0.504105 0.378565 0.222527
O O10 0.189549 0.329079 0.226951
O O11 0.361111 0.218175 0.476249
O O12 0.923531 0.053056 0.780524
O O13 0.003405 0.201903 0.031659
O O14 0.486583 0.093979 0.770641
O O15 0.221954 0.002551 0.723360
O O16 0.299372 0.256841 0.869029
#
# Coordination Sequence:
#
# PCOD9119246 Si02
#       8
#     2   2   2   2   2   2   2   2
#     4  12  28  51  76 114 154 195 258 317 377 455
#     4  11  27  46  74 109 150 200 250 308 379 452
#     4  11  26  48  74 109 155 197 249 314 372 458
#     4  12  28  48  76 112 152 203 251 315 383 446
#     4  12  27  48  77 110 153 192 257 314 370 459
#     4  11  24  49  70 107 155 190 253 308 376 448
#     4  11  26  46  74 111 144 207 243 306 387 439
#     4  12  26  50  73 112 151 198 257 312 378 457
#
# _framework density 25.644542999999999
#
# number of rings (size 3 to 8) (size 9 to 14) (size 15 to 20)
#    0.000    0.500    5.000    1.500    7.000    2.000 
#    0.000    0.000    0.000    0.000    0.000    0.000 
#    0.000    0.000    0.000    0.000    0.000    0.000 
#
# Total GULP energy -89209.012145 kJ/mol
# GULP energy per Si atom -5575.563259 kJ/mol
# Density = 2.558617 g / cm^3
# Si number density = 25.644543 Si / 1000 Ang^3
#
#
#
# Elastic Constant Matrix: (Units=GPa)
#
#
# Indices 1 2 3 4 5 6 
#
# 1 47.9481 7.7850 36.5882 0.0000 14.0380 0.0000
# 2 7.7850 65.5839 40.1229 0.0000 10.1203 0.0000
# 3 36.5882 40.1229 120.0952 0.0000 17.9490 0.0000
# 4 0.0000 0.0000 0.0000 38.2785 0.0000 4.8801
# 5 14.0380 10.1203 17.9490 0.0000 46.3402 0.0000
# 6 0.0000 0.0000 0.0000 4.8801 0.0000 34.4402
#
#
#
# Elastic Compliance Matrix: (Units=1/GPa)
#
#
# Indices 1 2 3 4 5 6 
#
# 1 0.028912 0.002930 -0.008898 0.000000 -0.005952 0.000000
# 2 0.002930 0.019606 -0.007080 0.000000 -0.002427 0.000000
# 3 -0.008898 -0.007080 0.013554 0.000000 -0.001008 0.000000
# 4 0.000000 0.000000 0.000000 0.026605 0.000000 -0.003770
# 5 -0.005952 -0.002427 -0.001008 0.000000 0.024303 0.000000
# 6 0.000000 0.000000 0.000000 -0.003770 0.000000 0.029570
#
#
# Mechanical properties :
#
#
# Convention : Reuss Voigt Hill
#
# Bulk Modulus (GPa) = 27.79621 44.73547 36.26584
# Shear Modulus (GPa) = 27.67971 33.75385 30.71678
#
# Velocity S-wave (km/s) = 3.28893 3.63191 3.46467
# Velocity P-wave (km/s) = 5.02845 5.92199 5.49342
#
# Compressibility (1/GPa) = 0.03597612
#
# Stress axis : x y z
#
# Youngs Moduli (GPa) = 34.58714 51.00529 73.78124
#
# Poissons Ratio (x) = -0.14944 0.65649
# Poissons Ratio (y) = -0.10134 0.52238
# Poissons Ratio (z) = 0.30775 0.36112
#
# Static dielectric constant tensor:
#      x y z
#    x 2.097190 0.000000 0.051480 
#    y 0.000000 2.130140 0.000000 
#    z 0.051480 0.000000 2.001810 
# 
# From -- ./inp_files/1392.got.cif
#   From: 2010.05.17/outbox.cif.g08.bks.cpg/sg4_1_cif.got.tgz:1392.got - 2010.06.03 18:43:04.
