data_PCOD9119909
_publ_section_title
;
Structure prediction by ZEFSAII (Michael W. Deem and Ramdas Pophale) SiO2 
 PCOD9119909
Probable space group: C 2
;
_chemical_formula_sum "Si O2"
_cell_formula_units_Z 22
_cell_length_a 13.470548
_cell_length_b 8.677168
_cell_length_c 7.417538
_cell_angle_alpha 90.000000
_cell_angle_beta 102.089088
_cell_angle_gamma 90.000000
_cell_volume 847.780378
_symmetry_space_group_name_H-M "C 2"
_symmetry_group_IT_number 5
_symmetry_cell_setting 'monoclinic'
loop_
_space_group_symop_operation_xyz
x,y,z
-x,y,-z
1/2+x,1/2+y,z
1/2-x,1/2+y,-z
loop_
_atom_site_type_symbol
_atom_site_label
_atom_site_fract_x
_atom_site_fract_y
_atom_site_fract_z
Si Si1 0.785843 0.316680 0.880170
Si Si2 0.887945 0.027565 0.729542
Si Si3 0.047644 0.261597 0.813988
Si Si4 0.119218 0.797718 0.566121
Si Si5 0.000000 0.793159 0.000000
Si Si6 0.419065 0.042754 0.707494
O O1 0.822784 0.171087 0.772969
O O2 0.668869 0.319822 0.779600
O O3 0.838335 0.470029 0.817766
O O4 0.833403 0.283452 0.095809
O O5 0.997635 0.106058 0.720601
O O6 0.838261 0.928580 0.552681
O O7 0.912203 0.912502 0.903435
O O8 0.995820 0.403690 0.694549
O O9 0.000000 0.270205 0.000000
O O10 0.131817 0.630069 0.478558
O O11 0.000000 0.822545 0.500000
O O12 0.987495 0.670360 0.833393
#
# Coordination Sequence:
#
# PCOD9119909 Si02
#       6
#     4   4   4   4   2   4
#     4  10  17  35  55  80  95 134 179 208 247 302
#     4   9  17  31  56  74 101 131 173 210 251 296
#     4   8  14  31  54  76  94 123 176 217 246 283
#     4  11  23  33  47  77 117 135 158 209 263 300
#     4  10  12  26  54  86  92 114 172 228 246 268
#     4   9  17  31  56  74 101 131 173 210 251 296
#
# _framework density 25.950116999999999
#
# number of rings (size 3 to 8) (size 9 to 14) (size 15 to 20)
#    0.000    2.909    5.455    1.091    0.000    0.000 
#    0.000    5.455    0.000    0.000    0.000    0.000 
#    0.000    0.000    0.000    0.000    0.000    0.000 
#
# Total GULP energy -61329.800092 kJ/mol
# GULP energy per Si atom -5575.436372 kJ/mol
# Density = 2.589105 g / cm^3
# Si number density = 25.950117 Si / 1000 Ang^3
#
#
#
# Elastic Constant Matrix: (Units=GPa)
#
#
# Indices 1 2 3 4 5 6 
#
# 1 61.3198 33.7271 27.9872 0.0000 33.9372 0.0000
# 2 33.7271 159.5235 47.7755 0.0000 6.5020 0.0000
# 3 27.9872 47.7755 124.0038 0.0000 29.7101 0.0000
# 4 0.0000 0.0000 0.0000 -16.4191 0.0000 3.9552
# 5 33.9372 6.5020 29.7101 0.0000 44.4596 0.0000
# 6 0.0000 0.0000 0.0000 3.9552 0.0000 24.3765
#
#
#
# Elastic Compliance Matrix: (Units=1/GPa)
#
#
# Indices 1 2 3 4 5 6 
#
# 1 0.033195 -0.006274 0.000924 0.000000 -0.025038 0.000000
# 2 -0.006274 0.008305 -0.003144 0.000000 0.005675 0.000000
# 3 0.000924 -0.003144 0.010865 0.000000 -0.007507 0.000000
# 4 0.000000 0.000000 0.000000 -0.058614 0.000000 0.009510
# 5 -0.025038 0.005675 -0.007507 0.000000 0.045791 0.000000
# 6 0.000000 0.000000 0.000000 0.009510 0.000000 0.039480
#
#
# Mechanical properties :
#
#
# Convention : Reuss Voigt Hill
#
# Bulk Modulus (GPa) = 28.26603 62.64743 45.45673
# Shear Modulus (GPa) = 46.38110 26.17387 36.27748
#
# Velocity S-wave (km/s) = 4.23225 3.17933 3.74300
# Velocity P-wave (km/s) = 5.89904 6.13770 6.01956
#
# Compressibility (1/GPa) = 0.03537815
#
# Stress axis : x y z
#
# Youngs Moduli (GPa) = 30.12546 120.40417 92.03648
#
# Poissons Ratio (x) = 0.75547 -0.08509
# Poissons Ratio (y) = 0.18902 0.28932
# Poissons Ratio (z) = -0.02785 0.37849
#
# Static dielectric constant tensor:
#      x y z
#    x 2.288070 0.000000 -0.036990 
#    y 0.000000 2.032830 0.000000 
#    z -0.036990 0.000000 2.093900 
# 
# From -- ./inp_files/26600.got.cif
#   From: 2010.05.17/outbox.cif.g08.bks.cpg/sg5_14_cif.got.tgz:26600.got - 2010.06.03 18:56:24.
