data_PCOD9119539
_publ_section_title
;
Structure prediction by ZEFSAII (Michael W. Deem and Ramdas Pophale) SiO2 
 PCOD9119539
Probable space group: P 21
;
_chemical_formula_sum "Si O2"
_cell_formula_units_Z 16
_cell_length_a 13.748422
_cell_length_b 6.221806
_cell_length_c 21.443634
_cell_angle_alpha 90.000000
_cell_angle_beta 157.180791
_cell_angle_gamma 90.000000
_cell_volume 711.382359
_symmetry_space_group_name_H-M "P 21"
_symmetry_group_IT_number 4
_symmetry_cell_setting 'monoclinic'
loop_
_space_group_symop_operation_xyz
x,y,z
-x,1/2+y,-z
loop_
_atom_site_type_symbol
_atom_site_label
_atom_site_fract_x
_atom_site_fract_y
_atom_site_fract_z
Si Si1 0.694638 0.008090 0.665095
Si Si2 0.798907 0.222288 0.145515
Si Si3 0.881273 0.052309 0.423716
Si Si4 0.475202 0.575476 0.896007
Si Si5 0.900022 0.874652 0.105161
Si Si6 0.668020 0.828724 0.512211
Si Si7 0.418452 0.011745 0.242433
Si Si8 0.012797 0.713654 0.945971
O O1 0.452268 0.091223 0.558902
O O2 0.874350 0.209037 0.758201
O O3 0.623345 0.911334 0.556221
O O4 0.864701 0.857111 0.808177
O O5 0.603229 0.148551 0.081575
O O6 0.032873 0.333736 0.317958
O O7 0.911149 0.031220 0.170974
O O8 0.658455 0.374979 0.013850
O O9 0.650389 0.071284 0.335906
O O10 0.996466 0.802274 0.503589
O O11 0.768352 0.026654 0.287876
O O12 0.636104 0.754630 0.955845
O O13 0.923608 0.001331 0.055031
O O14 0.529100 0.957635 0.376053
O O15 0.268276 0.813834 0.122664
O O16 0.188706 0.174620 0.118500
#
# Coordination Sequence:
#
# PCOD9119539 Si02
#       8
#     2   2   2   2   2   2   2   2
#     4  12  24  46  72 111 153 200 249 320 414 469
#     4  12  25  45  76 110 149 198 263 328 398 480
#     4  12  32  56  83 118 168 222 274 342 411 495
#     4  12  27  48  80 111 148 210 272 325 406 485
#     4  12  23  47  77 106 155 198 255 329 393 486
#     4  12  24  44  71 113 151 197 253 331 396 476
#     4  12  28  48  81 115 160 212 279 330 409 499
#     4  12  27  50  76 116 154 215 261 333 411 488
#
# _framework density 22.491420000000002
#
# number of rings (size 3 to 8) (size 9 to 14) (size 15 to 20)
#    0.000    0.000    5.000    4.500    5.250    4.000 
#    0.000    0.000    0.000    0.000    0.000    0.000 
#    0.000    0.000    0.000    0.000    0.000    0.000 
#
# Total GULP energy -89422.695933 kJ/mol
# GULP energy per Si atom -5588.918496 kJ/mol
# Density = 2.244023 g / cm^3
# Si number density = 22.491420 Si / 1000 Ang^3
#
#
#
# Elastic Constant Matrix: (Units=GPa)
#
#
# Indices 1 2 3 4 5 6 
#
# 1 213.4644 27.2177 -57.5596 0.0000 -50.1778 0.0000
# 2 27.2177 99.7723 46.2137 0.0000 6.6355 0.0000
# 3 -57.5596 46.2137 120.6034 0.0000 24.3762 0.0000
# 4 0.0000 0.0000 0.0000 31.8954 0.0000 -0.3362
# 5 -50.1778 6.6355 24.3762 0.0000 82.8293 0.0000
# 6 0.0000 0.0000 0.0000 -0.3362 0.0000 24.9674
#
#
#
# Elastic Compliance Matrix: (Units=1/GPa)
#
#
# Indices 1 2 3 4 5 6 
#
# 1 0.007200 -0.004210 0.004359 0.000000 0.003416 0.000000
# 2 -0.004210 0.014662 -0.007310 0.000000 -0.001574 0.000000
# 3 0.004359 -0.007310 0.013313 0.000000 -0.000692 0.000000
# 4 0.000000 0.000000 0.000000 0.031357 0.000000 0.000422
# 5 0.003416 -0.001574 -0.000692 0.000000 0.014472 0.000000
# 6 0.000000 0.000000 0.000000 0.000422 0.000000 0.040058
#
#
# Mechanical properties :
#
#
# Convention : Reuss Voigt Hill
#
# Bulk Modulus (GPa) = 47.95498 51.73154 49.84326
# Shear Modulus (GPa) = 35.12860 55.80298 45.46579
#
# Velocity S-wave (km/s) = 3.95633 4.98645 4.50096
# Velocity P-wave (km/s) = 6.49906 7.49689 7.01574
#
# Compressibility (1/GPa) = 0.02085289
#
# Stress axis : x y z
#
# Youngs Moduli (GPa) = 138.89064 68.20424 75.11556
#
# Poissons Ratio (x) = 0.28717 -0.32744
# Poissons Ratio (y) = 0.58479 0.54906
# Poissons Ratio (z) = -0.60545 0.49854
#
# Static dielectric constant tensor:
#      x y z
#    x 1.827930 0.000000 0.003860 
#    y 0.000000 1.864510 0.000000 
#    z 0.003860 0.000000 1.846890 
# 
# From -- ./inp_files/7420.got.cif
#   From: 2010.05.17/outbox.cif.g08.bks.cpg/sg4_4_cif.got.tgz:7420.got - 2010.06.03 18:43:04.
