data_PCOD9119562
_publ_section_title
;
Structure prediction by ZEFSAII (Michael W. Deem and Ramdas Pophale) SiO2 
 PCOD9119562
Probable space group: P 21
;
_chemical_formula_sum "Si O2"
_cell_formula_units_Z 14
_cell_length_a 13.670288
_cell_length_b 5.320645
_cell_length_c 7.527729
_cell_angle_alpha 90.000000
_cell_angle_beta 100.636301
_cell_angle_gamma 90.000000
_cell_volume 538.120197
_symmetry_space_group_name_H-M "P 21"
_symmetry_group_IT_number 4
_symmetry_cell_setting 'monoclinic'
loop_
_space_group_symop_operation_xyz
x,y,z
-x,1/2+y,-z
loop_
_atom_site_type_symbol
_atom_site_label
_atom_site_fract_x
_atom_site_fract_y
_atom_site_fract_z
Si Si1 0.990527 0.135460 0.807863
Si Si2 0.738765 0.639597 0.534632
Si Si3 0.092121 0.831415 0.573344
Si Si4 0.451664 0.904805 0.418223
Si Si5 0.725383 0.015265 0.244890
Si Si6 0.477811 0.687875 0.900973
Si Si7 0.172856 0.369242 0.077064
O O1 0.972331 0.297431 0.624750
O O2 0.025129 0.879293 0.722394
O O3 0.079554 0.215010 0.964716
O O4 0.885863 0.116451 0.873602
O O5 0.833034 0.555662 0.450480
O O6 0.663404 0.419066 0.562166
O O7 0.683931 0.827795 0.380614
O O8 0.775821 0.758084 0.731341
O O9 0.171172 0.615552 0.641846
O O10 0.489835 0.619417 0.446652
O O11 0.462709 0.038925 0.231914
O O12 0.638703 0.217196 0.185572
O O13 0.752683 0.904534 0.061451
O O14 0.519379 0.963890 0.952162
#
# Coordination Sequence:
#
# PCOD9119562 Si02
#       7
#     2   2   2   2   2   2   2
#     4  12  24  44  71 108 145 192 253 303 378 443
#     4  12  26  48  74 109 147 195 252 308 381 452
#     4  12  25  46  77 102 153 199 244 315 377 448
#     4  12  26  48  79 110 151 201 252 313 383 462
#     4  12  26  50  74 107 152 192 250 313 379 453
#     4  12  28  49  78 115 153 197 255 320 387 459
#     4  12  25  45  71 107 143 190 250 306 367 455
#
# _framework density 26.016490999999998
#
# number of rings (size 3 to 8) (size 9 to 14) (size 15 to 20)
#    0.000    0.000    4.286    6.000    2.000    2.286 
#    0.000    0.000    0.000    0.000    0.000    0.000 
#    0.000    0.000    0.000    0.000    0.000    0.000 
#
# Total GULP energy -78381.999682 kJ/mol
# GULP energy per Si atom -5598.714263 kJ/mol
# Density = 2.595728 g / cm^3
# Si number density = 26.016491 Si / 1000 Ang^3
#
#
#
# Elastic Constant Matrix: (Units=GPa)
#
#
# Indices 1 2 3 4 5 6 
#
# 1 100.0706 4.5784 21.0152 0.0000 13.0594 0.0000
# 2 4.5784 54.9266 21.6367 0.0000 6.6304 0.0000
# 3 21.0152 21.6367 156.1818 0.0000 -16.6696 0.0000
# 4 0.0000 0.0000 0.0000 51.8810 0.0000 12.1459
# 5 13.0594 6.6304 -16.6696 0.0000 23.7644 0.0000
# 6 0.0000 0.0000 0.0000 12.1459 0.0000 40.1004
#
#
#
# Elastic Compliance Matrix: (Units=1/GPa)
#
#
# Indices 1 2 3 4 5 6 
#
# 1 0.011606 0.001095 -0.002623 0.000000 -0.008523 0.000000
# 2 0.001095 0.020810 -0.004015 0.000000 -0.009224 0.000000
# 3 -0.002623 -0.004015 0.008199 0.000000 0.008313 0.000000
# 4 0.000000 0.000000 0.000000 0.020746 0.000000 -0.006284
# 5 -0.008523 -0.009224 0.008313 0.000000 0.055168 0.000000
# 6 0.000000 0.000000 0.000000 -0.006284 0.000000 0.026841
#
#
# Mechanical properties :
#
#
# Convention : Reuss Voigt Hill
#
# Bulk Modulus (GPa) = 33.86505 45.07109 39.46807
# Shear Modulus (GPa) = 30.43239 40.74573 35.58906
#
# Velocity S-wave (km/s) = 3.42385 3.96175 3.70258
# Velocity P-wave (km/s) = 5.35494 6.18781 5.78638
#
# Compressibility (1/GPa) = 0.02952897
#
# Stress axis : x y z
#
# Youngs Moduli (GPa) = 86.16220 48.05450 121.96371
#
# Poissons Ratio (x) = -0.05261 0.31991
# Poissons Ratio (y) = -0.09432 0.48964
# Poissons Ratio (z) = 0.22601 0.19292
#
# Static dielectric constant tensor:
#      x y z
#    x 1.988290 0.000000 0.012920 
#    y 0.000000 2.172240 0.000000 
#    z 0.012920 0.000000 2.091310 
# 
# From -- ./inp_files/3342.got.cif
#   From: 2010.05.17/outbox.cif.g08.bks.cpg/sg4_2_cif.got.tgz:3342.got - 2010.06.03 18:43:04.
