data_PCOD9119091
_publ_section_title
;
Structure prediction by ZEFSAII (Michael W. Deem and Ramdas Pophale) SiO2 
 PCOD9119091
Probable space group: P 21
;
_chemical_formula_sum "Si O2"
_cell_formula_units_Z 14
_cell_length_a 19.207202
_cell_length_b 4.758765
_cell_length_c 11.848410
_cell_angle_alpha 90.000000
_cell_angle_beta 29.601419
_cell_angle_gamma 90.000000
_cell_volume 534.950020
_symmetry_space_group_name_H-M "P 21"
_symmetry_group_IT_number 4
_symmetry_cell_setting 'monoclinic'
loop_
_space_group_symop_operation_xyz
x,y,z
-x,1/2+y,-z
loop_
_atom_site_type_symbol
_atom_site_label
_atom_site_fract_x
_atom_site_fract_y
_atom_site_fract_z
Si Si1 0.182052 0.875000 0.119092
Si Si2 0.967822 0.908300 0.763542
Si Si3 0.279320 0.667860 0.319082
Si Si4 0.627462 0.061432 0.569233
Si Si5 0.347010 0.147049 0.081152
Si Si6 0.521465 0.169529 0.392304
Si Si7 0.919061 0.228802 0.065791
O O1 0.064511 0.634779 0.288580
O O2 0.129765 0.137736 0.118614
O O3 0.231656 0.994158 0.167717
O O4 0.320845 0.730187 0.870786
O O5 0.126869 0.805784 0.544677
O O6 0.934849 0.085333 0.922419
O O7 0.312232 0.512455 0.390162
O O8 0.289057 0.432302 0.211306
O O9 0.379851 0.925095 0.136161
O O10 0.583728 0.796306 0.553800
O O11 0.755297 0.225064 0.329932
O O12 0.479791 0.205324 0.812515
O O13 0.497314 0.352926 0.540171
O O14 0.008636 0.030274 0.024737
#
# Coordination Sequence:
#
# PCOD9119091 Si02
#       7
#     2   2   2   2   2   2   2
#     4  11  24  45  71 104 144 196 247 304 370 436
#     4  12  25  46  74 105 150 192 246 308 372 450
#     4  12  26  47  72 108 146 196 250 306 371 434
#     4  11  26  47  76 107 150 192 243 310 372 444
#     4  11  27  47  74 106 144 195 255 305 364 436
#     4  11  24  44  71 108 146 192 246 301 372 448
#     4  12  26  44  70 108 148 189 237 298 381 448
#
# _framework density 26.170667999999999
#
# number of rings (size 3 to 8) (size 9 to 14) (size 15 to 20)
#    0.000    0.571    1.429    6.000    2.000    9.143 
#    0.000    0.000    0.000    0.000    0.000    0.000 
#    0.000    0.000    0.000    0.000    0.000    0.000 
#
# Total GULP energy -78581.612819 kJ/mol
# GULP energy per Si atom -5612.972344 kJ/mol
# Density = 2.611110 g / cm^3
# Si number density = 26.170668 Si / 1000 Ang^3
#
#
#
# Elastic Constant Matrix: (Units=GPa)
#
#
# Indices 1 2 3 4 5 6 
#
# 1 113.8653 27.6396 47.8259 0.0000 -10.3884 0.0000
# 2 27.6396 119.5229 22.1352 0.0000 -2.4821 0.0000
# 3 47.8259 22.1352 143.3329 0.0000 4.3005 0.0000
# 4 0.0000 0.0000 0.0000 40.0061 0.0000 -1.4908
# 5 -10.3884 -2.4821 4.3005 0.0000 39.9353 0.0000
# 6 0.0000 0.0000 0.0000 -1.4908 0.0000 32.6515
#
#
#
# Elastic Compliance Matrix: (Units=1/GPa)
#
#
# Indices 1 2 3 4 5 6 
#
# 1 0.010968 -0.001829 -0.003471 0.000000 0.003113 0.000000
# 2 -0.001829 0.008936 -0.000775 0.000000 0.000163 0.000000
# 3 -0.003471 -0.000775 0.008310 0.000000 -0.001846 0.000000
# 4 0.000000 0.000000 0.000000 0.025039 0.000000 0.001143
# 5 0.003113 0.000163 -0.001846 0.000000 0.026059 0.000000
# 6 0.000000 0.000000 0.000000 0.001143 0.000000 0.030679
#
#
# Mechanical properties :
#
#
# Convention : Reuss Voigt Hill
#
# Bulk Modulus (GPa) = 62.24452 63.54692 62.89572
# Shear Modulus (GPa) = 39.21728 41.12661 40.17194
#
# Velocity S-wave (km/s) = 3.87527 3.96849 3.92216
# Velocity P-wave (km/s) = 6.62264 6.73298 6.67804
#
# Compressibility (1/GPa) = 0.01606567
#
# Stress axis : x y z
#
# Youngs Moduli (GPa) = 91.17393 111.90188 120.33921
#
# Poissons Ratio (x) = 0.20466 0.41766
# Poissons Ratio (y) = 0.16675 0.09323
# Poissons Ratio (z) = 0.31643 0.08669
#
# Static dielectric constant tensor:
#      x y z
#    x 2.149310 0.000000 0.004930 
#    y 0.000000 1.994040 0.000000 
#    z 0.004930 0.000000 1.999010 
# 
# From -- ./inp_files/12789.got.cif
#   From: 2010.05.17/outbox.cif.g08.bks.cpg/sg4_7_cif.got.tgz:12789.got - 2010.06.03 18:43:04.
