data_PCOD9119106
_publ_section_title
;
Structure prediction by ZEFSAII (Michael W. Deem and Ramdas Pophale) SiO2 
 PCOD9119106
Probable space group: P 21
;
_chemical_formula_sum "Si O2"
_cell_formula_units_Z 12
_cell_length_a 18.042015
_cell_length_b 5.526750
_cell_length_c 8.143884
_cell_angle_alpha 90.000000
_cell_angle_beta 146.590988
_cell_angle_gamma 90.000000
_cell_volume 447.128288
_symmetry_space_group_name_H-M "P 21"
_symmetry_group_IT_number 4
_symmetry_cell_setting 'monoclinic'
loop_
_space_group_symop_operation_xyz
x,y,z
-x,1/2+y,-z
loop_
_atom_site_type_symbol
_atom_site_label
_atom_site_fract_x
_atom_site_fract_y
_atom_site_fract_z
Si Si1 0.862183 0.507780 0.236789
Si Si2 0.501472 0.276356 0.230513
Si Si3 0.769737 0.677225 0.402049
Si Si4 0.797839 0.189279 0.637110
Si Si5 0.124576 0.396354 0.923100
Si Si6 0.629153 0.107835 0.785495
O O1 0.816272 0.682224 0.300740
O O2 0.879727 0.604423 0.081740
O O3 0.006698 0.430445 0.573261
O O4 0.743289 0.312206 0.019855
O O5 0.648767 0.250097 0.429528
O O6 0.516096 0.169435 0.442224
O O7 0.438808 0.535564 0.168158
O O8 0.392546 0.151384 0.912714
O O9 0.831643 0.435423 0.601292
O O10 0.795878 0.938762 0.529760
O O11 0.885585 0.090523 0.952686
O O12 0.276169 0.418773 0.135730
#
# Coordination Sequence:
#
# PCOD9119106 Si02
#       6
#     2   2   2   2   2   2
#     4  12  25  47  80 109 158 202 277 325 400 459
#     4  11  24  45  75 109 160 199 258 320 401 467
#     4  12  26  48  72 112 152 207 254 320 389 480
#     4  11  29  47  75 109 158 202 256 314 404 465
#     4  11  26  47  76 112 151 207 261 332 383 472
#     4  11  24  44  74 119 149 201 262 337 387 465
#
# _framework density 26.837938000000001
#
# number of rings (size 3 to 8) (size 9 to 14) (size 15 to 20)
#    0.000    0.667    3.333    3.000    4.667    4.000 
#    0.000    0.000    0.000    0.000    0.000    0.000 
#    0.000    0.000    0.000    0.000    0.000    0.000 
#
# Total GULP energy -66971.676223 kJ/mol
# GULP energy per Si atom -5580.973019 kJ/mol
# Density = 2.677685 g / cm^3
# Si number density = 26.837938 Si / 1000 Ang^3
#
#
#
# Elastic Constant Matrix: (Units=GPa)
#
#
# Indices 1 2 3 4 5 6 
#
# 1 45.1005 33.8742 37.4460 0.0000 -1.6835 0.0000
# 2 33.8742 135.5605 83.5965 0.0000 -28.9728 0.0000
# 3 37.4460 83.5965 100.9926 0.0000 5.5914 0.0000
# 4 0.0000 0.0000 0.0000 42.8581 0.0000 -12.5995
# 5 -1.6835 -28.9728 5.5914 0.0000 45.1562 0.0000
# 6 0.0000 0.0000 0.0000 -12.5995 0.0000 63.8338
#
#
#
# Elastic Compliance Matrix: (Units=1/GPa)
#
#
# Indices 1 2 3 4 5 6 
#
# 1 0.032361 -0.000050 -0.012105 0.000000 0.002673 0.000000
# 2 -0.000050 0.024279 -0.021085 0.000000 0.018187 0.000000
# 3 -0.012105 -0.021085 0.032842 0.000000 -0.018046 0.000000
# 4 0.000000 0.000000 0.000000 0.024770 0.000000 0.004889
# 5 0.002673 0.018187 -0.018046 0.000000 0.036148 0.000000
# 6 0.000000 0.000000 0.000000 0.004889 0.000000 0.016631
#
#
# Mechanical properties :
#
#
# Convention : Reuss Voigt Hill
#
# Bulk Modulus (GPa) = 43.47606 65.72077 54.59842
# Shear Modulus (GPa) = 20.73147 38.81874 29.77511
#
# Velocity S-wave (km/s) = 2.78235 3.80730 3.33444
# Velocity P-wave (km/s) = 5.15331 6.62333 5.93402
#
# Compressibility (1/GPa) = 0.02300117
#
# Stress axis : x y z
#
# Youngs Moduli (GPa) = 30.90155 41.18812 30.44846
#
# Poissons Ratio (x) = 0.00206 0.36859
# Poissons Ratio (y) = 0.00155 0.64201
# Poissons Ratio (z) = 0.37407 0.86846
#
# Static dielectric constant tensor:
#      x y z
#    x 2.093930 0.000000 -0.016840 
#    y 0.000000 2.642620 0.000000 
#    z -0.016840 0.000000 2.142040 
# 
# From -- ./inp_files/9821.got.cif
#   From: 2010.05.17/outbox.cif.g08.bks.cpg/sg4_5_cif.got.tgz:9821.got - 2010.06.03 18:43:04.
