data_PCOD9119943
_publ_section_title
;
Structure prediction by ZEFSAII (Michael W. Deem and Ramdas Pophale) SiO2 
 PCOD9119943
Probable space group: C 2
;
_chemical_formula_sum "Si O2"
_cell_formula_units_Z 32
_cell_length_a 6.975164
_cell_length_b 34.289416
_cell_length_c 5.458426
_cell_angle_alpha 90.000000
_cell_angle_beta 78.192434
_cell_angle_gamma 90.000000
_cell_volume 1277.891007
_symmetry_space_group_name_H-M "C 2"
_symmetry_group_IT_number 5
_symmetry_cell_setting 'monoclinic'
loop_
_space_group_symop_operation_xyz
x,y,z
-x,y,-z
1/2+x,1/2+y,z
1/2-x,1/2+y,-z
loop_
_atom_site_type_symbol
_atom_site_label
_atom_site_fract_x
_atom_site_fract_y
_atom_site_fract_z
Si Si1 0.269553 0.469700 0.849498
Si Si2 0.762814 0.708988 0.058499
Si Si3 0.782596 0.118841 0.840150
Si Si4 0.274282 0.588696 0.343845
Si Si5 0.234654 0.882353 0.952528
Si Si6 0.277976 0.498247 0.342392
Si Si7 0.738432 0.251447 0.443241
Si Si8 0.761195 0.842044 0.553301
O O1 0.192258 0.474187 0.593597
O O2 0.499581 0.481662 0.751473
O O3 0.238848 0.427211 0.975206
O O4 0.194212 0.496450 0.089867
O O5 0.704942 0.663999 0.092804
O O6 0.698997 0.730910 0.321880
O O7 0.700275 0.729548 0.821950
O O8 0.000000 0.709774 0.000000
O O9 0.693941 0.113347 0.592872
O O10 0.999280 0.101085 0.749854
O O11 0.690087 0.097026 0.096796
O O12 0.269675 0.543412 0.416323
O O13 0.301378 0.866619 0.670362
O O14 0.306453 0.858795 0.169552
O O15 0.000000 0.877164 0.000000
O O16 0.500000 0.250611 0.500000
O O17 0.793410 0.296773 0.442034
O O18 0.000000 0.844073 0.500000
#
# Coordination Sequence:
#
# PCOD9119943 Si02
#       8
#     4   4   4   4   4   4   4   4
#     4  10  16  22  33  49  73 100 137 171 199 224
#     4  10  19  30  47  63  83 106 143 192 218 257
#     4  10  18  30  45  64  83 108 140 190 221 252
#     4  10  19  31  45  63  87 113 149 183 212 262
#     4  10  16  22  31  49  70  97 133 178 199 222
#     4  10  17  25  37  51  76 110 135 176 198 239
#     4   9  17  30  41  56  76 105 140 183 214 252
#     4   9  17  24  35  47  69  99 134 175 204 229
#
# _framework density 25.041257000000002
#
# number of rings (size 3 to 8) (size 9 to 14) (size 15 to 20)
#    0.000    2.250    1.250    6.000    3.500    3.000 
#    0.000    0.000    0.000    0.000    0.000    0.000 
#    0.000    0.000    0.000    0.000    0.000    0.000 
#
# Total GULP energy -89485.492931 kJ/mol
# GULP energy per Si atom -5592.843308 kJ/mol
# Density = 2.498426 g / cm^3
# Si number density = 25.041257 Si / 1000 Ang^3
#
#
#
# Elastic Constant Matrix: (Units=GPa)
#
#
# Indices 1 2 3 4 5 6 
#
# 1 96.9568 -2.0348 46.7919 0.0000 8.9865 0.0000
# 2 -2.0348 183.3974 96.3637 0.0000 15.8786 0.0000
# 3 46.7919 96.3637 261.5930 0.0000 30.8394 0.0000
# 4 0.0000 0.0000 0.0000 53.0768 0.0000 17.8340
# 5 8.9865 15.8786 30.8394 0.0000 49.3567 0.0000
# 6 0.0000 0.0000 0.0000 17.8340 0.0000 -1.7175
#
#
#
# Elastic Compliance Matrix: (Units=1/GPa)
#
#
# Indices 1 2 3 4 5 6 
#
# 1 0.011667 0.001552 -0.002536 0.000000 -0.001039 0.000000
# 2 0.001552 0.006988 -0.002757 0.000000 -0.000808 0.000000
# 3 -0.002536 -0.002757 0.005541 0.000000 -0.002114 0.000000
# 4 0.000000 0.000000 0.000000 0.004197 0.000000 0.043581
# 5 -0.001039 -0.000808 -0.002114 0.000000 0.022031 0.000000
# 6 0.000000 0.000000 0.000000 0.043581 0.000000 -0.129705
#
#
# Mechanical properties :
#
#
# Convention : Reuss Voigt Hill
#
# Bulk Modulus (GPa) = 59.82848 91.57654 75.70251
# Shear Modulus (GPa) = -75.49587 46.86497 -14.31545
#
# Velocity S-wave (km/s) = -5.49673 4.33079 -2.39357
# Velocity P-wave (km/s) = 4.04247 7.85222 4.76003
#
# Compressibility (1/GPa) = 0.01671445
#
# Stress axis : x y z
#
# Youngs Moduli (GPa) = 85.71447 143.09725 180.47321
#
# Poissons Ratio (x) = -0.22208 0.45769
# Poissons Ratio (y) = -0.13302 0.49749
# Poissons Ratio (z) = 0.21738 0.39446
#
# Static dielectric constant tensor:
#      x y z
#    x 1.249270 0.000000 -0.235180 
#    y 0.000000 1.916060 0.000000 
#    z -0.235180 0.000000 1.893600 
# 
# From -- ./inp_files/6173.got.cif
#   From: 2010.05.17/outbox.cif.g08.bks.cpg/sg5_4_cif.got.tgz:6173.got - 2010.06.03 18:56:24.
