data_PCOD9119764
_publ_section_title
;
Structure prediction by ZEFSAII (Michael W. Deem and Ramdas Pophale) SiO2 
 PCOD9119764
Probable space group: P 21
;
_chemical_formula_sum "Si O2"
_cell_formula_units_Z 14
_cell_length_a 17.819176
_cell_length_b 5.139815
_cell_length_c 13.607672
_cell_angle_alpha 90.000000
_cell_angle_beta 154.318026
_cell_angle_gamma 90.000000
_cell_volume 540.111427
_symmetry_space_group_name_H-M "P 21"
_symmetry_group_IT_number 4
_symmetry_cell_setting 'monoclinic'
loop_
_space_group_symop_operation_xyz
x,y,z
-x,1/2+y,-z
loop_
_atom_site_type_symbol
_atom_site_label
_atom_site_fract_x
_atom_site_fract_y
_atom_site_fract_z
Si Si1 0.364428 0.755270 0.598303
Si Si2 0.406335 0.009318 0.848191
Si Si3 0.986200 0.977346 0.813433
Si Si4 0.700877 0.404853 0.955776
Si Si5 0.848899 0.610819 0.783259
Si Si6 0.890238 0.292255 0.372685
Si Si7 0.524360 0.796128 0.468487
O O1 0.400702 0.970405 0.724852
O O2 0.200494 0.581100 0.440573
O O3 0.543000 0.600603 0.793543
O O4 0.284714 0.889747 0.407513
O O5 0.221648 0.920903 0.673070
O O6 0.538672 0.793791 0.049817
O O7 0.960581 0.677384 0.818682
O O8 0.133011 0.018755 0.905973
O O9 0.047854 0.083936 0.993694
O O10 0.614250 0.208771 0.776018
O O11 0.767223 0.277030 0.132920
O O12 0.711854 0.839640 0.643166
O O13 0.035436 0.508067 0.519230
O O14 0.540924 0.567050 0.565812
#
# Coordination Sequence:
#
# PCOD9119764 Si02
#       7
#     2   2   2   2   2   2   2
#     4  12  28  52  79 115 157 212 266 328 404 477
#     4  12  28  53  83 115 157 207 270 338 399 479
#     4  12  27  48  74 117 158 211 262 328 391 484
#     4  12  28  50  82 114 157 210 268 323 408 474
#     4  12  27  45  76 113 167 205 268 324 399 472
#     4  12  29  54  81 118 159 202 270 340 405 474
#     4  12  27  48  77 114 159 209 264 323 392 478
#
# _framework density 25.920577000000002
#
# number of rings (size 3 to 8) (size 9 to 14) (size 15 to 20)
#    0.000    0.000    5.714    2.571    8.000    1.143 
#    0.000    0.000    0.000    0.000    0.000    0.000 
#    0.000    0.000    0.000    0.000    0.000    0.000 
#
# Total GULP energy -78415.405195 kJ/mol
# GULP energy per Si atom -5601.100371 kJ/mol
# Density = 2.586158 g / cm^3
# Si number density = 25.920577 Si / 1000 Ang^3
#
#
#
# Elastic Constant Matrix: (Units=GPa)
#
#
# Indices 1 2 3 4 5 6 
#
# 1 97.1075 -3.2589 40.8494 0.0000 20.1636 0.0000
# 2 -3.2589 72.6436 33.2095 0.0000 -1.0922 0.0000
# 3 40.8494 33.2095 142.6031 0.0000 -0.3877 0.0000
# 4 0.0000 0.0000 0.0000 51.8479 0.0000 5.6900
# 5 20.1636 -1.0922 -0.3877 0.0000 57.7781 0.0000
# 6 0.0000 0.0000 0.0000 5.6900 0.0000 25.6243
#
#
#
# Elastic Compliance Matrix: (Units=1/GPa)
#
#
# Indices 1 2 3 4 5 6 
#
# 1 0.013173 0.002521 -0.004373 0.000000 -0.004579 0.000000
# 2 0.002521 0.015893 -0.004425 0.000000 -0.000609 0.000000
# 3 -0.004373 -0.004425 0.009300 0.000000 0.001505 0.000000
# 4 0.000000 0.000000 0.000000 0.019769 0.000000 -0.004390
# 5 -0.004579 -0.000609 0.001505 0.000000 0.018904 0.000000
# 6 0.000000 0.000000 0.000000 -0.004390 0.000000 0.040000
#
#
# Mechanical properties :
#
#
# Convention : Reuss Voigt Hill
#
# Bulk Modulus (GPa) = 38.74210 50.43935 44.59073
# Shear Modulus (GPa) = 36.18053 43.15366 39.66710
#
# Velocity S-wave (km/s) = 3.74012 4.08467 3.91619
# Velocity P-wave (km/s) = 5.79916 6.46123 6.13913
#
# Compressibility (1/GPa) = 0.02581171
#
# Stress axis : x y z
#
# Youngs Moduli (GPa) = 75.91415 62.92202 107.53011
#
# Poissons Ratio (x) = -0.15864 0.47023
# Poissons Ratio (y) = -0.19140 0.47582
# Poissons Ratio (z) = 0.33197 0.27843
#
# Static dielectric constant tensor:
#      x y z
#    x 2.080010 0.000000 0.045040 
#    y 0.000000 2.113750 0.000000 
#    z 0.045040 0.000000 2.012120 
# 
# From -- ./inp_files/14407.got.cif
#   From: 2010.05.17/outbox.cif.g08.bks.cpg/sg4_8_cif.got.tgz:14407.got - 2010.06.03 18:43:04.
