data_PCOD9119469
_publ_section_title
;
Structure prediction by ZEFSAII (Michael W. Deem and Ramdas Pophale) SiO2 
 PCOD9119469
Probable space group: P 21
;
_chemical_formula_sum "Si O2"
_cell_formula_units_Z 16
_cell_length_a 9.549564
_cell_length_b 15.688437
_cell_length_c 5.083220
_cell_angle_alpha 90.000000
_cell_angle_beta 126.071701
_cell_angle_gamma 90.000000
_cell_volume 615.551492
_symmetry_space_group_name_H-M "P 21"
_symmetry_group_IT_number 4
_symmetry_cell_setting 'monoclinic'
loop_
_space_group_symop_operation_xyz
x,y,z
-x,1/2+y,-z
loop_
_atom_site_type_symbol
_atom_site_label
_atom_site_fract_x
_atom_site_fract_y
_atom_site_fract_z
Si Si1 0.252047 0.525380 0.039600
Si Si2 0.185610 0.121885 0.785236
Si Si3 0.214420 0.266840 0.407568
Si Si4 0.575239 0.890526 0.071269
Si Si5 0.812615 0.126677 0.540914
Si Si6 0.774600 0.423223 0.098492
Si Si7 0.500592 0.227434 0.357177
Si Si8 0.976949 0.376627 0.798122
O O1 0.409945 0.474583 0.088127
O O2 0.220218 0.602672 0.800337
O O3 0.099349 0.456537 0.865805
O O4 0.260588 0.552538 0.350111
O O5 0.146988 0.187281 0.502034
O O6 0.019278 0.130545 0.792874
O O7 0.200438 0.020269 0.770786
O O8 0.370358 0.155870 0.093988
O O9 0.248266 0.354582 0.604614
O O10 0.409689 0.239424 0.537991
O O11 0.097672 0.299629 0.036639
O O12 0.428314 0.905062 0.122447
O O13 0.527101 0.814587 0.824565
O O14 0.698696 0.203061 0.530234
O O15 0.865947 0.361685 0.413492
O O16 0.856542 0.405846 0.906830
#
# Coordination Sequence:
#
# PCOD9119469 Si02
#       8
#     2   2   2   2   2   2   2   2
#     4  12  24  51  74 106 148 196 251 316 382 450
#     4  11  27  50  75 114 150 205 254 327 383 461
#     4  11  27  50  75 108 162 206 253 319 401 459
#     4  11  27  48  73 109 154 203 254 323 382 466
#     4  12  28  47  78 110 151 199 253 317 387 457
#     4  12  28  47  79 117 145 199 268 315 381 462
#     4  11  28  47  74 110 153 206 251 315 394 467
#     4  12  25  48  76 110 149 198 256 316 384 456
#
# _framework density 25.992953
#
# number of rings (size 3 to 8) (size 9 to 14) (size 15 to 20)
#    0.000    0.500    3.750    2.250   14.000    0.000 
#    0.000    0.000    0.000    0.000    0.000    0.000 
#    0.000    0.000    0.000    0.000    0.000    0.000 
#
# Total GULP energy -89584.076320 kJ/mol
# GULP energy per Si atom -5599.004770 kJ/mol
# Density = 2.593379 g / cm^3
# Si number density = 25.992953 Si / 1000 Ang^3
#
#
#
# Elastic Constant Matrix: (Units=GPa)
#
#
# Indices 1 2 3 4 5 6 
#
# 1 180.9026 26.5488 13.8442 0.0000 -10.8172 0.0000
# 2 26.5488 90.4131 14.1571 0.0000 3.5141 0.0000
# 3 13.8442 14.1571 66.0086 0.0000 -10.9913 0.0000
# 4 0.0000 0.0000 0.0000 37.8254 0.0000 -1.7698
# 5 -10.8172 3.5141 -10.9913 0.0000 38.9717 0.0000
# 6 0.0000 0.0000 0.0000 -1.7698 0.0000 46.2976
#
#
#
# Elastic Compliance Matrix: (Units=1/GPa)
#
#
# Indices 1 2 3 4 5 6 
#
# 1 0.005922 -0.001707 -0.000605 0.000000 0.001627 0.000000
# 2 -0.001707 0.012060 -0.002611 0.000000 -0.002298 0.000000
# 3 -0.000605 -0.002611 0.016629 0.000000 0.004757 0.000000
# 4 0.000000 0.000000 0.000000 0.026485 0.000000 0.001012
# 5 0.001627 -0.002298 0.004757 0.000000 0.027660 0.000000
# 6 0.000000 0.000000 0.000000 0.001012 0.000000 0.021638
#
#
# Mechanical properties :
#
#
# Convention : Reuss Voigt Hill
#
# Bulk Modulus (GPa) = 40.38174 49.60273 44.99223
# Shear Modulus (GPa) = 38.91213 43.47055 41.19134
#
# Velocity S-wave (km/s) = 3.87334 4.09393 3.98516
# Velocity P-wave (km/s) = 5.96432 6.43985 6.20664
#
# Compressibility (1/GPa) = 0.02476367
#
# Stress axis : x y z
#
# Youngs Moduli (GPa) = 168.86170 82.91966 60.13756
#
# Poissons Ratio (x) = 0.14158 0.03638
# Poissons Ratio (y) = 0.28832 0.15702
# Poissons Ratio (z) = 0.10214 0.21650
#
# Static dielectric constant tensor:
#      x y z
#    x 2.008440 0.000000 0.014110 
#    y 0.000000 2.071680 0.000000 
#    z 0.014110 0.000000 2.053220 
# 
# From -- ./inp_files/1879.got.cif
#   From: 2010.05.17/outbox.cif.g08.bks.cpg/sg4_1_cif.got.tgz:1879.got - 2010.06.03 18:43:04.
