data_PCOD9119670
_publ_section_title
;
Structure prediction by ZEFSAII (Michael W. Deem and Ramdas Pophale) SiO2 
 PCOD9119670
Probable space group: P 21
;
_chemical_formula_sum "Si O2"
_cell_formula_units_Z 16
_cell_length_a 9.711761
_cell_length_b 5.042381
_cell_length_c 12.958990
_cell_angle_alpha 90.000000
_cell_angle_beta 99.969642
_cell_angle_gamma 90.000000
_cell_volume 625.024108
_symmetry_space_group_name_H-M "P 21"
_symmetry_group_IT_number 4
_symmetry_cell_setting 'monoclinic'
loop_
_space_group_symop_operation_xyz
x,y,z
-x,1/2+y,-z
loop_
_atom_site_type_symbol
_atom_site_label
_atom_site_fract_x
_atom_site_fract_y
_atom_site_fract_z
Si Si1 0.511364 0.530970 0.241509
Si Si2 0.865747 0.702891 0.728104
Si Si3 0.386254 0.921863 0.396591
Si Si4 0.276365 0.170909 0.897951
Si Si5 0.056298 0.705309 0.141950
Si Si6 0.340832 0.651399 0.583730
Si Si7 0.697205 0.158472 0.970614
Si Si8 0.958868 0.959257 0.435411
O O1 0.432110 0.712642 0.315059
O O2 0.653276 0.626028 0.203066
O O3 0.573542 0.279383 0.311195
O O4 0.402065 0.544286 0.132290
O O5 0.708907 0.641512 0.671630
O O6 0.901341 0.507107 0.827374
O O7 0.968301 0.592066 0.653531
O O8 0.887086 0.005334 0.762244
O O9 0.296871 0.849517 0.486593
O O10 0.539134 0.991043 0.459427
O O11 0.108575 0.159799 0.878823
O O12 0.319638 0.463016 0.936732
O O13 0.327758 0.953450 0.989114
O O14 0.144155 0.636221 0.051481
O O15 0.207486 0.487028 0.598574
O O16 0.002572 0.157007 0.534661
#
# Coordination Sequence:
#
# PCOD9119670 Si02
#       8
#     2   2   2   2   2   2   2   2
#     4  12  28  48  74 111 151 201 252 315 371 454
#     4  12  26  47  75 111 150 204 250 306 381 444
#     4  12  27  47  75 109 156 204 256 307 372 452
#     4  12  28  48  78 111 152 193 255 313 387 449
#     4  12  25  48  78 109 151 193 252 314 377 459
#     4  12  28  47  76 110 153 206 254 308 374 450
#     4  12  26  50  76 111 147 201 248 318 384 446
#     4  12  28  47  74 106 156 200 255 309 368 438
#
# _framework density 25.59901
#
# number of rings (size 3 to 8) (size 9 to 14) (size 15 to 20)
#    0.000    0.000    3.750    5.250    8.750    0.000 
#    0.000    0.000    0.000    0.000    0.000    0.000 
#    0.000    0.000    0.000    0.000    0.000    0.000 
#
# Total GULP energy -89590.762206 kJ/mol
# GULP energy per Si atom -5599.422638 kJ/mol
# Density = 2.554075 g / cm^3
# Si number density = 25.599010 Si / 1000 Ang^3
#
#
#
# Elastic Constant Matrix: (Units=GPa)
#
#
# Indices 1 2 3 4 5 6 
#
# 1 147.2890 14.2548 32.3681 0.0000 10.0609 0.0000
# 2 14.2548 64.4532 6.7170 0.0000 4.5627 0.0000
# 3 32.3681 6.7170 64.1645 0.0000 0.4846 0.0000
# 4 0.0000 0.0000 0.0000 48.6371 0.0000 3.1869
# 5 10.0609 4.5627 0.4846 0.0000 48.9158 0.0000
# 6 0.0000 0.0000 0.0000 3.1869 0.0000 23.5839
#
#
#
# Elastic Compliance Matrix: (Units=1/GPa)
#
#
# Indices 1 2 3 4 5 6 
#
# 1 0.007848 -0.001234 -0.003819 0.000000 -0.001461 0.000000
# 2 -0.001234 0.015983 -0.001041 0.000000 -0.001227 0.000000
# 3 -0.003819 -0.001041 0.017615 0.000000 0.000708 0.000000
# 4 0.000000 0.000000 0.000000 0.020744 0.000000 -0.002803
# 5 -0.001461 -0.001227 0.000708 0.000000 0.020851 0.000000
# 6 0.000000 0.000000 0.000000 -0.002803 0.000000 0.042781
#
#
# Mechanical properties :
#
#
# Convention : Reuss Voigt Hill
#
# Bulk Modulus (GPa) = 34.17893 42.50961 38.34427
# Shear Modulus (GPa) = 33.83790 39.06513 36.45152
#
# Velocity S-wave (km/s) = 3.63966 3.91069 3.77761
# Velocity P-wave (km/s) = 5.57167 6.08551 5.83425
#
# Compressibility (1/GPa) = 0.02925779
#
# Stress axis : x y z
#
# Youngs Moduli (GPa) = 127.42401 62.56466 56.77003
#
# Poissons Ratio (x) = 0.07722 0.21678
# Poissons Ratio (y) = 0.15727 0.05912
# Poissons Ratio (z) = 0.48658 0.06515
#
# Static dielectric constant tensor:
#      x y z
#    x 1.969320 0.000000 0.026880 
#    y 0.000000 2.090830 0.000000 
#    z 0.026880 0.000000 2.032450 
# 
# From -- ./inp_files/10753.got.cif
#   From: 2010.05.17/outbox.cif.g08.bks.cpg/sg4_6_cif.got.tgz:10753.got - 2010.06.03 18:43:04.
