data_PCOD9119667
_publ_section_title
;
Structure prediction by ZEFSAII (Michael W. Deem and Ramdas Pophale) SiO2 
 PCOD9119667
Probable space group: P 21
;
_chemical_formula_sum "Si O2"
_cell_formula_units_Z 16
_cell_length_a 5.394364
_cell_length_b 14.617925
_cell_length_c 9.257495
_cell_angle_alpha 90.000000
_cell_angle_beta 121.714401
_cell_angle_gamma 90.000000
_cell_volume 620.990819
_symmetry_space_group_name_H-M "P 21"
_symmetry_group_IT_number 4
_symmetry_cell_setting 'monoclinic'
loop_
_space_group_symop_operation_xyz
x,y,z
-x,1/2+y,-z
loop_
_atom_site_type_symbol
_atom_site_label
_atom_site_fract_x
_atom_site_fract_y
_atom_site_fract_z
Si Si1 0.575462 0.030850 0.949263
Si Si2 0.368159 0.230161 0.805541
Si Si3 0.175254 0.075748 0.233669
Si Si4 0.997126 0.668866 0.562117
Si Si5 0.407994 0.239511 0.142778
Si Si6 0.571320 0.409061 0.842389
Si Si7 0.053006 0.462136 0.506002
Si Si8 0.363435 0.416934 0.301871
O O1 0.828720 0.068414 0.128667
O O2 0.398652 0.956801 0.990915
O O3 0.425835 0.122034 0.844363
O O4 0.724253 0.982165 0.858241
O O5 0.134353 0.228594 0.606293
O O6 0.629939 0.301002 0.845784
O O7 0.317267 0.264858 0.953225
O O8 0.248858 0.130742 0.401989
O O9 0.268853 0.141692 0.134114
O O10 0.284621 0.975023 0.231832
O O11 0.107838 0.571867 0.532029
O O12 0.246892 0.725215 0.721473
O O13 0.312442 0.315378 0.227325
O O14 0.232537 0.416955 0.691222
O O15 0.711673 0.438454 0.417251
O O16 0.189988 0.431845 0.395684
#
# Coordination Sequence:
#
# PCOD9119667 Si02
#       8
#     2   2   2   2   2   2   2   2
#     4  12  26  47  74 110 156 214 259 332 400 475
#     4  12  26  50  75 114 154 210 276 329 401 496
#     4  12  25  48  75 109 160 219 254 343 407 472
#     4  12  26  50  81 110 163 208 274 328 417 474
#     4  12  27  50  76 112 159 207 261 343 399 482
#     4  12  26  49  76 109 160 209 270 330 411 472
#     4  12  26  52  79 113 158 211 263 334 398 480
#     4  12  30  48  82 113 160 208 267 329 401 477
#
# _framework density 25.765279
#
# number of rings (size 3 to 8) (size 9 to 14) (size 15 to 20)
#    0.000    0.000    7.500    1.500    7.000    1.000 
#    0.000    0.000    0.000    0.000    0.000    0.000 
#    0.000    0.000    0.000    0.000    0.000    0.000 
#
# Total GULP energy -89508.907560 kJ/mol
# GULP energy per Si atom -5594.306722 kJ/mol
# Density = 2.570664 g / cm^3
# Si number density = 25.765279 Si / 1000 Ang^3
#
#
#
# Elastic Constant Matrix: (Units=GPa)
#
#
# Indices 1 2 3 4 5 6 
#
# 1 91.8981 8.1244 43.3643 0.0000 -20.3488 0.0000
# 2 8.1244 76.5841 14.5338 0.0000 -18.9377 0.0000
# 3 43.3643 14.5338 130.2806 0.0000 -18.6576 0.0000
# 4 0.0000 0.0000 0.0000 29.2738 0.0000 -5.4713
# 5 -20.3488 -18.9377 -18.6576 0.0000 41.4474 0.0000
# 6 0.0000 0.0000 0.0000 -5.4713 0.0000 33.5882
#
#
#
# Elastic Compliance Matrix: (Units=1/GPa)
#
#
# Indices 1 2 3 4 5 6 
#
# 1 0.013853 0.000586 -0.003916 0.000000 0.005306 0.000000
# 2 0.000586 0.014810 -0.000895 0.000000 0.006652 0.000000
# 3 -0.003916 -0.000895 0.009348 0.000000 0.001876 0.000000
# 4 0.000000 0.000000 0.000000 0.035233 0.000000 0.005739
# 5 0.005306 0.006652 0.001876 0.000000 0.030616 0.000000
# 6 0.000000 0.000000 0.000000 0.005739 0.000000 0.030707
#
#
# Mechanical properties :
#
#
# Convention : Reuss Voigt Hill
#
# Bulk Modulus (GPa) = 33.82948 47.86751 40.84850
# Shear Modulus (GPa) = 32.70747 36.37791 34.54269
#
# Velocity S-wave (km/s) = 3.56679 3.76160 3.66549
# Velocity P-wave (km/s) = 5.48826 6.12248 5.81403
#
# Compressibility (1/GPa) = 0.02956001
#
# Stress axis : x y z
#
# Youngs Moduli (GPa) = 72.18803 67.52198 106.97647
#
# Poissons Ratio (x) = -0.03955 0.41897
# Poissons Ratio (y) = -0.04228 0.09569
# Poissons Ratio (z) = 0.28272 0.06040
#
# Static dielectric constant tensor:
#      x y z
#    x 2.055860 0.000000 0.038470 
#    y 0.000000 2.053480 0.000000 
#    z 0.038470 0.000000 2.091670 
# 
# From -- ./inp_files/4806.got.cif
#   From: 2010.05.17/outbox.cif.g08.bks.cpg/sg4_3_cif.got.tgz:4806.got - 2010.06.03 18:43:04.
