data_PCOD9119851
_publ_section_title
;
Structure prediction by ZEFSAII (Michael W. Deem and Ramdas Pophale) SiO2 
 PCOD9119851
Probable space group: P 21
;
_chemical_formula_sum "Si O2"
_cell_formula_units_Z 16
_cell_length_a 9.000000
_cell_length_b 9.000000
_cell_length_c 12.000000
_cell_angle_alpha 90.000000
_cell_angle_beta 50.000000
_cell_angle_gamma 90.000000
_cell_volume 744.595199
_symmetry_space_group_name_H-M "P 21"
_symmetry_group_IT_number 4
_symmetry_cell_setting 'monoclinic'
loop_
_space_group_symop_operation_xyz
x,y,z
-x,1/2+y,-z
loop_
_atom_site_type_symbol
_atom_site_label
_atom_site_fract_x
_atom_site_fract_y
_atom_site_fract_z
Si Si1 0.114365 0.406620 0.958121
Si Si2 0.016765 0.676285 0.146601
Si Si3 0.497869 0.976908 0.368083
Si Si4 0.377325 0.555456 0.111490
Si Si5 0.779862 0.266151 0.635644
Si Si6 0.239794 0.226507 0.114395
Si Si7 0.316741 0.289369 0.527932
Si Si8 0.982960 0.033905 0.392219
O O1 0.308224 0.469894 0.803259
O O2 0.986768 0.321653 0.928318
O O3 0.992218 0.534748 0.077653
O O4 0.184896 0.290720 0.019226
O O5 0.215631 0.635821 0.112375
O O6 0.846249 0.705530 0.317580
O O7 0.338070 0.864135 0.395728
O O8 0.549209 0.890677 0.457281
O O9 0.425074 0.148689 0.416893
O O10 0.353984 0.646794 0.237347
O O11 0.319688 0.379432 0.137608
O O12 0.589298 0.603648 0.967605
O O13 0.947769 0.158509 0.504835
O O14 0.859901 0.402490 0.670735
O O15 0.054392 0.141130 0.257180
O O16 0.205431 0.425382 0.519096
#
# Coordination Sequence:
#
# PCOD9119851 Si02
#       8
#     2   2   2   2   2   2   2   2
#     4  10  24  43  68 101 131 175 226 278 337 407
#     4  10  24  42  67  99 130 177 222 275 341 399
#     4  11  25  45  67 101 138 177 236 281 341 411
#     4  11  23  45  64 102 136 177 227 283 343 404
#     4  12  24  44  66 101 132 180 232 276 348 410
#     4  11  25  43  70  99 138 177 227 287 341 407
#     4  11  25  47  69  97 139 182 226 288 342 402
#     4  12  26  43  71  98 136 181 228 286 343 412
#
# _framework density 21.488185999999999
#
# number of rings (size 3 to 8) (size 9 to 14) (size 15 to 20)
#    0.000    1.000    2.500    3.000    8.750    1.000 
#    0.000    0.000    0.000    0.000    0.000    0.000 
#    0.000    0.000    0.000    0.000    0.000    0.000 
#
# Total GULP energy -89237.208078 kJ/mol
# GULP energy per Si atom -5577.325505 kJ/mol
# Density = 2.143928 g / cm^3
# Si number density = 21.488186 Si / 1000 Ang^3
#
#
#
# Elastic Constant Matrix: (Units=GPa)
#
#
# Indices 1 2 3 4 5 6 
#
# 1 31.7562 23.8880 -7.0794 0.0000 -2.0098 0.0000
# 2 23.8880 161.6995 48.3097 0.0000 6.4499 0.0000
# 3 -7.0794 48.3097 77.8128 0.0000 3.6146 0.0000
# 4 0.0000 0.0000 0.0000 61.4463 0.0000 2.6823
# 5 -2.0098 6.4499 3.6146 0.0000 14.5014 0.0000
# 6 0.0000 0.0000 0.0000 2.6823 0.0000 40.6004
#
#
#
# Elastic Compliance Matrix: (Units=1/GPa)
#
#
# Indices 1 2 3 4 5 6 
#
# 1 0.040703 -0.008977 0.008933 0.000000 0.007408 0.000000
# 2 -0.008977 0.009644 -0.006624 0.000000 -0.003883 0.000000
# 3 0.008933 -0.006624 0.017788 0.000000 -0.000250 0.000000
# 4 0.000000 0.000000 0.000000 0.016321 0.000000 -0.001078
# 5 0.007408 -0.003883 -0.000250 0.000000 0.071775 0.000000
# 6 0.000000 0.000000 0.000000 -0.001078 0.000000 0.024702
#
#
# Mechanical properties :
#
#
# Convention : Reuss Voigt Hill
#
# Bulk Modulus (GPa) = 18.24884 44.61167 31.43025
# Shear Modulus (GPa) = 23.52533 37.05297 30.28915
#
# Velocity S-wave (km/s) = 3.31237 4.15702 3.75850
# Velocity P-wave (km/s) = 4.81041 6.62172 5.78737
#
# Compressibility (1/GPa) = 0.05479802
#
# Stress axis : x y z
#
# Youngs Moduli (GPa) = 24.56818 103.68676 56.21717
#
# Poissons Ratio (x) = 0.93082 -0.50216
# Poissons Ratio (y) = 0.22056 0.37239
# Poissons Ratio (z) = -0.21946 0.68683
#
# Static dielectric constant tensor:
#      x y z
#    x 1.927690 0.000000 0.023370 
#    y 0.000000 1.717490 0.000000 
#    z 0.023370 0.000000 1.825970 
# 
# From -- ./inp_files/11029.got.cif
#   From: 2010.05.17/outbox.ucp.g08.bks.cvg/sg4_6_cif.got.tgz:11029.got - 2010.06.11 12:51:24.
