data_PCOD9119795
_publ_section_title
;
Structure prediction by ZEFSAII (Michael W. Deem and Ramdas Pophale) SiO2 
 PCOD9119795
Probable space group: P 21
;
_chemical_formula_sum "Si O2"
_cell_formula_units_Z 8
_cell_length_a 10.542417
_cell_length_b 4.757417
_cell_length_c 6.135379
_cell_angle_alpha 90.000000
_cell_angle_beta 107.040619
_cell_angle_gamma 90.000000
_cell_volume 294.208267
_symmetry_space_group_name_H-M "P 21"
_symmetry_group_IT_number 4
_symmetry_cell_setting 'monoclinic'
loop_
_space_group_symop_operation_xyz
x,y,z
-x,1/2+y,-z
loop_
_atom_site_type_symbol
_atom_site_label
_atom_site_fract_x
_atom_site_fract_y
_atom_site_fract_z
Si Si1 0.793464 0.457460 0.906284
Si Si2 0.597591 0.839445 0.529142
Si Si3 0.597155 0.058385 0.070004
Si Si4 0.004757 0.243467 0.663731
O O1 0.708772 0.679675 0.721963
O O2 0.891246 0.309226 0.783801
O O3 0.704495 0.225164 0.983781
O O4 0.874847 0.620751 0.133008
O O5 0.346470 0.459866 0.668999
O O6 0.514305 0.104307 0.577265
O O7 0.477075 0.278463 0.050888
O O8 0.034862 0.521653 0.541731
#
# Coordination Sequence:
#
# PCOD9119795 Si02
#       4
#     2   2   2   2
#     4  12  32  64  94 132 196 234 304 388 452 542
#     4  12  29  58  89 136 188 242 294 371 462 549
#     4  12  29  58  89 136 188 242 294 371 462 549
#     4  12  32  62  94 134 176 250 314 374 446 540
#
# _framework density 27.191621000000001
#
# number of rings (size 3 to 8) (size 9 to 14) (size 15 to 20)
#    0.000    0.000    2.500    3.000    0.000   22.000 
#   13.500    0.000    0.000    0.000    0.000    0.000 
#    0.000    0.000    0.000    0.000    0.000    0.000 
#
# Total GULP energy -44969.320951 kJ/mol
# GULP energy per Si atom -5621.165119 kJ/mol
# Density = 2.712973 g / cm^3
# Si number density = 27.191621 Si / 1000 Ang^3
#
#
#
# Elastic Constant Matrix: (Units=GPa)
#
#
# Indices 1 2 3 4 5 6 
#
# 1 113.4900 37.1797 63.6094 0.0000 17.0135 0.0000
# 2 37.1797 166.0147 44.8614 0.0000 6.8351 0.0000
# 3 63.6094 44.8614 153.0170 0.0000 5.9800 0.0000
# 4 0.0000 0.0000 0.0000 94.6150 0.0000 -8.0166
# 5 17.0135 6.8351 5.9800 0.0000 36.1229 0.0000
# 6 0.0000 0.0000 0.0000 -8.0166 0.0000 62.2442
#
#
#
# Elastic Compliance Matrix: (Units=1/GPa)
#
#
# Indices 1 2 3 4 5 6 
#
# 1 0.012597 -0.001364 -0.004645 0.000000 -0.004906 0.000000
# 2 -0.001364 0.006720 -0.001388 0.000000 -0.000399 0.000000
# 3 -0.004645 -0.001388 0.008834 0.000000 0.000988 0.000000
# 4 0.000000 0.000000 0.000000 0.010686 0.000000 0.001376
# 5 -0.004906 -0.000399 0.000988 0.000000 0.029906 0.000000
# 6 0.000000 0.000000 0.000000 0.001376 0.000000 0.016243
#
#
# Mechanical properties :
#
#
# Convention : Reuss Voigt Hill
#
# Bulk Modulus (GPa) = 74.85799 80.42473 77.64136
# Shear Modulus (GPa) = 47.96943 57.72116 52.84529
#
# Velocity S-wave (km/s) = 4.20471 4.61234 4.41323
# Velocity P-wave (km/s) = 7.15278 7.61617 7.38811
#
# Compressibility (1/GPa) = 0.01335863
#
# Stress axis : x y z
#
# Youngs Moduli (GPa) = 79.38308 148.79914 113.19397
#
# Poissons Ratio (x) = 0.20296 0.52579
# Poissons Ratio (y) = 0.10828 0.15708
# Poissons Ratio (z) = 0.36874 0.20648
#
# Static dielectric constant tensor:
#      x y z
#    x 2.095710 0.000000 -0.055570 
#    y 0.000000 2.100370 0.000000 
#    z -0.055570 0.000000 2.280000 
# 
# From -- ./inp_files/884.got.cif
#   From: 2010.05.17/outbox.cif.g08.bks.cpg/sg4_1_cif.got.tgz:884.got - 2010.06.03 18:43:04.
