data_PCOD9119740
_publ_section_title
;
Structure prediction by ZEFSAII (Michael W. Deem and Ramdas Pophale) SiO2 
 PCOD9119740
Probable space group: P 21
;
_chemical_formula_sum "Si O2"
_cell_formula_units_Z 16
_cell_length_a 9.298572
_cell_length_b 8.126372
_cell_length_c 9.675155
_cell_angle_alpha 90.000000
_cell_angle_beta 57.397440
_cell_angle_gamma 90.000000
_cell_volume 615.890987
_symmetry_space_group_name_H-M "P 21"
_symmetry_group_IT_number 4
_symmetry_cell_setting 'monoclinic'
loop_
_space_group_symop_operation_xyz
x,y,z
-x,1/2+y,-z
loop_
_atom_site_type_symbol
_atom_site_label
_atom_site_fract_x
_atom_site_fract_y
_atom_site_fract_z
Si Si1 0.566615 0.301400 0.713687
Si Si2 0.978302 0.674480 0.613412
Si Si3 0.251374 0.747127 0.106303
Si Si4 0.737240 0.316165 0.356744
Si Si5 0.890487 0.653750 0.189503
Si Si6 0.756150 0.624358 0.980018
Si Si7 0.205498 0.349219 0.520835
Si Si8 0.523440 0.176576 0.241700
O O1 0.716953 0.265184 0.746707
O O2 0.598940 0.248776 0.540007
O O3 0.553897 0.497107 0.697679
O O4 0.405601 0.214953 0.869136
O O5 0.097106 0.801585 0.632296
O O6 0.095822 0.512463 0.553689
O O7 0.812997 0.675689 0.798448
O O8 0.906036 0.713341 0.501925
O O9 0.081993 0.649896 0.150728
O O10 0.250146 0.928013 0.036921
O O11 0.416394 0.670878 0.947705
O O12 0.764681 0.500909 0.286889
O O13 0.691373 0.206264 0.248252
O O14 0.804035 0.808110 0.312482
O O15 0.899909 0.666812 0.019607
O O16 0.392785 0.320931 0.358631
#
# Coordination Sequence:
#
# PCOD9119740 Si02
#       8
#     2   2   2   2   2   2   2   2
#     4  12  28  49  78 113 157 206 262 330 393 480
#     4  12  28  48  78 113 155 205 261 326 397 477
#     4  12  26  51  76 114 155 202 263 322 398 477
#     4  12  28  49  75 118 152 207 265 320 400 469
#     4  12  26  49  77 109 160 200 262 327 386 479
#     4  12  28  49  76 115 152 205 260 323 401 470
#     4  12  26  50  78 112 157 205 264 329 396 478
#     4  12  28  49  78 112 158 204 263 325 401 474
#
# _framework density 25.978625000000001
#
# number of rings (size 3 to 8) (size 9 to 14) (size 15 to 20)
#    0.000    0.000    3.750    5.250    7.000    0.000 
#    2.250    0.000    0.000    0.000    0.000    0.000 
#    0.000    0.000    0.000    0.000    0.000    0.000 
#
# Total GULP energy -89483.461394 kJ/mol
# GULP energy per Si atom -5592.716337 kJ/mol
# Density = 2.591950 g / cm^3
# Si number density = 25.978625 Si / 1000 Ang^3
#
#
#
# Elastic Constant Matrix: (Units=GPa)
#
#
# Indices 1 2 3 4 5 6 
#
# 1 114.4296 16.2732 15.0666 0.0000 -1.8489 0.0000
# 2 16.2732 60.6233 9.4478 0.0000 7.3238 0.0000
# 3 15.0666 9.4478 129.0284 0.0000 0.0808 0.0000
# 4 0.0000 0.0000 0.0000 24.2734 0.0000 -2.3627
# 5 -1.8489 7.3238 0.0808 0.0000 55.1964 0.0000
# 6 0.0000 0.0000 0.0000 -2.3627 0.0000 46.6117
#
#
#
# Elastic Compliance Matrix: (Units=1/GPa)
#
#
# Indices 1 2 3 4 5 6 
#
# 1 0.009210 -0.002408 -0.000900 0.000000 0.000629 0.000000
# 2 -0.002408 0.017590 -0.001005 0.000000 -0.002413 0.000000
# 3 -0.000900 -0.001005 0.007929 0.000000 0.000092 0.000000
# 4 0.000000 0.000000 0.000000 0.041402 0.000000 0.002099
# 5 0.000629 -0.002413 0.000092 0.000000 0.018458 0.000000
# 6 0.000000 0.000000 0.000000 0.002099 0.000000 0.021560
#
#
# Mechanical properties :
#
#
# Convention : Reuss Voigt Hill
#
# Bulk Modulus (GPa) = 38.30977 42.85070 40.58024
# Shear Modulus (GPa) = 37.46001 42.76922 40.11461
#
# Velocity S-wave (km/s) = 3.80143 4.06189 3.93382
# Velocity P-wave (km/s) = 5.83494 6.20718 6.02393
#
# Compressibility (1/GPa) = 0.02610300
#
# Stress axis : x y z
#
# Youngs Moduli (GPa) = 108.57689 56.85072 126.12213
#
# Poissons Ratio (x) = 0.13690 0.11345
# Poissons Ratio (y) = 0.26147 0.12679
# Poissons Ratio (z) = 0.09767 0.05715
#
# Static dielectric constant tensor:
#      x y z
#    x 2.099450 0.000000 -0.096310 
#    y 0.000000 2.059320 0.000000 
#    z -0.096310 0.000000 2.141600 
# 
# From -- ./inp_files/5790.got.cif
#   From: 2010.05.17/outbox.cif.g08.bks.cpg/sg4_3_cif.got.tgz:5790.got - 2010.06.03 18:43:04.
