data_PCOD9119782
_publ_section_title
;
Structure prediction by ZEFSAII (Michael W. Deem and Ramdas Pophale) SiO2 
 PCOD9119782
Probable space group: P 21
;
_chemical_formula_sum "Si O2"
_cell_formula_units_Z 10
_cell_length_a 15.386937
_cell_length_b 5.088352
_cell_length_c 15.820423
_cell_angle_alpha 90.000000
_cell_angle_beta 18.362090
_cell_angle_gamma 90.000000
_cell_volume 390.199863
_symmetry_space_group_name_H-M "P 21"
_symmetry_group_IT_number 4
_symmetry_cell_setting 'monoclinic'
loop_
_space_group_symop_operation_xyz
x,y,z
-x,1/2+y,-z
loop_
_atom_site_type_symbol
_atom_site_label
_atom_site_fract_x
_atom_site_fract_y
_atom_site_fract_z
Si Si1 0.042315 0.808000 0.153685
Si Si2 0.547031 0.150991 0.618405
Si Si3 0.476755 0.381299 0.966345
Si Si4 0.897824 0.469881 0.432037
Si Si5 0.119259 0.467461 0.932462
O O1 0.991623 0.736302 0.297923
O O2 0.065418 0.538183 0.080366
O O3 0.768100 0.952244 0.376044
O O4 0.307414 0.980142 0.885243
O O5 0.705620 0.316732 0.542997
O O6 0.416027 0.332754 0.667055
O O7 0.186377 0.332842 0.187697
O O8 0.426570 0.610333 0.081131
O O9 0.708784 0.492789 0.688850
O O10 0.074978 0.746018 0.928493
#
# Coordination Sequence:
#
# PCOD9119782 Si02
#       5
#     2   2   2   2   2
#     4  12  27  53  82 118 157 218 272 324 405 469
#     4  12  27  53  82 118 157 218 272 324 405 469
#     4  12  29  52  81 122 160 206 258 328 409 468
#     4  12  28  50  82 114 164 206 270 324 386 502
#     4  12  27  56  77 120 166 212 270 346 393 470
#
# _framework density 25.627890000000001
#
# number of rings (size 3 to 8) (size 9 to 14) (size 15 to 20)
#    0.000    0.000    2.000    7.200    8.400    0.000 
#   10.800    0.000    0.000    0.000    0.000    0.000 
#    0.000    0.000    0.000    0.000    0.000    0.000 
#
# Total GULP energy -56098.438377 kJ/mol
# GULP energy per Si atom -5609.843838 kJ/mol
# Density = 2.556956 g / cm^3
# Si number density = 25.627890 Si / 1000 Ang^3
#
#
#
# Elastic Constant Matrix: (Units=GPa)
#
#
# Indices 1 2 3 4 5 6 
#
# 1 74.9087 36.6836 25.3690 0.0000 -24.9561 0.0000
# 2 36.6836 133.8193 37.4403 0.0000 -11.9220 0.0000
# 3 25.3690 37.4403 170.5657 0.0000 -10.6842 0.0000
# 4 0.0000 0.0000 0.0000 46.2567 0.0000 -10.4419
# 5 -24.9561 -11.9220 -10.6842 0.0000 46.3542 0.0000
# 6 0.0000 0.0000 0.0000 -10.4419 0.0000 35.3469
#
#
#
# Elastic Compliance Matrix: (Units=1/GPa)
#
#
# Indices 1 2 3 4 5 6 
#
# 1 0.018649 -0.003956 -0.001360 0.000000 0.008709 0.000000
# 2 -0.003956 0.008930 -0.001381 0.000000 -0.000151 0.000000
# 3 -0.001360 -0.001381 0.006392 0.000000 0.000386 0.000000
# 4 0.000000 0.000000 0.000000 0.023163 0.000000 0.006843
# 5 0.008709 -0.000151 0.000386 0.000000 0.026312 0.000000
# 6 0.000000 0.000000 0.000000 0.006843 0.000000 0.030312
#
#
# Mechanical properties :
#
#
# Convention : Reuss Voigt Hill
#
# Bulk Modulus (GPa) = 48.59677 64.25327 56.42502
# Shear Modulus (GPa) = 37.31006 44.24495 40.77751
#
# Velocity S-wave (km/s) = 3.81968 4.15955 3.99323
# Velocity P-wave (km/s) = 6.20137 6.94228 6.58225
#
# Compressibility (1/GPa) = 0.02057750
#
# Stress axis : x y z
#
# Youngs Moduli (GPa) = 53.62270 111.98018 156.43339
#
# Poissons Ratio (x) = 0.44297 0.21273
# Poissons Ratio (y) = 0.21212 0.21609
# Poissons Ratio (z) = 0.07292 0.15468
#
# Static dielectric constant tensor:
#      x y z
#    x 2.059040 0.000000 0.024920 
#    y 0.000000 2.005740 0.000000 
#    z 0.024920 0.000000 1.991730 
# 
# From -- ./inp_files/13182.got.cif
#   From: 2010.05.17/outbox.cif.g08.bks.cpg/sg4_7_cif.got.tgz:13182.got - 2010.06.03 18:43:04.
