data_PCOD9119668
_publ_section_title
;
Structure prediction by ZEFSAII (Michael W. Deem and Ramdas Pophale) SiO2 
 PCOD9119668
Probable space group: P 21
;
_chemical_formula_sum "Si O2"
_cell_formula_units_Z 14
_cell_length_a 10.215182
_cell_length_b 5.113414
_cell_length_c 16.027187
_cell_angle_alpha 90.000000
_cell_angle_beta 142.241704
_cell_angle_gamma 90.000000
_cell_volume 512.626620
_symmetry_space_group_name_H-M "P 21"
_symmetry_group_IT_number 4
_symmetry_cell_setting 'monoclinic'
loop_
_space_group_symop_operation_xyz
x,y,z
-x,1/2+y,-z
loop_
_atom_site_type_symbol
_atom_site_label
_atom_site_fract_x
_atom_site_fract_y
_atom_site_fract_z
Si Si1 0.095935 0.423850 0.452061
Si Si2 0.968998 0.091121 0.180518
Si Si3 0.524072 0.542723 0.352300
Si Si4 0.779111 0.106598 0.656311
Si Si5 0.683755 0.186019 0.291714
Si Si6 0.587490 0.905813 0.085863
Si Si7 0.860564 0.221160 0.946749
O O1 0.244103 0.168177 0.518624
O O2 0.203923 0.606439 0.435340
O O3 0.146561 0.520893 0.570118
O O4 0.840666 0.385348 0.320883
O O5 0.161016 0.885299 0.274364
O O6 0.046186 0.381961 0.236718
O O7 0.829139 0.972128 0.183704
O O8 0.836209 0.108843 0.028204
O O9 0.424960 0.502628 0.394519
O O10 0.542585 0.317091 0.292211
O O11 0.352079 0.725211 0.216027
O O12 0.555650 0.004784 0.163516
O O13 0.461086 0.112042 0.964066
O O14 0.978126 0.501243 0.010358
#
# Coordination Sequence:
#
# PCOD9119668 Si02
#       7
#     2   2   2   2   2   2   2
#     4  12  30  51  80 114 164 214 270 329 400 478
#     4  12  25  50  78 112 160 208 263 327 406 469
#     4  12  29  50  80 118 154 214 272 330 400 484
#     4  12  29  50  81 113 160 211 261 329 396 477
#     4  12  29  52  82 113 164 213 270 334 397 479
#     4  12  29  51  83 119 157 209 271 336 405 477
#     4  12  25  48  76 115 159 203 261 333 404 468
#
# _framework density 27.310321999999999
#
# number of rings (size 3 to 8) (size 9 to 14) (size 15 to 20)
#    0.000    0.000    5.714    1.714   14.000    0.000 
#    0.000    0.000    0.000    0.000    0.000    0.000 
#    0.000    0.000    0.000    0.000    0.000    0.000 
#
# Total GULP energy -78456.761778 kJ/mol
# GULP energy per Si atom -5604.054413 kJ/mol
# Density = 2.724816 g / cm^3
# Si number density = 27.310322 Si / 1000 Ang^3
#
#
#
# Elastic Constant Matrix: (Units=GPa)
#
#
# Indices 1 2 3 4 5 6 
#
# 1 141.8367 10.4712 29.2253 0.0000 -17.1273 0.0000
# 2 10.4712 84.2503 31.7347 0.0000 -1.2953 0.0000
# 3 29.2253 31.7347 103.0221 0.0000 -20.9199 0.0000
# 4 0.0000 0.0000 0.0000 51.0425 0.0000 -0.0649
# 5 -17.1273 -1.2953 -20.9199 0.0000 41.1798 0.0000
# 6 0.0000 0.0000 0.0000 -0.0649 0.0000 47.8854
#
#
#
# Elastic Compliance Matrix: (Units=1/GPa)
#
#
# Indices 1 2 3 4 5 6 
#
# 1 0.007691 -0.000316 -0.001602 0.000000 0.002375 0.000000
# 2 -0.000316 0.013571 -0.004494 0.000000 -0.001988 0.000000
# 3 -0.001602 -0.004494 0.012691 0.000000 0.005639 0.000000
# 4 0.000000 0.000000 0.000000 0.019592 0.000000 0.000027
# 5 0.002375 -0.001988 0.005639 0.000000 0.028074 0.000000
# 6 0.000000 0.000000 0.000000 0.000027 0.000000 0.020883
#
#
# Mechanical properties :
#
#
# Convention : Reuss Voigt Hill
#
# Bulk Modulus (GPa) = 47.33165 52.44128 49.88646
# Shear Modulus (GPa) = 40.86027 45.20005 43.03016
#
# Velocity S-wave (km/s) = 3.87220 4.07265 3.97369
# Velocity P-wave (km/s) = 6.11233 6.43109 6.27374
#
# Compressibility (1/GPa) = 0.02112751
#
# Stress axis : x y z
#
# Youngs Moduli (GPa) = 130.02952 73.68645 78.79756
#
# Poissons Ratio (x) = 0.02327 0.12624
# Poissons Ratio (y) = 0.04107 0.35415
# Poissons Ratio (z) = 0.20833 0.33118
#
# Static dielectric constant tensor:
#      x y z
#    x 2.223860 0.000000 -0.039120 
#    y 0.000000 2.159500 0.000000 
#    z -0.039120 0.000000 2.136460 
# 
# From -- ./inp_files/8790.got.cif
#   From: 2010.05.17/outbox.cif.g08.bks.cpg/sg4_5_cif.got.tgz:8790.got - 2010.06.03 18:43:04.
