data_PCOD9119369
_publ_section_title
;
Structure prediction by ZEFSAII (Michael W. Deem and Ramdas Pophale) SiO2 
 PCOD9119369
Probable space group: P 21
;
_chemical_formula_sum "Si O2"
_cell_formula_units_Z 16
_cell_length_a 5.853350
_cell_length_b 13.342852
_cell_length_c 8.573427
_cell_angle_alpha 90.000000
_cell_angle_beta 103.610268
_cell_angle_gamma 90.000000
_cell_volume 650.785128
_symmetry_space_group_name_H-M "P 21"
_symmetry_group_IT_number 4
_symmetry_cell_setting 'monoclinic'
loop_
_space_group_symop_operation_xyz
x,y,z
-x,1/2+y,-z
loop_
_atom_site_type_symbol
_atom_site_label
_atom_site_fract_x
_atom_site_fract_y
_atom_site_fract_z
Si Si1 0.520604 0.728890 0.513687
Si Si2 0.010308 0.173005 0.037935
Si Si3 0.625865 0.874148 0.157621
Si Si4 0.701938 0.668119 0.227583
Si Si5 0.094878 0.356760 0.263760
Si Si6 0.668442 0.011108 0.886170
Si Si7 0.631546 0.545776 0.693121
Si Si8 0.110616 0.876621 0.428752
O O1 0.711427 0.696860 0.411996
O O2 0.657928 0.805353 0.647301
O O3 0.455184 0.625239 0.587126
O O4 0.296087 0.789014 0.417562
O O5 0.985547 0.281473 0.116508
O O6 0.207054 0.112973 0.168929
O O7 0.096654 0.175133 0.871243
O O8 0.791932 0.097604 0.007070
O O9 0.534888 0.761106 0.146142
O O10 0.881017 0.871092 0.281944
O O11 0.483471 0.957062 0.228065
O O12 0.632867 0.913830 0.985061
O O13 0.572357 0.561948 0.203056
O O14 0.156888 0.468309 0.216221
O O15 0.948711 0.363345 0.399191
O O16 0.778330 0.484961 0.588274
#
# Coordination Sequence:
#
# PCOD9119369 Si02
#       8
#     2   2   2   2   2   2   2   2
#     4  11  28  45  70 107 143 189 240 297 371 431
#     4  11  26  46  72 108 141 190 239 303 362 434
#     4  12  25  50  71 104 145 192 240 295 370 425
#     4  12  26  45  72 104 147 183 243 300 353 436
#     4  11  27  48  69 108 149 183 247 296 361 435
#     4  12  28  45  75 107 143 197 239 296 363 436
#     4  11  25  48  71 102 147 190 236 300 369 428
#     4  12  25  47  74  98 145 194 232 307 355 437
#
# _framework density 24.58569
#
# number of rings (size 3 to 8) (size 9 to 14) (size 15 to 20)
#    0.000    0.500    6.250    0.000    8.750    1.000 
#    0.000    0.000    0.000    0.000    0.000    0.000 
#    0.000    0.000    0.000    0.000    0.000    0.000 
#
# Total GULP energy -89456.809289 kJ/mol
# GULP energy per Si atom -5591.050581 kJ/mol
# Density = 2.452973 g / cm^3
# Si number density = 24.585690 Si / 1000 Ang^3
#
#
#
# Elastic Constant Matrix: (Units=GPa)
#
#
# Indices 1 2 3 4 5 6 
#
# 1 29.0035 6.0284 12.1964 0.0000 -7.9095 0.0000
# 2 6.0284 107.8186 28.2103 0.0000 -4.1293 0.0000
# 3 12.1964 28.2103 74.5419 0.0000 -12.2631 0.0000
# 4 0.0000 0.0000 0.0000 51.2209 0.0000 1.9974
# 5 -7.9095 -4.1293 -12.2631 0.0000 39.6159 0.0000
# 6 0.0000 0.0000 0.0000 1.9974 0.0000 35.0340
#
#
#
# Elastic Compliance Matrix: (Units=1/GPa)
#
#
# Indices 1 2 3 4 5 6 
#
# 1 0.038376 -0.000590 -0.005063 0.000000 0.006033 0.000000
# 2 -0.000590 0.010304 -0.003841 0.000000 -0.000233 0.000000
# 3 -0.005063 -0.003841 0.016295 0.000000 0.003633 0.000000
# 4 0.000000 0.000000 0.000000 0.019567 0.000000 -0.001116
# 5 0.006033 -0.000233 0.003633 0.000000 0.027547 0.000000
# 6 0.000000 0.000000 0.000000 -0.001116 0.000000 0.028607
#
#
# Mechanical properties :
#
#
# Convention : Reuss Voigt Hill
#
# Bulk Modulus (GPa) = 21.74578 33.80379 27.77479
# Shear Modulus (GPa) = 28.56924 36.16941 32.36932
#
# Velocity S-wave (km/s) = 3.41255 3.83973 3.63242
# Velocity P-wave (km/s) = 4.93877 5.78249 5.37720
#
# Compressibility (1/GPa) = 0.04598592
#
# Stress axis : x y z
#
# Youngs Moduli (GPa) = 26.05822 97.05004 61.36809
#
# Poissons Ratio (x) = 0.05724 0.31072
# Poissons Ratio (y) = 0.01537 0.23573
# Poissons Ratio (z) = 0.13194 0.37280
#
# Static dielectric constant tensor:
#      x y z
#    x 1.980010 0.000000 -0.024060 
#    y 0.000000 1.945750 0.000000 
#    z -0.024060 0.000000 1.985610 
# 
# From -- ./inp_files/1451.got.cif
#   From: 2010.05.17/outbox.cif.g08.bks.cpg/sg4_1_cif.got.tgz:1451.got - 2010.06.03 18:43:04.
