data_PCOD9119626
_publ_section_title
;
Structure prediction by ZEFSAII (Michael W. Deem and Ramdas Pophale) SiO2 
 PCOD9119626
Probable space group: P 21
;
_chemical_formula_sum "Si O2"
_cell_formula_units_Z 14
_cell_length_a 21.114808
_cell_length_b 5.045519
_cell_length_c 4.842186
_cell_angle_alpha 90.000000
_cell_angle_beta 69.224177
_cell_angle_gamma 90.000000
_cell_volume 482.319313
_symmetry_space_group_name_H-M "P 21"
_symmetry_group_IT_number 4
_symmetry_cell_setting 'monoclinic'
loop_
_space_group_symop_operation_xyz
x,y,z
-x,1/2+y,-z
loop_
_atom_site_type_symbol
_atom_site_label
_atom_site_fract_x
_atom_site_fract_y
_atom_site_fract_z
Si Si1 0.135271 0.944820 0.783853
Si Si2 0.956362 0.443065 0.575125
Si Si3 0.245574 0.551884 0.517344
Si Si4 0.393858 0.137083 0.687863
Si Si5 0.500934 0.919682 0.252139
Si Si6 0.759782 0.767697 0.007162
Si Si7 0.396666 0.698636 0.136265
O O1 0.089272 0.055363 0.606810
O O2 0.185329 0.748653 0.540408
O O3 0.181758 0.129756 0.908874
O O4 0.084726 0.833170 0.096105
O O5 0.001146 0.692911 0.599949
O O6 0.237188 0.558889 0.863169
O O7 0.323952 0.614162 0.350590
O O8 0.236682 0.299758 0.323895
O O9 0.411547 0.416582 0.879623
O O10 0.314344 0.190983 0.759390
O O11 0.482728 0.189730 0.507619
O O12 0.389380 0.913250 0.918607
O O13 0.414180 0.930775 0.378660
O O14 0.518791 0.144047 0.948438
#
# Coordination Sequence:
#
# PCOD9119626 Si02
#       7
#     2   2   2   2   2   2   2
#     4  12  29  54  88 120 176 221 264 337 414 506
#     4  12  30  56  93 138 178 223 278 337 414 514
#     4  12  30  49  78 116 160 213 279 338 413 501
#     4  12  27  43  66  99 141 200 270 342 414 489
#     4  12  25  42  65  92 140 196 268 342 424 474
#     4  12  30  49  78 116 160 213 279 338 413 501
#     4  12  27  43  66  99 141 200 270 342 414 489
#
# _framework density 29.026412000000001
#
# number of rings (size 3 to 8) (size 9 to 14) (size 15 to 20)
#    0.000    0.000    4.286    3.429   20.000    0.000 
#    0.000    0.000    0.000    0.000    0.000    0.000 
#    0.000    0.000    0.000    0.000    0.000    0.000 
#
# Total GULP energy -78155.412021 kJ/mol
# GULP energy per Si atom -5582.529430 kJ/mol
# Density = 2.896035 g / cm^3
# Si number density = 29.026412 Si / 1000 Ang^3
#
#
#
# Elastic Constant Matrix: (Units=GPa)
#
#
# Indices 1 2 3 4 5 6 
#
# 1 152.3201 38.0338 57.9964 0.0000 4.5542 0.0000
# 2 38.0338 143.6725 48.0044 0.0000 -3.9622 0.0000
# 3 57.9964 48.0044 192.8218 0.0000 23.2626 0.0000
# 4 0.0000 0.0000 0.0000 65.9526 0.0000 14.7539
# 5 4.5542 -3.9622 23.2626 0.0000 60.2773 0.0000
# 6 0.0000 0.0000 0.0000 14.7539 0.0000 48.2669
#
#
#
# Elastic Compliance Matrix: (Units=1/GPa)
#
#
# Indices 1 2 3 4 5 6 
#
# 1 0.007655 -0.001364 -0.001974 0.000000 0.000094 0.000000
# 2 -0.001364 0.007932 -0.001720 0.000000 0.001288 0.000000
# 3 -0.001974 -0.001720 0.006507 0.000000 -0.002475 0.000000
# 4 0.000000 0.000000 0.000000 0.016275 0.000000 -0.004975
# 5 0.000094 0.001288 -0.002475 0.000000 0.017623 0.000000
# 6 0.000000 0.000000 0.000000 -0.004975 0.000000 0.022239
#
#
# Mechanical properties :
#
#
# Convention : Reuss Voigt Hill
#
# Bulk Modulus (GPa) = 83.49428 86.32040 84.90734
# Shear Modulus (GPa) = 54.14910 57.88469 56.01690
#
# Velocity S-wave (km/s) = 4.32384 4.47050 4.39778
# Velocity P-wave (km/s) = 7.33177 7.51334 7.42311
#
# Compressibility (1/GPa) = 0.01197687
#
# Stress axis : x y z
#
# Youngs Moduli (GPa) = 130.64104 126.07913 153.69044
#
# Poissons Ratio (x) = 0.17200 0.30339
# Poissons Ratio (y) = 0.17822 0.26430
# Poissons Ratio (z) = 0.25789 0.21682
#
# Static dielectric constant tensor:
#      x y z
#    x 2.291150 0.000000 0.103720 
#    y 0.000000 2.698140 0.000000 
#    z 0.103720 0.000000 2.365200 
# 
# From -- ./inp_files/4164.got.cif
#   From: 2010.05.17/outbox.cif.g08.bks.cpg/sg4_3_cif.got.tgz:4164.got - 2010.06.03 18:43:04.
