data_PCOD9119037
_publ_section_title
;
Structure prediction by ZEFSAII (Michael W. Deem and Ramdas Pophale) SiO2 
 PCOD9119037
Probable space group: P 21
;
_chemical_formula_sum "Si O2"
_cell_formula_units_Z 16
_cell_length_a 6.520186
_cell_length_b 10.333587
_cell_length_c 13.052527
_cell_angle_alpha 90.000000
_cell_angle_beta 55.634657
_cell_angle_gamma 90.000000
_cell_volume 725.937334
_symmetry_space_group_name_H-M "P 21"
_symmetry_group_IT_number 4
_symmetry_cell_setting 'monoclinic'
loop_
_space_group_symop_operation_xyz
x,y,z
-x,1/2+y,-z
loop_
_atom_site_type_symbol
_atom_site_label
_atom_site_fract_x
_atom_site_fract_y
_atom_site_fract_z
Si Si1 0.758258 0.964770 0.092486
Si Si2 0.512781 0.093186 0.722182
Si Si3 0.976942 0.722435 0.423795
Si Si4 0.193782 0.417224 0.680141
Si Si5 0.298629 0.979159 0.574349
Si Si6 0.740679 0.592750 0.812797
Si Si7 0.865343 0.691374 0.002569
Si Si8 0.814951 0.843283 0.675162
O O1 0.770682 0.927085 0.208693
O O2 0.891870 0.846737 0.995622
O O3 0.475645 0.987262 0.137612
O O4 0.896382 0.102306 0.040991
O O5 0.376906 0.044174 0.658792
O O6 0.331822 0.158488 0.853759
O O7 0.738777 0.189597 0.632533
O O8 0.642977 0.967738 0.735694
O O9 0.941281 0.789379 0.323831
O O10 0.824734 0.589031 0.462636
O O11 0.868697 0.816475 0.540575
O O12 0.456857 0.427032 0.549930
O O13 0.004859 0.532675 0.704916
O O14 0.083115 0.872984 0.649960
O O15 0.691630 0.716358 0.756214
O O16 0.765330 0.641743 0.921818
#
# Coordination Sequence:
#
# PCOD9119037 Si02
#       8
#     2   2   2   2   2   2   2   2
#     4  11  27  48  74 102 145 186 246 297 355 424
#     4  11  25  44  69 104 140 183 235 291 353 425
#     4  11  24  42  68 103 141 180 228 285 356 425
#     4  11  24  43  70 105 136 188 223 285 359 426
#     4  11  25  41  70 101 142 181 227 286 354 430
#     4  11  27  45  72 101 146 182 239 292 357 415
#     4  11  28  46  75 102 137 194 241 295 354 422
#     4  11  26  41  70 104 141 182 231 289 354 431
#
# _framework density 22.040469999999999
#
# number of rings (size 3 to 8) (size 9 to 14) (size 15 to 20)
#    0.000    1.000    1.250    3.000   14.000    4.000 
#    0.000    0.000    0.000    0.000    0.000    0.000 
#    0.000    0.000    0.000    0.000    0.000    0.000 
#
# Total GULP energy -89553.726506 kJ/mol
# GULP energy per Si atom -5597.107907 kJ/mol
# Density = 2.199031 g / cm^3
# Si number density = 22.040470 Si / 1000 Ang^3
#
#
#
# Elastic Constant Matrix: (Units=GPa)
#
#
# Indices 1 2 3 4 5 6 
#
# 1 82.8173 14.5882 18.7716 0.0000 -5.4480 0.0000
# 2 14.5882 89.1221 9.7856 0.0000 -8.7027 0.0000
# 3 18.7716 9.7856 41.2333 0.0000 -6.7621 0.0000
# 4 0.0000 0.0000 0.0000 36.5027 0.0000 -4.2647
# 5 -5.4480 -8.7027 -6.7621 0.0000 22.0271 0.0000
# 6 0.0000 0.0000 0.0000 -4.2647 0.0000 41.3867
#
#
#
# Elastic Compliance Matrix: (Units=1/GPa)
#
#
# Indices 1 2 3 4 5 6 
#
# 1 0.013704 -0.001515 -0.005709 0.000000 0.001038 0.000000
# 2 -0.001515 0.012017 -0.001522 0.000000 0.003906 0.000000
# 3 -0.005709 -0.001522 0.028307 0.000000 0.006677 0.000000
# 4 0.000000 0.000000 0.000000 0.027729 0.000000 0.002857
# 5 0.001038 0.003906 0.006677 0.000000 0.049248 0.000000
# 6 0.000000 0.000000 0.000000 0.002857 0.000000 0.024457
#
#
# Mechanical properties :
#
#
# Convention : Reuss Voigt Hill
#
# Bulk Modulus (GPa) = 27.36935 33.27373 30.32154
# Shear Modulus (GPa) = 27.00765 31.31846 29.16305
#
# Velocity S-wave (km/s) = 3.50432 3.77364 3.64147
# Velocity P-wave (km/s) = 5.36828 5.84094 5.60959
#
# Compressibility (1/GPa) = 0.03653722
#
# Stress axis : x y z
#
# Youngs Moduli (GPa) = 72.97180 83.21516 35.32650
#
# Poissons Ratio (x) = 0.12607 0.20168
# Poissons Ratio (y) = 0.11055 0.05376
# Poissons Ratio (z) = 0.41659 0.12663
#
# Static dielectric constant tensor:
#      x y z
#    x 1.808120 0.000000 0.004450 
#    y 0.000000 1.849190 0.000000 
#    z 0.004450 0.000000 1.757530 
# 
# From -- ./inp_files/2591.got.cif
#   From: 2010.05.17/outbox.cif.g08.bks.cpg/sg4_2_cif.got.tgz:2591.got - 2010.06.03 18:43:04.
