data_PCOD9119472
_publ_section_title
;
Structure prediction by ZEFSAII (Michael W. Deem and Ramdas Pophale) SiO2 
 PCOD9119472
Probable space group: P 21
;
_chemical_formula_sum "Si O2"
_cell_formula_units_Z 12
_cell_length_a 10.791620
_cell_length_b 9.053495
_cell_length_c 4.953755
_cell_angle_alpha 90.000000
_cell_angle_beta 92.063078
_cell_angle_gamma 90.000000
_cell_volume 483.677442
_symmetry_space_group_name_H-M "P 21"
_symmetry_group_IT_number 4
_symmetry_cell_setting 'monoclinic'
loop_
_space_group_symop_operation_xyz
x,y,z
-x,1/2+y,-z
loop_
_atom_site_type_symbol
_atom_site_label
_atom_site_fract_x
_atom_site_fract_y
_atom_site_fract_z
Si Si1 0.255008 0.043790 0.223791
Si Si2 0.571387 0.288076 0.630732
Si Si3 0.081869 0.253755 0.520179
Si Si4 0.674607 0.127339 0.135966
Si Si5 0.085986 0.786248 0.987930
Si Si6 0.319911 0.307753 0.819463
O O1 0.159635 0.110833 0.433639
O O2 0.363515 0.948778 0.375578
O O3 0.300129 0.173432 0.025421
O O4 0.170545 0.928419 0.051007
O O5 0.636956 0.175913 0.432434
O O6 0.423830 0.279793 0.600641
O O7 0.598800 0.235445 0.935861
O O8 0.191106 0.347789 0.662644
O O9 0.016245 0.314150 0.248322
O O10 0.979987 0.235372 0.742924
O O11 0.818802 0.162053 0.103277
O O12 0.639865 0.962309 0.048227
#
# Coordination Sequence:
#
# PCOD9119472 Si02
#       6
#     2   2   2   2   2   2
#     4  11  28  51  78 114 150 211 250 318 386 459
#     4  11  28  51  78 108 160 198 258 316 388 452
#     4  12  28  45  77 111 148 197 253 308 379 456
#     4  11  28  50  74 113 150 204 252 324 378 453
#     4  11  27  49  75 107 159 193 254 313 390 450
#     4  12  29  46  82 113 153 199 265 311 385 456
#
# _framework density 24.809919000000001
#
# number of rings (size 3 to 8) (size 9 to 14) (size 15 to 20)
#    0.000    0.667    1.667    3.000   16.333    1.333 
#    3.000    0.000    0.000    0.000    0.000    0.000 
#    0.000    0.000    0.000    0.000    0.000    0.000 
#
# Total GULP energy -67230.923265 kJ/mol
# GULP energy per Si atom -5602.576939 kJ/mol
# Density = 2.475345 g / cm^3
# Si number density = 24.809919 Si / 1000 Ang^3
#
#
#
# Elastic Constant Matrix: (Units=GPa)
#
#
# Indices 1 2 3 4 5 6 
#
# 1 127.3126 51.6807 43.5457 0.0000 -36.8177 0.0000
# 2 51.6807 158.3061 33.8994 0.0000 -32.8239 0.0000
# 3 43.5457 33.8994 97.8979 0.0000 -23.2815 0.0000
# 4 0.0000 0.0000 0.0000 41.4452 0.0000 -8.0332
# 5 -36.8177 -32.8239 -23.2815 0.0000 37.8461 0.0000
# 6 0.0000 0.0000 0.0000 -8.0332 0.0000 28.9964
#
#
#
# Elastic Compliance Matrix: (Units=1/GPa)
#
#
# Indices 1 2 3 4 5 6 
#
# 1 0.011879 -0.001520 -0.002721 0.000000 0.008564 0.000000
# 2 -0.001520 0.008032 -0.000937 0.000000 0.004911 0.000000
# 3 -0.002721 -0.000937 0.012799 0.000000 0.004414 0.000000
# 4 0.000000 0.000000 0.000000 0.025497 0.000000 0.007064
# 5 0.008564 0.004911 0.004414 0.000000 0.041729 0.000000
# 6 0.000000 0.000000 0.000000 0.007064 0.000000 0.036444
#
#
# Mechanical properties :
#
#
# Convention : Reuss Voigt Hill
#
# Bulk Modulus (GPa) = 44.73389 71.30756 58.02073
# Shear Modulus (GPa) = 32.42797 38.61693 35.52245
#
# Velocity S-wave (km/s) = 3.61925 3.94955 3.78800
# Velocity P-wave (km/s) = 5.96113 7.04290 6.52447
#
# Compressibility (1/GPa) = 0.02235442
#
# Stress axis : x y z
#
# Youngs Moduli (GPa) = 84.18255 124.50197 78.12976
#
# Poissons Ratio (x) = 0.18919 0.21258
# Poissons Ratio (y) = 0.12792 0.07324
# Poissons Ratio (z) = 0.22905 0.11671
#
# Static dielectric constant tensor:
#      x y z
#    x 1.998590 0.000000 0.036610 
#    y 0.000000 2.029050 0.000000 
#    z 0.036610 0.000000 1.936900 
# 
# From -- ./inp_files/2545.got.cif
#   From: 2010.05.17/outbox.cif.g08.bks.cpg/sg4_2_cif.got.tgz:2545.got - 2010.06.03 18:43:04.
