data_PCOD9119921
_publ_section_title
;
Structure prediction by ZEFSAII (Michael W. Deem and Ramdas Pophale) SiO2 
 PCOD9119921
Probable space group: C 2
;
_chemical_formula_sum "Si O2"
_cell_formula_units_Z 28
_cell_length_a 17.757192
_cell_length_b 14.812015
_cell_length_c 8.981850
_cell_angle_alpha 90.000000
_cell_angle_beta 34.738354
_cell_angle_gamma 90.000000
_cell_volume 1346.168255
_symmetry_space_group_name_H-M "C 2"
_symmetry_group_IT_number 5
_symmetry_cell_setting 'monoclinic'
loop_
_space_group_symop_operation_xyz
x,y,z
-x,y,-z
1/2+x,1/2+y,z
1/2-x,1/2+y,-z
loop_
_atom_site_type_symbol
_atom_site_label
_atom_site_fract_x
_atom_site_fract_y
_atom_site_fract_z
Si Si1 0.284328 0.397780 0.071993
Si Si2 0.500000 0.249525 0.000000
Si Si3 0.798214 0.671998 0.744301
Si Si4 0.194931 0.369527 0.909061
Si Si5 0.426892 0.418291 0.322244
Si Si6 0.000000 0.465008 0.000000
Si Si7 0.094734 0.697918 0.136328
Si Si8 0.234873 0.509605 0.416878
O O1 0.192752 0.411123 0.077992
O O2 0.427643 0.445299 0.859472
O O3 0.335561 0.295587 0.968225
O O4 0.214534 0.423879 0.339087
O O5 0.569894 0.323097 0.776707
O O6 0.415072 0.187832 0.025831
O O7 0.707647 0.760927 0.889556
O O8 0.823041 0.641113 0.875700
O O9 0.748055 0.594406 0.717945
O O10 0.944924 0.696479 0.442559
O O11 0.332995 0.403427 0.614454
O O12 0.082670 0.404565 0.981933
O O13 0.358266 0.488091 0.322102
O O14 0.893322 0.518234 0.271617
#
# Coordination Sequence:
#
# PCOD9119921 Si02
#       8
#     4   2   4   4   4   2   4   4
#     4  10  18  35  66  86 110 160 212 253 276 358
#     4  10  14  29  61  88 104 138 200 264 264 335
#     4  10  20  35  57  89 124 154 194 261 305 344
#     4  10  20  38  60  86 120 164 205 241 296 369
#     4  10  17  34  61  95 108 149 210 255 291 346
#     4  10  26  41  53  84 130 170 200 226 308 389
#     4   9  18  32  56  91 111 150 208 247 289 347
#     4  11  22  38  57  91 128 154 193 254 314 353
#
# _framework density 20.799778
#
# number of rings (size 3 to 8) (size 9 to 14) (size 15 to 20)
#    0.000    2.000    5.714    0.429    0.000    3.429 
#    2.571    1.429    0.000    0.000    7.429    0.000 
#    0.000    0.000    0.000    0.000    0.000    0.000 
#
# Total GULP energy -77960.200359 kJ/mol
# GULP energy per Si atom -5568.585740 kJ/mol
# Density = 2.075244 g / cm^3
# Si number density = 20.799778 Si / 1000 Ang^3
#
#
#
# Elastic Constant Matrix: (Units=GPa)
#
#
# Indices 1 2 3 4 5 6 
#
# 1 151.8871 38.2790 8.9021 0.0000 11.7608 0.0000
# 2 38.2790 69.7878 4.1490 0.0000 -0.9606 0.0000
# 3 8.9021 4.1490 42.7252 0.0000 -3.1340 0.0000
# 4 0.0000 0.0000 0.0000 19.9038 0.0000 12.1066
# 5 11.7608 -0.9606 -3.1340 0.0000 20.5314 0.0000
# 6 0.0000 0.0000 0.0000 12.1066 0.0000 23.8612
#
#
#
# Elastic Compliance Matrix: (Units=1/GPa)
#
#
# Indices 1 2 3 4 5 6 
#
# 1 0.008208 -0.004475 -0.001655 0.000000 -0.005164 0.000000
# 2 -0.004475 0.016857 -0.000464 0.000000 0.003281 0.000000
# 3 -0.001655 -0.000464 0.024133 0.000000 0.004610 0.000000
# 4 0.000000 0.000000 0.000000 0.072668 0.000000 -0.036870
# 5 -0.005164 0.003281 0.004610 0.000000 0.052521 0.000000
# 6 0.000000 0.000000 0.000000 -0.036870 0.000000 0.060616
#
#
# Mechanical properties :
#
#
# Convention : Reuss Voigt Hill
#
# Bulk Modulus (GPa) = 27.76894 40.78447 34.27671
# Shear Modulus (GPa) = 19.21642 27.06396 23.14019
#
# Velocity S-wave (km/s) = 3.04283 3.61108 3.33907
# Velocity P-wave (km/s) = 5.07195 6.08582 5.60187
#
# Compressibility (1/GPa) = 0.03601145
#
# Stress axis : x y z
#
# Youngs Moduli (GPa) = 121.82512 59.32420 41.43655
#
# Poissons Ratio (x) = 0.26548 0.06856
# Poissons Ratio (y) = 0.54518 0.01922
# Poissons Ratio (z) = 0.20156 0.02751
#
# Static dielectric constant tensor:
#      x y z
#    x 1.812270 0.000000 0.041110 
#    y 0.000000 1.784180 0.000000 
#    z 0.041110 0.000000 1.756690 
# 
# From -- ./inp_files/27707.got.cif
#   From: 2010.05.17/outbox.cif.g08.bks.cpg/sg5_14_cif.got.tgz:27707.got - 2010.06.03 18:56:24.
