data_PCOD9119789
_publ_section_title
;
Structure prediction by ZEFSAII (Michael W. Deem and Ramdas Pophale) SiO2 
 PCOD9119789
Probable space group: P 21
;
_chemical_formula_sum "Si O2"
_cell_formula_units_Z 10
_cell_length_a 12.200072
_cell_length_b 5.199861
_cell_length_c 17.957046
_cell_angle_alpha 90.000000
_cell_angle_beta 160.662400
_cell_angle_gamma 90.000000
_cell_volume 377.217980
_symmetry_space_group_name_H-M "P 21"
_symmetry_group_IT_number 4
_symmetry_cell_setting 'monoclinic'
loop_
_space_group_symop_operation_xyz
x,y,z
-x,1/2+y,-z
loop_
_atom_site_type_symbol
_atom_site_label
_atom_site_fract_x
_atom_site_fract_y
_atom_site_fract_z
Si Si1 0.632328 0.625000 0.543809
Si Si2 0.521830 0.903649 0.205589
Si Si3 0.243373 0.300433 0.926980
Si Si4 0.221728 0.578736 0.133250
Si Si5 0.896732 0.601902 0.323402
O O1 0.462759 0.399059 0.483675
O O2 0.494284 0.601818 0.372156
O O3 0.017719 0.551872 0.792450
O O4 0.754828 0.031879 0.417239
O O5 0.383207 0.652178 0.158048
O O6 0.746377 0.824864 0.279299
O O7 0.252311 0.101989 0.001090
O O8 0.095669 0.172292 0.757953
O O9 0.622317 0.378808 0.155094
O O10 0.046338 0.304707 0.025351
#
# Coordination Sequence:
#
# PCOD9119789 Si02
#       5
#     2   2   2   2   2
#     4  12  31  54  84 120 161 220 277 343 412 486
#     4  12  29  51  82 118 165 212 276 338 408 492
#     4  12  29  51  82 118 165 212 276 338 408 492
#     4  12  31  54  84 120 161 220 277 343 412 486
#     4  12  28  50  80 120 156 218 264 340 414 484
#
# _framework density 26.509871
#
# number of rings (size 3 to 8) (size 9 to 14) (size 15 to 20)
#    0.000    0.000    4.000    2.400   22.400    0.000 
#    0.000    0.000    0.000    0.000    0.000    0.000 
#    0.000    0.000    0.000    0.000    0.000    0.000 
#
# Total GULP energy -56228.180870 kJ/mol
# GULP energy per Si atom -5622.818087 kJ/mol
# Density = 2.644953 g / cm^3
# Si number density = 26.509871 Si / 1000 Ang^3
#
#
#
# Elastic Constant Matrix: (Units=GPa)
#
#
# Indices 1 2 3 4 5 6 
#
# 1 114.3463 19.5094 57.0913 0.0000 -34.0138 0.0000
# 2 19.5094 68.5685 20.2381 0.0000 -1.5917 0.0000
# 3 57.0913 20.2381 143.3253 0.0000 -44.4096 0.0000
# 4 0.0000 0.0000 0.0000 53.3889 0.0000 -1.2688
# 5 -34.0138 -1.5917 -44.4096 0.0000 63.2103 0.0000
# 6 0.0000 0.0000 0.0000 -1.2688 0.0000 52.8525
#
#
#
# Elastic Compliance Matrix: (Units=1/GPa)
#
#
# Indices 1 2 3 4 5 6 
#
# 1 0.011957 -0.002380 -0.003134 0.000000 0.004173 0.000000
# 2 -0.002380 0.015795 -0.001989 0.000000 -0.002280 0.000000
# 3 -0.003134 -0.001989 0.010186 0.000000 0.005420 0.000000
# 4 0.000000 0.000000 0.000000 0.018741 0.000000 0.000450
# 5 0.004173 -0.002280 0.005420 0.000000 0.021816 0.000000
# 6 0.000000 0.000000 0.000000 0.000450 0.000000 0.018931
#
#
# Mechanical properties :
#
#
# Convention : Reuss Voigt Hill
#
# Bulk Modulus (GPa) = 43.60715 57.76864 50.68789
# Shear Modulus (GPa) = 41.63996 49.18374 45.41185
#
# Velocity S-wave (km/s) = 3.96755 4.31199 4.14335
# Velocity P-wave (km/s) = 6.12158 6.82859 6.48473
#
# Compressibility (1/GPa) = 0.02293202
#
# Stress axis : x y z
#
# Youngs Moduli (GPa) = 83.62980 63.31003 98.17759
#
# Poissons Ratio (x) = 0.15070 0.30770
# Poissons Ratio (y) = 0.19906 0.19525
# Poissons Ratio (z) = 0.26210 0.12591
#
# Static dielectric constant tensor:
#      x y z
#    x 2.020590 0.000000 0.030050 
#    y 0.000000 2.091880 0.000000 
#    z 0.030050 0.000000 2.008460 
# 
# From -- ./inp_files/15108.got.cif
#   From: 2010.05.17/outbox.cif.g08.bks.cpg/sg4_8_cif.got.tgz:15108.got - 2010.06.03 18:43:04.
