data_PCOD9119074
_publ_section_title
;
Structure prediction by ZEFSAII (Michael W. Deem and Ramdas Pophale) SiO2 
 PCOD9119074
Probable space group: P 21
;
_chemical_formula_sum "Si O2"
_cell_formula_units_Z 12
_cell_length_a 9.904398
_cell_length_b 10.696255
_cell_length_c 10.785422
_cell_angle_alpha 90.000000
_cell_angle_beta 26.986609
_cell_angle_gamma 90.000000
_cell_volume 518.494880
_symmetry_space_group_name_H-M "P 21"
_symmetry_group_IT_number 4
_symmetry_cell_setting 'monoclinic'
loop_
_space_group_symop_operation_xyz
x,y,z
-x,1/2+y,-z
loop_
_atom_site_type_symbol
_atom_site_label
_atom_site_fract_x
_atom_site_fract_y
_atom_site_fract_z
Si Si1 0.700617 0.214160 0.396395
Si Si2 0.772372 0.437302 0.700062
Si Si3 0.227678 0.207119 0.299916
Si Si4 0.700571 0.930264 0.396412
Si Si5 0.366717 0.269438 0.908902
Si Si6 0.366658 0.874973 0.908928
O O1 0.500029 0.322219 0.499993
O O2 0.042159 0.257659 0.115342
O O3 0.672716 0.072216 0.368580
O O4 0.595277 0.210009 0.625645
O O5 0.904102 0.572213 0.563205
O O6 0.000033 0.322214 0.499979
O O7 0.497781 0.405751 0.833746
O O8 0.658586 0.435585 0.934595
O O9 0.341490 0.208829 0.065366
O O10 0.502263 0.238663 0.166241
O O11 0.595217 0.934402 0.625673
O O12 0.042103 0.886751 0.115365
#
# Coordination Sequence:
#
# PCOD9119074 Si02
#       6
#     2   2   2   2   2   2
#     4  12  26  46  71  98 136 183 231 284 339 403
#     4  11  24  43  73 107 141 180 225 282 346 412
#     4  11  24  43  73 107 141 180 225 282 346 412
#     4  12  26  46  71  98 136 183 231 284 339 403
#     4  11  25  45  69 102 140 181 223 277 347 409
#     4  11  25  45  69 102 140 181 223 277 347 409
#
# _framework density 23.143913000000001
#
# number of rings (size 3 to 8) (size 9 to 14) (size 15 to 20)
#    0.000    0.667    3.333    4.000    0.000    9.333 
#    0.000    0.000    0.000    0.000    0.000    0.000 
#    0.000    0.000    0.000    0.000    0.000    0.000 
#
# Total GULP energy -67075.258473 kJ/mol
# GULP energy per Si atom -5589.604873 kJ/mol
# Density = 2.309124 g / cm^3
# Si number density = 23.143913 Si / 1000 Ang^3
#
#
#
# Elastic Constant Matrix: (Units=GPa)
#
#
# Indices 1 2 3 4 5 6 
#
# 1 54.5013 55.6914 7.3608 0.0000 -5.4433 0.0000
# 2 55.6914 216.9022 46.0345 0.0000 -27.8481 0.0000
# 3 7.3608 46.0345 112.3223 0.0000 -6.8200 0.0000
# 4 0.0000 0.0000 0.0000 25.1558 0.0000 -9.9065
# 5 -5.4433 -27.8481 -6.8200 0.0000 47.8923 0.0000
# 6 0.0000 0.0000 0.0000 -9.9065 0.0000 10.9562
#
#
#
# Elastic Compliance Matrix: (Units=1/GPa)
#
#
# Indices 1 2 3 4 5 6 
#
# 1 0.025034 -0.006778 0.001080 0.000000 -0.000942 0.000000
# 2 -0.006778 0.007246 -0.002337 0.000000 0.003110 0.000000
# 3 0.001080 -0.002337 0.009800 0.000000 0.000160 0.000000
# 4 0.000000 0.000000 0.000000 0.061735 0.000000 0.055820
# 5 -0.000942 0.003110 0.000160 0.000000 0.022604 0.000000
# 6 0.000000 0.000000 0.000000 0.055820 0.000000 0.141745
#
#
# Mechanical properties :
#
#
# Convention : Reuss Voigt Hill
#
# Bulk Modulus (GPa) = 38.44579 66.87769 52.66174
# Shear Modulus (GPa) = 17.07053 35.11012 26.09033
#
# Velocity S-wave (km/s) = 2.71879 3.89914 3.36118
# Velocity P-wave (km/s) = 5.14815 7.01643 6.15360
#
# Compressibility (1/GPa) = 0.02601065
#
# Stress axis : x y z
#
# Youngs Moduli (GPa) = 39.94547 138.00919 102.04585
#
# Poissons Ratio (x) = 0.93541 -0.11022
# Poissons Ratio (y) = 0.27075 0.23845
# Poissons Ratio (z) = -0.04315 0.32248
#
# Static dielectric constant tensor:
#      x y z
#    x 1.906090 0.000000 -0.041750 
#    y 0.000000 1.900860 0.000000 
#    z -0.041750 0.000000 1.874640 
# 
# From -- ./inp_files/11119.got.cif
#   From: 2010.05.17/outbox.cif.g08.bks.cpg/sg4_6_cif.got.tgz:11119.got - 2010.06.03 18:43:04.
