data_PCOD9119678
_publ_section_title
;
Structure prediction by ZEFSAII (Michael W. Deem and Ramdas Pophale) SiO2 
 PCOD9119678
Probable space group: P 21
;
_chemical_formula_sum "Si O2"
_cell_formula_units_Z 14
_cell_length_a 19.080152
_cell_length_b 5.002733
_cell_length_c 19.088254
_cell_angle_alpha 90.000000
_cell_angle_beta 16.779223
_cell_angle_gamma 90.000000
_cell_volume 525.991855
_symmetry_space_group_name_H-M "P 21"
_symmetry_group_IT_number 4
_symmetry_cell_setting 'monoclinic'
loop_
_space_group_symop_operation_xyz
x,y,z
-x,1/2+y,-z
loop_
_atom_site_type_symbol
_atom_site_label
_atom_site_fract_x
_atom_site_fract_y
_atom_site_fract_z
Si Si1 0.972370 0.453320 0.480715
Si Si2 0.306956 0.978293 0.494478
Si Si3 0.376592 0.935008 0.855077
Si Si4 0.701831 0.205485 0.618769
Si Si5 0.943309 0.196487 0.736937
Si Si6 0.340690 0.494175 0.668032
Si Si7 0.958481 0.720956 0.931010
O O1 0.744947 0.343972 0.653202
O O2 0.133168 0.579969 0.263768
O O3 0.920175 0.700800 0.581555
O O4 0.434088 0.716885 0.341299
O O5 0.153903 0.915916 0.708187
O O6 0.446775 0.247941 0.363018
O O7 0.162926 0.986698 0.554590
O O8 0.452081 0.033871 0.864649
O O9 0.232191 0.671880 0.030280
O O10 0.148004 0.050387 0.029805
O O11 0.912128 0.975521 0.408175
O O12 0.482933 0.772651 0.533868
O O13 0.101837 0.542027 0.849897
O O14 0.251258 0.380694 0.827856
#
# Coordination Sequence:
#
# PCOD9119678 Si02
#       7
#     2   2   2   2   2   2   2
#     4   9  20  42  78 111 162 220 259 323 403 471
#     4   9  26  48  71 119 149 194 263 329 387 470
#     4  12  25  49  82 113 160 202 264 344 399 460
#     4   8  24  43  73 122 150 198 272 329 382 476
#     4   8  24  41  73 115 152 202 265 325 390 468
#     4  12  32  60  80 115 166 210 269 329 396 506
#     4  12  31  53  81 119 153 214 264 325 415 471
#
# _framework density 26.616379999999999
#
# number of rings (size 3 to 8) (size 9 to 14) (size 15 to 20)
#    1.714    0.000    0.000    0.857   10.000    9.143 
#    0.000    0.000    6.286    0.000    3.714    0.000 
#    0.000    0.000    0.000    0.000    0.000    0.000 
#
# Total GULP energy -78199.573341 kJ/mol
# GULP energy per Si atom -5585.683810 kJ/mol
# Density = 2.655580 g / cm^3
# Si number density = 26.616380 Si / 1000 Ang^3
#
#
#
# Elastic Constant Matrix: (Units=GPa)
#
#
# Indices 1 2 3 4 5 6 
#
# 1 132.1000 50.3472 25.6213 0.0000 10.2015 0.0000
# 2 50.3472 177.7306 36.3885 0.0000 3.3894 0.0000
# 3 25.6213 36.3885 65.7353 0.0000 1.0421 0.0000
# 4 0.0000 0.0000 0.0000 38.3739 0.0000 4.4715
# 5 10.2015 3.3894 1.0421 0.0000 22.8161 0.0000
# 6 0.0000 0.0000 0.0000 4.4715 0.0000 49.5174
#
#
#
# Elastic Compliance Matrix: (Units=1/GPa)
#
#
# Indices 1 2 3 4 5 6 
#
# 1 0.009080 -0.002019 -0.002364 0.000000 -0.003652 0.000000
# 2 -0.002019 0.006808 -0.002983 0.000000 0.000027 0.000000
# 3 -0.002364 -0.002983 0.017774 0.000000 0.000688 0.000000
# 4 0.000000 0.000000 0.000000 0.026336 0.000000 -0.002378
# 5 -0.003652 0.000027 0.000688 0.000000 0.045426 0.000000
# 6 0.000000 0.000000 0.000000 -0.002378 0.000000 0.020410
#
#
# Mechanical properties :
#
#
# Convention : Reuss Voigt Hill
#
# Bulk Modulus (GPa) = 52.81903 66.69777 59.75840
# Shear Modulus (GPa) = 34.04258 39.68874 36.86566
#
# Velocity S-wave (km/s) = 3.58020 3.86572 3.72570
# Velocity P-wave (km/s) = 6.08096 6.71106 6.40377
#
# Compressibility (1/GPa) = 0.01893257
#
# Stress axis : x y z
#
# Youngs Moduli (GPa) = 110.13440 146.87684 56.26213
#
# Poissons Ratio (x) = 0.29647 0.13299
# Poissons Ratio (y) = 0.22231 0.16781
# Poissons Ratio (z) = 0.26033 0.43807
#
# Static dielectric constant tensor:
#      x y z
#    x 2.166550 0.000000 -0.126520 
#    y 0.000000 2.057700 0.000000 
#    z -0.126520 0.000000 2.209280 
# 
# From -- ./inp_files/15302.got.cif
#   From: 2010.05.17/outbox.cif.g08.bks.cpg/sg4_8_cif.got.tgz:15302.got - 2010.06.03 18:43:04.
