data_PCOD9119824
_publ_section_title
;
Structure prediction by ZEFSAII (Michael W. Deem and Ramdas Pophale) SiO2 
 PCOD9119824
Probable space group: P 21
;
_chemical_formula_sum "Si O2"
_cell_formula_units_Z 16
_cell_length_a 30.000000
_cell_length_b 6.000000
_cell_length_c 24.000000
_cell_angle_alpha 90.000000
_cell_angle_beta 10.000000
_cell_angle_gamma 90.000000
_cell_volume 750.160128
_symmetry_space_group_name_H-M "P 21"
_symmetry_group_IT_number 4
_symmetry_cell_setting 'monoclinic'
loop_
_space_group_symop_operation_xyz
x,y,z
-x,1/2+y,-z
loop_
_atom_site_type_symbol
_atom_site_label
_atom_site_fract_x
_atom_site_fract_y
_atom_site_fract_z
Si Si1 0.945733 0.693030 0.759337
Si Si2 0.537241 0.376641 0.927221
Si Si3 0.297970 0.797493 0.906399
Si Si4 0.292882 0.408470 0.841102
Si Si5 0.563537 0.957348 0.165020
Si Si6 0.751878 0.125431 0.308966
Si Si7 0.858194 0.984118 0.683459
Si Si8 0.004658 0.880077 0.897456
O O1 0.180479 0.816453 0.442471
O O2 0.948758 0.431406 0.767132
O O3 0.889120 0.785782 0.890335
O O4 0.699889 0.736743 0.022431
O O5 0.548910 0.622150 0.944873
O O6 0.347086 0.438833 0.111751
O O7 0.241376 0.662895 0.919823
O O8 0.369729 0.638339 0.869408
O O9 0.539024 0.947715 0.591017
O O10 0.579908 0.340903 0.505184
O O11 0.225757 0.343387 0.861606
O O12 0.255551 0.934216 0.550489
O O13 0.704401 0.999444 0.932308
O O14 0.924052 0.175265 0.150524
O O15 0.915107 0.058896 0.054034
O O16 0.019073 0.738240 0.481724
#
# Coordination Sequence:
#
# PCOD9119824 Si02
#       8
#     2   2   2   2   2   2   2   2
#     4  10  22  45  72 100 145 182 240 298 367 437
#     4  12  27  47  74 110 148 200 243 309 384 444
#     4  10  21  46  70  97 142 185 233 303 357 426
#     4  10  24  44  66  99 136 188 240 297 357 437
#     4  11  23  45  72 104 144 184 236 302 368 431
#     4  11  25  44  64 104 141 184 241 300 358 436
#     4  12  28  49  75 112 149 193 253 311 372 453
#     4  12  24  44  71  98 143 188 238 296 371 434
#
# _framework density 21.328779999999998
#
# number of rings (size 3 to 8) (size 9 to 14) (size 15 to 20)
#    0.000    1.000    3.750    3.750    8.750    0.000 
#    9.000    0.000    0.000    0.000    0.000    0.000 
#    0.000    0.000    0.000    0.000    0.000    0.000 
#
# Total GULP energy -89092.495361 kJ/mol
# GULP energy per Si atom -5568.280960 kJ/mol
# Density = 2.128023 g / cm^3
# Si number density = 21.328780 Si / 1000 Ang^3
#
#
#
# Elastic Constant Matrix: (Units=GPa)
#
#
# Indices 1 2 3 4 5 6 
#
# 1 123.9998 21.0828 31.5703 0.0000 6.1369 0.0000
# 2 21.0828 74.2434 29.4195 0.0000 5.3303 0.0000
# 3 31.5703 29.4195 85.0049 0.0000 22.6780 0.0000
# 4 0.0000 0.0000 0.0000 37.0024 0.0000 8.6060
# 5 6.1369 5.3303 22.6780 0.0000 42.4810 0.0000
# 6 0.0000 0.0000 0.0000 8.6060 0.0000 30.8595
#
#
#
# Elastic Compliance Matrix: (Units=1/GPa)
#
#
# Indices 1 2 3 4 5 6 
#
# 1 0.009044 -0.001415 -0.002994 0.000000 0.000470 0.000000
# 2 -0.001415 0.015874 -0.005237 0.000000 0.001009 0.000000
# 3 -0.002994 -0.005237 0.016789 0.000000 -0.007873 0.000000
# 4 0.000000 0.000000 0.000000 0.028900 0.000000 -0.008059
# 5 0.000470 0.001009 -0.007873 0.000000 0.027548 0.000000
# 6 0.000000 0.000000 0.000000 -0.008059 0.000000 0.034653
#
#
# Mechanical properties :
#
#
# Convention : Reuss Voigt Hill
#
# Bulk Modulus (GPa) = 44.61647 49.71036 47.16341
# Shear Modulus (GPa) = 31.33353 35.48028 33.40690
#
# Velocity S-wave (km/s) = 3.83701 4.08302 3.96192
# Velocity P-wave (km/s) = 6.37134 6.75169 6.56427
#
# Compressibility (1/GPa) = 0.02241325
#
# Stress axis : x y z
#
# Youngs Moduli (GPa) = 110.56663 62.99589 59.56252
#
# Poissons Ratio (x) = 0.08917 0.17835
# Poissons Ratio (y) = 0.15650 0.31194
# Poissons Ratio (z) = 0.33108 0.32992
#
# Static dielectric constant tensor:
#      x y z
#    x 1.751820 0.000000 -0.012630 
#    y 0.000000 1.921130 0.000000 
#    z -0.012630 0.000000 1.800450 
# 
# From -- ./inp_files/16244.got.cif
#   From: 2010.05.17/outbox.ucp.g08.bks.cvg/sg4_9_cif.got.tgz:16244.got - 2010.06.11 12:51:24.
