data_PCOD9119337
_publ_section_title
;
Structure prediction by ZEFSAII (Michael W. Deem and Ramdas Pophale) SiO2 
 PCOD9119337
Probable space group: P 21
;
_chemical_formula_sum "Si O2"
_cell_formula_units_Z 14
_cell_length_a 8.776173
_cell_length_b 4.890970
_cell_length_c 24.003531
_cell_angle_alpha 90.000000
_cell_angle_beta 30.075034
_cell_angle_gamma 90.000000
_cell_volume 516.331861
_symmetry_space_group_name_H-M "P 21"
_symmetry_group_IT_number 4
_symmetry_cell_setting 'monoclinic'
loop_
_space_group_symop_operation_xyz
x,y,z
-x,1/2+y,-z
loop_
_atom_site_type_symbol
_atom_site_label
_atom_site_fract_x
_atom_site_fract_y
_atom_site_fract_z
Si Si1 0.326720 0.851000 0.078035
Si Si2 0.834852 0.319806 0.074961
Si Si3 0.108427 0.559079 0.592384
Si Si4 0.791787 0.452294 0.214384
Si Si5 0.104927 0.423280 0.433305
Si Si6 0.734975 0.186507 0.778523
Si Si7 0.705910 0.312802 0.359846
O O1 0.332707 0.851695 0.143096
O O2 0.024124 0.700103 0.151461
O O3 0.591449 0.643097 0.973265
O O4 0.844708 0.316103 0.138320
O O5 0.528384 0.467710 0.150927
O O6 0.898474 0.020986 0.031182
O O7 0.369482 0.432134 0.471456
O O8 0.812552 0.383013 0.701935
O O9 0.269287 0.581151 0.601772
O O10 0.012860 0.833298 0.590312
O O11 0.440929 0.545503 0.323720
O O12 0.796500 0.259570 0.267753
O O13 0.098505 0.136330 0.468623
O O14 0.039891 0.021974 0.698366
#
# Coordination Sequence:
#
# PCOD9119337 Si02
#       7
#     2   2   2   2   2   2   2
#     4  11  26  50  76 112 149 195 265 326 378 444
#     4  12  29  52  77 113 153 201 262 323 388 449
#     4  12  26  46  76 110 162 199 253 306 385 461
#     4  11  27  49  80 113 153 205 254 318 384 458
#     4  12  30  49  78 116 158 202 253 307 380 468
#     4  11  27  46  78 108 149 206 250 316 388 450
#     4  11  25  46  75 114 150 204 251 310 377 464
#
# _framework density 27.114343999999999
#
# number of rings (size 3 to 8) (size 9 to 14) (size 15 to 20)
#    0.000    0.571    2.857    2.571   14.000    1.143 
#    2.571    0.000    0.000    0.000    0.000    0.000 
#    0.000    0.000    0.000    0.000    0.000    0.000 
#
# Total GULP energy -78596.905042 kJ/mol
# GULP energy per Si atom -5614.064646 kJ/mol
# Density = 2.705263 g / cm^3
# Si number density = 27.114344 Si / 1000 Ang^3
#
#
#
# Elastic Constant Matrix: (Units=GPa)
#
#
# Indices 1 2 3 4 5 6 
#
# 1 154.6072 24.5971 50.9503 0.0000 27.0721 0.0000
# 2 24.5971 83.7061 20.2521 0.0000 10.7038 0.0000
# 3 50.9503 20.2521 147.8159 0.0000 16.2883 0.0000
# 4 0.0000 0.0000 0.0000 40.5732 0.0000 7.4644
# 5 27.0721 10.7038 16.2883 0.0000 73.6412 0.0000
# 6 0.0000 0.0000 0.0000 7.4644 0.0000 51.5677
#
#
#
# Elastic Compliance Matrix: (Units=1/GPa)
#
#
# Indices 1 2 3 4 5 6 
#
# 1 0.007825 -0.001477 -0.002257 0.000000 -0.002163 0.000000
# 2 -0.001477 0.012789 -0.001126 0.000000 -0.001067 0.000000
# 3 -0.002257 -0.001126 0.007777 0.000000 -0.000727 0.000000
# 4 0.000000 0.000000 0.000000 0.025321 0.000000 -0.003665
# 5 -0.002163 -0.001067 -0.000727 0.000000 0.014690 0.000000
# 6 0.000000 0.000000 0.000000 -0.003665 0.000000 0.019923
#
#
# Mechanical properties :
#
#
# Convention : Reuss Voigt Hill
#
# Bulk Modulus (GPa) = 53.55107 64.19202 58.87155
# Shear Modulus (GPa) = 47.95292 52.51174 50.23233
#
# Velocity S-wave (km/s) = 4.20997 4.40554 4.30887
# Velocity P-wave (km/s) = 6.58975 7.04304 6.82016
#
# Compressibility (1/GPa) = 0.01867376
#
# Stress axis : x y z
#
# Youngs Moduli (GPa) = 127.78931 78.19023 128.57885
#
# Poissons Ratio (x) = 0.11548 0.29015
# Poissons Ratio (y) = 0.18874 0.14473
# Poissons Ratio (z) = 0.28837 0.08801
#
# Static dielectric constant tensor:
#      x y z
#    x 2.114670 0.000000 -0.032270 
#    y 0.000000 2.086980 0.000000 
#    z -0.032270 0.000000 2.124540 
# 
# From -- ./inp_files/16028.got.cif
#   From: 2010.05.17/outbox.cif.g08.bks.cpg/sg4_9_cif.got.tgz:16028.got - 2010.06.03 18:43:04.
