data_PCOD9119183
_publ_section_title
;
Structure prediction by ZEFSAII (Michael W. Deem and Ramdas Pophale) SiO2 
 PCOD9119183
Probable space group: P 21
;
_chemical_formula_sum "Si O2"
_cell_formula_units_Z 14
_cell_length_a 7.277963
_cell_length_b 11.382100
_cell_length_c 11.397791
_cell_angle_alpha 90.000000
_cell_angle_beta 43.510095
_cell_angle_gamma 90.000000
_cell_volume 650.048488
_symmetry_space_group_name_H-M "P 21"
_symmetry_group_IT_number 4
_symmetry_cell_setting 'monoclinic'
loop_
_space_group_symop_operation_xyz
x,y,z
-x,1/2+y,-z
loop_
_atom_site_type_symbol
_atom_site_label
_atom_site_fract_x
_atom_site_fract_y
_atom_site_fract_z
Si Si1 0.987820 0.751380 0.035010
Si Si2 0.211289 0.659907 0.694704
Si Si3 0.641784 0.058559 0.753853
Si Si4 0.393083 0.819665 0.237176
Si Si5 0.332339 0.076468 0.661279
Si Si6 0.901915 0.380518 0.390136
Si Si7 0.182018 0.956580 0.112629
O O1 0.172546 0.701531 0.846044
O O2 0.121590 0.854807 0.046819
O O3 0.709957 0.797706 0.105939
O O4 0.899290 0.649570 0.166842
O O5 0.512817 0.653807 0.507420
O O6 0.055239 0.752079 0.684042
O O7 0.083523 0.531215 0.740770
O O8 0.742415 0.191812 0.721027
O O9 0.541917 0.049619 0.667062
O O10 0.841739 0.954746 0.691337
O O11 0.388991 0.044641 0.955777
O O12 0.286488 0.868240 0.409780
O O13 0.311735 0.903043 0.168816
O O14 0.233128 0.958263 0.648335
#
# Coordination Sequence:
#
# PCOD9119183 Si02
#       7
#     2   2   2   2   2   2   2
#     4  11  24  49  69 104 142 179 232 287 339 412
#     4  12  24  44  76 102 136 184 230 286 344 418
#     4  11  24  47  69 103 141 180 231 290 339 412
#     4  11  24  47  69 103 141 180 231 290 339 412
#     4  11  24  49  69 104 142 179 232 287 339 412
#     4  12  25  46  73 101 143 181 230 286 351 405
#     4  12  25  46  73 101 143 181 230 286 351 405
#
# _framework density 21.536854000000002
#
# number of rings (size 3 to 8) (size 9 to 14) (size 15 to 20)
#    0.000    0.571    5.714    4.286    0.000    0.000 
#   15.429    1.429    0.000    0.000    0.000    0.000 
#    0.000    0.000    0.000    0.000    0.000    0.000 
#
# Total GULP energy -78354.228411 kJ/mol
# GULP energy per Si atom -5596.730601 kJ/mol
# Density = 2.148784 g / cm^3
# Si number density = 21.536854 Si / 1000 Ang^3
#
#
#
# Elastic Constant Matrix: (Units=GPa)
#
#
# Indices 1 2 3 4 5 6 
#
# 1 35.1647 20.4930 28.5065 0.0000 26.9509 0.0000
# 2 20.4930 65.5426 12.9116 0.0000 25.5383 0.0000
# 3 28.5065 12.9116 110.4820 0.0000 32.3997 0.0000
# 4 0.0000 0.0000 0.0000 37.9266 0.0000 13.2424
# 5 26.9509 25.5383 32.3997 0.0000 29.7666 0.0000
# 6 0.0000 0.0000 0.0000 13.2424 0.0000 21.4623
#
#
#
# Elastic Compliance Matrix: (Units=1/GPa)
#
#
# Indices 1 2 3 4 5 6 
#
# 1 0.094678 0.006501 0.002329 0.000000 -0.093835 0.000000
# 2 0.006501 0.025025 0.005024 0.000000 -0.032824 0.000000
# 3 0.002329 0.005024 0.014315 0.000000 -0.022001 0.000000
# 4 0.000000 0.000000 0.000000 0.033607 0.000000 -0.020736
# 5 -0.093835 -0.032824 -0.022001 0.000000 0.170662 0.000000
# 6 0.000000 0.000000 0.000000 -0.020736 0.000000 0.059387
#
#
# Mechanical properties :
#
#
# Convention : Reuss Voigt Hill
#
# Bulk Modulus (GPa) = 6.18332 37.22349 21.70341
# Shear Modulus (GPa) = 11.79597 27.78298 19.78947
#
# Velocity S-wave (km/s) = 2.34286 3.59558 3.03457
# Velocity P-wave (km/s) = 3.19311 5.87867 4.73047
#
# Compressibility (1/GPa) = 0.16172546
#
# Stress axis : x y z
#
# Youngs Moduli (GPa) = 10.56215 39.96041 69.85710
#
# Poissons Ratio (x) = -0.25977 -0.16272
# Poissons Ratio (y) = -0.06866 -0.35097
# Poissons Ratio (z) = -0.02460 -0.20077
#
# Static dielectric constant tensor:
#      x y z
#    x 1.823730 0.000000 -0.022700 
#    y 0.000000 1.794170 0.000000 
#    z -0.022700 0.000000 1.787600 
# 
# From -- ./inp_files/10994.got.cif
#   From: 2010.05.17/outbox.cif.g08.bks.cpg/sg4_6_cif.got.tgz:10994.got - 2010.06.03 18:43:04.
