data_PCOD9119981
_publ_section_title
;
Structure prediction by ZEFSAII (Michael W. Deem and Ramdas Pophale) SiO2 
 PCOD9119981
Probable space group: C 2
;
_chemical_formula_sum "Si O2"
_cell_formula_units_Z 28
_cell_length_a 12.196581
_cell_length_b 14.780312
_cell_length_c 7.105246
_cell_angle_alpha 90.000000
_cell_angle_beta 119.727608
_cell_angle_gamma 90.000000
_cell_volume 1112.287297
_symmetry_space_group_name_H-M "C 2"
_symmetry_group_IT_number 5
_symmetry_cell_setting 'monoclinic'
loop_
_space_group_symop_operation_xyz
x,y,z
-x,y,-z
1/2+x,1/2+y,z
1/2-x,1/2+y,-z
loop_
_atom_site_type_symbol
_atom_site_label
_atom_site_fract_x
_atom_site_fract_y
_atom_site_fract_z
Si Si1 0.999850 0.986550 0.769861
Si Si2 0.045616 0.172801 0.824630
Si Si3 0.683918 0.170483 0.840153
Si Si4 0.746970 0.379968 0.965094
Si Si5 0.280482 0.354144 0.609179
Si Si6 0.579771 0.184996 0.395181
Si Si7 0.505156 0.875800 0.296851
O O1 0.890894 0.917091 0.629325
O O2 0.970201 0.088103 0.680683
O O3 0.132892 0.945660 0.816891
O O4 0.000000 0.990784 0.000000
O O5 0.031633 0.269149 0.717715
O O6 0.189809 0.137125 0.954550
O O7 0.000000 0.189479 0.000000
O O8 0.668068 0.129036 0.614421
O O9 0.546482 0.150780 0.815711
O O10 0.717575 0.278752 0.863561
O O11 0.738932 0.372082 0.186869
O O12 0.893119 0.410611 0.067543
O O13 0.332370 0.252077 0.640360
O O14 0.153863 0.372165 0.383991
O O15 0.500000 0.233630 0.500000
O O16 0.500000 0.920076 0.500000
#
# Coordination Sequence:
#
# PCOD9119981 Si02
#       7
#     4   4   4   4   4   4   4
#     4   9  17  28  49  70  93 123 160 188 235 279
#     4  10  18  30  48  68  97 130 154 191 236 287
#     4   8  16  28  43  67  95 115 158 194 225 275
#     4   9  16  30  48  70  92 121 160 193 228 280
#     4  10  16  29  50  69  94 124 156 200 225 274
#     4   8  16  26  44  68  96 111 160 194 228 268
#     4   9  19  31  50  71  96 120 160 196 235 269
#
# _framework density 25.173352999999999
#
# number of rings (size 3 to 8) (size 9 to 14) (size 15 to 20)
#    0.857    2.000    1.429    0.857    0.000    0.000 
#    0.000    2.143   25.143    0.000    0.000    0.000 
#   17.143    0.000    0.000    0.000    0.000    0.000 
#
# Total GULP energy -77951.069560 kJ/mol
# GULP energy per Si atom -5567.933540 kJ/mol
# Density = 2.511606 g / cm^3
# Si number density = 25.173353 Si / 1000 Ang^3
#
#
#
# Elastic Constant Matrix: (Units=GPa)
#
#
# Indices 1 2 3 4 5 6 
#
# 1 56.7421 0.5875 37.9005 0.0000 9.3136 0.0000
# 2 0.5875 50.5585 -3.7408 0.0000 12.9096 0.0000
# 3 37.9005 -3.7408 116.9446 0.0000 31.4348 0.0000
# 4 0.0000 0.0000 0.0000 -2.5805 0.0000 3.0006
# 5 9.3136 12.9096 31.4348 0.0000 59.3774 0.0000
# 6 0.0000 0.0000 0.0000 3.0006 0.0000 -1.3447
#
#
#
# Elastic Compliance Matrix: (Units=1/GPa)
#
#
# Indices 1 2 3 4 5 6 
#
# 1 0.022545 -0.000986 -0.007515 0.000000 0.000656 0.000000
# 2 -0.000986 0.021485 0.002589 0.000000 -0.005887 0.000000
# 3 -0.007515 0.002589 0.012713 0.000000 -0.006115 0.000000
# 4 0.000000 0.000000 0.000000 0.242983 0.000000 0.542220
# 5 0.000656 -0.005887 -0.006115 0.000000 0.021256 0.000000
# 6 0.000000 0.000000 0.000000 0.542220 0.000000 0.466291
#
#
# Mechanical properties :
#
#
# Convention : Reuss Voigt Hill
#
# Bulk Modulus (GPa) = 22.26091 32.63772 27.44931
# Shear Modulus (GPa) = 6.14198 23.72365 14.93282
#
# Velocity S-wave (km/s) = 1.56370 3.07320 2.43821
# Velocity P-wave (km/s) = 3.48173 5.05827 4.34215
#
# Compressibility (1/GPa) = 0.04492180
#
# Stress axis : x y z
#
# Youngs Moduli (GPa) = 44.35481 46.54325 78.66025
#
# Poissons Ratio (x) = 0.04587 0.59111
# Poissons Ratio (y) = 0.04371 -0.20367
# Poissons Ratio (z) = 0.33331 -0.12051
#
# Static dielectric constant tensor:
#      x y z
#    x 2.057460 0.000000 0.044570 
#    y 0.000000 1.943270 0.000000 
#    z 0.044570 0.000000 2.243470 
# 
# From -- ./inp_files/42939.got.cif
#   From: 2010.05.17/outbox.cif.g08.bks.cpg/sg5_22_cif.got.tgz:42939.got - 2010.06.03 18:56:24.
