data_PCOD9119340
_publ_section_title
;
Structure prediction by ZEFSAII (Michael W. Deem and Ramdas Pophale) SiO2 
 PCOD9119340
Probable space group: P 21
;
_chemical_formula_sum "Si O2"
_cell_formula_units_Z 16
_cell_length_a 5.252468
_cell_length_b 13.292773
_cell_length_c 9.271260
_cell_angle_alpha 90.000000
_cell_angle_beta 104.109503
_cell_angle_gamma 90.000000
_cell_volume 627.789565
_symmetry_space_group_name_H-M "P 21"
_symmetry_group_IT_number 4
_symmetry_cell_setting 'monoclinic'
loop_
_space_group_symop_operation_xyz
x,y,z
-x,1/2+y,-z
loop_
_atom_site_type_symbol
_atom_site_label
_atom_site_fract_x
_atom_site_fract_y
_atom_site_fract_z
Si Si1 0.354413 0.948540 0.142730
Si Si2 0.125240 0.637376 0.152731
Si Si3 0.902990 0.523104 0.601830
Si Si4 0.329459 0.256283 0.754703
Si Si5 0.175534 0.349457 0.455176
Si Si6 0.480902 0.487690 0.337121
Si Si7 0.714021 0.133938 0.143776
Si Si8 0.234546 0.857137 0.845839
O O1 0.215374 0.965066 0.275830
O O2 0.597822 0.869957 0.187408
O O3 0.477792 0.054798 0.114466
O O4 0.172312 0.897333 0.996369
O O5 0.387644 0.703912 0.211581
O O6 0.206736 0.539269 0.256530
O O7 0.871214 0.694445 0.174811
O O8 0.123180 0.617744 0.981639
O O9 0.663011 0.555506 0.464577
O O10 0.059916 0.446092 0.522552
O O11 0.099801 0.605133 0.695556
O O12 0.202609 0.266657 0.579568
O O13 0.449384 0.386565 0.427471
O O14 0.004387 0.329638 0.291111
O O15 0.609378 0.447828 0.208461
O O16 0.618607 0.249555 0.127264
#
# Coordination Sequence:
#
# PCOD9119340 Si02
#       8
#     2   2   2   2   2   2   2   2
#     4  12  25  50  77 107 164 204 268 340 405 490
#     4  12  30  47  83 116 158 207 271 331 410 491
#     4  11  25  46  77 107 159 208 265 329 412 481
#     4  12  27  52  77 113 155 212 265 324 410 483
#     4  11  26  48  75 108 153 215 260 339 405 481
#     4  11  26  50  74 112 159 210 265 341 407 487
#     4  12  27  45  75 121 151 220 265 339 408 492
#     4  11  28  46  76 114 157 204 277 333 407 485
#
# _framework density 25.486246999999999
#
# number of rings (size 3 to 8) (size 9 to 14) (size 15 to 20)
#    0.000    0.500    5.000    0.750   10.500    3.000 
#    0.000    0.000    0.000    0.000    0.000    0.000 
#    0.000    0.000    0.000    0.000    0.000    0.000 
#
# Total GULP energy -89617.131903 kJ/mol
# GULP energy per Si atom -5601.070744 kJ/mol
# Density = 2.542824 g / cm^3
# Si number density = 25.486247 Si / 1000 Ang^3
#
#
#
# Elastic Constant Matrix: (Units=GPa)
#
#
# Indices 1 2 3 4 5 6 
#
# 1 66.6847 21.5573 12.5319 0.0000 -2.6885 0.0000
# 2 21.5573 97.7096 44.9677 0.0000 5.9130 0.0000
# 3 12.5319 44.9677 144.6828 0.0000 6.1015 0.0000
# 4 0.0000 0.0000 0.0000 39.4214 0.0000 7.9434
# 5 -2.6885 5.9130 6.1015 0.0000 43.6268 0.0000
# 6 0.0000 0.0000 0.0000 7.9434 0.0000 36.0328
#
#
#
# Elastic Compliance Matrix: (Units=1/GPa)
#
#
# Indices 1 2 3 4 5 6 
#
# 1 0.016263 -0.003504 -0.000384 0.000000 0.001531 0.000000
# 2 -0.003504 0.012751 -0.003599 0.000000 -0.001441 0.000000
# 3 -0.000384 -0.003599 0.008092 0.000000 -0.000668 0.000000
# 4 0.000000 0.000000 0.000000 0.026546 0.000000 -0.005852
# 5 0.001531 -0.001441 -0.000668 0.000000 0.023305 0.000000
# 6 0.000000 0.000000 0.000000 -0.005852 0.000000 0.029043
#
#
# Mechanical properties :
#
#
# Convention : Reuss Voigt Hill
#
# Bulk Modulus (GPa) = 45.18431 51.91011 48.54721
# Shear Modulus (GPa) = 36.14053 39.15090 37.64571
#
# Velocity S-wave (km/s) = 3.76977 3.92364 3.84747
# Velocity P-wave (km/s) = 6.05934 6.39833 6.23114
#
# Compressibility (1/GPa) = 0.02213157
#
# Stress axis : x y z
#
# Youngs Moduli (GPa) = 61.49107 78.42630 123.58502
#
# Poissons Ratio (x) = 0.27479 0.04748
# Poissons Ratio (y) = 0.21545 0.44475
# Poissons Ratio (z) = 0.02362 0.28224
#
# Static dielectric constant tensor:
#      x y z
#    x 1.995140 0.000000 0.063510 
#    y 0.000000 2.108130 0.000000 
#    z 0.063510 0.000000 1.986880 
# 
# From -- ./inp_files/4845.got.cif
#   From: 2010.05.17/outbox.cif.g08.bks.cpg/sg4_3_cif.got.tgz:4845.got - 2010.06.03 18:43:04.
