data_PCOD9119880
_publ_section_title
;
Structure prediction by ZEFSAII (Michael W. Deem and Ramdas Pophale) SiO2 
 PCOD9119880
Probable space group: P 21
;
_chemical_formula_sum "Si O2"
_cell_formula_units_Z 14
_cell_length_a 12.000000
_cell_length_b 9.000000
_cell_length_c 9.000000
_cell_angle_alpha 90.000000
_cell_angle_beta 140.000000
_cell_angle_gamma 90.000000
_cell_volume 624.789557
_symmetry_space_group_name_H-M "P 21"
_symmetry_group_IT_number 4
_symmetry_cell_setting 'monoclinic'
loop_
_space_group_symop_operation_xyz
x,y,z
-x,1/2+y,-z
loop_
_atom_site_type_symbol
_atom_site_label
_atom_site_fract_x
_atom_site_fract_y
_atom_site_fract_z
Si Si1 0.064280 0.633670 0.728623
Si Si2 0.150410 0.634249 0.467714
Si Si3 0.830738 0.444624 0.026147
Si Si4 0.665686 0.300654 0.585449
Si Si5 0.480737 0.434422 0.863984
Si Si6 0.378793 0.525564 0.245906
Si Si7 0.344954 0.111988 0.698885
O O1 0.111029 0.653711 0.602396
O O2 0.083008 0.793682 0.824556
O O3 0.860924 0.592391 0.525727
O O4 0.210470 0.531945 0.962950
O O5 0.231182 0.774223 0.462576
O O6 0.313346 0.521712 0.633921
O O7 0.973293 0.571374 0.209534
O O8 0.778034 0.413024 0.802442
O O9 0.643149 0.450934 0.916692
O O10 0.468488 0.365933 0.372803
O O11 0.666179 0.138326 0.666110
O O12 0.403519 0.272636 0.818204
O O13 0.563907 0.496251 0.098986
O O14 0.545690 0.601897 0.339836
#
# Coordination Sequence:
#
# PCOD9119880 Si02
#       7
#     2   2   2   2   2   2   2
#     4  11  24  44  76 111 142 185 251 322 361 433
#     4  12  25  44  77 111 148 190 257 310 377 445
#     4  11  24  48  68 108 152 192 246 309 365 451
#     4  11  27  48  75 106 148 214 240 301 391 454
#     4  12  23  45  75 105 149 189 242 312 372 434
#     4  11  26  50  73 105 157 190 258 307 375 449
#     4  12  25  43  76 110 144 188 246 313 377 434
#
# _framework density 22.407544999999999
#
# number of rings (size 3 to 8) (size 9 to 14) (size 15 to 20)
#    0.000    0.571    7.143    0.857    4.000    2.286 
#    0.000    7.143    0.000    0.000    0.000    0.000 
#    0.000    0.000    0.000    0.000    0.000    0.000 
#
# Total GULP energy -78246.323955 kJ/mol
# GULP energy per Si atom -5589.023140 kJ/mol
# Density = 2.235654 g / cm^3
# Si number density = 22.407545 Si / 1000 Ang^3
#
#
#
# Elastic Constant Matrix: (Units=GPa)
#
#
# Indices 1 2 3 4 5 6 
#
# 1 97.2280 27.3817 68.5933 0.0000 13.7803 0.0000
# 2 27.3817 66.0298 46.3902 0.0000 -2.4479 0.0000
# 3 68.5933 46.3902 166.7078 0.0000 20.4051 0.0000
# 4 0.0000 0.0000 0.0000 45.6873 0.0000 2.5277
# 5 13.7803 -2.4479 20.4051 0.0000 46.7565 0.0000
# 6 0.0000 0.0000 0.0000 2.5277 0.0000 33.9750
#
#
#
# Elastic Compliance Matrix: (Units=1/GPa)
#
#
# Indices 1 2 3 4 5 6 
#
# 1 0.014997 -0.002696 -0.005136 0.000000 -0.002320 0.000000
# 2 -0.002696 0.019854 -0.004902 0.000000 0.003973 0.000000
# 3 -0.005136 -0.004902 0.009848 0.000000 -0.003041 0.000000
# 4 0.000000 0.000000 0.000000 0.021978 0.000000 -0.001635
# 5 -0.002320 0.003973 -0.003041 0.000000 0.023606 0.000000
# 6 0.000000 0.000000 0.000000 -0.001635 0.000000 0.029555
#
#
# Mechanical properties :
#
#
# Convention : Reuss Voigt Hill
#
# Bulk Modulus (GPa) = 52.00200 68.29956 60.15078
# Shear Modulus (GPa) = 32.95607 37.79046 35.37326
#
# Velocity S-wave (km/s) = 3.83921 4.11116 3.97751
# Velocity P-wave (km/s) = 6.55060 7.28576 6.92794
#
# Compressibility (1/GPa) = 0.01923003
#
# Stress axis : x y z
#
# Youngs Moduli (GPa) = 66.68062 50.36794 101.54259
#
# Poissons Ratio (x) = 0.13581 0.52156
# Poissons Ratio (y) = 0.17980 0.49773
# Poissons Ratio (z) = 0.34249 0.24689
#
# Static dielectric constant tensor:
#      x y z
#    x 1.881150 0.000000 -0.050440 
#    y 0.000000 1.949070 0.000000 
#    z -0.050440 0.000000 1.816200 
# 
# From -- ./inp_files/7604.got.cif
#   From: 2010.05.17/outbox.ucp.g08.bks.cvg/sg4_4_cif.got.tgz:7604.got - 2010.06.11 12:51:24.
