data_PCOD9119202
_publ_section_title
;
Structure prediction by ZEFSAII (Michael W. Deem and Ramdas Pophale) SiO2 
 PCOD9119202
Probable space group: P 21
;
_chemical_formula_sum "Si O2"
_cell_formula_units_Z 14
_cell_length_a 11.104781
_cell_length_b 8.921006
_cell_length_c 6.072764
_cell_angle_alpha 90.000000
_cell_angle_beta 105.516761
_cell_angle_gamma 90.000000
_cell_volume 579.676236
_symmetry_space_group_name_H-M "P 21"
_symmetry_group_IT_number 4
_symmetry_cell_setting 'monoclinic'
loop_
_space_group_symop_operation_xyz
x,y,z
-x,1/2+y,-z
loop_
_atom_site_type_symbol
_atom_site_label
_atom_site_fract_x
_atom_site_fract_y
_atom_site_fract_z
Si Si1 0.064687 0.207170 0.258020
Si Si2 0.490543 0.837484 0.324062
Si Si3 0.709999 0.876533 0.765914
Si Si4 0.074293 0.959220 0.603830
Si Si5 0.557236 0.059962 0.015701
Si Si6 0.903062 0.144092 0.803895
Si Si7 0.290779 0.788701 0.610554
O O1 0.196085 0.238061 0.205557
O O2 0.033428 0.331751 0.427458
O O3 0.060635 0.046037 0.366713
O O4 0.948225 0.231639 0.038122
O O5 0.622728 0.868032 0.507934
O O6 0.391224 0.831784 0.474763
O O7 0.467568 0.976377 0.146327
O O8 0.488947 0.677844 0.193211
O O9 0.804739 0.016062 0.817398
O O10 0.620781 0.916573 0.926029
O O11 0.219934 0.918723 0.707363
O O12 0.027839 0.072259 0.768671
O O13 0.651975 0.161977 0.205198
O O14 0.829735 0.231941 0.582301
#
# Coordination Sequence:
#
# PCOD9119202 Si02
#       7
#     2   2   2   2   2   2   2
#     4  11  27  45  77 113 151 200 255 321 385 465
#     4  12  27  49  75 117 149 213 255 323 387 464
#     4  11  26  48  75 110 154 197 263 315 382 465
#     4  11  26  44  75 110 148 199 254 313 392 451
#     4  12  26  48  80 104 159 210 252 317 396 443
#     4  11  24  47  75 107 151 198 249 318 378 457
#     4  12  26  47  77 111 152 201 262 313 380 471
#
# _framework density 24.151412000000001
#
# number of rings (size 3 to 8) (size 9 to 14) (size 15 to 20)
#    0.000    0.571    4.286    1.714    4.000    5.714 
#    0.000    1.429    0.000    0.000    0.000    0.000 
#    0.000    0.000    0.000    0.000    0.000    0.000 
#
# Total GULP energy -78230.928481 kJ/mol
# GULP energy per Si atom -5587.923463 kJ/mol
# Density = 2.409644 g / cm^3
# Si number density = 24.151412 Si / 1000 Ang^3
#
#
#
# Elastic Constant Matrix: (Units=GPa)
#
#
# Indices 1 2 3 4 5 6 
#
# 1 96.9663 39.2400 53.2501 0.0000 -10.7956 0.0000
# 2 39.2400 70.7225 36.7496 0.0000 -0.5192 0.0000
# 3 53.2501 36.7496 91.3908 0.0000 6.2067 0.0000
# 4 0.0000 0.0000 0.0000 45.5006 0.0000 -3.5807
# 5 -10.7956 -0.5192 6.2067 0.0000 31.2496 0.0000
# 6 0.0000 0.0000 0.0000 -3.5807 0.0000 51.9168
#
#
#
# Elastic Compliance Matrix: (Units=1/GPa)
#
#
# Indices 1 2 3 4 5 6 
#
# 1 0.018396 -0.005427 -0.009085 0.000000 0.008070 0.000000
# 2 -0.005427 0.019571 -0.004665 0.000000 -0.000623 0.000000
# 3 -0.009085 -0.004665 0.018580 0.000000 -0.006906 0.000000
# 4 0.000000 0.000000 0.000000 0.022098 0.000000 0.001524
# 5 0.008070 -0.000623 -0.006906 0.000000 0.036150 0.000000
# 6 0.000000 0.000000 0.000000 0.001524 0.000000 0.019367
#
#
# Mechanical properties :
#
#
# Convention : Reuss Voigt Hill
#
# Bulk Modulus (GPa) = 54.96484 57.50654 56.23569
# Shear Modulus (GPa) = 27.99874 34.38938 31.19406
#
# Velocity S-wave (km/s) = 3.40854 3.77756 3.59779
# Velocity P-wave (km/s) = 6.18860 6.54898 6.37134
#
# Compressibility (1/GPa) = 0.01819345
#
# Stress axis : x y z
#
# Youngs Moduli (GPa) = 54.35824 51.09707 53.82079
#
# Poissons Ratio (x) = 0.27732 0.48894
# Poissons Ratio (y) = 0.29502 0.25107
# Poissons Ratio (z) = 0.49382 0.23837
#
# Static dielectric constant tensor:
#      x y z
#    x 1.963920 0.000000 -0.060020 
#    y 0.000000 2.050910 0.000000 
#    z -0.060020 0.000000 1.919080 
# 
# From -- ./inp_files/2531.got.cif
#   From: 2010.05.17/outbox.cif.g08.bks.cpg/sg4_2_cif.got.tgz:2531.got - 2010.06.03 18:43:04.
