data_PCOD9119949
_publ_section_title
;
Structure prediction by ZEFSAII (Michael W. Deem and Ramdas Pophale) SiO2 
 PCOD9119949
Probable space group: C 2
;
_chemical_formula_sum "Si O2"
_cell_formula_units_Z 28
_cell_length_a 18.541313
_cell_length_b 7.102794
_cell_length_c 11.558709
_cell_angle_alpha 90.000000
_cell_angle_beta 141.791460
_cell_angle_gamma 90.000000
_cell_volume 941.535412
_symmetry_space_group_name_H-M "C 2"
_symmetry_group_IT_number 5
_symmetry_cell_setting 'monoclinic'
loop_
_space_group_symop_operation_xyz
x,y,z
-x,y,-z
1/2+x,1/2+y,z
1/2-x,1/2+y,-z
loop_
_atom_site_type_symbol
_atom_site_label
_atom_site_fract_x
_atom_site_fract_y
_atom_site_fract_z
Si Si1 0.997909 0.085530 0.366355
Si Si2 0.168327 0.262259 0.140605
Si Si3 0.250315 0.697837 0.992246
Si Si4 0.094156 0.776633 0.272383
Si Si5 0.492223 0.135578 0.623448
Si Si6 0.175286 0.819191 0.140881
Si Si7 0.092610 0.235527 0.281732
O O1 0.872221 0.086682 0.144447
O O2 0.000000 0.143226 0.500000
O O3 0.071252 0.245817 0.392216
O O4 0.029359 0.864649 0.408851
O O5 0.177438 0.316808 0.288493
O O6 0.191550 0.040176 0.176287
O O7 0.244702 0.317964 0.123797
O O8 0.034837 0.287859 0.931791
O O9 0.251006 0.768882 0.125476
O O10 0.125243 0.597664 0.828956
O O11 0.179685 0.728201 0.273783
O O12 0.094453 0.619093 0.374264
O O13 0.108458 0.004636 0.302601
O O14 0.958265 0.773497 0.062618
O O15 0.500000 0.072715 0.500000
#
# Coordination Sequence:
#
# PCOD9119949 Si02
#       7
#     4   4   4   4   4   4   4
#     4   9  17  29  45  65  87 110 139 176 213 247
#     4   8  13  22  38  60  82 106 138 173 207 244
#     4  10  16  24  42  66  86 108 140 176 212 248
#     4   7  11  22  39  57  79 106 136 171 207 241
#     4   9  17  29  45  65  87 110 139 176 213 247
#     4   8  13  22  38  60  82 106 138 173 207 244
#     4   7  11  22  39  57  79 106 136 171 207 241
#
# _framework density 29.738655000000001
#
# number of rings (size 3 to 8) (size 9 to 14) (size 15 to 20)
#    0.000    3.714    0.000    4.286    0.000    0.000 
#    0.000    1.429    0.000    3.429    0.000   64.000 
#    0.000    0.000    0.000    0.000    0.000    0.000 
#
# Total GULP energy -78016.907950 kJ/mol
# GULP energy per Si atom -5572.636282 kJ/mol
# Density = 2.967097 g / cm^3
# Si number density = 29.738655 Si / 1000 Ang^3
#
#
#
# Elastic Constant Matrix: (Units=GPa)
#
#
# Indices 1 2 3 4 5 6 
#
# 1 209.7901 -7.8224 17.8462 0.0000 -53.2283 0.0000
# 2 -7.8224 107.4160 -15.8400 0.0000 -11.0468 0.0000
# 3 17.8462 -15.8400 75.5716 0.0000 4.6916 0.0000
# 4 0.0000 0.0000 0.0000 13.0278 0.0000 0.8374
# 5 -53.2283 -11.0468 4.6916 0.0000 78.3571 0.0000
# 6 0.0000 0.0000 0.0000 0.8374 0.0000 15.9658
#
#
#
# Elastic Compliance Matrix: (Units=1/GPa)
#
#
# Indices 1 2 3 4 5 6 
#
# 1 0.006004 0.000647 -0.001547 0.000000 0.004262 0.000000
# 2 0.000647 0.009798 0.001794 0.000000 0.001714 0.000000
# 3 -0.001547 0.001794 0.014076 0.000000 -0.001641 0.000000
# 4 0.000000 0.000000 0.000000 0.077018 0.000000 -0.004039
# 5 0.004262 0.001714 -0.001641 0.000000 0.015997 0.000000
# 6 0.000000 0.000000 0.000000 -0.004039 0.000000 0.062846
#
#
# Mechanical properties :
#
#
# Convention : Reuss Voigt Hill
#
# Bulk Modulus (GPa) = 31.57836 42.34948 36.96392
# Shear Modulus (GPa) = 25.70640 48.04306 36.87473
#
# Velocity S-wave (km/s) = 2.94327 4.02370 3.52513
# Velocity P-wave (km/s) = 4.71086 5.98818 5.38751
#
# Compressibility (1/GPa) = 0.03166726
#
# Stress axis : x y z
#
# Youngs Moduli (GPa) = 166.56045 102.06601 71.04451
#
# Poissons Ratio (x) = -0.06609 0.10988
# Poissons Ratio (y) = -0.10784 -0.12748
# Poissons Ratio (z) = 0.25762 -0.18314
#
# Static dielectric constant tensor:
#      x y z
#    x 2.603550 0.000000 -0.100980 
#    y 0.000000 2.413840 0.000000 
#    z -0.100980 0.000000 2.400860 
# 
# From -- ./inp_files/42778.got.cif
#   From: 2010.05.17/outbox.cif.g08.bks.cpg/sg5_22_cif.got.tgz:42778.got - 2010.06.03 18:56:24.
