data_PCOD9119952
_publ_section_title
;
Structure prediction by ZEFSAII (Michael W. Deem and Ramdas Pophale) SiO2 
 PCOD9119952
Probable space group: C 2
;
_chemical_formula_sum "Si O2"
_cell_formula_units_Z 24
_cell_length_a 7.869617
_cell_length_b 27.798837
_cell_length_c 5.538513
_cell_angle_alpha 90.000000
_cell_angle_beta 122.690225
_cell_angle_gamma 90.000000
_cell_volume 1019.719316
_symmetry_space_group_name_H-M "C 2"
_symmetry_group_IT_number 5
_symmetry_cell_setting 'monoclinic'
loop_
_space_group_symop_operation_xyz
x,y,z
-x,y,-z
1/2+x,1/2+y,z
1/2-x,1/2+y,-z
loop_
_atom_site_type_symbol
_atom_site_label
_atom_site_fract_x
_atom_site_fract_y
_atom_site_fract_z
Si Si1 0.249052 0.298210 0.948369
Si Si2 0.372646 0.160329 0.653252
Si Si3 0.735545 0.011188 0.921076
Si Si4 0.270484 0.050320 0.583797
Si Si5 0.628272 0.903184 0.849027
Si Si6 0.214315 0.260332 0.426371
O O1 0.260296 0.355417 0.984635
O O2 0.322630 0.284839 0.737681
O O3 0.009151 0.283197 0.753713
O O4 0.308807 0.270218 0.236730
O O5 0.500000 0.158652 0.500000
O O6 0.276941 0.107782 0.605982
O O7 0.218214 0.203993 0.491994
O O8 0.500000 0.169060 0.000000
O O9 0.500632 0.029275 0.750212
O O10 0.815859 0.033460 0.736520
O O11 0.741085 0.953717 0.911001
O O12 0.816249 0.029506 0.236768
O O13 0.500000 0.897150 0.500000
O O14 0.500000 0.906842 0.000000
#
# Coordination Sequence:
#
# PCOD9119952 Si02
#       6
#     4   4   4   4   4   4
#     4  10  19  35  47  69  94 123 160 196 232 269
#     4  12  21  32  47  67  95 137 159 187 231 273
#     4  10  16  25  41  63  92 129 137 174 230 297
#     4  10  16  27  38  58  94 125 147 174 214 283
#     4  12  16  25  46  67  90 123 142 183 243 285
#     4  10  20  32  49  64  91 131 159 196 228 269
#
# _framework density 23.535886000000001
#
# number of rings (size 3 to 8) (size 9 to 14) (size 15 to 20)
#    0.000    1.333   10.000    1.000    0.000    0.000 
#    0.000    0.000    0.000    0.000    0.000    0.000 
#    0.000    0.000  192.667    0.000    0.000    0.000 
#
# Total GULP energy -67058.444088 kJ/mol
# GULP energy per Si atom -5588.203674 kJ/mol
# Density = 2.348232 g / cm^3
# Si number density = 23.535886 Si / 1000 Ang^3
#
#
#
# Elastic Constant Matrix: (Units=GPa)
#
#
# Indices 1 2 3 4 5 6 
#
# 1 93.7856 2.8525 51.4276 0.0000 -37.9005 0.0000
# 2 2.8525 216.8980 43.6961 0.0000 -7.8368 0.0000
# 3 51.4276 43.6961 222.8561 0.0000 -45.5076 0.0000
# 4 0.0000 0.0000 0.0000 44.4910 0.0000 -14.3094
# 5 -37.9005 -7.8368 -45.5076 0.0000 51.7387 0.0000
# 6 0.0000 0.0000 0.0000 -14.3094 0.0000 14.3243
#
#
#
# Elastic Compliance Matrix: (Units=1/GPa)
#
#
# Indices 1 2 3 4 5 6 
#
# 1 0.015618 0.000490 -0.001644 0.000000 0.010069 0.000000
# 2 0.000490 0.004816 -0.001018 0.000000 0.000193 0.000000
# 3 -0.001644 -0.001018 0.005837 0.000000 0.003776 0.000000
# 4 0.000000 0.000000 0.000000 0.033116 0.000000 0.033082
# 5 0.010069 0.000193 0.003776 0.000000 0.030054 0.000000
# 6 0.000000 0.000000 0.000000 0.033082 0.000000 0.102859
#
#
# Mechanical properties :
#
#
# Convention : Reuss Voigt Hill
#
# Bulk Modulus (GPa) = 45.60610 81.05470 63.33040
# Shear Modulus (GPa) = 24.51530 51.14837 37.83183
#
# Velocity S-wave (km/s) = 3.23090 4.66683 4.01360
# Velocity P-wave (km/s) = 5.77388 7.97199 6.96025
#
# Compressibility (1/GPa) = 0.02192689
#
# Stress axis : x y z
#
# Youngs Moduli (GPa) = 64.02716 207.63870 171.31578
#
# Poissons Ratio (x) = -0.10166 0.28165
# Poissons Ratio (y) = -0.03135 0.17438
# Poissons Ratio (z) = 0.10526 0.21136
#
# Static dielectric constant tensor:
#      x y z
#    x 1.762170 0.000000 0.028770 
#    y 0.000000 1.808100 0.000000 
#    z 0.028770 0.000000 1.893360 
# 
# From -- ./inp_files/5998.got.cif
#   From: 2010.05.17/outbox.cif.g08.bks.cpg/sg5_3_cif.got.tgz:5998.got - 2010.06.03 18:56:24.
