data_PCOD9119708
_publ_section_title
;
Structure prediction by ZEFSAII (Michael W. Deem and Ramdas Pophale) SiO2 
 PCOD9119708
Probable space group: P 21
;
_chemical_formula_sum "Si O2"
_cell_formula_units_Z 14
_cell_length_a 14.770514
_cell_length_b 5.485490
_cell_length_c 20.181819
_cell_angle_alpha 90.000000
_cell_angle_beta 19.763933
_cell_angle_gamma 90.000000
_cell_volume 552.936244
_symmetry_space_group_name_H-M "P 21"
_symmetry_group_IT_number 4
_symmetry_cell_setting 'monoclinic'
loop_
_space_group_symop_operation_xyz
x,y,z
-x,1/2+y,-z
loop_
_atom_site_type_symbol
_atom_site_label
_atom_site_fract_x
_atom_site_fract_y
_atom_site_fract_z
Si Si1 0.228981 0.174070 0.751866
Si Si2 0.617478 0.401845 0.951329
Si Si3 0.616089 0.677693 0.073525
Si Si4 0.817691 0.373937 0.350270
Si Si5 0.065999 0.819639 0.433430
Si Si6 0.816752 0.722230 0.474818
Si Si7 0.743839 0.489700 0.120626
O O1 0.544630 0.223965 0.535410
O O2 0.182606 0.035062 0.715905
O O3 0.174360 0.054749 0.861055
O O4 0.014426 0.391150 0.900142
O O5 0.938577 0.393375 0.718653
O O6 0.498013 0.648000 0.999227
O O7 0.552437 0.430432 0.075123
O O8 0.382839 0.856416 0.211545
O O9 0.641503 0.678311 0.135416
O O10 0.900924 0.744699 0.848194
O O11 0.803717 0.518176 0.428273
O O12 0.054336 0.591022 0.493527
O O13 0.930112 0.655798 0.468639
O O14 0.516558 0.819834 0.690993
#
# Coordination Sequence:
#
# PCOD9119708 Si02
#       7
#     2   2   2   2   2   2   2
#     4  12  26  50  74 108 152 196 270 332 398 458
#     4  12  27  47  74 114 164 212 257 317 384 466
#     4  12  27  46  79 112 160 204 264 314 401 470
#     4  12  27  49  78 114 150 212 259 337 394 478
#     4  12  30  48  76 118 164 204 260 324 386 474
#     4  12  27  46  79 112 160 204 264 314 401 470
#     4  12  26  46  76 108 148 204 258 330 394 470
#
# _framework density 25.319371
#
# number of rings (size 3 to 8) (size 9 to 14) (size 15 to 20)
#    0.000    0.000    2.857    6.000    6.000    0.000 
#    0.000    0.000    0.000    0.000    0.000    0.000 
#    0.000    0.000    0.000    0.000    0.000    0.000 
#
# Total GULP energy -78195.150554 kJ/mol
# GULP energy per Si atom -5585.367897 kJ/mol
# Density = 2.526174 g / cm^3
# Si number density = 25.319371 Si / 1000 Ang^3
#
#
#
# Elastic Constant Matrix: (Units=GPa)
#
#
# Indices 1 2 3 4 5 6 
#
# 1 -5.8175 -43.4842 -53.9838 0.0000 -31.1406 0.0000
# 2 -43.4842 59.8429 22.7696 0.0000 -20.2079 0.0000
# 3 -53.9838 22.7696 120.0752 0.0000 -22.1975 0.0000
# 4 0.0000 0.0000 0.0000 58.7113 0.0000 6.4231
# 5 -31.1406 -20.2079 -22.1975 0.0000 52.2309 0.0000
# 6 0.0000 0.0000 0.0000 6.4231 0.0000 43.0596
#
#
#
# Elastic Compliance Matrix: (Units=1/GPa)
#
#
# Indices 1 2 3 4 5 6 
#
# 1 -0.009169 -0.008568 -0.004472 0.000000 -0.010682 0.000000
# 2 -0.008568 0.011911 -0.006732 0.000000 -0.003361 0.000000
# 3 -0.004472 -0.006732 0.007184 0.000000 -0.002218 0.000000
# 4 0.000000 0.000000 0.000000 0.017315 0.000000 -0.002583
# 5 -0.010682 -0.003361 -0.002218 0.000000 0.010534 0.000000
# 6 0.000000 0.000000 0.000000 -0.002583 0.000000 0.023609
#
#
# Mechanical properties :
#
#
# Convention : Reuss Voigt Hill
#
# Bulk Modulus (GPa) = -33.76219 2.74488 -15.50866
# Shear Modulus (GPa) = 54.91134 47.38695 51.14914
#
# Velocity S-wave (km/s) = 4.66203 4.33086 4.49949
# Velocity P-wave (km/s) = 3.95170 5.10831 4.56677
#
# Compressibility (1/GPa) = -0.02961893
#
# Stress axis : x y z
#
# Youngs Moduli (GPa) = -109.06307 83.95621 139.19710
#
# Poissons Ratio (x) = 0.71935 0.62252
# Poissons Ratio (y) = -0.93447 0.93709
# Poissons Ratio (z) = -0.48776 0.56520
#
# Static dielectric constant tensor:
#      x y z
#    x 3.784060 0.000000 -0.054910 
#    y 0.000000 2.124740 0.000000 
#    z -0.054910 0.000000 1.988360 
# 
# From -- ./inp_files/10727.got.cif
#   From: 2010.05.17/outbox.cif.g08.bks.cpg/sg4_6_cif.got.tgz:10727.got - 2010.06.03 18:43:04.
