data_PCOD9119693
_publ_section_title
;
Structure prediction by ZEFSAII (Michael W. Deem and Ramdas Pophale) SiO2 
 PCOD9119693
Probable space group: P 21
;
_chemical_formula_sum "Si O2"
_cell_formula_units_Z 10
_cell_length_a 6.882779
_cell_length_b 5.355592
_cell_length_c 16.128468
_cell_angle_alpha 90.000000
_cell_angle_beta 44.960849
_cell_angle_gamma 90.000000
_cell_volume 420.099791
_symmetry_space_group_name_H-M "P 21"
_symmetry_group_IT_number 4
_symmetry_cell_setting 'monoclinic'
loop_
_space_group_symop_operation_xyz
x,y,z
-x,1/2+y,-z
loop_
_atom_site_type_symbol
_atom_site_label
_atom_site_fract_x
_atom_site_fract_y
_atom_site_fract_z
Si Si1 0.027396 0.139380 0.938450
Si Si2 0.699239 0.530318 0.302604
Si Si3 0.172750 0.240539 0.230395
Si Si4 0.078831 0.588044 0.520670
Si Si5 0.775079 0.238710 0.842796
O O1 0.812282 0.201256 0.928926
O O2 0.291948 0.092064 0.797785
O O3 0.038166 0.382801 0.993414
O O4 0.896558 0.289710 0.257729
O O5 0.401765 0.526625 0.430530
O O6 0.901932 0.731252 0.285248
O O7 0.070623 0.195110 0.353299
O O8 0.342909 0.492362 0.163007
O O9 0.332857 0.000050 0.151898
O O10 0.943619 0.325293 0.534745
#
# Coordination Sequence:
#
# PCOD9119693 Si02
#       5
#     2   2   2   2   2
#     4   9  16  29  51  84 106 123 173 242 272 288
#     4   8  23  32  58  77 110 141 187 207 273 320
#     4   9  19  36  53  73 107 145 182 215 258 322
#     4  12  26  35  53  84 117 145 177 221 275 318
#     4   8  18  30  57  76 100 136 183 207 268 310
#
# _framework density 23.803868000000001
#
# number of rings (size 3 to 8) (size 9 to 14) (size 15 to 20)
#    2.400    0.000    0.000    3.600    5.600    0.000 
#    0.000    0.000    0.000    0.000    0.000   61.600 
#    0.000    0.000    0.000    0.000    0.000    0.000 
#
# Total GULP energy -55679.954669 kJ/mol
# GULP energy per Si atom -5567.995467 kJ/mol
# Density = 2.374969 g / cm^3
# Si number density = 23.803868 Si / 1000 Ang^3
#
#
#
# Elastic Constant Matrix: (Units=GPa)
#
#
# Indices 1 2 3 4 5 6 
#
# 1 35.1191 15.6216 23.9419 0.0000 4.1537 0.0000
# 2 15.6216 191.6610 30.3411 0.0000 11.3823 0.0000
# 3 23.9419 30.3411 80.2155 0.0000 9.3178 0.0000
# 4 0.0000 0.0000 0.0000 30.8690 0.0000 17.1196
# 5 4.1537 11.3823 9.3178 0.0000 36.4540 0.0000
# 6 0.0000 0.0000 0.0000 17.1196 0.0000 26.2006
#
#
#
# Elastic Compliance Matrix: (Units=1/GPa)
#
#
# Indices 1 2 3 4 5 6 
#
# 1 0.036101 -0.001267 -0.010166 0.000000 -0.001119 0.000000
# 2 -0.001267 0.005649 -0.001618 0.000000 -0.001206 0.000000
# 3 -0.010166 -0.001618 0.016407 0.000000 -0.002530 0.000000
# 4 0.000000 0.000000 0.000000 0.050805 0.000000 -0.033196
# 5 -0.001119 -0.001206 -0.002530 0.000000 0.028583 0.000000
# 6 0.000000 0.000000 0.000000 -0.033196 0.000000 0.059858
#
#
# Mechanical properties :
#
#
# Convention : Reuss Voigt Hill
#
# Bulk Modulus (GPa) = 31.19719 49.64497 40.42108
# Shear Modulus (GPa) = 21.35033 34.51079 27.93056
#
# Velocity S-wave (km/s) = 2.99812 3.81175 3.42915
# Velocity P-wave (km/s) = 5.01192 6.34616 5.71809
#
# Compressibility (1/GPa) = 0.03205417
#
# Stress axis : x y z
#
# Youngs Moduli (GPa) = 27.70020 177.03504 60.95075
#
# Poissons Ratio (x) = 0.22424 0.61962
# Poissons Ratio (y) = 0.03509 0.09865
# Poissons Ratio (z) = 0.28160 0.28652
#
# Static dielectric constant tensor:
#      x y z
#    x 1.893680 0.000000 0.014310 
#    y 0.000000 1.997380 0.000000 
#    z 0.014310 0.000000 1.884080 
# 
# From -- ./inp_files/14752.got.cif
#   From: 2010.05.17/outbox.cif.g08.bks.cpg/sg4_8_cif.got.tgz:14752.got - 2010.06.03 18:43:04.
