data_PCOD9119312
_publ_section_title
;
Structure prediction by ZEFSAII (Michael W. Deem and Ramdas Pophale) SiO2 
 PCOD9119312
Probable space group: P 21
;
_chemical_formula_sum "Si O2"
_cell_formula_units_Z 14
_cell_length_a 17.550495
_cell_length_b 5.894778
_cell_length_c 8.428580
_cell_angle_alpha 90.000000
_cell_angle_beta 39.183279
_cell_angle_gamma 90.000000
_cell_volume 550.925662
_symmetry_space_group_name_H-M "P 21"
_symmetry_group_IT_number 4
_symmetry_cell_setting 'monoclinic'
loop_
_space_group_symop_operation_xyz
x,y,z
-x,1/2+y,-z
loop_
_atom_site_type_symbol
_atom_site_label
_atom_site_fract_x
_atom_site_fract_y
_atom_site_fract_z
Si Si1 0.340743 0.418020 0.194841
Si Si2 0.551133 0.250875 0.369507
Si Si3 0.192566 0.903341 0.002978
Si Si4 0.983926 0.075659 0.853260
Si Si5 0.804782 0.760865 0.273338
Si Si6 0.577013 0.473573 0.992348
Si Si7 0.821136 0.301252 0.618336
O O1 0.295121 0.312117 0.435426
O O2 0.466341 0.525451 0.054875
O O3 0.224110 0.541887 0.306634
O O4 0.385830 0.222213 0.004454
O O5 0.499707 0.996451 0.482827
O O6 0.551849 0.307366 0.179773
O O7 0.689426 0.245097 0.205536
O O8 0.186629 0.930526 0.202020
O O9 0.064579 0.785600 0.169613
O O10 0.218944 0.116150 0.846312
O O11 0.085071 0.140245 0.814506
O O12 0.049079 0.867511 0.657387
O O13 0.862874 0.998881 0.133130
O O14 0.703070 0.387985 0.710726
#
# Coordination Sequence:
#
# PCOD9119312 Si02
#       7
#     2   2   2   2   2   2   2
#     4  12  25  45  78 110 153 200 267 326 404 479
#     4  11  28  50  78 115 163 207 263 333 413 488
#     4  11  29  47  74 111 152 201 261 331 401 473
#     4  12  26  46  74 105 149 201 260 318 398 477
#     4  12  26  46  74 109 148 203 261 324 392 488
#     4  11  25  45  78 109 151 206 259 327 402 481
#     4  11  27  47  72 113 150 202 257 331 394 480
#
# _framework density 25.411774999999999
#
# number of rings (size 3 to 8) (size 9 to 14) (size 15 to 20)
#    0.000    0.571    4.286    1.714   10.000    2.286 
#    0.000    0.000    0.000    0.000    0.000    0.000 
#    0.000    0.000    0.000    0.000    0.000    0.000 
#
# Total GULP energy -78058.744848 kJ/mol
# GULP energy per Si atom -5575.624632 kJ/mol
# Density = 2.535394 g / cm^3
# Si number density = 25.411775 Si / 1000 Ang^3
#
#
#
# Elastic Constant Matrix: (Units=GPa)
#
#
# Indices 1 2 3 4 5 6 
#
# 1 90.6834 15.5350 30.7750 0.0000 -2.0266 0.0000
# 2 15.5350 65.9131 31.1657 0.0000 5.6262 0.0000
# 3 30.7750 31.1657 90.3660 0.0000 -4.7959 0.0000
# 4 0.0000 0.0000 0.0000 53.9951 0.0000 -6.3191
# 5 -2.0266 5.6262 -4.7959 0.0000 27.4678 0.0000
# 6 0.0000 0.0000 0.0000 -6.3191 0.0000 52.8597
#
#
#
# Elastic Compliance Matrix: (Units=1/GPa)
#
#
# Indices 1 2 3 4 5 6 
#
# 1 0.012544 -0.001185 -0.003837 0.000000 0.000498 0.000000
# 2 -0.001185 0.018903 -0.006385 0.000000 -0.005074 0.000000
# 3 -0.003837 -0.006385 0.014766 0.000000 0.003603 0.000000
# 4 0.000000 0.000000 0.000000 0.018783 0.000000 0.002245
# 5 0.000498 -0.005074 0.003603 0.000000 0.038111 0.000000
# 6 0.000000 0.000000 0.000000 0.002245 0.000000 0.019186
#
#
# Mechanical properties :
#
#
# Convention : Reuss Voigt Hill
#
# Bulk Modulus (GPa) = 42.73638 44.65710 43.69674
# Shear Modulus (GPa) = 32.69974 38.16365 35.43169
#
# Velocity S-wave (km/s) = 3.59108 3.87952 3.73809
# Velocity P-wave (km/s) = 5.83512 6.13833 5.98864
#
# Compressibility (1/GPa) = 0.02339927
#
# Stress axis : x y z
#
# Youngs Moduli (GPa) = 79.72225 52.90183 67.72275
#
# Poissons Ratio (x) = 0.06268 0.25984
# Poissons Ratio (y) = 0.09445 0.43242
# Poissons Ratio (z) = 0.30588 0.33778
#
# Static dielectric constant tensor:
#      x y z
#    x 1.982620 0.000000 0.012860 
#    y 0.000000 2.310840 0.000000 
#    z 0.012860 0.000000 2.047510 
# 
# From -- ./inp_files/7066.got.cif
#   From: 2010.05.17/outbox.cif.g08.bks.cpg/sg4_4_cif.got.tgz:7066.got - 2010.06.03 18:43:04.
