data_PCOD9119506
_publ_section_title
;
Structure prediction by ZEFSAII (Michael W. Deem and Ramdas Pophale) SiO2 
 PCOD9119506
Probable space group: P 21
;
_chemical_formula_sum "Si O2"
_cell_formula_units_Z 16
_cell_length_a 11.802425
_cell_length_b 10.597573
_cell_length_c 14.648796
_cell_angle_alpha 90.000000
_cell_angle_beta 18.697594
_cell_angle_gamma 90.000000
_cell_volume 587.363330
_symmetry_space_group_name_H-M "P 21"
_symmetry_group_IT_number 4
_symmetry_cell_setting 'monoclinic'
loop_
_space_group_symop_operation_xyz
x,y,z
-x,1/2+y,-z
loop_
_atom_site_type_symbol
_atom_site_label
_atom_site_fract_x
_atom_site_fract_y
_atom_site_fract_z
Si Si1 0.506262 0.375000 0.583309
Si Si2 0.741545 0.604267 0.309488
Si Si3 0.602716 0.379497 0.886110
Si Si4 0.452474 0.938324 0.700885
Si Si5 0.068818 0.516665 0.394157
Si Si6 0.289345 0.302454 0.944568
Si Si7 0.088222 0.207700 0.640136
Si Si8 0.807175 0.536460 0.926873
O O1 0.444027 0.512954 0.585451
O O2 0.345436 0.244320 0.664176
O O3 0.431090 0.366271 0.746776
O O4 0.922499 0.363591 0.250821
O O5 0.798136 0.509148 0.180170
O O6 0.999653 0.635819 0.198559
O O7 0.552448 0.309186 0.828567
O O8 0.844502 0.491717 0.656926
O O9 0.808064 0.304758 0.808567
O O10 0.208451 0.401573 0.224721
O O11 0.297014 0.930172 0.920860
O O12 0.573865 0.794052 0.590880
O O13 0.820339 0.017150 0.407258
O O14 0.473533 0.551862 0.114438
O O15 0.877905 0.611083 0.470177
O O16 0.199267 0.156888 0.002829
#
# Coordination Sequence:
#
# PCOD9119506 Si02
#       8
#     2   2   2   2   2   2   2   2
#     4  12  28  48  80 106 155 201 262 312 387 451
#     4  12  26  52  74 115 149 211 257 324 370 462
#     4  12  26  46  73 112 150 188 249 319 382 462
#     4  12  26  47  72 108 151 201 251 312 369 453
#     4  12  26  46  73 112 151 190 246 316 389 464
#     4  12  24  47  73 107 144 201 239 317 383 453
#     4  12  26  48  79 112 157 201 258 315 395 463
#     4  12  22  44  74 106 145 191 248 307 389 438
#
# _framework density 27.240380999999999
#
# number of rings (size 3 to 8) (size 9 to 14) (size 15 to 20)
#    0.000    0.000    7.500    2.250    0.000    4.000 
#    0.000    8.750    0.000    0.000    0.000    0.000 
#    0.000    0.000    0.000    0.000    0.000    0.000 
#
# Total GULP energy -89315.536741 kJ/mol
# GULP energy per Si atom -5582.221046 kJ/mol
# Density = 2.717838 g / cm^3
# Si number density = 27.240381 Si / 1000 Ang^3
#
#
#
# Elastic Constant Matrix: (Units=GPa)
#
#
# Indices 1 2 3 4 5 6 
#
# 1 212.3073 36.9135 40.6019 0.0000 10.5354 0.0000
# 2 36.9135 95.1023 5.4855 0.0000 -14.7090 0.0000
# 3 40.6019 5.4855 127.7147 0.0000 19.7262 0.0000
# 4 0.0000 0.0000 0.0000 5.4718 0.0000 3.2104
# 5 10.5354 -14.7090 19.7262 0.0000 39.5504 0.0000
# 6 0.0000 0.0000 0.0000 3.2104 0.0000 71.2393
#
#
#
# Elastic Compliance Matrix: (Units=1/GPa)
#
#
# Indices 1 2 3 4 5 6 
#
# 1 0.005453 -0.002286 -0.001386 0.000000 -0.001611 0.000000
# 2 -0.002286 0.012291 -0.000652 0.000000 0.005505 0.000000
# 3 -0.001386 -0.000652 0.008970 0.000000 -0.004347 0.000000
# 4 0.000000 0.000000 0.000000 0.187719 0.000000 -0.008460
# 5 -0.001611 0.005505 -0.004347 0.000000 0.029929 0.000000
# 6 0.000000 0.000000 0.000000 -0.008460 0.000000 0.014418
#
#
# Mechanical properties :
#
#
# Convention : Reuss Voigt Hill
#
# Bulk Modulus (GPa) = 55.35065 66.79178 61.07122
# Shear Modulus (GPa) = 18.28490 46.72719 32.50604
#
# Velocity S-wave (km/s) = 2.59365 4.14619 3.45817
# Velocity P-wave (km/s) = 5.41597 6.89158 6.19785
#
# Compressibility (1/GPa) = 0.01806663
#
# Stress axis : x y z
#
# Youngs Moduli (GPa) = 183.39749 81.35936 111.48123
#
# Poissons Ratio (x) = 0.18596 0.15456
# Poissons Ratio (y) = 0.41917 0.07264
# Poissons Ratio (z) = 0.25427 0.05301
#
# Static dielectric constant tensor:
#      x y z
#    x 2.176600 0.000000 -0.040490 
#    y 0.000000 2.341820 0.000000 
#    z -0.040490 0.000000 2.113200 
# 
# From -- ./inp_files/13998.got.cif
#   From: 2010.05.17/outbox.cif.g08.bks.cpg/sg4_7_cif.got.tgz:13998.got - 2010.06.03 18:43:04.
