data_PCOD9119005
_publ_section_title
;
Structure prediction by ZEFSAII (Michael W. Deem and Ramdas Pophale) SiO2 
 PCOD9119005
Probable space group: P 21
;
_chemical_formula_sum "Si O2"
_cell_formula_units_Z 16
_cell_length_a 19.061991
_cell_length_b 9.068922
_cell_length_c 9.389587
_cell_angle_alpha 90.000000
_cell_angle_beta 154.555242
_cell_angle_gamma 90.000000
_cell_volume 697.390131
_symmetry_space_group_name_H-M "P 21"
_symmetry_group_IT_number 4
_symmetry_cell_setting 'monoclinic'
loop_
_space_group_symop_operation_xyz
x,y,z
-x,1/2+y,-z
loop_
_atom_site_type_symbol
_atom_site_label
_atom_site_fract_x
_atom_site_fract_y
_atom_site_fract_z
Si Si1 0.642547 0.419030 0.654425
Si Si2 0.530709 0.211567 0.232604
Si Si3 0.369539 0.473065 0.354663
Si Si4 0.321755 0.764189 0.784557
Si Si5 0.201877 0.097745 0.503571
Si Si6 0.012882 0.760305 0.678445
Si Si7 0.683685 0.711492 0.580916
Si Si8 0.858026 0.068264 0.317123
O O1 0.553325 0.369906 0.345531
O O2 0.527110 0.392026 0.577046
O O3 0.673364 0.590875 0.686575
O O4 0.806338 0.325602 0.968143
O O5 0.652353 0.193750 0.323551
O O6 0.568139 0.096340 0.424339
O O7 0.349821 0.189048 0.845489
O O8 0.256627 0.361117 0.235868
O O9 0.279667 0.538674 0.053889
O O10 0.206679 0.670640 0.675682
O O11 0.249756 0.928200 0.625622
O O12 0.505105 0.756589 0.188871
O O13 0.210825 0.140145 0.353210
O O14 0.043237 0.159371 0.292644
O O15 0.007277 0.657990 0.527395
O O16 0.909925 0.908920 0.468777
#
# Coordination Sequence:
#
# PCOD9119005 Si02
#       8
#     2   2   2   2   2   2   2   2
#     4  12  24  48  67 110 140 186 244 303 365 438
#     4  11  24  43  78 105 138 185 247 313 357 436
#     4  12  24  44  79 104 140 185 254 307 360 430
#     4  11  23  48  75 106 144 189 252 304 363 431
#     4  11  25  46  72 104 151 192 237 298 377 438
#     4  12  29  46  69 107 150 197 233 297 380 451
#     4  11  24  43  74 110 137 190 246 308 360 427
#     4  12  27  48  72 106 146 194 245 302 378 437
#
# _framework density 22.942681
#
# number of rings (size 3 to 8) (size 9 to 14) (size 15 to 20)
#    0.000    0.500    5.000    3.000    5.250    0.000 
#    4.500    0.000    0.000    0.000    0.000    0.000 
#    0.000    0.000    0.000    0.000    0.000    0.000 
#
# Total GULP energy -89539.832824 kJ/mol
# GULP energy per Si atom -5596.239552 kJ/mol
# Density = 2.289046 g / cm^3
# Si number density = 22.942681 Si / 1000 Ang^3
#
#
#
# Elastic Constant Matrix: (Units=GPa)
#
#
# Indices 1 2 3 4 5 6 
#
# 1 163.1397 55.7084 21.5399 0.0000 -0.6686 0.0000
# 2 55.7084 81.9172 15.8856 0.0000 15.6852 0.0000
# 3 21.5399 15.8856 42.9307 0.0000 -1.9406 0.0000
# 4 0.0000 0.0000 0.0000 36.5318 0.0000 -3.3657
# 5 -0.6686 15.6852 -1.9406 0.0000 24.0069 0.0000
# 6 0.0000 0.0000 0.0000 -3.3657 0.0000 51.2037
#
#
#
# Elastic Compliance Matrix: (Units=1/GPa)
#
#
# Indices 1 2 3 4 5 6 
#
# 1 0.008513 -0.006245 -0.001772 0.000000 0.004174 0.000000
# 2 -0.006245 0.020016 -0.004890 0.000000 -0.013647 0.000000
# 3 -0.001772 -0.004890 0.026230 0.000000 0.005266 0.000000
# 4 0.000000 0.000000 0.000000 0.027540 0.000000 0.001810
# 5 0.004174 -0.013647 0.005266 0.000000 0.051113 0.000000
# 6 0.000000 0.000000 0.000000 0.001810 0.000000 0.019649
#
#
# Mechanical properties :
#
#
# Convention : Reuss Voigt Hill
#
# Bulk Modulus (GPa) = 34.54815 52.69502 43.62159
# Shear Modulus (GPa) = 26.52193 35.33872 30.93033
#
# Velocity S-wave (km/s) = 3.40370 3.92893 3.67571
# Velocity P-wave (km/s) = 5.52613 6.60303 6.08843
#
# Compressibility (1/GPa) = 0.02894511
#
# Stress axis : x y z
#
# Youngs Moduli (GPa) = 117.46226 49.96038 38.12464
#
# Poissons Ratio (x) = 0.31202 0.06755
# Poissons Ratio (y) = 0.73358 0.18642
# Poissons Ratio (z) = 0.20813 0.24430
#
# Static dielectric constant tensor:
#      x y z
#    x 1.843160 0.000000 0.026670 
#    y 0.000000 1.846490 0.000000 
#    z 0.026670 0.000000 1.910300 
# 
# From -- ./inp_files/5490.got.cif
#   From: 2010.05.17/outbox.cif.g08.bks.cpg/sg4_3_cif.got.tgz:5490.got - 2010.06.03 18:43:04.
