data_PCOD9119304
_publ_section_title
;
Structure prediction by ZEFSAII (Michael W. Deem and Ramdas Pophale) SiO2 
 PCOD9119304
Probable space group: P 21
;
_chemical_formula_sum "Si O2"
_cell_formula_units_Z 16
_cell_length_a 16.948251
_cell_length_b 7.670509
_cell_length_c 8.546570
_cell_angle_alpha 90.000000
_cell_angle_beta 36.785513
_cell_angle_gamma 90.000000
_cell_volume 665.331419
_symmetry_space_group_name_H-M "P 21"
_symmetry_group_IT_number 4
_symmetry_cell_setting 'monoclinic'
loop_
_space_group_symop_operation_xyz
x,y,z
-x,1/2+y,-z
loop_
_atom_site_type_symbol
_atom_site_label
_atom_site_fract_x
_atom_site_fract_y
_atom_site_fract_z
Si Si1 0.350658 0.409030 0.607362
Si Si2 0.908542 0.749819 0.450685
Si Si3 0.142989 0.896964 0.272703
Si Si4 0.622231 0.523380 0.311694
Si Si5 0.933721 0.007532 0.013268
Si Si6 0.634199 0.772082 0.768707
Si Si7 0.629793 0.385047 0.649725
Si Si8 0.118408 0.698144 0.617143
O O1 0.475025 0.511883 0.477065
O O2 0.339774 0.224970 0.717029
O O3 0.211635 0.507803 0.830895
O O4 0.376709 0.362018 0.383609
O O5 0.880096 0.578175 0.601254
O O6 0.765303 0.832057 0.649453
O O7 0.016811 0.864939 0.364839
O O8 0.976266 0.664095 0.191533
O O9 0.148301 0.736293 0.387809
O O10 0.275852 0.925412 0.963553
O O11 0.625922 0.430126 0.473987
O O12 0.925073 0.029162 0.214486
O O13 0.002848 0.834667 0.841296
O O14 0.650387 0.567371 0.707873
O O15 0.506224 0.805877 0.074009
O O16 0.750080 0.262002 0.503419
#
# Coordination Sequence:
#
# PCOD9119304 Si02
#       8
#     2   2   2   2   2   2   2   2
#     4  11  28  47  75 105 143 195 238 304 365 431
#     4  11  26  47  70 107 146 192 244 298 367 432
#     4  11  26  46  74 105 152 188 242 306 362 430
#     4  11  28  47  71 108 146 188 248 299 366 434
#     4  11  25  46  75 105 145 190 245 295 367 430
#     4  11  25  50  68 108 141 191 246 295 369 433
#     4  11  25  46  75 100 144 189 240 304 359 437
#     4  11  25  45  74 108 143 193 241 297 363 433
#
# _framework density 24.048165999999998
#
# number of rings (size 3 to 8) (size 9 to 14) (size 15 to 20)
#    0.000    1.000    2.500    2.250   12.250    2.000 
#    2.250    0.000    0.000    0.000    0.000    0.000 
#    0.000    0.000    0.000    0.000    0.000    0.000 
#
# Total GULP energy -89669.870003 kJ/mol
# GULP energy per Si atom -5604.366875 kJ/mol
# Density = 2.399343 g / cm^3
# Si number density = 24.048166 Si / 1000 Ang^3
#
#
#
# Elastic Constant Matrix: (Units=GPa)
#
#
# Indices 1 2 3 4 5 6 
#
# 1 111.8984 0.7129 40.7117 0.0000 -28.6916 0.0000
# 2 0.7129 42.3317 15.9200 0.0000 1.7080 0.0000
# 3 40.7117 15.9200 145.6420 0.0000 -14.6795 0.0000
# 4 0.0000 0.0000 0.0000 31.3998 0.0000 -0.5450
# 5 -28.6916 1.7080 -14.6795 0.0000 45.3568 0.0000
# 6 0.0000 0.0000 0.0000 -0.5450 0.0000 45.2655
#
#
#
# Elastic Compliance Matrix: (Units=1/GPa)
#
#
# Indices 1 2 3 4 5 6 
#
# 1 0.011540 0.000538 -0.002637 0.000000 0.006427 0.000000
# 2 0.000538 0.024813 -0.003021 0.000000 -0.001572 0.000000
# 3 -0.002637 -0.003021 0.008039 0.000000 0.001047 0.000000
# 4 0.000000 0.000000 0.000000 0.031854 0.000000 0.000384
# 5 0.006427 -0.001572 0.001047 0.000000 0.026511 0.000000
# 6 0.000000 0.000000 0.000000 0.000384 0.000000 0.022097
#
#
# Mechanical properties :
#
#
# Convention : Reuss Voigt Hill
#
# Bulk Modulus (GPa) = 29.28014 46.06235 37.67124
# Shear Modulus (GPa) = 34.13459 40.57291 37.35375
#
# Velocity S-wave (km/s) = 3.77161 4.11195 3.94545
# Velocity P-wave (km/s) = 5.58290 6.46065 6.03775
#
# Compressibility (1/GPa) = 0.03415285
#
# Stress axis : x y z
#
# Youngs Moduli (GPa) = 86.65153 40.30065 124.39202
#
# Poissons Ratio (x) = -0.02168 0.32802
# Poissons Ratio (y) = -0.04663 0.37581
# Poissons Ratio (z) = 0.22850 0.12176
#
# Static dielectric constant tensor:
#      x y z
#    x 1.892850 0.000000 0.033640 
#    y 0.000000 2.006930 0.000000 
#    z 0.033640 0.000000 1.863430 
# 
# From -- ./inp_files/9630.got.cif
#   From: 2010.05.17/outbox.cif.g08.bks.cpg/sg4_5_cif.got.tgz:9630.got - 2010.06.03 18:43:04.
