data_PCOD9119131
_publ_section_title
;
Structure prediction by ZEFSAII (Michael W. Deem and Ramdas Pophale) SiO2 
 PCOD9119131
Probable space group: P 21
;
_chemical_formula_sum "Si O2"
_cell_formula_units_Z 16
_cell_length_a 12.317716
_cell_length_b 11.243160
_cell_length_c 6.431957
_cell_angle_alpha 90.000000
_cell_angle_beta 52.755252
_cell_angle_gamma 90.000000
_cell_volume 709.097802
_symmetry_space_group_name_H-M "P 21"
_symmetry_group_IT_number 4
_symmetry_cell_setting 'monoclinic'
loop_
_space_group_symop_operation_xyz
x,y,z
-x,1/2+y,-z
loop_
_atom_site_type_symbol
_atom_site_label
_atom_site_fract_x
_atom_site_fract_y
_atom_site_fract_z
Si Si1 0.949782 0.177100 0.329997
Si Si2 0.397677 0.140414 0.807165
Si Si3 0.238321 0.882583 0.561328
Si Si4 0.363268 0.720232 0.758513
Si Si5 0.195888 0.266540 0.290666
Si Si6 0.256103 0.519021 0.191565
Si Si7 0.465085 0.906658 0.956417
Si Si8 0.161066 0.150138 0.746882
O O1 0.871858 0.301829 0.426516
O O2 0.839972 0.081780 0.529252
O O3 0.078993 0.182056 0.333083
O O4 0.016314 0.156212 0.028857
O O5 0.540455 0.165916 0.532275
O O6 0.282454 0.165933 0.770580
O O7 0.347341 0.222185 0.054924
O O8 0.393360 0.008285 0.899550
O O9 0.268170 0.814727 0.745345
O O10 0.376124 0.884536 0.265675
O O11 0.186327 0.016989 0.635943
O O12 0.290193 0.614285 0.971745
O O13 0.455290 0.791806 0.819235
O O14 0.181619 0.397416 0.211572
O O15 0.175996 0.252109 0.558078
O O16 0.393470 0.468362 0.139815
#
# Coordination Sequence:
#
# PCOD9119131 Si02
#       8
#     2   2   2   2   2   2   2   2
#     4  11  29  45  70 109 141 198 252 302 371 440
#     4  11  24  45  71 109 142 192 243 301 381 443
#     4  12  25  48  75 106 145 199 250 311 379 443
#     4  12  27  45  76 110 152 195 246 315 387 450
#     4  11  27  48  72 101 153 196 252 308 369 446
#     4  12  28  47  73 110 151 193 248 312 373 454
#     4  12  25  47  75 109 153 191 248 318 377 451
#     4  11  25  47  74 102 145 198 249 305 369 443
#
# _framework density 22.563883000000001
#
# number of rings (size 3 to 8) (size 9 to 14) (size 15 to 20)
#    0.000    0.500    3.750    3.000    8.750    0.000 
#    2.250    0.000    0.000    0.000    0.000    0.000 
#    0.000    0.000    0.000    0.000    0.000    0.000 
#
# Total GULP energy -89460.279569 kJ/mol
# GULP energy per Si atom -5591.267473 kJ/mol
# Density = 2.251253 g / cm^3
# Si number density = 22.563883 Si / 1000 Ang^3
#
#
#
# Elastic Constant Matrix: (Units=GPa)
#
#
# Indices 1 2 3 4 5 6 
#
# 1 56.5910 14.7334 12.1431 0.0000 -4.8674 0.0000
# 2 14.7334 93.1725 63.1101 0.0000 -0.3849 0.0000
# 3 12.1431 63.1101 142.4487 0.0000 -24.8690 0.0000
# 4 0.0000 0.0000 0.0000 49.5168 0.0000 1.0231
# 5 -4.8674 -0.3849 -24.8690 0.0000 32.6055 0.0000
# 6 0.0000 0.0000 0.0000 1.0231 0.0000 37.7160
#
#
#
# Elastic Compliance Matrix: (Units=1/GPa)
#
#
# Indices 1 2 3 4 5 6 
#
# 1 0.018682 -0.003170 0.000337 0.000000 0.003009 0.000000
# 2 -0.003170 0.016875 -0.008368 0.000000 -0.006656 0.000000
# 3 0.000337 -0.008368 0.012332 0.000000 0.009358 0.000000
# 4 0.000000 0.000000 0.000000 0.020206 0.000000 -0.000548
# 5 0.003009 -0.006656 0.009358 0.000000 0.038177 0.000000
# 6 0.000000 0.000000 0.000000 -0.000548 0.000000 0.026529
#
#
# Mechanical properties :
#
#
# Convention : Reuss Voigt Hill
#
# Bulk Modulus (GPa) = 39.23502 52.46505 45.85004
# Shear Modulus (GPa) = 30.54372 37.44939 33.99656
#
# Velocity S-wave (km/s) = 3.68320 4.07837 3.88581
# Velocity P-wave (km/s) = 5.95937 6.74386 6.36372
#
# Compressibility (1/GPa) = 0.02548743
#
# Stress axis : x y z
#
# Youngs Moduli (GPa) = 53.52621 59.26074 81.08782
#
# Poissons Ratio (x) = 0.18787 -0.02734
# Poissons Ratio (y) = 0.16969 0.67854
# Poissons Ratio (z) = -0.01805 0.49589
#
# Static dielectric constant tensor:
#      x y z
#    x 1.872820 0.000000 0.022950 
#    y 0.000000 1.878380 0.000000 
#    z 0.022950 0.000000 1.834450 
# 
# From -- ./inp_files/2920.got.cif
#   From: 2010.05.17/outbox.cif.g08.bks.cpg/sg4_2_cif.got.tgz:2920.got - 2010.06.03 18:43:04.
