data_PCOD9119569
_publ_section_title
;
Structure prediction by ZEFSAII (Michael W. Deem and Ramdas Pophale) SiO2 
 PCOD9119569
Probable space group: P 21
;
_chemical_formula_sum "Si O2"
_cell_formula_units_Z 16
_cell_length_a 6.850693
_cell_length_b 6.774292
_cell_length_c 15.661222
_cell_angle_alpha 90.000000
_cell_angle_beta 100.629546
_cell_angle_gamma 90.000000
_cell_volume 714.343416
_symmetry_space_group_name_H-M "P 21"
_symmetry_group_IT_number 4
_symmetry_cell_setting 'monoclinic'
loop_
_space_group_symop_operation_xyz
x,y,z
-x,1/2+y,-z
loop_
_atom_site_type_symbol
_atom_site_label
_atom_site_fract_x
_atom_site_fract_y
_atom_site_fract_z
Si Si1 0.707688 0.556150 0.716228
Si Si2 0.535580 0.726577 0.401361
Si Si3 0.396654 0.896587 0.731236
Si Si4 0.779465 0.063549 0.500825
Si Si5 0.787375 0.354381 0.007277
Si Si6 0.058836 0.490302 0.878528
Si Si7 0.606181 0.683050 0.110377
Si Si8 0.997542 0.295234 0.370737
O O1 0.596351 0.365388 0.670924
O O2 0.549022 0.715154 0.738535
O O3 0.874367 0.506182 0.799346
O O4 0.825118 0.661112 0.648701
O O5 0.587418 0.530805 0.352866
O O6 0.715526 0.863813 0.446816
O O7 0.413345 0.667010 0.475679
O O8 0.433032 0.040001 0.813260
O O9 0.171357 0.818749 0.713876
O O10 0.913548 0.002651 0.591923
O O11 0.891744 0.198234 0.443197
O O12 0.967483 0.395630 0.957494
O O13 0.600988 0.266341 0.940575
O O14 0.708901 0.551997 0.045393
O O15 0.855390 0.200229 0.084824
O O16 0.237418 0.356711 0.856499
#
# Coordination Sequence:
#
# PCOD9119569 Si02
#       8
#     2   2   2   2   2   2   2   2
#     4  12  28  48  72 108 149 188 238 298 361 429
#     4  12  25  48  72 105 148 192 240 301 362 416
#     4  12  28  48  72 108 149 188 238 298 361 429
#     4  12  24  44  74 104 142 192 244 298 358 422
#     4  12  26  48  72 108 146 186 246 290 350 428
#     4  12  28  46  76 106 145 192 236 295 357 428
#     4  12  28  46  76 106 145 192 236 295 357 428
#     4  12  25  46  72 107 142 188 246 293 354 432
#
# _framework density 22.398188999999999
#
# number of rings (size 3 to 8) (size 9 to 14) (size 15 to 20)
#    0.000    0.000    5.000    4.500    7.000    4.000 
#    0.000    0.000    0.000    0.000    0.000    0.000 
#    0.000    0.000    0.000    0.000    0.000    0.000 
#
# Total GULP energy -89683.584106 kJ/mol
# GULP energy per Si atom -5605.224007 kJ/mol
# Density = 2.234721 g / cm^3
# Si number density = 22.398189 Si / 1000 Ang^3
#
#
#
# Elastic Constant Matrix: (Units=GPa)
#
#
# Indices 1 2 3 4 5 6 
#
# 1 63.5773 17.6351 21.5839 0.0000 16.9587 0.0000
# 2 17.6351 62.6818 0.3729 0.0000 5.8553 0.0000
# 3 21.5839 0.3729 43.8158 0.0000 9.6782 0.0000
# 4 0.0000 0.0000 0.0000 46.3545 0.0000 6.2660
# 5 16.9587 5.8553 9.6782 0.0000 48.0324 0.0000
# 6 0.0000 0.0000 0.0000 6.2660 0.0000 32.7527
#
#
#
# Elastic Compliance Matrix: (Units=1/GPa)
#
#
# Indices 1 2 3 4 5 6 
#
# 1 0.021922 -0.005633 -0.009621 0.000000 -0.005115 0.000000
# 2 -0.005633 0.017589 0.002783 0.000000 -0.000716 0.000000
# 3 -0.009621 0.002783 0.028114 0.000000 -0.002607 0.000000
# 4 0.000000 0.000000 0.000000 0.022146 0.000000 -0.004237
# 5 -0.005115 -0.000716 -0.002607 0.000000 0.023238 0.000000
# 6 0.000000 0.000000 0.000000 -0.004237 0.000000 0.031342
#
#
# Mechanical properties :
#
#
# Convention : Reuss Voigt Hill
#
# Bulk Modulus (GPa) = 23.42808 27.69541 25.56175
# Shear Modulus (GPa) = 27.24505 34.12678 30.68592
#
# Velocity S-wave (km/s) = 3.49147 3.90762 3.70539
# Velocity P-wave (km/s) = 5.17072 5.72286 5.45378
#
# Compressibility (1/GPa) = 0.04268382
#
# Stress axis : x y z
#
# Youngs Moduli (GPa) = 45.61667 56.85500 35.56891
#
# Poissons Ratio (x) = 0.32024 0.34221
# Poissons Ratio (y) = 0.25694 -0.09899
# Poissons Ratio (z) = 0.43888 -0.15823
#
# Static dielectric constant tensor:
#      x y z
#    x 1.780410 0.000000 -0.005810 
#    y 0.000000 1.803900 0.000000 
#    z -0.005810 0.000000 1.813580 
# 
# From -- ./inp_files/3360.got.cif
#   From: 2010.05.17/outbox.cif.g08.bks.cpg/sg4_2_cif.got.tgz:3360.got - 2010.06.03 18:43:04.
