data_PCOD9119575
_publ_section_title
;
Structure prediction by ZEFSAII (Michael W. Deem and Ramdas Pophale) SiO2 
 PCOD9119575
Probable space group: P 21
;
_chemical_formula_sum "Si O2"
_cell_formula_units_Z 14
_cell_length_a 14.067298
_cell_length_b 7.801888
_cell_length_c 15.333768
_cell_angle_alpha 90.000000
_cell_angle_beta 18.517459
_cell_angle_gamma 90.000000
_cell_volume 534.479492
_symmetry_space_group_name_H-M "P 21"
_symmetry_group_IT_number 4
_symmetry_cell_setting 'monoclinic'
loop_
_space_group_symop_operation_xyz
x,y,z
-x,1/2+y,-z
loop_
_atom_site_type_symbol
_atom_site_label
_atom_site_fract_x
_atom_site_fract_y
_atom_site_fract_z
Si Si1 0.220257 0.710490 0.104458
Si Si2 0.788429 0.814420 0.347409
Si Si3 0.808102 0.875179 0.602618
Si Si4 0.058313 0.874291 0.578896
Si Si5 0.424367 0.115152 0.695850
Si Si6 0.465926 0.968017 0.482243
Si Si7 0.362782 0.180760 0.935292
O O1 0.056483 0.534307 0.266688
O O2 0.107621 0.765418 0.106858
O O3 0.071496 0.835658 0.305952
O O4 0.574062 0.716606 0.805589
O O5 0.765273 0.904056 0.272788
O O6 0.576122 0.644224 0.533444
O O7 0.651841 0.964503 0.525276
O O8 0.943330 0.893173 0.580656
O O9 0.587277 0.032295 0.772702
O O10 0.409357 0.839798 0.273605
O O11 0.886544 0.719162 0.776818
O O12 0.587501 0.293670 0.524851
O O13 0.242198 0.151059 0.941891
O O14 0.288847 0.029559 0.724894
#
# Coordination Sequence:
#
# PCOD9119575 Si02
#       7
#     2   2   2   2   2   2   2
#     4  12  25  43  70  99 139 182 234 291 347 419
#     4   9  17  36  62 102 132 177 225 280 344 414
#     4  12  24  45  67  97 137 187 233 289 351 414
#     4  12  26  43  66 101 137 183 238 290 348 414
#     4   9  17  36  63 101 133 177 224 281 344 414
#     4   8  16  32  66  95 137 172 223 279 346 411
#     4  12  25  43  70  99 139 182 233 290 348 418
#
# _framework density 26.193708999999998
#
# number of rings (size 3 to 8) (size 9 to 14) (size 15 to 20)
#    0.857    0.571    1.429    5.143    0.000    0.000 
#    0.000    0.000    0.000   30.857    0.000    0.000 
#    0.000    0.000    0.000    0.000    0.000    0.000 
#
# Total GULP energy -78182.384158 kJ/mol
# GULP energy per Si atom -5584.456011 kJ/mol
# Density = 2.613409 g / cm^3
# Si number density = 26.193709 Si / 1000 Ang^3
#
#
#
# Elastic Constant Matrix: (Units=GPa)
#
#
# Indices 1 2 3 4 5 6 
#
# 1 141.4071 27.1651 28.1460 0.0000 9.1557 0.0000
# 2 27.1651 154.1409 32.7246 0.0000 9.3858 0.0000
# 3 28.1460 32.7246 111.4719 0.0000 5.8926 0.0000
# 4 0.0000 0.0000 0.0000 33.4268 0.0000 2.1937
# 5 9.1557 9.3858 5.8926 0.0000 24.8591 0.0000
# 6 0.0000 0.0000 0.0000 2.1937 0.0000 69.4114
#
#
#
# Elastic Compliance Matrix: (Units=1/GPa)
#
#
# Indices 1 2 3 4 5 6 
#
# 1 0.007693 -0.000894 -0.001568 0.000000 -0.002124 0.000000
# 2 -0.000894 0.007139 -0.001767 0.000000 -0.001947 0.000000
# 3 -0.001568 -0.001767 0.009944 0.000000 -0.001113 0.000000
# 4 0.000000 0.000000 0.000000 0.029978 0.000000 -0.000947
# 5 -0.002124 -0.001947 -0.001113 0.000000 0.042008 0.000000
# 6 0.000000 0.000000 0.000000 -0.000947 0.000000 0.014437
#
#
# Mechanical properties :
#
#
# Convention : Reuss Voigt Hill
#
# Bulk Modulus (GPa) = 61.27810 64.78793 63.03302
# Shear Modulus (GPa) = 39.96924 46.80506 43.38715
#
# Velocity S-wave (km/s) = 3.91053 4.23174 4.07430
# Velocity P-wave (km/s) = 6.62077 6.97601 6.80071
#
# Compressibility (1/GPa) = 0.01631904
#
# Stress axis : x y z
#
# Youngs Moduli (GPa) = 129.98736 140.07955 100.55976
#
# Poissons Ratio (x) = 0.12517 0.15766
# Poissons Ratio (y) = 0.11615 0.17771
# Poissons Ratio (z) = 0.20380 0.24754
#
# Static dielectric constant tensor:
#      x y z
#    x 1.890360 0.000000 -0.144650 
#    y 0.000000 2.235860 0.000000 
#    z -0.144650 0.000000 1.840370 
# 
# From -- ./inp_files/14172.got.cif
#   From: 2010.05.17/outbox.cif.g08.bks.cpg/sg4_8_cif.got.tgz:14172.got - 2010.06.03 18:43:04.
