data_PCOD9119731
_publ_section_title
;
Structure prediction by ZEFSAII (Michael W. Deem and Ramdas Pophale) SiO2 
 PCOD9119731
Probable space group: P 21
;
_chemical_formula_sum "Si O2"
_cell_formula_units_Z 14
_cell_length_a 16.009151
_cell_length_b 5.456155
_cell_length_c 9.648650
_cell_angle_alpha 90.000000
_cell_angle_beta 38.018208
_cell_angle_gamma 90.000000
_cell_volume 519.086966
_symmetry_space_group_name_H-M "P 21"
_symmetry_group_IT_number 4
_symmetry_cell_setting 'monoclinic'
loop_
_space_group_symop_operation_xyz
x,y,z
-x,1/2+y,-z
loop_
_atom_site_type_symbol
_atom_site_label
_atom_site_fract_x
_atom_site_fract_y
_atom_site_fract_z
Si Si1 0.843501 0.028490 0.807019
Si Si2 0.634824 0.783042 0.252475
Si Si3 0.213628 0.036206 0.262750
Si Si4 0.343355 0.614014 0.541417
Si Si5 0.919948 0.672656 0.301494
Si Si6 0.864765 0.480136 0.069656
Si Si7 0.507877 0.118140 0.910872
O O1 0.838799 0.273273 0.719796
O O2 0.959213 0.034479 0.773001
O O3 0.859423 0.779327 0.699113
O O4 0.700820 0.997630 0.073999
O O5 0.479508 0.753100 0.413991
O O6 0.754071 0.580360 0.105299
O O7 0.636340 0.855368 0.412527
O O8 0.205501 0.092397 0.438755
O O9 0.369729 0.053284 0.010457
O O10 0.208207 0.736535 0.774421
O O11 0.359326 0.600897 0.356964
O O12 0.894029 0.620784 0.174244
O O13 0.993522 0.937383 0.195153
O O14 0.512881 0.896073 0.012779
#
# Coordination Sequence:
#
# PCOD9119731 Si02
#       7
#     2   2   2   2   2   2   2
#     4  12  26  51  77 114 151 212 264 323 385 477
#     4  12  26  48  81 118 156 207 273 327 404 471
#     4  12  28  50  79 111 156 206 265 321 397 473
#     4  12  27  47  84 110 159 207 262 336 394 479
#     4  12  28  49  77 111 159 206 263 324 395 474
#     4  12  28  50  75 118 157 211 263 333 397 472
#     4  12  29  49  77 116 156 201 258 326 402 472
#
# _framework density 26.97043
#
# number of rings (size 3 to 8) (size 9 to 14) (size 15 to 20)
#    0.000    0.000    4.286    4.286    6.000    2.286 
#    0.000    0.000    0.000    0.000    0.000    0.000 
#    0.000    0.000    0.000    0.000    0.000    0.000 
#
# Total GULP energy -78293.638445 kJ/mol
# GULP energy per Si atom -5592.402746 kJ/mol
# Density = 2.690904 g / cm^3
# Si number density = 26.970430 Si / 1000 Ang^3
#
#
#
# Elastic Constant Matrix: (Units=GPa)
#
#
# Indices 1 2 3 4 5 6 
#
# 1 107.5184 38.7729 -1.8087 0.0000 -5.9982 0.0000
# 2 38.7729 111.6221 26.8863 0.0000 9.2722 0.0000
# 3 -1.8087 26.8863 118.9911 0.0000 7.1682 0.0000
# 4 0.0000 0.0000 0.0000 24.2733 0.0000 2.8228
# 5 -5.9982 9.2722 7.1682 0.0000 46.9972 0.0000
# 6 0.0000 0.0000 0.0000 2.8228 0.0000 57.9560
#
#
#
# Elastic Compliance Matrix: (Units=1/GPa)
#
#
# Indices 1 2 3 4 5 6 
#
# 1 0.010954 -0.004217 0.000994 0.000000 0.002078 0.000000
# 2 -0.004217 0.011212 -0.002454 0.000000 -0.002376 0.000000
# 3 0.000994 -0.002454 0.009020 0.000000 -0.000765 0.000000
# 4 0.000000 0.000000 0.000000 0.041432 0.000000 -0.002018
# 5 0.002078 -0.002376 -0.000765 0.000000 0.022128 0.000000
# 6 0.000000 0.000000 0.000000 -0.002018 0.000000 0.017353
#
#
# Mechanical properties :
#
#
# Convention : Reuss Voigt Hill
#
# Bulk Modulus (GPa) = 50.42508 51.75916 51.09212
# Shear Modulus (GPa) = 38.44237 44.13072 41.28655
#
# Velocity S-wave (km/s) = 3.77948 4.04946 3.91680
# Velocity P-wave (km/s) = 6.14679 6.41069 6.28012
#
# Compressibility (1/GPa) = 0.01983140
#
# Stress axis : x y z
#
# Youngs Moduli (GPa) = 91.28932 89.18842 110.86802
#
# Poissons Ratio (x) = 0.37612 -0.11022
# Poissons Ratio (y) = 0.38498 0.27211
# Poissons Ratio (z) = -0.09076 0.21890
#
# Static dielectric constant tensor:
#      x y z
#    x 2.159490 0.000000 0.065000 
#    y 0.000000 2.198940 0.000000 
#    z 0.065000 0.000000 2.171730 
# 
# From -- ./inp_files/8562.got.cif
#   From: 2010.05.17/outbox.cif.g08.bks.cpg/sg4_5_cif.got.tgz:8562.got - 2010.06.03 18:43:04.
