data_PCOD9119071
_publ_section_title
;
Structure prediction by ZEFSAII (Michael W. Deem and Ramdas Pophale) SiO2 
 PCOD9119071
Probable space group: P 21
;
_chemical_formula_sum "Si O2"
_cell_formula_units_Z 12
_cell_length_a 10.518386
_cell_length_b 8.461094
_cell_length_c 12.071111
_cell_angle_alpha 90.000000
_cell_angle_beta 25.870533
_cell_angle_gamma 90.000000
_cell_volume 468.756163
_symmetry_space_group_name_H-M "P 21"
_symmetry_group_IT_number 4
_symmetry_cell_setting 'monoclinic'
loop_
_space_group_symop_operation_xyz
x,y,z
-x,1/2+y,-z
loop_
_atom_site_type_symbol
_atom_site_label
_atom_site_fract_x
_atom_site_fract_y
_atom_site_fract_z
Si Si1 0.614050 0.468960 0.434133
Si Si2 0.594667 0.497955 0.851642
Si Si3 0.749068 0.857948 0.065479
Si Si4 0.911511 0.789343 0.497360
Si Si5 0.889316 0.792983 0.270066
Si Si6 0.417070 0.010628 0.872217
O O1 0.446195 0.438143 0.683682
O O2 0.746866 0.644952 0.318627
O O3 0.362428 0.424860 0.544805
O O4 0.809774 0.379360 0.996205
O O5 0.316189 0.451641 0.997800
O O6 0.721725 0.663207 0.710174
O O7 0.805744 0.348033 0.661453
O O8 0.594940 0.510178 0.983693
O O9 0.096626 0.864195 0.810170
O O10 0.658015 0.677596 0.119702
O O11 0.956405 0.725942 0.339433
O O12 0.742943 0.950969 0.603047
#
# Coordination Sequence:
#
# PCOD9119071 Si02
#       6
#     2   2   2   2   2   2
#     4  12  29  49  77 106 152 196 252 308 371 444
#     4  11  24  43  72 107 148 194 246 309 378 446
#     4  12  28  47  77 110 150 197 249 308 377 444
#     4  11  24  44  72 104 147 190 249 306 375 443
#     4  11  27  48  74 108 145 200 250 310 371 445
#     4  11  26  43  76 105 150 193 252 307 378 448
#
# _framework density 25.599663
#
# number of rings (size 3 to 8) (size 9 to 14) (size 15 to 20)
#    0.000    0.667    1.667    4.000   14.000    2.667 
#    0.000    0.000    0.000    0.000    0.000    0.000 
#    0.000    0.000    0.000    0.000    0.000    0.000 
#
# Total GULP energy -67183.845857 kJ/mol
# GULP energy per Si atom -5598.653821 kJ/mol
# Density = 2.554140 g / cm^3
# Si number density = 25.599663 Si / 1000 Ang^3
#
#
#
# Elastic Constant Matrix: (Units=GPa)
#
#
# Indices 1 2 3 4 5 6 
#
# 1 101.8792 3.0308 38.7159 0.0000 -2.1553 0.0000
# 2 3.0308 94.1318 15.5684 0.0000 11.0483 0.0000
# 3 38.7159 15.5684 78.0799 0.0000 -13.7604 0.0000
# 4 0.0000 0.0000 0.0000 42.9084 0.0000 -13.3183
# 5 -2.1553 11.0483 -13.7604 0.0000 31.3566 0.0000
# 6 0.0000 0.0000 0.0000 -13.3183 0.0000 44.7516
#
#
#
# Elastic Compliance Matrix: (Units=1/GPa)
#
#
# Indices 1 2 3 4 5 6 
#
# 1 0.012291 0.001006 -0.006729 0.000000 -0.002463 0.000000
# 2 0.001006 0.011923 -0.003907 0.000000 -0.005846 0.000000
# 3 -0.006729 -0.003907 0.018516 0.000000 0.009039 0.000000
# 4 0.000000 0.000000 0.000000 0.025677 0.000000 0.007642
# 5 -0.002463 -0.005846 0.009039 0.000000 0.037749 0.000000
# 6 0.000000 0.000000 0.000000 0.007642 0.000000 0.024620
#
#
# Mechanical properties :
#
#
# Convention : Reuss Voigt Hill
#
# Bulk Modulus (GPa) = 42.60556 43.19126 42.89841
# Shear Modulus (GPa) = 31.67401 38.25505 34.96453
#
# Velocity S-wave (km/s) = 3.52132 3.86989 3.69971
# Velocity P-wave (km/s) = 5.76299 6.07260 5.91982
#
# Compressibility (1/GPa) = 0.02347112
#
# Stress axis : x y z
#
# Youngs Moduli (GPa) = 81.36278 83.86937 54.00747
#
# Poissons Ratio (x) = -0.08439 0.36341
# Poissons Ratio (y) = -0.08187 0.21099
# Poissons Ratio (z) = 0.54749 0.32765
#
# Static dielectric constant tensor:
#      x y z
#    x 1.978640 0.000000 0.069030 
#    y 0.000000 2.000080 0.000000 
#    z 0.069030 0.000000 2.098120 
# 
# From -- ./inp_files/10836.got.cif
#   From: 2010.05.17/outbox.cif.g08.bks.cpg/sg4_6_cif.got.tgz:10836.got - 2010.06.03 18:43:04.
