data_PCOD9119147
_publ_section_title
;
Structure prediction by ZEFSAII (Michael W. Deem and Ramdas Pophale) SiO2 
 PCOD9119147
Probable space group: P 21
;
_chemical_formula_sum "Si O2"
_cell_formula_units_Z 14
_cell_length_a 10.885268
_cell_length_b 7.954239
_cell_length_c 9.261017
_cell_angle_alpha 90.000000
_cell_angle_beta 46.456805
_cell_angle_gamma 90.000000
_cell_volume 581.229586
_symmetry_space_group_name_H-M "P 21"
_symmetry_group_IT_number 4
_symmetry_cell_setting 'monoclinic'
loop_
_space_group_symop_operation_xyz
x,y,z
-x,1/2+y,-z
loop_
_atom_site_type_symbol
_atom_site_label
_atom_site_fract_x
_atom_site_fract_y
_atom_site_fract_z
Si Si1 0.154760 0.704500 0.509664
Si Si2 0.022515 0.398405 0.790056
Si Si3 0.329500 0.961158 0.845718
Si Si4 0.407145 0.923733 0.456471
Si Si5 0.843795 0.934168 0.738743
Si Si6 0.331425 0.262535 0.355355
Si Si7 0.232829 0.345135 0.891637
O O1 0.062933 0.588022 0.703802
O O2 0.330503 0.767321 0.432415
O O3 0.173558 0.593702 0.351016
O O4 0.035001 0.863934 0.578387
O O5 0.155382 0.297790 0.583718
O O6 0.077011 0.359896 0.909521
O O7 0.822170 0.369757 0.945057
O O8 0.315287 0.935237 0.684129
O O9 0.513384 0.891209 0.741038
O O10 0.286108 0.158083 0.896002
O O11 0.605039 0.908022 0.328640
O O12 0.387309 0.083610 0.369272
O O13 0.724190 0.790428 0.764296
O O14 0.796186 0.954564 0.942817
#
# Coordination Sequence:
#
# PCOD9119147 Si02
#       7
#     2   2   2   2   2   2   2
#     4  11  25  49  75 104 151 199 253 310 383 449
#     4  11  24  45  77 106 144 196 256 308 372 447
#     4  12  24  46  78 108 152 194 258 314 369 447
#     4  12  25  44  77 107 153 195 254 317 369 441
#     4  11  25  49  70 108 154 194 253 310 381 455
#     4  11  26  47  72 109 151 197 245 312 378 451
#     4  12  25  46  73 112 147 197 255 309 378 448
#
# _framework density 24.086867000000002
#
# number of rings (size 3 to 8) (size 9 to 14) (size 15 to 20)
#    0.000    0.571    4.286    3.429    2.000    2.286 
#   12.857    0.000    0.000    0.000    0.000    0.000 
#    0.000    0.000    0.000    0.000    0.000    0.000 
#
# Total GULP energy -78360.930346 kJ/mol
# GULP energy per Si atom -5597.209310 kJ/mol
# Density = 2.403204 g / cm^3
# Si number density = 24.086867 Si / 1000 Ang^3
#
#
#
# Elastic Constant Matrix: (Units=GPa)
#
#
# Indices 1 2 3 4 5 6 
#
# 1 65.8291 -5.5945 21.2296 0.0000 3.6124 0.0000
# 2 -5.5945 62.7706 22.0843 0.0000 0.0160 0.0000
# 3 21.2296 22.0843 111.3726 0.0000 -4.7070 0.0000
# 4 0.0000 0.0000 0.0000 20.6899 0.0000 9.8866
# 5 3.6124 0.0160 -4.7070 0.0000 43.7142 0.0000
# 6 0.0000 0.0000 0.0000 9.8866 0.0000 37.6346
#
#
#
# Elastic Compliance Matrix: (Units=1/GPa)
#
#
# Indices 1 2 3 4 5 6 
#
# 1 0.016769 0.002845 -0.003837 0.000000 -0.001800 0.000000
# 2 0.002845 0.017614 -0.004064 0.000000 -0.000679 0.000000
# 3 -0.003837 -0.004064 0.010578 0.000000 0.001457 0.000000
# 4 0.000000 0.000000 0.000000 0.055271 0.000000 -0.014520
# 5 -0.001800 -0.000679 0.001457 0.000000 0.023182 0.000000
# 6 0.000000 0.000000 0.000000 -0.014520 0.000000 0.030386
#
#
# Mechanical properties :
#
#
# Convention : Reuss Voigt Hill
#
# Bulk Modulus (GPa) = 28.69469 35.04566 31.87017
# Shear Modulus (GPa) = 28.48571 33.89127 31.18849
#
# Velocity S-wave (km/s) = 3.44266 3.75513 3.60228
# Velocity P-wave (km/s) = 5.26701 5.77777 5.52829
#
# Compressibility (1/GPa) = 0.03484965
#
# Stress axis : x y z
#
# Youngs Moduli (GPa) = 59.63506 56.77144 94.53945
#
# Poissons Ratio (x) = -0.16150 0.36271
# Poissons Ratio (y) = -0.16965 0.38419
# Poissons Ratio (z) = 0.22879 0.23071
#
# Static dielectric constant tensor:
#      x y z
#    x 1.882830 0.000000 -0.008680 
#    y 0.000000 1.967690 0.000000 
#    z -0.008680 0.000000 1.903300 
# 
# From -- ./inp_files/7940.got.cif
#   From: 2010.05.17/outbox.cif.g08.bks.cpg/sg4_4_cif.got.tgz:7940.got - 2010.06.03 18:43:04.
