data_PCOD9119794
_publ_section_title
;
Structure prediction by ZEFSAII (Michael W. Deem and Ramdas Pophale) SiO2 
 PCOD9119794
Probable space group: P 21
;
_chemical_formula_sum "Si O2"
_cell_formula_units_Z 8
_cell_length_a 11.190292
_cell_length_b 5.319870
_cell_length_c 5.119437
_cell_angle_alpha 90.000000
_cell_angle_beta 96.110381
_cell_angle_gamma 90.000000
_cell_volume 303.033218
_symmetry_space_group_name_H-M "P 21"
_symmetry_group_IT_number 4
_symmetry_cell_setting 'monoclinic'
loop_
_space_group_symop_operation_xyz
x,y,z
-x,1/2+y,-z
loop_
_atom_site_type_symbol
_atom_site_label
_atom_site_fract_x
_atom_site_fract_y
_atom_site_fract_z
Si Si1 0.996580 0.344450 0.825572
Si Si2 0.649468 0.979449 0.815378
Si Si3 0.195447 0.145101 0.488603
Si Si4 0.386270 0.799039 0.713315
O O1 0.102523 0.295417 0.644406
O O2 0.876014 0.402119 0.632880
O O3 0.014561 0.597431 0.998724
O O4 0.755555 0.801671 0.743658
O O5 0.524781 0.829902 0.822594
O O6 0.620746 0.167702 0.569268
O O7 0.675941 0.132364 0.080992
O O8 0.313055 0.057063 0.672422
#
# Coordination Sequence:
#
# PCOD9119794 Si02
#       4
#     2   2   2   2
#     4  12  32  56  86 124 176 240 298 364 436 516
#     4  12  29  53  86 129 172 227 288 361 444 524
#     4  12  32  54  80 128 172 230 298 358 440 524
#     4  12  29  53  86 129 172 227 288 361 444 524
#
# _framework density 26.399747999999999
#
# number of rings (size 3 to 8) (size 9 to 14) (size 15 to 20)
#    0.000    0.000    2.500    3.000   17.500    0.000 
#    0.000    0.000    0.000    0.000    0.000    0.000 
#    0.000    0.000    0.000    0.000    0.000    0.000 
#
# Total GULP energy -45017.048398 kJ/mol
# GULP energy per Si atom -5627.131050 kJ/mol
# Density = 2.633966 g / cm^3
# Si number density = 26.399748 Si / 1000 Ang^3
#
#
#
# Elastic Constant Matrix: (Units=GPa)
#
#
# Indices 1 2 3 4 5 6 
#
# 1 123.8661 40.9023 57.0787 0.0000 -22.0193 0.0000
# 2 40.9023 127.7126 53.2399 0.0000 -22.0464 0.0000
# 3 57.0787 53.2399 97.0011 0.0000 -29.4695 0.0000
# 4 0.0000 0.0000 0.0000 74.2918 0.0000 4.8301
# 5 -22.0193 -22.0464 -29.4695 0.0000 49.9385 0.0000
# 6 0.0000 0.0000 0.0000 4.8301 0.0000 51.7724
#
#
#
# Elastic Compliance Matrix: (Units=1/GPa)
#
#
# Indices 1 2 3 4 5 6 
#
# 1 0.011244 -0.001025 -0.005709 0.000000 0.001137 0.000000
# 2 -0.001025 0.010334 -0.004654 0.000000 0.001363 0.000000
# 3 -0.005709 -0.004654 0.018074 0.000000 0.006094 0.000000
# 4 0.000000 0.000000 0.000000 0.013543 0.000000 -0.001263
# 5 0.001137 0.001363 0.006094 0.000000 0.024724 0.000000
# 6 0.000000 0.000000 0.000000 -0.001263 0.000000 0.019433
#
#
# Mechanical properties :
#
#
# Convention : Reuss Voigt Hill
#
# Bulk Modulus (GPa) = 59.25458 72.33575 65.79517
# Shear Modulus (GPa) = 39.76003 48.35781 44.05892
#
# Velocity S-wave (km/s) = 3.88503 4.28454 4.08967
# Velocity P-wave (km/s) = 6.52828 7.20667 6.87585
#
# Compressibility (1/GPa) = 0.01687633
#
# Stress axis : x y z
#
# Youngs Moduli (GPa) = 88.93319 96.76680 55.32720
#
# Poissons Ratio (x) = 0.09921 0.31584
# Poissons Ratio (y) = 0.09118 0.25752
# Poissons Ratio (z) = 0.50768 0.45040
#
# Static dielectric constant tensor:
#      x y z
#    x 2.026750 0.000000 0.044160 
#    y 0.000000 2.091630 0.000000 
#    z 0.044160 0.000000 2.006270 
# 
# From -- ./inp_files/2258.got.cif
#   From: 2010.05.17/outbox.cif.g08.bks.cpg/sg4_2_cif.got.tgz:2258.got - 2010.06.03 18:43:04.
