data_PCOD9119103
_publ_section_title
;
Structure prediction by ZEFSAII (Michael W. Deem and Ramdas Pophale) SiO2 
 PCOD9119103
Probable space group: P 21
;
_chemical_formula_sum "Si O2"
_cell_formula_units_Z 16
_cell_length_a 9.167840
_cell_length_b 12.831334
_cell_length_c 8.213017
_cell_angle_alpha 90.000000
_cell_angle_beta 53.451024
_cell_angle_gamma 90.000000
_cell_volume 776.149419
_symmetry_space_group_name_H-M "P 21"
_symmetry_group_IT_number 4
_symmetry_cell_setting 'monoclinic'
loop_
_space_group_symop_operation_xyz
x,y,z
-x,1/2+y,-z
loop_
_atom_site_type_symbol
_atom_site_label
_atom_site_fract_x
_atom_site_fract_y
_atom_site_fract_z
Si Si1 0.633441 0.279800 0.538865
Si Si2 0.540411 0.104897 0.363631
Si Si3 0.873747 0.201050 0.667152
Si Si4 0.635704 0.826660 0.008745
Si Si5 0.251185 0.127888 0.268096
Si Si6 0.250179 0.971738 0.728990
Si Si7 0.847123 0.026167 0.942556
Si Si8 0.268151 0.906240 0.087503
O O1 0.590896 0.214859 0.407126
O O2 0.749348 0.212894 0.590033
O O3 0.740689 0.382785 0.415244
O O4 0.451428 0.311472 0.755145
O O5 0.411260 0.115492 0.292982
O O6 0.423559 0.043447 0.575952
O O7 0.722174 0.048344 0.182202
O O8 0.801678 0.113570 0.838669
O O9 0.860945 0.312860 0.765005
O O10 0.072598 0.167082 0.479627
O O11 0.696989 0.716552 0.896300
O O12 0.792987 0.912325 0.912680
O O13 0.469709 0.871978 0.011173
O O14 0.222601 0.016025 0.203142
O O15 0.260408 0.922182 0.900267
O O16 0.059877 0.031190 0.839598
#
# Coordination Sequence:
#
# PCOD9119103 Si02
#       8
#     2   2   2   2   2   2   2   2
#     4  11  24  46  70 103 141 181 236 289 349 416
#     4  12  24  46  70 104 139 182 232 293 347 412
#     4  11  26  45  72 103 142 189 231 292 350 423
#     4  11  24  44  74 100 141 190 230 285 361 418
#     4  12  24  46  72 105 142 189 234 287 355 421
#     4  12  25  46  69 106 142 179 237 296 342 417
#     4  12  25  46  71 104 144 185 232 289 356 417
#     4  11  26  47  70 103 145 185 240 287 350 426
#
# _framework density 20.614587
#
# number of rings (size 3 to 8) (size 9 to 14) (size 15 to 20)
#    0.000    0.500    3.750    5.250    5.250    1.000 
#    6.750    0.000    0.000    0.000    0.000    0.000 
#    0.000    0.000    0.000    0.000    0.000    0.000 
#
# Total GULP energy -89532.927577 kJ/mol
# GULP energy per Si atom -5595.807974 kJ/mol
# Density = 2.056767 g / cm^3
# Si number density = 20.614587 Si / 1000 Ang^3
#
#
#
# Elastic Constant Matrix: (Units=GPa)
#
#
# Indices 1 2 3 4 5 6 
#
# 1 9.8886 9.6601 19.5371 0.0000 -0.5558 0.0000
# 2 9.6601 116.8434 43.0960 0.0000 -2.5364 0.0000
# 3 19.5371 43.0960 114.5357 0.0000 -14.2227 0.0000
# 4 0.0000 0.0000 0.0000 53.8624 0.0000 9.9869
# 5 -0.5558 -2.5364 -14.2227 0.0000 35.7734 0.0000
# 6 0.0000 0.0000 0.0000 9.9869 0.0000 30.4444
#
#
#
# Elastic Compliance Matrix: (Units=1/GPa)
#
#
# Indices 1 2 3 4 5 6 
#
# 1 0.156080 -0.003349 -0.026395 0.000000 -0.008307 0.000000
# 2 -0.003349 0.010033 -0.003284 0.000000 -0.000646 0.000000
# 3 -0.026395 -0.003284 0.015136 0.000000 0.005375 0.000000
# 4 0.000000 0.000000 0.000000 0.019768 0.000000 -0.006485
# 5 -0.008307 -0.000646 0.005375 0.000000 0.029916 0.000000
# 6 0.000000 0.000000 0.000000 -0.006485 0.000000 0.034974
#
#
# Mechanical properties :
#
#
# Convention : Reuss Voigt Hill
#
# Bulk Modulus (GPa) = 8.68108 42.87269 25.77689
# Shear Modulus (GPa) = 13.50040 35.28101 24.39071
#
# Velocity S-wave (km/s) = 2.56187 4.14147 3.44347
# Velocity P-wave (km/s) = 3.60155 6.61146 5.32365
#
# Compressibility (1/GPa) = 0.11519298
#
# Stress axis : x y z
#
# Youngs Moduli (GPa) = 6.40699 99.67566 66.06634
#
# Poissons Ratio (x) = 0.33381 1.74381
# Poissons Ratio (y) = 0.02146 0.21696
# Poissons Ratio (z) = 0.16911 0.32733
#
# Static dielectric constant tensor:
#      x y z
#    x 1.708500 0.000000 -0.009200 
#    y 0.000000 1.734190 0.000000 
#    z -0.009200 0.000000 1.727790 
# 
# From -- ./inp_files/6391.got.cif
#   From: 2010.05.17/outbox.cif.g08.bks.cpg/sg4_4_cif.got.tgz:6391.got - 2010.06.03 18:43:04.
