data_PCOD9119537
_publ_section_title
;
Structure prediction by ZEFSAII (Michael W. Deem and Ramdas Pophale) SiO2 
 PCOD9119537
Probable space group: P 21
;
_chemical_formula_sum "Si O2"
_cell_formula_units_Z 14
_cell_length_a 10.888371
_cell_length_b 8.250701
_cell_length_c 6.490064
_cell_angle_alpha 90.000000
_cell_angle_beta 91.890030
_cell_angle_gamma 90.000000
_cell_volume 582.728696
_symmetry_space_group_name_H-M "P 21"
_symmetry_group_IT_number 4
_symmetry_cell_setting 'monoclinic'
loop_
_space_group_symop_operation_xyz
x,y,z
-x,1/2+y,-z
loop_
_atom_site_type_symbol
_atom_site_label
_atom_site_fract_x
_atom_site_fract_y
_atom_site_fract_z
Si Si1 0.930445 0.281550 0.749485
Si Si2 0.113175 0.569219 0.579939
Si Si3 0.465169 0.112887 0.393787
Si Si4 0.249895 0.346093 0.257328
Si Si5 0.675471 0.111118 0.082200
Si Si6 0.068725 0.069354 0.084818
Si Si7 0.647823 0.283275 0.693651
O O1 0.977473 0.199356 0.528691
O O2 0.875469 0.396456 0.949365
O O3 0.789661 0.249626 0.653389
O O4 0.989581 0.142214 0.901426
O O5 0.178012 0.439619 0.434676
O O6 0.211719 0.628576 0.753084
O O7 0.009732 0.473185 0.727641
O O8 0.373416 0.261334 0.345743
O O9 0.556806 0.072788 0.211773
O O10 0.553797 0.156749 0.586630
O O11 0.382941 0.954280 0.409391
O O12 0.161836 0.204067 0.164693
O O13 0.284086 0.468950 0.074163
O O14 0.635013 0.260643 0.936711
#
# Coordination Sequence:
#
# PCOD9119537 Si02
#       7
#     2   2   2   2   2   2   2
#     4  12  24  47  71 103 145 187 239 301 358 428
#     4  12  23  46  72 103 148 188 236 305 358 420
#     4  12  26  46  76 105 146 191 243 299 364 432
#     4  12  26  46  74 110 146 190 244 300 358 438
#     4  12  23  46  72 103 148 188 236 305 358 420
#     4  12  26  46  76 105 146 191 243 299 364 432
#     4  12  24  47  71 103 145 187 239 301 358 428
#
# _framework density 24.024902000000001
#
# number of rings (size 3 to 8) (size 9 to 14) (size 15 to 20)
#    0.000    0.000    5.714    5.143    0.000    0.000 
#    0.000    1.429    0.000    0.000    0.000    0.000 
#    0.000    0.000    0.000    0.000    0.000    0.000 
#
# Total GULP energy -78046.743715 kJ/mol
# GULP energy per Si atom -5574.767408 kJ/mol
# Density = 2.397022 g / cm^3
# Si number density = 24.024902 Si / 1000 Ang^3
#
#
#
# Elastic Constant Matrix: (Units=GPa)
#
#
# Indices 1 2 3 4 5 6 
#
# 1 117.2885 46.6504 64.2132 0.0000 20.4590 0.0000
# 2 46.6504 142.5748 69.9567 0.0000 35.6457 0.0000
# 3 64.2132 69.9567 137.0289 0.0000 38.2725 0.0000
# 4 0.0000 0.0000 0.0000 40.0154 0.0000 18.3964
# 5 20.4590 35.6457 38.2725 0.0000 50.9006 0.0000
# 6 0.0000 0.0000 0.0000 18.3964 0.0000 46.4594
#
#
#
# Elastic Compliance Matrix: (Units=1/GPa)
#
#
# Indices 1 2 3 4 5 6 
#
# 1 0.011711 -0.001499 -0.004685 0.000000 -0.000134 0.000000
# 2 -0.001499 0.010151 -0.003370 0.000000 -0.003972 0.000000
# 3 -0.004685 -0.003370 0.012694 0.000000 -0.005302 0.000000
# 4 0.000000 0.000000 0.000000 0.030552 0.000000 -0.012098
# 5 -0.000134 -0.003972 -0.005302 0.000000 0.026468 0.000000
# 6 0.000000 0.000000 0.000000 -0.012098 0.000000 0.026314
#
#
# Mechanical properties :
#
#
# Convention : Reuss Voigt Hill
#
# Bulk Modulus (GPa) = 64.73620 84.28143 74.50882
# Shear Modulus (GPa) = 35.17430 41.87989 38.52709
#
# Velocity S-wave (km/s) = 3.83048 4.17968 4.00888
# Velocity P-wave (km/s) = 6.82403 7.64526 7.24629
#
# Compressibility (1/GPa) = 0.01544731
#
# Stress axis : x y z
#
# Youngs Moduli (GPa) = 85.39282 98.50943 78.77440
#
# Poissons Ratio (x) = 0.14771 0.36903
# Poissons Ratio (y) = 0.12805 0.26550
# Poissons Ratio (z) = 0.40003 0.33202
#
# Static dielectric constant tensor:
#      x y z
#    x 1.963520 0.000000 -0.130420 
#    y 0.000000 1.990930 0.000000 
#    z -0.130420 0.000000 2.174900 
# 
# From -- ./inp_files/2392.got.cif
#   From: 2010.05.17/outbox.cif.g08.bks.cpg/sg4_2_cif.got.tgz:2392.got - 2010.06.03 18:43:04.
