data_PCOD9119972
_publ_section_title
;
Structure prediction by ZEFSAII (Michael W. Deem and Ramdas Pophale) SiO2 
 PCOD9119972
Probable space group: C 2
;
_chemical_formula_sum "Si O2"
_cell_formula_units_Z 28
_cell_length_a 22.932113
_cell_length_b 8.275542
_cell_length_c 19.949845
_cell_angle_alpha 90.000000
_cell_angle_beta 19.097550
_cell_angle_gamma 90.000000
_cell_volume 1238.692378
_symmetry_space_group_name_H-M "C 2"
_symmetry_group_IT_number 5
_symmetry_cell_setting 'monoclinic'
loop_
_space_group_symop_operation_xyz
x,y,z
-x,y,-z
1/2+x,1/2+y,z
1/2-x,1/2+y,-z
loop_
_atom_site_type_symbol
_atom_site_label
_atom_site_fract_x
_atom_site_fract_y
_atom_site_fract_z
Si Si1 0.500000 0.814410 0.000000
Si Si2 0.511477 0.616227 0.766633
Si Si3 0.574649 0.760391 0.278806
Si Si4 0.500000 0.606758 0.500000
Si Si5 0.500020 0.259381 0.209176
Si Si6 0.213667 0.823953 0.223797
Si Si7 0.549833 0.930336 0.802181
Si Si8 0.085452 0.626245 0.257261
O O1 0.345639 0.720801 0.127568
O O2 0.419252 0.911724 0.151630
O O3 0.501611 0.649655 0.697948
O O4 0.577281 0.438929 0.716556
O O5 0.604238 0.768235 0.702944
O O6 0.300621 0.613129 0.015521
O O7 0.510165 0.706204 0.421392
O O8 0.516434 0.944853 0.329780
O O9 0.791254 0.758360 0.040620
O O10 0.659695 0.478271 0.325038
O O11 0.511240 0.226198 0.276172
O O12 0.408351 0.104298 0.273837
O O13 0.936658 0.720629 0.648747
O O14 0.333139 0.908086 0.035795
#
# Coordination Sequence:
#
# PCOD9119972 Si02
#       8
#     2   4   4   2   4   4   4   4
#     4   8  18  34  54  76 112 146 176 216 278 322
#     4   9  17  27  49  77 103 132 176 226 268 307
#     4  10  18  28  43  77 110 136 167 224 275 311
#     4  12  20  30  50  76 114 142 180 218 268 330
#     4  10  16  28  51  78 105 130 176 233 269 305
#     4   9  19  33  50  77 105 146 175 213 274 323
#     4   9  16  33  50  76 105 137 174 219 270 308
#     4   9  17  29  50  75 105 133 178 228 269 309
#
# _framework density 22.604482999999998
#
# number of rings (size 3 to 8) (size 9 to 14) (size 15 to 20)
#    0.857    1.714    2.857    0.857    4.000    0.571 
#    0.000    0.714    3.143    0.000    7.429    0.000 
#    0.000    0.000    0.000    0.000    0.000    0.000 
#
# Total GULP energy -77967.501156 kJ/mol
# GULP energy per Si atom -5569.107225 kJ/mol
# Density = 2.255303 g / cm^3
# Si number density = 22.604483 Si / 1000 Ang^3
#
#
#
# Elastic Constant Matrix: (Units=GPa)
#
#
# Indices 1 2 3 4 5 6 
#
# 1 81.4143 50.7946 33.6976 0.0013 39.3011 -0.0003
# 2 50.7946 163.8402 38.3390 0.0021 24.8260 -0.0010
# 3 33.6976 38.3390 63.7831 0.0020 15.9257 -0.0006
# 4 0.0013 0.0021 0.0020 15.0627 -0.0015 6.9743
# 5 39.3011 24.8260 15.9257 -0.0015 41.4902 0.0004
# 6 -0.0003 -0.0010 -0.0006 6.9743 0.0004 21.2612
#
#
#
# Elastic Compliance Matrix: (Units=1/GPa)
#
#
# Indices 1 2 3 4 5 6 
#
# 1 0.027950 -0.003734 -0.007155 -0.000004 -0.021495 0.000002
# 2 -0.003734 0.007929 -0.002756 -0.000001 -0.000149 0.000000
# 3 -0.007155 -0.002756 0.021026 -0.000002 0.000356 0.000001
# 4 -0.000004 -0.000001 -0.000002 0.078278 0.000008 -0.025678
# 5 -0.021495 -0.000149 0.000356 0.000008 0.044416 -0.000004
# 6 0.000002 0.000000 0.000001 -0.025678 -0.000004 0.055457
#
#
# Mechanical properties :
#
#
# Convention : Reuss Voigt Hill
#
# Bulk Modulus (GPa) = 33.76667 61.63331 47.69999
# Shear Modulus (GPa) = 18.36771 27.97660 23.17216
#
# Velocity S-wave (km/s) = 2.85365 3.52185 3.20521
# Velocity P-wave (km/s) = 5.08215 6.62292 5.90302
#
# Compressibility (1/GPa) = 0.02961500
#
# Stress axis : x y z
#
# Youngs Moduli (GPa) = 35.77797 126.12536 47.56042
#
# Poissons Ratio (x) = 0.47094 0.34030
# Poissons Ratio (y) = 0.13359 0.13107
# Poissons Ratio (z) = 0.25600 0.34757
#
# Static dielectric constant tensor:
#      x y z
#    x 1.835140 0.000000 -0.048920 
#    y 0.000000 1.851700 0.000000 
#    z -0.048920 0.000000 1.994030 
# 
# From -- ./inp_files/67711.got.cif
#   From: 2010.05.17/outbox.cif.g08.bks.cpg/sg5_34_cif.got.tgz:67711.got - 2010.06.03 18:56:24.
