data_PCOD9119496
_publ_section_title
;
Structure prediction by ZEFSAII (Michael W. Deem and Ramdas Pophale) SiO2 
 PCOD9119496
Probable space group: P 21
;
_chemical_formula_sum "Si O2"
_cell_formula_units_Z 14
_cell_length_a 20.536077
_cell_length_b 4.768160
_cell_length_c 15.946911
_cell_angle_alpha 90.000000
_cell_angle_beta 20.444518
_cell_angle_gamma 90.000000
_cell_volume 545.435882
_symmetry_space_group_name_H-M "P 21"
_symmetry_group_IT_number 4
_symmetry_cell_setting 'monoclinic'
loop_
_space_group_symop_operation_xyz
x,y,z
-x,1/2+y,-z
loop_
_atom_site_type_symbol
_atom_site_label
_atom_site_fract_x
_atom_site_fract_y
_atom_site_fract_z
Si Si1 0.897750 0.146100 0.417347
Si Si2 0.587812 0.756018 0.096250
Si Si3 0.557500 0.050299 0.381350
Si Si4 0.021644 0.467130 0.417797
Si Si5 0.623788 0.746889 0.572875
Si Si6 0.018334 0.676467 0.169899
Si Si7 0.512543 0.909576 0.929179
O O1 0.945683 0.379319 0.291474
O O2 0.704510 0.978571 0.650392
O O3 0.881315 0.322572 0.522868
O O4 0.036739 0.893596 0.226083
O O5 0.495850 0.530386 0.269523
O O6 0.624128 0.564597 0.969677
O O7 0.447882 0.018797 0.271908
O O8 0.787523 0.905389 0.863104
O O9 0.464366 0.226482 0.568797
O O10 0.444301 0.122846 0.433615
O O11 0.775331 0.132315 0.114328
O O12 0.988973 0.785082 0.483643
O O13 0.847932 0.781801 0.315028
O O14 0.512915 0.091441 0.014196
#
# Coordination Sequence:
#
# PCOD9119496 Si02
#       7
#     2   2   2   2   2   2   2
#     4  12  23  42  64  96 131 179 235 272 333 410
#     4  12  23  42  64  96 131 179 235 272 333 410
#     4  12  28  48  74 108 138 170 220 280 350 424
#     4  12  24  40  60  90 134 182 230 290 346 380
#     4  12  24  46  72 101 135 178 224 276 342 413
#     4  12  24  46  72 101 135 178 224 276 342 413
#     4  12  22  36  58  92 132 172 222 280 320 366
#
# _framework density 25.667545
#
# number of rings (size 3 to 8) (size 9 to 14) (size 15 to 20)
#    0.000    0.000    2.857    8.571    0.000    1.143 
#    0.000    0.000    0.000    0.000    0.000    0.000 
#    0.000    0.000    0.000    0.000    0.000    0.000 
#
# Total GULP energy -78328.178799 kJ/mol
# GULP energy per Si atom -5594.869914 kJ/mol
# Density = 2.560912 g / cm^3
# Si number density = 25.667545 Si / 1000 Ang^3
#
#
#
# Elastic Constant Matrix: (Units=GPa)
#
#
# Indices 1 2 3 4 5 6 
#
# 1 97.3465 -1.3079 29.4030 0.0000 -1.9450 0.0000
# 2 -1.3079 132.2578 19.5461 0.0000 5.2632 0.0000
# 3 29.4030 19.5461 122.9145 0.0000 -17.7369 0.0000
# 4 0.0000 0.0000 0.0000 49.8231 0.0000 10.9136
# 5 -1.9450 5.2632 -17.7369 0.0000 31.6052 0.0000
# 6 0.0000 0.0000 0.0000 10.9136 0.0000 39.1557
#
#
#
# Elastic Compliance Matrix: (Units=1/GPa)
#
#
# Indices 1 2 3 4 5 6 
#
# 1 0.011138 0.000581 -0.002907 0.000000 -0.001043 0.000000
# 2 0.000581 0.007911 -0.001721 0.000000 -0.002248 0.000000
# 3 -0.002907 -0.001721 0.009924 0.000000 0.005677 0.000000
# 4 0.000000 0.000000 0.000000 0.021376 0.000000 -0.005958
# 5 -0.001043 -0.002248 0.005677 0.000000 0.035137 0.000000
# 6 0.000000 0.000000 0.000000 -0.005958 0.000000 0.027200
#
#
# Mechanical properties :
#
#
# Convention : Reuss Voigt Hill
#
# Bulk Modulus (GPa) = 47.89766 49.75568 48.82667
# Shear Modulus (GPa) = 39.14243 44.44195 41.79219
#
# Velocity S-wave (km/s) = 3.90933 4.16558 4.03949
# Velocity P-wave (km/s) = 6.25128 6.52402 6.38910
#
# Compressibility (1/GPa) = 0.02087785
#
# Stress axis : x y z
#
# Youngs Moduli (GPa) = 89.78539 126.41306 100.76422
#
# Poissons Ratio (x) = -0.07348 0.29294
# Poissons Ratio (y) = -0.05219 0.17345
# Poissons Ratio (z) = 0.26103 0.21760
#
# Static dielectric constant tensor:
#      x y z
#    x 2.126550 0.000000 -0.067930 
#    y 0.000000 1.951780 0.000000 
#    z -0.067930 0.000000 2.038380 
# 
# From -- ./inp_files/14370.got.cif
#   From: 2010.05.17/outbox.cif.g08.bks.cpg/sg4_8_cif.got.tgz:14370.got - 2010.06.03 18:43:04.
