data_PCOD9119214
_publ_section_title
;
Structure prediction by ZEFSAII (Michael W. Deem and Ramdas Pophale) SiO2 
 PCOD9119214
Probable space group: P 21
;
_chemical_formula_sum "Si O2"
_cell_formula_units_Z 10
_cell_length_a 5.008844
_cell_length_b 9.655635
_cell_length_c 9.342587
_cell_angle_alpha 90.000000
_cell_angle_beta 55.150191
_cell_angle_gamma 90.000000
_cell_volume 370.804445
_symmetry_space_group_name_H-M "P 21"
_symmetry_group_IT_number 4
_symmetry_cell_setting 'monoclinic'
loop_
_space_group_symop_operation_xyz
x,y,z
-x,1/2+y,-z
loop_
_atom_site_type_symbol
_atom_site_label
_atom_site_fract_x
_atom_site_fract_y
_atom_site_fract_z
Si Si1 0.523642 0.305990 0.957086
Si Si2 0.965240 0.776089 0.649726
Si Si3 0.771343 0.538985 0.065712
Si Si4 0.457906 0.536797 0.750328
Si Si5 0.446402 0.429924 0.443620
O O1 0.775836 0.391523 0.979490
O O2 0.516176 0.393936 0.815346
O O3 0.208194 0.328132 0.152684
O O4 0.491897 0.145092 0.923105
O O5 0.769211 0.635903 0.675490
O O6 0.859274 0.876438 0.552625
O O7 0.340425 0.798689 0.568120
O O8 0.131102 0.598466 0.925053
O O9 0.658661 0.515427 0.262567
O O10 0.381902 0.510041 0.608569
#
# Coordination Sequence:
#
# PCOD9119214 Si02
#       5
#     2   2   2   2   2
#     4  11  24  47  79 108 161 208 260 325 395 462
#     4  11  25  51  72 116 155 198 267 325 379 473
#     4  11  26  51  76 119 157 213 265 326 396 476
#     4  12  27  48  82 107 159 212 260 328 404 459
#     4  11  28  49  75 114 156 199 266 328 384 472
#
# _framework density 26.968392999999999
#
# number of rings (size 3 to 8) (size 9 to 14) (size 15 to 20)
#    0.000    0.800    4.000    1.200    8.400    0.000 
#    7.200    0.000    0.000    0.000    0.000    0.000 
#    0.000    0.000    0.000    0.000    0.000    0.000 
#
# Total GULP energy -55973.858577 kJ/mol
# GULP energy per Si atom -5597.385858 kJ/mol
# Density = 2.690701 g / cm^3
# Si number density = 26.968393 Si / 1000 Ang^3
#
#
#
# Elastic Constant Matrix: (Units=GPa)
#
#
# Indices 1 2 3 4 5 6 
#
# 1 89.6563 28.2863 52.6407 0.0000 14.8075 0.0000
# 2 28.2863 149.6079 61.8594 0.0000 3.7017 0.0000
# 3 52.6407 61.8594 184.2177 0.0000 50.9862 0.0000
# 4 0.0000 0.0000 0.0000 26.7822 0.0000 11.4935
# 5 14.8075 3.7017 50.9862 0.0000 39.4871 0.0000
# 6 0.0000 0.0000 0.0000 11.4935 0.0000 47.1345
#
#
#
# Elastic Compliance Matrix: (Units=1/GPa)
#
#
# Indices 1 2 3 4 5 6 
#
# 1 0.013575 -0.001197 -0.003267 0.000000 -0.000760 0.000000
# 2 -0.001197 0.008320 -0.003673 0.000000 0.004411 0.000000
# 3 -0.003267 -0.003673 0.011143 0.000000 -0.012818 0.000000
# 4 0.000000 0.000000 0.000000 0.041702 0.000000 -0.010169
# 5 -0.000760 0.004411 -0.012818 0.000000 0.041748 0.000000
# 6 0.000000 0.000000 0.000000 -0.010169 0.000000 0.023696
#
#
# Mechanical properties :
#
#
# Convention : Reuss Voigt Hill
#
# Bulk Modulus (GPa) = 59.64776 78.78385 69.21581
# Shear Modulus (GPa) = 30.85584 41.39378 36.12481
#
# Velocity S-wave (km/s) = 3.38620 3.92203 3.66392
# Velocity P-wave (km/s) = 6.11998 7.05596 6.60457
#
# Compressibility (1/GPa) = 0.01676509
#
# Stress axis : x y z
#
# Youngs Moduli (GPa) = 73.66509 120.19473 89.74405
#
# Poissons Ratio (x) = 0.14389 0.29316
# Poissons Ratio (y) = 0.08819 0.32959
# Poissons Ratio (z) = 0.24064 0.44142
#
# Static dielectric constant tensor:
#      x y z
#    x 2.120390 0.000000 -0.022640 
#    y 0.000000 2.159490 0.000000 
#    z -0.022640 0.000000 2.040130 
# 
# From -- ./inp_files/2333.got.cif
#   From: 2010.05.17/outbox.cif.g08.bks.cpg/sg4_2_cif.got.tgz:2333.got - 2010.06.03 18:43:04.
