data_PCOD9119964
_publ_section_title
;
Structure prediction by ZEFSAII (Michael W. Deem and Ramdas Pophale) SiO2 
 PCOD9119964
Probable space group: C 2
;
_chemical_formula_sum "Si O2"
_cell_formula_units_Z 28
_cell_length_a 5.464233
_cell_length_b 26.767189
_cell_length_c 9.024413
_cell_angle_alpha 90.000000
_cell_angle_beta 122.862910
_cell_angle_gamma 90.000000
_cell_volume 1108.703426
_symmetry_space_group_name_H-M "C 2"
_symmetry_group_IT_number 5
_symmetry_cell_setting 'monoclinic'
loop_
_space_group_symop_operation_xyz
x,y,z
-x,y,-z
1/2+x,1/2+y,z
1/2-x,1/2+y,-z
loop_
_atom_site_type_symbol
_atom_site_label
_atom_site_fract_x
_atom_site_fract_y
_atom_site_fract_z
Si Si1 0.844038 0.867160 0.597574
Si Si2 0.357580 0.597098 0.288124
Si Si3 0.459701 0.708736 0.714524
Si Si4 0.265235 0.360447 0.018351
Si Si5 0.153693 0.465388 0.895460
Si Si6 0.428146 0.248926 0.683741
Si Si7 0.135869 0.554777 0.703987
O O1 0.500000 0.875707 0.500000
O O2 0.901508 0.807172 0.632014
O O3 0.000000 0.884220 0.500000
O O4 0.038513 0.887812 0.794519
O O5 0.500000 0.591076 0.500000
O O6 0.440033 0.651743 0.255524
O O7 0.522428 0.561695 0.223091
O O8 0.017214 0.588028 0.217014
O O9 0.748769 0.739942 0.773922
O O10 0.252763 0.719122 0.502670
O O11 0.253220 0.727443 0.778898
O O12 0.500000 0.332084 0.000000
O O13 0.120122 0.405364 0.878567
O O14 0.000000 0.330825 0.000000
O O15 0.042531 0.499220 0.724285
O O16 0.500000 0.474451 0.000000
O O17 0.000000 0.479889 0.000000
O O18 0.000000 0.567901 0.500000
#
# Coordination Sequence:
#
# PCOD9119964 Si02
#       7
#     4   4   4   4   4   4   4
#     4  12  21  37  61  97 130 153 216 270 306 354
#     4  10  18  28  49  82 127 147 188 239 308 349
#     4  10  16  27  45  77 129 158 179 230 317 368
#     4  10  23  43  64  89 122 169 212 246 321 401
#     4  10  21  42  64  81 113 160 207 240 318 393
#     4  10  17  27  47  80 125 160 184 236 309 362
#     4  10  21  34  55  90 117 145 199 263 295 345
#
# _framework density 25.254724
#
# number of rings (size 3 to 8) (size 9 to 14) (size 15 to 20)
#    0.000    1.714    4.286    2.571    4.000    0.000 
#    0.000    8.571    0.000    0.000    0.000   20.000 
#    0.000    0.000    0.000    0.000    0.000    0.000 
#
# Total GULP energy -78111.347520 kJ/mol
# GULP energy per Si atom -5579.381966 kJ/mol
# Density = 2.519724 g / cm^3
# Si number density = 25.254724 Si / 1000 Ang^3
#
#
#
# Elastic Constant Matrix: (Units=GPa)
#
#
# Indices 1 2 3 4 5 6 
#
# 1 314.7240 28.2087 44.6409 0.0000 -14.5052 0.0000
# 2 28.2087 85.4669 8.0047 0.0000 -5.4025 0.0000
# 3 44.6409 8.0047 42.7387 0.0000 2.6980 0.0000
# 4 0.0000 0.0000 0.0000 47.5016 0.0000 -26.2811
# 5 -14.5052 -5.4025 2.6980 0.0000 22.7205 0.0000
# 6 0.0000 0.0000 0.0000 -26.2811 0.0000 48.3192
#
#
#
# Elastic Compliance Matrix: (Units=1/GPa)
#
#
# Indices 1 2 3 4 5 6 
#
# 1 0.003969 -0.000737 -0.004188 0.000000 0.002856 0.000000
# 2 -0.000737 0.012270 -0.001695 0.000000 0.002648 0.000000
# 3 -0.004188 -0.001695 0.028498 0.000000 -0.006461 0.000000
# 4 0.000000 0.000000 0.000000 0.030114 0.000000 0.016379
# 5 0.002856 0.002648 -0.006461 0.000000 0.047233 0.000000
# 6 0.000000 0.000000 0.000000 0.016379 0.000000 0.029604
#
#
# Mechanical properties :
#
#
# Convention : Reuss Voigt Hill
#
# Bulk Modulus (GPa) = 31.75016 67.18203 49.46610
# Shear Modulus (GPa) = 28.50171 47.84662 38.17416
#
# Velocity S-wave (km/s) = 3.36306 4.35738 3.89210
# Velocity P-wave (km/s) = 5.26113 7.20938 6.31089
#
# Compressibility (1/GPa) = 0.03149590
#
# Stress axis : x y z
#
# Youngs Moduli (GPa) = 251.94480 81.50002 35.09052
#
# Poissons Ratio (x) = 0.06009 0.14696
# Poissons Ratio (y) = 0.18575 0.05949
# Poissons Ratio (z) = 1.05514 0.13816
#
# Static dielectric constant tensor:
#      x y z
#    x 2.106800 0.000000 -0.018850 
#    y 0.000000 1.984950 0.000000 
#    z -0.018850 0.000000 1.881060 
# 
# From -- ./inp_files/13384.got.cif
#   From: 2010.05.17/outbox.cif.g08.bks.cpg/sg5_7_cif.got.tgz:13384.got - 2010.06.03 18:56:24.
