data_PCOD9119063
_publ_section_title
;
Structure prediction by ZEFSAII (Michael W. Deem and Ramdas Pophale) SiO2 
 PCOD9119063
Probable space group: P 21
;
_chemical_formula_sum "Si O2"
_cell_formula_units_Z 14
_cell_length_a 17.318051
_cell_length_b 4.951783
_cell_length_c 9.149910
_cell_angle_alpha 90.000000
_cell_angle_beta 137.960121
_cell_angle_gamma 90.000000
_cell_volume 525.440827
_symmetry_space_group_name_H-M "P 21"
_symmetry_group_IT_number 4
_symmetry_cell_setting 'monoclinic'
loop_
_space_group_symop_operation_xyz
x,y,z
-x,1/2+y,-z
loop_
_atom_site_type_symbol
_atom_site_label
_atom_site_fract_x
_atom_site_fract_y
_atom_site_fract_z
Si Si1 0.376465 0.267420 0.876209
Si Si2 0.612424 0.404722 0.361711
Si Si3 0.080487 0.371950 0.127914
Si Si4 0.809088 0.140491 0.472514
Si Si5 0.264429 0.139667 0.002615
Si Si6 0.708103 0.116209 0.767179
Si Si7 0.016808 0.405670 0.604954
O O1 0.290421 0.520785 0.769549
O O2 0.387209 0.202525 0.716812
O O3 0.503946 0.292054 0.119586
O O4 0.314383 0.079796 0.910975
O O5 0.737683 0.316423 0.484135
O O6 0.618531 0.268772 0.530624
O O7 0.136589 0.389488 0.365630
O O8 0.182147 0.479881 0.163533
O O9 0.025625 0.083466 0.020182
O O10 0.914857 0.309969 0.563959
O O11 0.337325 0.365868 0.197141
O O12 0.255128 0.863513 0.078151
O O13 0.140830 0.285424 0.815346
O O14 0.016078 0.724976 0.583840
#
# Coordination Sequence:
#
# PCOD9119063 Si02
#       7
#     2   2   2   2   2   2   2
#     4  12  26  48  77 106 147 196 257 313 373 442
#     4  11  27  47  78 105 145 197 258 314 370 440
#     4  11  24  43  70 104 146 195 243 299 364 446
#     4  11  25  43  71 103 142 189 246 300 365 432
#     4  12  27  48  74 110 152 197 241 310 384 455
#     4  11  27  47  72 107 153 192 250 306 381 449
#     4  12  24  42  70 107 151 192 239 302 377 450
#
# _framework density 26.644293999999999
#
# number of rings (size 3 to 8) (size 9 to 14) (size 15 to 20)
#    0.000    0.571    2.857    4.286   10.000    1.143 
#    0.000    0.000    0.000    0.000    0.000    0.000 
#    0.000    0.000    0.000    0.000    0.000    0.000 
#
# Total GULP energy -78189.086364 kJ/mol
# GULP energy per Si atom -5584.934740 kJ/mol
# Density = 2.658365 g / cm^3
# Si number density = 26.644294 Si / 1000 Ang^3
#
#
#
# Elastic Constant Matrix: (Units=GPa)
#
#
# Indices 1 2 3 4 5 6 
#
# 1 58.0235 14.8115 9.5380 0.0000 13.3158 0.0000
# 2 14.8115 117.3009 31.9003 0.0000 -13.4190 0.0000
# 3 9.5380 31.9003 97.6114 0.0000 16.6592 0.0000
# 4 0.0000 0.0000 0.0000 39.0372 0.0000 -3.9345
# 5 13.3158 -13.4190 16.6592 0.0000 38.6319 0.0000
# 6 0.0000 0.0000 0.0000 -3.9345 0.0000 35.1674
#
#
#
# Elastic Compliance Matrix: (Units=1/GPa)
#
#
# Indices 1 2 3 4 5 6 
#
# 1 0.020006 -0.003685 0.000696 0.000000 -0.008476 0.000000
# 2 -0.003685 0.010995 -0.004428 0.000000 0.006999 0.000000
# 3 0.000696 -0.004428 0.012875 0.000000 -0.007330 0.000000
# 4 0.000000 0.000000 0.000000 0.025909 0.000000 0.002899
# 5 -0.008476 0.006999 -0.007330 0.000000 0.034399 0.000000
# 6 0.000000 0.000000 0.000000 0.002899 0.000000 0.028760
#
#
# Mechanical properties :
#
#
# Convention : Reuss Voigt Hill
#
# Bulk Modulus (GPa) = 34.43266 42.82614 38.62940
# Shear Modulus (GPa) = 31.75472 37.01304 34.38388
#
# Velocity S-wave (km/s) = 3.45599 3.73118 3.59622
# Velocity P-wave (km/s) = 5.37367 5.88816 5.63679
#
# Compressibility (1/GPa) = 0.02904220
#
# Stress axis : x y z
#
# Youngs Moduli (GPa) = 49.98562 90.94907 77.67174
#
# Poissons Ratio (x) = 0.33515 -0.05406
# Poissons Ratio (y) = 0.18420 0.34391
# Poissons Ratio (z) = -0.03479 0.40270
#
# Static dielectric constant tensor:
#      x y z
#    x 2.166610 0.000000 -0.144920 
#    y 0.000000 2.105690 0.000000 
#    z -0.144920 0.000000 2.169430 
# 
# From -- ./inp_files/7082.got.cif
#   From: 2010.05.17/outbox.cif.g08.bks.cpg/sg4_4_cif.got.tgz:7082.got - 2010.06.03 18:43:04.
