data_PCOD9119895
_publ_section_title
;
Structure prediction by ZEFSAII (Michael W. Deem and Ramdas Pophale) SiO2 
 PCOD9119895
Probable space group: P 21
;
_chemical_formula_sum "Si O2"
_cell_formula_units_Z 12
_cell_length_a 12.000000
_cell_length_b 9.000000
_cell_length_c 12.000000
_cell_angle_alpha 90.000000
_cell_angle_beta 160.000000
_cell_angle_gamma 90.000000
_cell_volume 443.258106
_symmetry_space_group_name_H-M "P 21"
_symmetry_group_IT_number 4
_symmetry_cell_setting 'monoclinic'
loop_
_space_group_symop_operation_xyz
x,y,z
-x,1/2+y,-z
loop_
_atom_site_type_symbol
_atom_site_label
_atom_site_fract_x
_atom_site_fract_y
_atom_site_fract_z
Si Si1 0.708773 0.500000 0.356468
Si Si2 0.869769 0.638864 0.929142
Si Si3 0.319768 0.417659 0.383661
Si Si4 0.972358 0.824249 0.656660
Si Si5 0.201114 0.290512 0.917155
Si Si6 0.515170 0.002595 0.103817
O O1 0.873907 0.654914 0.543117
O O2 0.542324 0.513444 0.080284
O O3 0.963725 0.364185 0.605015
O O4 0.425341 0.428666 0.167014
O O5 0.642896 0.495670 0.730019
O O6 0.695799 0.766861 0.698376
O O7 0.973878 0.715426 0.142635
O O8 0.177188 0.550386 0.172150
O O9 0.139205 0.376099 0.327887
O O10 0.357379 0.851739 0.007638
O O11 0.877073 0.959371 0.481828
O O12 0.407202 0.155863 0.058648
#
# Coordination Sequence:
#
# PCOD9119895 Si02
#       6
#     2   2   2   2   2   2
#     4  12  26  40  71 103 136 182 227 273 330 411
#     4  12  27  48  74 102 134 179 225 284 347 404
#     4  12  26  48  73 102 134 179 225 285 345 404
#     4  12  25  45  68 100 141 175 228 282 335 399
#     4  12  25  45  68 101 141 174 227 282 336 399
#     4  12  23  46  68  98 138 185 226 274 337 395
#
# _framework density 27.072263
#
# number of rings (size 3 to 8) (size 9 to 14) (size 15 to 20)
#    0.000    0.000    3.333    7.000    4.667    0.000 
#    0.000    0.000    0.000    0.000    0.000    0.000 
#    0.000    0.000    0.000    0.000    0.000    0.000 
#
# Total GULP energy -66997.072942 kJ/mol
# GULP energy per Si atom -5583.089412 kJ/mol
# Density = 2.701065 g / cm^3
# Si number density = 27.072263 Si / 1000 Ang^3
#
#
#
# Elastic Constant Matrix: (Units=GPa)
#
#
# Indices 1 2 3 4 5 6 
#
# 1 48.9131 7.6097 76.5306 0.0000 -61.3956 0.0000
# 2 7.6097 174.1223 122.7837 0.0000 -54.4086 0.0000
# 3 76.5306 122.7837 11.3171 0.0000 29.0943 0.0000
# 4 0.0000 0.0000 0.0000 47.1413 0.0000 -3.3474
# 5 -61.3956 -54.4086 29.0943 0.0000 -22.7841 0.0000
# 6 0.0000 0.0000 0.0000 -3.3474 0.0000 39.4273
#
#
#
# Elastic Compliance Matrix: (Units=1/GPa)
#
#
# Indices 1 2 3 4 5 6 
#
# 1 0.008713 -0.005548 0.006438 0.000000 -0.002009 0.000000
# 2 -0.005548 0.007608 -0.008581 0.000000 -0.014173 0.000000
# 3 0.006438 -0.008581 0.030317 0.000000 0.041856 0.000000
# 4 0.000000 0.000000 0.000000 0.021341 0.000000 0.001812
# 5 -0.002009 -0.014173 0.041856 0.000000 0.048817 0.000000
# 6 0.000000 0.000000 0.000000 0.001812 0.000000 0.025517
#
#
# Mechanical properties :
#
#
# Convention : Reuss Voigt Hill
#
# Bulk Modulus (GPa) = 31.99432 72.02227 52.00830
# Shear Modulus (GPa) = 29.74184 14.58547 22.16365
#
# Velocity S-wave (km/s) = 3.31812 2.32364 2.86437
# Velocity P-wave (km/s) = 5.15012 5.81898 5.49474
#
# Compressibility (1/GPa) = 0.03125555
#
# Stress axis : x y z
#
# Youngs Moduli (GPa) = 114.76887 131.44873 32.98495
#
# Poissons Ratio (x) = 0.72931 -0.21235
# Poissons Ratio (y) = 0.63677 0.28303
# Poissons Ratio (z) = -0.73887 1.12792
#
# Static dielectric constant tensor:
#      x y z
#    x 2.088690 0.000000 0.103870 
#    y 0.000000 2.160610 0.000000 
#    z 0.103870 0.000000 2.294320 
# 
# From -- ./inp_files/2456.got.cif
#   From: 2010.05.17/outbox.ucp.g08.bks.cvg/sg4_2_cif.got.tgz:2456.got - 2010.06.11 12:51:24.
