data_PCOD9119555
_publ_section_title
;
Structure prediction by ZEFSAII (Michael W. Deem and Ramdas Pophale) SiO2 
 PCOD9119555
Probable space group: P 21
;
_chemical_formula_sum "Si O2"
_cell_formula_units_Z 12
_cell_length_a 21.289838
_cell_length_b 4.982519
_cell_length_c 24.337439
_cell_angle_alpha 90.000000
_cell_angle_beta 10.979022
_cell_angle_gamma 90.000000
_cell_volume 491.672822
_symmetry_space_group_name_H-M "P 21"
_symmetry_group_IT_number 4
_symmetry_cell_setting 'monoclinic'
loop_
_space_group_symop_operation_xyz
x,y,z
-x,1/2+y,-z
loop_
_atom_site_type_symbol
_atom_site_label
_atom_site_fract_x
_atom_site_fract_y
_atom_site_fract_z
Si Si1 0.430208 0.015290 0.710582
Si Si2 0.682289 0.346800 0.674111
Si Si3 0.613178 0.344665 0.030675
Si Si4 0.343359 0.531890 0.606673
Si Si5 0.726281 0.514985 0.512729
Si Si6 0.619361 0.665634 0.884717
O O1 0.547332 0.941314 0.548439
O O2 0.653775 0.274733 0.533078
O O3 0.486854 0.760588 0.702091
O O4 0.045065 0.085079 0.049836
O O5 0.674023 0.655956 0.699017
O O6 0.681873 0.368213 0.609230
O O7 0.003744 0.220507 0.426087
O O8 0.396282 0.142499 0.937963
O O9 0.546551 0.337285 0.023127
O O10 0.930302 0.176680 0.777075
O O11 0.456420 0.299701 0.551027
O O12 0.556312 0.363209 0.920140
#
# Coordination Sequence:
#
# PCOD9119555 Si02
#       6
#     2   2   2   2   2   2
#     4  12  28  47  81 116 160 198 252 308 386 466
#     4  12  26  45  71  98 143 198 259 319 389 457
#     4  12  26  45  71  98 143 198 259 319 389 457
#     4  12  26  52  82 116 152 200 250 308 370 460
#     4  12  28  47  69 114 152 200 242 320 382 472
#     4  12  24  44  68  98 136 190 262 330 384 446
#
# _framework density 24.406472000000001
#
# number of rings (size 3 to 8) (size 9 to 14) (size 15 to 20)
#    0.000    0.000    1.667    8.000    9.333    0.000 
#    0.000    0.000    0.000    0.000    0.000    0.000 
#    0.000    0.000    0.000    0.000    0.000    0.000 
#
# Total GULP energy -67077.420206 kJ/mol
# GULP energy per Si atom -5589.785017 kJ/mol
# Density = 2.435092 g / cm^3
# Si number density = 24.406472 Si / 1000 Ang^3
#
#
#
# Elastic Constant Matrix: (Units=GPa)
#
#
# Indices 1 2 3 4 5 6 
#
# 1 424.6731 -83.4239 -42.0123 0.0000 42.6425 0.0000
# 2 -83.4239 155.7965 46.2800 0.0000 -33.7521 0.0000
# 3 -42.0123 46.2800 117.9783 0.0000 -27.0704 0.0000
# 4 0.0000 0.0000 0.0000 48.2065 0.0000 -3.9805
# 5 42.6425 -33.7521 -27.0704 0.0000 41.1011 0.0000
# 6 0.0000 0.0000 0.0000 -3.9805 0.0000 37.7343
#
#
#
# Elastic Compliance Matrix: (Units=1/GPa)
#
#
# Indices 1 2 3 4 5 6 
#
# 1 0.002763 0.001018 0.000140 0.000000 -0.001939 0.000000
# 2 0.001018 0.008551 -0.001912 0.000000 0.004707 0.000000
# 3 0.000140 -0.001912 0.010464 0.000000 0.005177 0.000000
# 4 0.000000 0.000000 0.000000 0.020926 0.000000 0.002208
# 5 -0.001939 0.004707 0.005177 0.000000 0.033616 0.000000
# 6 0.000000 0.000000 0.000000 0.002208 0.000000 0.026734
#
#
# Mechanical properties :
#
#
# Convention : Reuss Voigt Hill
#
# Bulk Modulus (GPa) = 49.33355 60.01506 54.67431
# Shear Modulus (GPa) = 44.91548 77.24864 61.08206
#
# Velocity S-wave (km/s) = 4.29454 5.63202 5.00813
# Velocity P-wave (km/s) = 6.69686 8.18144 7.47609
#
# Compressibility (1/GPa) = 0.02027018
#
# Stress axis : x y z
#
# Youngs Moduli (GPa) = 361.89232 116.93915 95.56845
#
# Poissons Ratio (x) = -0.11905 -0.01336
# Poissons Ratio (y) = -0.36844 0.18272
# Poissons Ratio (z) = -0.05058 0.22359
#
# Static dielectric constant tensor:
#      x y z
#    x 2.177900 0.000000 0.160710 
#    y 0.000000 1.019380 0.000000 
#    z 0.160710 0.000000 2.164930 
# 
# From -- ./inp_files/14649.got.cif
#   From: 2010.05.17/outbox.cif.g08.bks.cpg/sg4_8_cif.got.tgz:14649.got - 2010.06.03 18:43:04.
