data_PCOD9119346
_publ_section_title
;
Structure prediction by ZEFSAII (Michael W. Deem and Ramdas Pophale) SiO2 
 PCOD9119346
Probable space group: P 21
;
_chemical_formula_sum "Si O2"
_cell_formula_units_Z 14
_cell_length_a 8.566354
_cell_length_b 8.054087
_cell_length_c 8.179815
_cell_angle_alpha 90.000000
_cell_angle_beta 110.390110
_cell_angle_gamma 90.000000
_cell_volume 528.997914
_symmetry_space_group_name_H-M "P 21"
_symmetry_group_IT_number 4
_symmetry_cell_setting 'monoclinic'
loop_
_space_group_symop_operation_xyz
x,y,z
-x,1/2+y,-z
loop_
_atom_site_type_symbol
_atom_site_label
_atom_site_fract_x
_atom_site_fract_y
_atom_site_fract_z
Si Si1 0.388422 0.792530 0.208329
Si Si2 0.691229 0.804727 0.069486
Si Si3 0.796466 0.810644 0.757228
Si Si4 0.824674 0.371328 0.446639
Si Si5 0.509825 0.988547 0.523201
Si Si6 0.136352 0.660676 0.862477
Si Si7 0.999636 0.604022 0.290856
O O1 0.527946 0.781800 0.117090
O O2 0.424325 0.967709 0.313715
O O3 0.417331 0.651123 0.359692
O O4 0.217904 0.753742 0.049635
O O5 0.823154 0.663678 0.162510
O O6 0.780796 0.981732 0.127642
O O7 0.678383 0.799815 0.869950
O O8 0.666540 0.859891 0.568582
O O9 0.934145 0.667207 0.796591
O O10 0.915618 0.973617 0.799645
O O11 0.645118 0.441306 0.420174
O O12 0.813881 0.262401 0.279933
O O13 0.960107 0.508592 0.445931
O O14 0.892218 0.261575 0.619644
#
# Coordination Sequence:
#
# PCOD9119346 Si02
#       7
#     2   2   2   2   2   2   2
#     4  12  29  51  76 115 152 207 257 323 391 458
#     4  12  25  47  77 107 158 198 257 316 384 464
#     4  11  26  49  76 113 154 200 260 314 389 459
#     4  11  25  48  79 111 159 199 260 316 390 457
#     4  12  27  51  73 113 156 199 259 315 390 462
#     4  11  27  48  78 114 150 203 256 322 387 459
#     4  11  25  46  79 117 151 202 257 320 389 459
#
# _framework density 26.465129999999998
#
# number of rings (size 3 to 8) (size 9 to 14) (size 15 to 20)
#    0.000    0.571    2.857    3.429   10.000    1.143 
#    5.143    0.000    0.000    0.000    0.000    0.000 
#    0.000    0.000    0.000    0.000    0.000    0.000 
#
# Total GULP energy -78410.812797 kJ/mol
# GULP energy per Si atom -5600.772343 kJ/mol
# Density = 2.640489 g / cm^3
# Si number density = 26.465130 Si / 1000 Ang^3
#
#
#
# Elastic Constant Matrix: (Units=GPa)
#
#
# Indices 1 2 3 4 5 6 
#
# 1 135.2170 18.8752 15.9504 0.0000 2.2357 0.0000
# 2 18.8752 75.6189 23.5375 0.0000 12.9508 0.0000
# 3 15.9504 23.5375 79.6397 0.0000 5.2352 0.0000
# 4 0.0000 0.0000 0.0000 52.9200 0.0000 -0.5025
# 5 2.2357 12.9508 5.2352 0.0000 43.2294 0.0000
# 6 0.0000 0.0000 0.0000 -0.5025 0.0000 45.4033
#
#
#
# Elastic Compliance Matrix: (Units=1/GPa)
#
#
# Indices 1 2 3 4 5 6 
#
# 1 0.007748 -0.001634 -0.001083 0.000000 0.000220 0.000000
# 2 -0.001634 0.015582 -0.004008 0.000000 -0.004098 0.000000
# 3 -0.001083 -0.004008 0.013987 0.000000 -0.000437 0.000000
# 4 0.000000 0.000000 0.000000 0.018898 0.000000 0.000209
# 5 0.000220 -0.004098 -0.000437 0.000000 0.024402 0.000000
# 6 0.000000 0.000000 0.000000 0.000209 0.000000 0.022027
#
#
# Mechanical properties :
#
#
# Convention : Reuss Voigt Hill
#
# Bulk Modulus (GPa) = 41.90357 45.24465 43.57411
# Shear Modulus (GPa) = 40.30615 43.78470 42.04543
#
# Velocity S-wave (km/s) = 3.90679 4.07188 3.99019
# Velocity P-wave (km/s) = 6.01818 6.26419 6.14241
#
# Compressibility (1/GPa) = 0.02386432
#
# Stress axis : x y z
#
# Youngs Moduli (GPa) = 129.06876 64.17781 71.49549
#
# Poissons Ratio (x) = 0.10490 0.07744
# Poissons Ratio (y) = 0.21096 0.28658
# Poissons Ratio (z) = 0.13980 0.25725
#
# Static dielectric constant tensor:
#      x y z
#    x 2.012850 0.000000 -0.011200 
#    y 0.000000 2.210680 0.000000 
#    z -0.011200 0.000000 2.090390 
# 
# From -- ./inp_files/5262.got.cif
#   From: 2010.05.17/outbox.cif.g08.bks.cpg/sg4_3_cif.got.tgz:5262.got - 2010.06.03 18:43:04.
