data_PCOD9119455
_publ_section_title
;
Structure prediction by ZEFSAII (Michael W. Deem and Ramdas Pophale) SiO2 
 PCOD9119455
Probable space group: P 21
;
_chemical_formula_sum "Si O2"
_cell_formula_units_Z 14
_cell_length_a 8.328320
_cell_length_b 9.434627
_cell_length_c 7.393111
_cell_angle_alpha 90.000000
_cell_angle_beta 72.151637
_cell_angle_gamma 90.000000
_cell_volume 552.952046
_symmetry_space_group_name_H-M "P 21"
_symmetry_group_IT_number 4
_symmetry_cell_setting 'monoclinic'
loop_
_space_group_symop_operation_xyz
x,y,z
-x,1/2+y,-z
loop_
_atom_site_type_symbol
_atom_site_label
_atom_site_fract_x
_atom_site_fract_y
_atom_site_fract_z
Si Si1 0.182927 0.208320 0.612030
Si Si2 0.780190 0.648934 0.788597
Si Si3 0.338720 0.442791 0.804829
Si Si4 0.856892 0.223101 0.195354
Si Si5 0.377875 0.943130 0.586477
Si Si6 0.821902 0.315123 0.797967
Si Si7 0.543695 0.077912 0.875164
O O1 0.263586 0.223693 0.385963
O O2 0.265433 0.302057 0.739281
O O3 0.217208 0.047068 0.650229
O O4 0.989225 0.246050 0.659833
O O5 0.815853 0.479907 0.747352
O O6 0.950969 0.721043 0.804095
O O7 0.622796 0.644230 0.976148
O O8 0.198946 0.561697 0.812490
O O9 0.508067 0.466464 0.628835
O O10 0.380983 0.470584 0.999841
O O11 0.709845 0.291217 0.369039
O O12 0.839725 0.303455 0.009649
O O13 0.492169 0.991843 0.715688
O O14 0.668562 0.210245 0.801471
#
# Coordination Sequence:
#
# PCOD9119455 Si02
#       7
#     2   2   2   2   2   2   2
#     4  12  28  46  79 116 161 208 267 336 403 478
#     4  12  26  51  77 119 158 214 271 337 408 489
#     4  11  26  50  75 114 158 206 266 334 397 486
#     4  11  26  49  78 110 165 209 266 329 409 480
#     4  12  26  46  79 120 154 212 264 332 404 479
#     4  11  27  51  75 118 157 213 269 336 404 493
#     4  11  27  49  81 111 159 206 271 334 401 475
#
# _framework density 25.318652
#
# number of rings (size 3 to 8) (size 9 to 14) (size 15 to 20)
#    0.000    0.571    4.286    1.714    8.000    0.000 
#    5.143    0.000    0.000    0.000    0.000    0.000 
#    0.000    0.000    0.000    0.000    0.000    0.000 
#
# Total GULP energy -78501.285733 kJ/mol
# GULP energy per Si atom -5607.234695 kJ/mol
# Density = 2.526103 g / cm^3
# Si number density = 25.318652 Si / 1000 Ang^3
#
#
#
# Elastic Constant Matrix: (Units=GPa)
#
#
# Indices 1 2 3 4 5 6 
#
# 1 140.9080 35.0417 36.1260 0.0000 7.5737 0.0000
# 2 35.0417 80.0368 22.1900 0.0000 16.8749 0.0000
# 3 36.1260 22.1900 96.0708 0.0000 16.3815 0.0000
# 4 0.0000 0.0000 0.0000 35.1702 0.0000 -4.8253
# 5 7.5737 16.8749 16.3815 0.0000 51.2536 0.0000
# 6 0.0000 0.0000 0.0000 -4.8253 0.0000 45.6457
#
#
#
# Elastic Compliance Matrix: (Units=1/GPa)
#
#
# Indices 1 2 3 4 5 6 
#
# 1 0.008505 -0.003136 -0.002576 0.000000 0.000599 0.000000
# 2 -0.003136 0.015167 -0.001641 0.000000 -0.004006 0.000000
# 3 -0.002576 -0.001641 0.012268 0.000000 -0.003000 0.000000
# 4 0.000000 0.000000 0.000000 0.028852 0.000000 0.003050
# 5 0.000599 -0.004006 -0.003000 0.000000 0.021700 0.000000
# 6 0.000000 0.000000 0.000000 0.003050 0.000000 0.022230
#
#
# Mechanical properties :
#
#
# Convention : Reuss Voigt Hill
#
# Bulk Modulus (GPa) = 47.09334 55.97012 51.53173
# Shear Modulus (GPa) = 38.31267 41.32444 39.81855
#
# Velocity S-wave (km/s) = 3.89423 4.04440 3.97003
# Velocity P-wave (km/s) = 6.23383 6.63052 6.43524
#
# Compressibility (1/GPa) = 0.02123443
#
# Stress axis : x y z
#
# Youngs Moduli (GPa) = 117.57970 65.93427 81.51121
#
# Poissons Ratio (x) = 0.20675 0.20997
# Poissons Ratio (y) = 0.36869 0.13376
# Poissons Ratio (z) = 0.30288 0.10820
#
# Static dielectric constant tensor:
#      x y z
#    x 1.985710 0.000000 0.031760 
#    y 0.000000 2.014590 0.000000 
#    z 0.031760 0.000000 2.001470 
# 
# From -- ./inp_files/5242.got.cif
#   From: 2010.05.17/outbox.cif.g08.bks.cpg/sg4_3_cif.got.tgz:5242.got - 2010.06.03 18:43:04.
