data_PCOD9119500
_publ_section_title
;
Structure prediction by ZEFSAII (Michael W. Deem and Ramdas Pophale) SiO2 
 PCOD9119500
Probable space group: P 21
;
_chemical_formula_sum "Si O2"
_cell_formula_units_Z 14
_cell_length_a 16.077034
_cell_length_b 7.037887
_cell_length_c 6.616137
_cell_angle_alpha 90.000000
_cell_angle_beta 51.646705
_cell_angle_gamma 90.000000
_cell_volume 587.055669
_symmetry_space_group_name_H-M "P 21"
_symmetry_group_IT_number 4
_symmetry_cell_setting 'monoclinic'
loop_
_space_group_symop_operation_xyz
x,y,z
-x,1/2+y,-z
loop_
_atom_site_type_symbol
_atom_site_label
_atom_site_fract_x
_atom_site_fract_y
_atom_site_fract_z
Si Si1 0.500977 0.044920 0.000731
Si Si2 0.877489 0.494387 0.653143
Si Si3 0.135470 0.688465 0.664081
Si Si4 0.372913 0.294715 0.436044
Si Si5 0.348469 0.124888 0.861778
Si Si6 0.026748 0.320042 0.764149
Si Si7 0.670082 0.403856 0.488176
O O1 0.429675 0.113442 0.920135
O O2 0.610424 0.965168 0.744437
O O3 0.484108 0.182364 0.218878
O O4 0.425018 0.873385 0.212163
O O5 0.855418 0.302617 0.559365
O O6 0.945742 0.439657 0.745915
O O7 0.770156 0.598032 0.882067
O O8 0.940515 0.636424 0.412164
O O9 0.236457 0.756545 0.639665
O O10 0.123330 0.463832 0.659530
O O11 0.032022 0.758472 0.942986
O O12 0.361420 0.308493 0.693968
O O13 0.291261 0.121432 0.510016
O O14 0.367245 0.946143 0.681864
#
# Coordination Sequence:
#
# PCOD9119500 Si02
#       7
#     2   2   2   2   2   2   2
#     4   9  17  36  58  84 113 157 197 249 306 361
#     4  12  22  41  64  92 133 164 216 266 327 367
#     4  12  22  42  62  95 132 164 216 265 326 374
#     4   8  19  34  61  84 111 161 200 243 313 369
#     4   9  19  35  63  82 124 162 195 264 311 368
#     4  12  25  37  70  95 124 178 212 265 317 395
#     4   8  20  35  60  82 119 168 196 258 314 366
#
# _framework density 23.847826000000001
#
# number of rings (size 3 to 8) (size 9 to 14) (size 15 to 20)
#    1.714    0.000    5.714    0.000    0.000    2.286 
#    0.000    4.286    9.429    0.000    0.000    0.000 
#    0.000    0.000    0.000    0.000    0.000    0.000 
#
# Total GULP energy -77978.636443 kJ/mol
# GULP energy per Si atom -5569.902603 kJ/mol
# Density = 2.379355 g / cm^3
# Si number density = 23.847826 Si / 1000 Ang^3
#
#
#
# Elastic Constant Matrix: (Units=GPa)
#
#
# Indices 1 2 3 4 5 6 
#
# 1 50.9778 -2.6362 4.2932 0.0000 9.2069 0.0000
# 2 -2.6362 58.9531 0.3236 0.0000 -0.7727 0.0000
# 3 4.2932 0.3236 123.7148 0.0000 3.5232 0.0000
# 4 0.0000 0.0000 0.0000 43.9105 0.0000 -7.9417
# 5 9.2069 -0.7727 3.5232 0.0000 29.8736 0.0000
# 6 0.0000 0.0000 0.0000 -7.9417 0.0000 23.3097
#
#
#
# Elastic Compliance Matrix: (Units=1/GPa)
#
#
# Indices 1 2 3 4 5 6 
#
# 1 0.020851 0.000852 -0.000545 0.000000 -0.006340 0.000000
# 2 0.000852 0.017004 -0.000079 0.000000 0.000186 0.000000
# 3 -0.000545 -0.000079 0.008125 0.000000 -0.000792 0.000000
# 4 0.000000 0.000000 0.000000 0.024269 0.000000 0.008269
# 5 -0.006340 0.000186 -0.000792 0.000000 0.035527 0.000000
# 6 0.000000 0.000000 0.000000 0.008269 0.000000 0.045718
#
#
# Mechanical properties :
#
#
# Convention : Reuss Voigt Hill
#
# Bulk Modulus (GPa) = 21.53538 26.40076 23.96807
# Shear Modulus (GPa) = 30.02712 34.86312 32.44512
#
# Velocity S-wave (km/s) = 3.55225 3.82763 3.69251
# Velocity P-wave (km/s) = 5.08670 5.53433 5.31523
#
# Compressibility (1/GPa) = 0.04643520
#
# Stress axis : x y z
#
# Youngs Moduli (GPa) = 47.95841 58.81094 123.08003
#
# Poissons Ratio (x) = -0.05013 0.06711
# Poissons Ratio (y) = -0.04088 0.00977
# Poissons Ratio (z) = 0.02615 0.00467
#
# Static dielectric constant tensor:
#      x y z
#    x 1.915160 0.000000 -0.031380 
#    y 0.000000 2.239980 0.000000 
#    z -0.031380 0.000000 1.937230 
# 
# From -- ./inp_files/4092.got.cif
#   From: 2010.05.17/outbox.cif.g08.bks.cpg/sg4_3_cif.got.tgz:4092.got - 2010.06.03 18:43:04.
