data_PCOD9119471
_publ_section_title
;
Structure prediction by ZEFSAII (Michael W. Deem and Ramdas Pophale) SiO2 
 PCOD9119471
Probable space group: P 21
;
_chemical_formula_sum "Si O2"
_cell_formula_units_Z 16
_cell_length_a 16.116955
_cell_length_b 7.648655
_cell_length_c 7.627578
_cell_angle_alpha 90.000000
_cell_angle_beta 44.192013
_cell_angle_gamma 90.000000
_cell_volume 655.432691
_symmetry_space_group_name_H-M "P 21"
_symmetry_group_IT_number 4
_symmetry_cell_setting 'monoclinic'
loop_
_space_group_symop_operation_xyz
x,y,z
-x,1/2+y,-z
loop_
_atom_site_type_symbol
_atom_site_label
_atom_site_fract_x
_atom_site_fract_y
_atom_site_fract_z
Si Si1 0.492811 0.321860 0.246464
Si Si2 0.221456 0.692395 0.747386
Si Si3 0.099843 0.475793 0.465700
Si Si4 0.350188 0.564560 0.207726
Si Si5 0.273574 0.973399 0.964135
Si Si6 0.746481 0.806274 0.196769
Si Si7 0.056677 0.185335 0.819511
Si Si8 0.078090 0.873731 0.547123
O O1 0.429137 0.422087 0.184800
O O2 0.588747 0.445963 0.195727
O O3 0.384585 0.259051 0.530347
O O4 0.570034 0.169292 0.046918
O O5 0.293289 0.679183 0.454699
O O6 0.255559 0.516574 0.804902
O O7 0.058305 0.322912 0.657080
O O8 0.081376 0.673438 0.922708
O O9 0.241031 0.480763 0.268995
O O10 0.039329 0.447642 0.370815
O O11 0.059638 0.667633 0.589003
O O12 0.188831 0.901246 0.247023
O O13 0.239829 0.175116 0.985396
O O14 0.247321 0.859722 0.828923
O O15 0.850638 0.754988 0.177123
O O16 0.096716 0.995848 0.686998
#
# Coordination Sequence:
#
# PCOD9119471 Si02
#       8
#     2   2   2   2   2   2   2   2
#     4  11  27  52  74 110 145 203 256 301 375 440
#     4  11  27  49  73 111 148 193 247 316 371 440
#     4  12  23  48  69 113 146 187 248 301 372 434
#     4  11  27  50  77 104 151 196 255 313 359 449
#     4  12  28  47  74 110 149 200 246 307 377 432
#     4  11  30  49  75 110 150 200 251 309 375 444
#     4  12  27  47  76 110 152 194 244 303 381 442
#     4  12  27  44  76 110 151 197 243 306 370 453
#
# _framework density 24.411353999999999
#
# number of rings (size 3 to 8) (size 9 to 14) (size 15 to 20)
#    0.000    0.500    6.250    0.000   14.000    1.000 
#    2.250    0.000    0.000    0.000    0.000    0.000 
#    0.000    0.000    0.000    0.000    0.000    0.000 
#
# Total GULP energy -89738.358662 kJ/mol
# GULP energy per Si atom -5608.647416 kJ/mol
# Density = 2.435579 g / cm^3
# Si number density = 24.411354 Si / 1000 Ang^3
#
#
#
# Elastic Constant Matrix: (Units=GPa)
#
#
# Indices 1 2 3 4 5 6 
#
# 1 110.7535 6.9169 9.9082 0.0000 -27.9833 0.0000
# 2 6.9169 122.7107 15.2018 0.0000 4.4730 0.0000
# 3 9.9082 15.2018 107.5855 0.0000 -25.5024 0.0000
# 4 0.0000 0.0000 0.0000 33.2046 0.0000 2.2048
# 5 -27.9833 4.4730 -25.5024 0.0000 42.2443 0.0000
# 6 0.0000 0.0000 0.0000 2.2048 0.0000 30.0522
#
#
#
# Elastic Compliance Matrix: (Units=1/GPa)
#
#
# Indices 1 2 3 4 5 6 
#
# 1 0.011035 -0.001044 0.001039 0.000000 0.008047 0.000000
# 2 -0.001044 0.008519 -0.001733 0.000000 -0.002640 0.000000
# 3 0.001039 -0.001733 0.011262 0.000000 0.007671 0.000000
# 4 0.000000 0.000000 0.000000 0.030264 0.000000 -0.002220
# 5 0.008047 -0.002640 0.007671 0.000000 0.033913 0.000000
# 6 0.000000 0.000000 0.000000 -0.002220 0.000000 0.033438
#
#
# Mechanical properties :
#
#
# Convention : Reuss Voigt Hill
#
# Bulk Modulus (GPa) = 36.57795 45.01149 40.79472
# Shear Modulus (GPa) = 35.45572 41.70174 38.57873
#
# Velocity S-wave (km/s) = 3.81521 4.13763 3.97969
# Velocity P-wave (km/s) = 5.86722 6.42693 6.15344
#
# Compressibility (1/GPa) = 0.02733887
#
# Stress axis : x y z
#
# Youngs Moduli (GPa) = 90.62452 117.38367 88.79040
#
# Poissons Ratio (x) = 0.12255 -0.09224
# Poissons Ratio (y) = 0.09461 0.15391
# Poissons Ratio (z) = -0.09414 0.20347
#
# Static dielectric constant tensor:
#      x y z
#    x 1.937840 0.000000 0.039430 
#    y 0.000000 1.939510 0.000000 
#    z 0.039430 0.000000 1.961640 
# 
# From -- ./inp_files/9586.got.cif
#   From: 2010.05.17/outbox.cif.g08.bks.cpg/sg4_5_cif.got.tgz:9586.got - 2010.06.03 18:43:04.
