data_PCOD9119260
_publ_section_title
;
Structure prediction by ZEFSAII (Michael W. Deem and Ramdas Pophale) SiO2 
 PCOD9119260
Probable space group: P 21
;
_chemical_formula_sum "Si O2"
_cell_formula_units_Z 16
_cell_length_a 13.285198
_cell_length_b 8.443057
_cell_length_c 9.237648
_cell_angle_alpha 90.000000
_cell_angle_beta 39.852357
_cell_angle_gamma 90.000000
_cell_volume 663.986811
_symmetry_space_group_name_H-M "P 21"
_symmetry_group_IT_number 4
_symmetry_cell_setting 'monoclinic'
loop_
_space_group_symop_operation_xyz
x,y,z
-x,1/2+y,-z
loop_
_atom_site_type_symbol
_atom_site_label
_atom_site_fract_x
_atom_site_fract_y
_atom_site_fract_z
Si Si1 0.528886 0.763680 0.126270
Si Si2 0.467849 0.058187 0.405317
Si Si3 0.730079 0.527447 0.094115
Si Si4 0.929232 0.258135 0.723529
Si Si5 0.188324 0.582833 0.914038
Si Si6 0.279840 0.207206 0.362421
Si Si7 0.192467 0.843500 0.439145
Si Si8 0.975322 0.775062 0.939687
O O1 0.610383 0.622744 0.124028
O O2 0.348349 0.737888 0.281889
O O3 0.521518 0.915187 0.240845
O O4 0.623279 0.788242 0.872979
O O5 0.356151 0.999893 0.657522
O O6 0.628991 0.120376 0.296869
O O7 0.378054 0.184043 0.401975
O O8 0.803265 0.379560 0.930021
O O9 0.877275 0.638649 0.970450
O O10 0.914765 0.274216 0.568458
O O11 0.109394 0.284820 0.568380
O O12 0.868049 0.091655 0.856320
O O13 0.072880 0.705295 0.963685
O O14 0.147362 0.413748 0.891784
O O15 0.243459 0.024874 0.353034
O O16 0.103218 0.843768 0.688809
#
# Coordination Sequence:
#
# PCOD9119260 Si02
#       8
#     2   2   2   2   2   2   2   2
#     4  11  24  50  73 109 156 200 258 314 381 461
#     4  11  27  48  79 109 155 203 254 321 382 459
#     4  12  26  48  76 118 152 202 260 317 391 463
#     4  12  26  44  78 112 154 198 257 323 385 460
#     4  12  26  47  76 111 150 204 252 320 387 456
#     4  11  24  50  75 112 156 201 260 316 388 462
#     4  11  25  46  75 111 151 203 253 318 381 462
#     4  12  26  47  74 112 152 203 256 317 385 459
#
# _framework density 24.096865999999999
#
# number of rings (size 3 to 8) (size 9 to 14) (size 15 to 20)
#    0.000    0.500    3.750    3.750    7.000    0.000 
#    4.500    0.000    0.000    0.000    0.000    0.000 
#    0.000    0.000    0.000    0.000    0.000    0.000 
#
# Total GULP energy -89642.846587 kJ/mol
# GULP energy per Si atom -5602.677912 kJ/mol
# Density = 2.404202 g / cm^3
# Si number density = 24.096866 Si / 1000 Ang^3
#
#
#
# Elastic Constant Matrix: (Units=GPa)
#
#
# Indices 1 2 3 4 5 6 
#
# 1 122.8162 25.4521 34.1118 0.0000 -18.2467 0.0000
# 2 25.4521 37.9459 8.6177 0.0000 -5.2767 0.0000
# 3 34.1118 8.6177 133.7605 0.0000 -5.0789 0.0000
# 4 0.0000 0.0000 0.0000 37.4694 0.0000 -3.1578
# 5 -18.2467 -5.2767 -5.0789 0.0000 47.6637 0.0000
# 6 0.0000 0.0000 0.0000 -3.1578 0.0000 39.6437
#
#
#
# Elastic Compliance Matrix: (Units=1/GPa)
#
#
# Indices 1 2 3 4 5 6 
#
# 1 0.010466 -0.006099 -0.002158 0.000000 0.003102 0.000000
# 2 -0.006099 0.030673 -0.000382 0.000000 0.001020 0.000000
# 3 -0.002158 -0.000382 0.008051 0.000000 -0.000011 0.000000
# 4 0.000000 0.000000 0.000000 0.026869 0.000000 0.002140
# 5 0.003102 0.001020 -0.000011 0.000000 0.022279 0.000000
# 6 0.000000 0.000000 0.000000 0.002140 0.000000 0.025395
#
#
# Mechanical properties :
#
#
# Convention : Reuss Voigt Hill
#
# Bulk Modulus (GPa) = 31.33703 47.87622 39.60662
# Shear Modulus (GPa) = 32.97081 40.04474 36.50778
#
# Velocity S-wave (km/s) = 3.70301 4.08097 3.89658
# Velocity P-wave (km/s) = 5.59606 6.48977 6.05942
#
# Compressibility (1/GPa) = 0.03191113
#
# Stress axis : x y z
#
# Youngs Moduli (GPa) = 95.54317 32.60224 124.21262
#
# Poissons Ratio (x) = 0.19884 0.26811
# Poissons Ratio (y) = 0.58270 0.04746
# Poissons Ratio (z) = 0.20623 0.01246
#
# Static dielectric constant tensor:
#      x y z
#    x 1.934920 0.000000 0.012050 
#    y 0.000000 1.950300 0.000000 
#    z 0.012050 0.000000 1.891480 
# 
# From -- ./inp_files/5735.got.cif
#   From: 2010.05.17/outbox.cif.g08.bks.cpg/sg4_3_cif.got.tgz:5735.got - 2010.06.03 18:43:04.
