data_PCOD9119734
_publ_section_title
;
Structure prediction by ZEFSAII (Michael W. Deem and Ramdas Pophale) SiO2 
 PCOD9119734
Probable space group: P 21
;
_chemical_formula_sum "Si O2"
_cell_formula_units_Z 14
_cell_length_a 5.860330
_cell_length_b 16.546508
_cell_length_c 5.859470
_cell_angle_alpha 90.000000
_cell_angle_beta 104.046908
_cell_angle_gamma 90.000000
_cell_volume 551.190945
_symmetry_space_group_name_H-M "P 21"
_symmetry_group_IT_number 4
_symmetry_cell_setting 'monoclinic'
loop_
_space_group_symop_operation_xyz
x,y,z
-x,1/2+y,-z
loop_
_atom_site_type_symbol
_atom_site_label
_atom_site_fract_x
_atom_site_fract_y
_atom_site_fract_z
Si Si1 0.218728 0.684960 0.019048
Si Si2 0.518975 0.336857 0.718844
Si Si3 0.483255 0.109425 0.256211
Si Si4 0.812211 0.469662 0.605415
Si Si5 0.756427 0.912345 0.983212
Si Si6 0.105309 0.552147 0.312369
Si Si7 0.822090 0.760864 0.677790
O O1 0.428310 0.628822 0.976153
O O2 0.072396 0.718200 0.767203
O O3 0.322825 0.760937 0.177016
O O4 0.056800 0.629078 0.139440
O O5 0.639137 0.392776 0.556795
O O6 0.267274 0.303507 0.572588
O O7 0.475967 0.392993 0.928402
O O8 0.712442 0.083051 0.453885
O O9 0.370359 0.192226 0.318898
O O10 0.301001 0.038428 0.262853
O O11 0.886451 0.510929 0.386604
O O12 0.045894 0.438651 0.787508
O O13 0.818918 0.829544 0.870181
O O14 0.763213 0.983374 0.801080
#
# Coordination Sequence:
#
# PCOD9119734 Si02
#       7
#     2   2   2   2   2   2   2
#     4  12  27  53  82 117 158 208 265 328 397 472
#     4  12  27  53  82 117 158 208 265 328 397 472
#     4  12  26  50  79 118 159 209 268 323 399 470
#     4  12  27  50  80 115 164 209 266 327 399 474
#     4  12  26  50  79 118 159 209 268 323 399 470
#     4  12  27  50  80 115 164 209 266 327 399 474
#     4  12  26  48  82 122 154 204 262 332 394 470
#
# _framework density 25.399550000000001
#
# number of rings (size 3 to 8) (size 9 to 14) (size 15 to 20)
#    0.000    0.000    4.286    6.000    0.000    9.143 
#    7.714    1.429    0.000    1.714    0.000    0.000 
#    0.000    0.000    0.000    0.000    0.000    0.000 
#
# Total GULP energy -78510.272684 kJ/mol
# GULP energy per Si atom -5607.876620 kJ/mol
# Density = 2.534174 g / cm^3
# Si number density = 25.399550 Si / 1000 Ang^3
#
#
#
# Elastic Constant Matrix: (Units=GPa)
#
#
# Indices 1 2 3 4 5 6 
#
# 1 81.9731 81.0043 44.1210 0.0000 -18.6170 0.0000
# 2 81.0043 185.4490 64.0598 0.0000 -22.8178 0.0000
# 3 44.1210 64.0598 68.9794 0.0000 1.1378 0.0000
# 4 0.0000 0.0000 0.0000 54.0185 0.0000 1.5857
# 5 -18.6170 -22.8178 1.1378 0.0000 39.2468 0.0000
# 6 0.0000 0.0000 0.0000 1.5857 0.0000 52.8786
#
#
#
# Elastic Compliance Matrix: (Units=1/GPa)
#
#
# Indices 1 2 3 4 5 6 
#
# 1 0.026993 -0.006845 -0.011059 0.000000 0.009145 0.000000
# 2 -0.006845 0.010710 -0.005620 0.000000 0.003143 0.000000
# 3 -0.011059 -0.005620 0.026943 0.000000 -0.009295 0.000000
# 4 0.000000 0.000000 0.000000 0.018528 0.000000 -0.000556
# 5 0.009145 0.003143 -0.009295 0.000000 0.031915 0.000000
# 6 0.000000 0.000000 0.000000 -0.000556 0.000000 0.018928
#
#
# Mechanical properties :
#
#
# Convention : Reuss Voigt Hill
#
# Bulk Modulus (GPa) = 56.82529 79.41906 68.12218
# Shear Modulus (GPa) = 26.74776 39.04321 32.89549
#
# Velocity S-wave (km/s) = 3.24864 3.92492 3.60268
# Velocity P-wave (km/s) = 6.04092 7.20248 6.64712
#
# Compressibility (1/GPa) = 0.01759780
#
# Stress axis : x y z
#
# Youngs Moduli (GPa) = 37.04706 93.36880 37.11495
#
# Poissons Ratio (x) = 0.63911 0.41046
# Poissons Ratio (y) = 0.25359 0.20858
# Poissons Ratio (z) = 0.40971 0.52473
#
# Static dielectric constant tensor:
#      x y z
#    x 1.967130 0.000000 0.016130 
#    y 0.000000 1.972490 0.000000 
#    z 0.016130 0.000000 1.978800 
# 
# From -- ./inp_files/284.got.cif
#   From: 2010.05.17/outbox.cif.g08.bks.cpg/sg4_1_cif.got.tgz:284.got - 2010.06.03 18:43:04.
