data_PCOD9119776
_publ_section_title
;
Structure prediction by ZEFSAII (Michael W. Deem and Ramdas Pophale) SiO2 
 PCOD9119776
Probable space group: P 21
;
_chemical_formula_sum "Si O2"
_cell_formula_units_Z 10
_cell_length_a 5.519424
_cell_length_b 4.893462
_cell_length_c 14.191768
_cell_angle_alpha 90.000000
_cell_angle_beta 93.245621
_cell_angle_gamma 90.000000
_cell_volume 382.691938
_symmetry_space_group_name_H-M "P 21"
_symmetry_group_IT_number 4
_symmetry_cell_setting 'monoclinic'
loop_
_space_group_symop_operation_xyz
x,y,z
-x,1/2+y,-z
loop_
_atom_site_type_symbol
_atom_site_label
_atom_site_fract_x
_atom_site_fract_y
_atom_site_fract_z
Si Si1 0.872104 0.612130 0.308465
Si Si2 0.189459 0.100789 0.278694
Si Si3 0.491261 0.925150 0.850129
Si Si4 0.444059 0.395944 0.557155
Si Si5 0.834395 0.141037 0.009525
O O1 0.004220 0.322407 0.318177
O O2 0.632316 0.575835 0.240143
O O3 0.050383 0.819632 0.260046
O O4 0.792052 0.753757 0.403766
O O5 0.717758 0.253975 0.102422
O O6 0.402684 0.039304 0.357109
O O7 0.617798 0.117635 0.929236
O O8 0.695261 0.727589 0.812017
O O9 0.593883 0.141112 0.517156
O O10 0.040780 0.347961 0.979185
#
# Coordination Sequence:
#
# PCOD9119776 Si02
#       5
#     2   2   2   2   2
#     4  12  28  50  79 111 150 200 248 305 376 445
#     4  12  28  50  79 111 150 200 248 305 376 445
#     4  12  29  51  76 112 154 196 254 309 367 442
#     4  12  27  51  78 112 152 192 248 311 371 446
#     4  12  30  50  76 112 152 200 252 310 370 436
#
# _framework density 26.130680000000002
#
# number of rings (size 3 to 8) (size 9 to 14) (size 15 to 20)
#    0.000    0.000    0.000    8.400    0.000   27.200 
#    0.000    4.000    0.000    0.000    0.000    0.000 
#    0.000    0.000    0.000    0.000    0.000    0.000 
#
# Total GULP energy -56237.279209 kJ/mol
# GULP energy per Si atom -5623.727921 kJ/mol
# Density = 2.607121 g / cm^3
# Si number density = 26.130680 Si / 1000 Ang^3
#
#
#
# Elastic Constant Matrix: (Units=GPa)
#
#
# Indices 1 2 3 4 5 6 
#
# 1 93.0434 11.3277 17.2334 0.0000 -6.6256 0.0000
# 2 11.3277 114.3674 17.6775 0.0000 -0.2381 0.0000
# 3 17.2334 17.6775 44.6189 0.0000 -11.5699 0.0000
# 4 0.0000 0.0000 0.0000 51.2677 0.0000 5.1599
# 5 -6.6256 -0.2381 -11.5699 0.0000 42.4970 0.0000
# 6 0.0000 0.0000 0.0000 5.1599 0.0000 55.3309
#
#
#
# Elastic Compliance Matrix: (Units=1/GPa)
#
#
# Indices 1 2 3 4 5 6 
#
# 1 0.011620 -0.000515 -0.004105 0.000000 0.000691 0.000000
# 2 -0.000515 0.009379 -0.003792 0.000000 -0.001060 0.000000
# 3 -0.004105 -0.003792 0.027252 0.000000 0.006758 0.000000
# 4 0.000000 0.000000 0.000000 0.019690 0.000000 -0.001836
# 5 0.000691 -0.001060 0.006758 0.000000 0.025473 0.000000
# 6 0.000000 0.000000 0.000000 -0.001836 0.000000 0.018244
#
#
# Mechanical properties :
#
#
# Convention : Reuss Voigt Hill
#
# Bulk Modulus (GPa) = 31.81902 38.27855 35.04879
# Shear Modulus (GPa) = 35.98243 43.53853 39.76048
#
# Velocity S-wave (km/s) = 3.71485 4.08632 3.90500
# Velocity P-wave (km/s) = 5.53204 6.07822 5.81155
#
# Compressibility (1/GPa) = 0.03142774
#
# Stress axis : x y z
#
# Youngs Moduli (GPa) = 86.05954 106.62544 36.69448
#
# Poissons Ratio (x) = 0.05491 0.15062
# Poissons Ratio (y) = 0.04432 0.13913
# Poissons Ratio (z) = 0.35325 0.40429
#
# Static dielectric constant tensor:
#      x y z
#    x 2.014860 0.000000 0.002110 
#    y 0.000000 1.955320 0.000000 
#    z 0.002110 0.000000 2.001920 
# 
# From -- ./inp_files/15474.got.cif
#   From: 2010.05.17/outbox.cif.g08.bks.cpg/sg4_8_cif.got.tgz:15474.got - 2010.06.03 18:43:04.
