data_PCOD9119639
_publ_section_title
;
Structure prediction by ZEFSAII (Michael W. Deem and Ramdas Pophale) SiO2 
 PCOD9119639
Probable space group: P 21
;
_chemical_formula_sum "Si O2"
_cell_formula_units_Z 14
_cell_length_a 19.509681
_cell_length_b 4.864686
_cell_length_c 12.060923
_cell_angle_alpha 90.000000
_cell_angle_beta 150.593902
_cell_angle_gamma 90.000000
_cell_volume 562.035697
_symmetry_space_group_name_H-M "P 21"
_symmetry_group_IT_number 4
_symmetry_cell_setting 'monoclinic'
loop_
_space_group_symop_operation_xyz
x,y,z
-x,1/2+y,-z
loop_
_atom_site_type_symbol
_atom_site_label
_atom_site_fract_x
_atom_site_fract_y
_atom_site_fract_z
Si Si1 0.457853 0.955960 0.376511
Si Si2 0.094300 0.135710 0.121711
Si Si3 0.172300 0.272639 0.986448
Si Si4 0.050479 0.784827 0.693527
Si Si5 0.516999 0.855061 0.214573
Si Si6 0.694862 0.367668 0.406145
Si Si7 0.208855 0.932023 0.699483
O O1 0.439718 0.697457 0.434087
O O2 0.506479 0.815703 0.331670
O O3 0.319625 0.136375 0.162322
O O4 0.201363 0.002767 0.358617
O O5 0.986668 0.892517 0.939859
O O6 0.159928 0.244408 0.100516
O O7 0.134672 0.573282 0.890732
O O8 0.064142 0.078522 0.769351
O O9 0.128818 0.775037 0.685693
O O10 0.890945 0.695289 0.455355
O O11 0.564816 0.581550 0.218109
O O12 0.634194 0.081604 0.360525
O O13 0.367089 0.966110 0.964557
O O14 0.769693 0.325578 0.394667
#
# Coordination Sequence:
#
# PCOD9119639 Si02
#       7
#     2   2   2   2   2   2   2
#     4  12  25  45  72 107 146 194 249 306 378 449
#     4  12  25  46  76 110 153 199 254 309 383 455
#     4  12  25  47  72 110 148 195 252 318 378 437
#     4  12  28  47  77 110 149 198 259 325 368 452
#     4  12  27  48  74 109 151 200 250 309 380 457
#     4  12  28  49  75 111 154 199 250 308 381 462
#     4  12  28  50  76 111 151 203 256 311 384 444
#
# _framework density 24.909448000000001
#
# number of rings (size 3 to 8) (size 9 to 14) (size 15 to 20)
#    0.000    0.000    1.429    8.571    2.000    4.571 
#    0.000    0.000    0.000    0.000    0.000    0.000 
#    0.000    0.000    0.000    0.000    0.000    0.000 
#
# Total GULP energy -78518.507915 kJ/mol
# GULP energy per Si atom -5608.464851 kJ/mol
# Density = 2.485275 g / cm^3
# Si number density = 24.909448 Si / 1000 Ang^3
#
#
#
# Elastic Constant Matrix: (Units=GPa)
#
#
# Indices 1 2 3 4 5 6 
#
# 1 149.2781 -1.6945 22.2233 0.0000 -15.2212 0.0000
# 2 -1.6945 60.9697 -3.6654 0.0000 3.7738 0.0000
# 3 22.2233 -3.6654 93.7820 0.0000 -8.9398 0.0000
# 4 0.0000 0.0000 0.0000 32.0052 0.0000 5.7431
# 5 -15.2212 3.7738 -8.9398 0.0000 38.0262 0.0000
# 6 0.0000 0.0000 0.0000 5.7431 0.0000 46.0818
#
#
#
# Elastic Compliance Matrix: (Units=1/GPa)
#
#
# Indices 1 2 3 4 5 6 
#
# 1 0.007174 -0.000045 -0.001460 0.000000 0.002533 0.000000
# 2 -0.000045 0.016526 0.000510 0.000000 -0.001538 0.000000
# 3 -0.001460 0.000510 0.011220 0.000000 0.002003 0.000000
# 4 0.000000 0.000000 0.000000 0.031960 0.000000 -0.003983
# 5 0.002533 -0.001538 0.002003 0.000000 0.027935 0.000000
# 6 0.000000 0.000000 0.000000 -0.003983 0.000000 0.022197
#
#
# Mechanical properties :
#
#
# Convention : Reuss Voigt Hill
#
# Bulk Modulus (GPa) = 30.36825 37.52849 33.94837
# Shear Modulus (GPa) = 38.46770 42.36708 40.41739
#
# Velocity S-wave (km/s) = 3.93402 4.12860 4.03249
# Velocity P-wave (km/s) = 5.73178 6.15027 5.94471
#
# Compressibility (1/GPa) = 0.03292913
#
# Stress axis : x y z
#
# Youngs Moduli (GPa) = 139.39118 60.50990 89.12726
#
# Poissons Ratio (x) = 0.00273 0.13016
# Poissons Ratio (y) = 0.00630 -0.04545
# Poissons Ratio (z) = 0.20356 -0.03086
#
# Static dielectric constant tensor:
#      x y z
#    x 1.915790 0.000000 -0.004950 
#    y 0.000000 1.918270 0.000000 
#    z -0.004950 0.000000 2.045320 
# 
# From -- ./inp_files/12836.got.cif
#   From: 2010.05.17/outbox.cif.g08.bks.cpg/sg4_7_cif.got.tgz:12836.got - 2010.06.03 18:43:04.
