data_PCOD9119434
_publ_section_title
;
Structure prediction by ZEFSAII (Michael W. Deem and Ramdas Pophale) SiO2 
 PCOD9119434
Probable space group: P 21
;
_chemical_formula_sum "Si O2"
_cell_formula_units_Z 10
_cell_length_a 9.136056
_cell_length_b 9.939420
_cell_length_c 9.223255
_cell_angle_alpha 90.000000
_cell_angle_beta 147.738970
_cell_angle_gamma 90.000000
_cell_volume 447.058262
_symmetry_space_group_name_H-M "P 21"
_symmetry_group_IT_number 4
_symmetry_cell_setting 'monoclinic'
loop_
_space_group_symop_operation_xyz
x,y,z
-x,1/2+y,-z
loop_
_atom_site_type_symbol
_atom_site_label
_atom_site_fract_x
_atom_site_fract_y
_atom_site_fract_z
Si Si1 0.537498 0.773300 0.347577
Si Si2 0.127799 0.713535 0.754277
Si Si3 0.920841 0.940599 0.131075
Si Si4 0.395170 0.045426 0.361387
Si Si5 0.611253 0.268035 0.335999
O O1 0.524736 0.638921 0.434838
O O2 0.820371 0.769653 0.496134
O O3 0.532911 0.901780 0.448248
O O4 0.288414 0.774917 0.026413
O O5 0.102894 0.554676 0.765967
O O6 0.288846 0.741784 0.742842
O O7 0.127295 0.823225 0.356202
O O8 0.624426 0.880166 0.857119
O O9 0.075943 0.010540 0.125295
O O10 0.474894 0.136467 0.291710
#
# Coordination Sequence:
#
# PCOD9119434 Si02
#       5
#     2   2   2   2   2
#     4  11  26  48  73 104 145 185 240 293 355 422
#     4  11  27  46  73 103 146 186 235 297 355 424
#     4  11  26  47  71 105 144 181 246 294 346 427
#     4  11  26  48  74 105 139 193 237 294 353 420
#     4  12  27  45  75 103 142 189 238 292 361 415
#
# _framework density 22.368448999999998
#
# number of rings (size 3 to 8) (size 9 to 14) (size 15 to 20)
#    0.000    0.800    2.000    3.600   11.200    4.800 
#    0.000    0.000    0.000    0.000    0.000    0.000 
#    0.000    0.000    0.000    0.000    0.000    0.000 
#
# Total GULP energy -55975.914894 kJ/mol
# GULP energy per Si atom -5597.591489 kJ/mol
# Density = 2.231754 g / cm^3
# Si number density = 22.368449 Si / 1000 Ang^3
#
#
#
# Elastic Constant Matrix: (Units=GPa)
#
#
# Indices 1 2 3 4 5 6 
#
# 1 152.5040 61.9220 6.8486 0.0000 5.3328 0.0000
# 2 61.9220 127.0560 9.3809 0.0000 10.2722 0.0000
# 3 6.8486 9.3809 34.9551 0.0000 15.3631 0.0000
# 4 0.0000 0.0000 0.0000 27.5661 0.0000 7.5236
# 5 5.3328 10.2722 15.3631 0.0000 27.6977 0.0000
# 6 0.0000 0.0000 0.0000 7.5236 0.0000 39.7563
#
#
#
# Elastic Compliance Matrix: (Units=1/GPa)
#
#
# Indices 1 2 3 4 5 6 
#
# 1 0.008186 -0.003962 -0.000653 0.000000 0.000255 0.000000
# 2 -0.003962 0.010065 -0.000819 0.000000 -0.002516 0.000000
# 3 -0.000653 -0.000819 0.038041 0.000000 -0.020671 0.000000
# 4 0.000000 0.000000 0.000000 0.038252 0.000000 -0.007239
# 5 0.000255 -0.002516 -0.020671 0.000000 0.048453 0.000000
# 6 0.000000 0.000000 0.000000 -0.007239 0.000000 0.026523
#
#
# Mechanical properties :
#
#
# Convention : Reuss Voigt Hill
#
# Bulk Modulus (GPa) = 22.01475 52.31310 37.16392
# Shear Modulus (GPa) = 25.57134 34.76159 30.16647
#
# Velocity S-wave (km/s) = 3.38477 3.94642 3.67634
# Velocity P-wave (km/s) = 5.01386 6.64856 5.88822
#
# Compressibility (1/GPa) = 0.04542409
#
# Stress axis : x y z
#
# Youngs Moduli (GPa) = 122.15438 99.35009 26.28748
#
# Poissons Ratio (x) = 0.39364 0.01716
# Poissons Ratio (y) = 0.48399 0.02154
# Poissons Ratio (z) = 0.07975 0.08140
#
# Static dielectric constant tensor:
#      x y z
#    x 1.792000 0.000000 -0.009710 
#    y 0.000000 1.821050 0.000000 
#    z -0.009710 0.000000 1.809800 
# 
# From -- ./inp_files/919.got.cif
#   From: 2010.05.17/outbox.cif.g08.bks.cpg/sg4_1_cif.got.tgz:919.got - 2010.06.03 18:43:04.
