data_PCOD9119332
_publ_section_title
;
Structure prediction by ZEFSAII (Michael W. Deem and Ramdas Pophale) SiO2 
 PCOD9119332
Probable space group: P 21
;
_chemical_formula_sum "Si O2"
_cell_formula_units_Z 16
_cell_length_a 19.311253
_cell_length_b 8.005370
_cell_length_c 12.766352
_cell_angle_alpha 90.000000
_cell_angle_beta 18.984754
_cell_angle_gamma 90.000000
_cell_volume 642.044059
_symmetry_space_group_name_H-M "P 21"
_symmetry_group_IT_number 4
_symmetry_cell_setting 'monoclinic'
loop_
_space_group_symop_operation_xyz
x,y,z
-x,1/2+y,-z
loop_
_atom_site_type_symbol
_atom_site_label
_atom_site_fract_x
_atom_site_fract_y
_atom_site_fract_z
Si Si1 0.703190 0.289660 0.303456
Si Si2 0.655814 0.022658 0.522368
Si Si3 0.470484 0.028256 0.277514
Si Si4 0.572589 0.746855 0.490214
Si Si5 0.981741 0.180451 0.207343
Si Si6 0.219782 0.987498 0.252378
Si Si7 0.134522 0.590753 0.400949
Si Si8 0.896016 0.580104 0.352742
O O1 0.582015 0.134592 0.530619
O O2 0.684003 0.411826 0.431156
O O3 0.563853 0.336639 0.402098
O O4 0.924310 0.208457 0.946152
O O5 0.862313 0.101777 0.279272
O O6 0.690018 0.851127 0.413398
O O7 0.467382 0.016707 0.874857
O O8 0.573514 0.132867 0.226574
O O9 0.317530 0.108192 0.408966
O O10 0.675927 0.975124 0.916764
O O11 0.767418 0.654069 0.157026
O O12 0.894055 0.083976 0.433977
O O13 0.951319 0.381601 0.257500
O O14 0.147673 0.083526 0.460639
O O15 0.077743 0.047414 0.358409
O O16 0.189884 0.787217 0.304962
#
# Coordination Sequence:
#
# PCOD9119332 Si02
#       8
#     2   2   2   2   2   2   2   2
#     4  12  26  46  78 107 152 202 248 319 380 455
#     4  12  24  48  74 109 152 200 254 311 383 458
#     4  12  26  47  74 110 151 199 256 313 386 456
#     4  12  26  45  73 111 153 196 255 310 383 456
#     4  11  25  46  75 106 148 199 254 314 376 456
#     4  11  26  48  74 107 151 199 257 317 381 463
#     4  11  26  48  75 107 150 200 258 314 384 460
#     4  11  25  46  75 107 147 199 256 312 381 452
#
# _framework density 24.920407999999998
#
# number of rings (size 3 to 8) (size 9 to 14) (size 15 to 20)
#    0.000    0.500    3.750    3.750    5.250    0.000 
#    2.250    0.000    0.000    0.000    0.000    0.000 
#    0.000    0.000    0.000    0.000    0.000    0.000 
#
# Total GULP energy -89379.733252 kJ/mol
# GULP energy per Si atom -5586.233328 kJ/mol
# Density = 2.486369 g / cm^3
# Si number density = 24.920408 Si / 1000 Ang^3
#
#
#
# Elastic Constant Matrix: (Units=GPa)
#
#
# Indices 1 2 3 4 5 6 
#
# 1 145.0055 18.9243 53.4340 0.0000 -4.9220 0.0000
# 2 18.9243 28.0817 21.2507 0.0000 1.1003 0.0000
# 3 53.4340 21.2507 130.5546 0.0000 5.3518 0.0000
# 4 0.0000 0.0000 0.0000 23.1004 0.0000 5.9985
# 5 -4.9220 1.1003 5.3518 0.0000 48.4188 0.0000
# 6 0.0000 0.0000 0.0000 5.9985 0.0000 45.2357
#
#
#
# Elastic Compliance Matrix: (Units=1/GPa)
#
#
# Indices 1 2 3 4 5 6 
#
# 1 0.008488 -0.003537 -0.002950 0.000000 0.001269 0.000000
# 2 -0.003537 0.042089 -0.005374 0.000000 -0.000722 0.000000
# 3 -0.002950 -0.005374 0.009793 0.000000 -0.001260 0.000000
# 4 0.000000 0.000000 0.000000 0.044833 0.000000 -0.005945
# 5 0.001269 -0.000722 -0.001260 0.000000 0.020938 0.000000
# 6 0.000000 0.000000 0.000000 -0.005945 0.000000 0.022895
#
#
# Mechanical properties :
#
#
# Convention : Reuss Voigt Hill
#
# Bulk Modulus (GPa) = 27.28652 54.53996 40.91324
# Shear Modulus (GPa) = 27.03073 37.35315 32.19194
#
# Velocity S-wave (km/s) = 3.29702 3.87576 3.59805
# Velocity P-wave (km/s) = 5.04649 6.47780 5.80642
#
# Compressibility (1/GPa) = 0.03664813
#
# Stress axis : x y z
#
# Youngs Moduli (GPa) = 117.81040 23.75931 102.10866
#
# Poissons Ratio (x) = 0.08404 0.30126
# Poissons Ratio (y) = 0.41673 0.54868
# Poissons Ratio (z) = 0.34758 0.12767
#
# Static dielectric constant tensor:
#      x y z
#    x 1.891720 0.000000 0.031290 
#    y 0.000000 2.406680 0.000000 
#    z 0.031290 0.000000 1.925300 
# 
# From -- ./inp_files/12902.got.cif
#   From: 2010.05.17/outbox.cif.g08.bks.cpg/sg4_7_cif.got.tgz:12902.got - 2010.06.03 18:43:04.
