data_PCOD9119926
_publ_section_title
;
Structure prediction by ZEFSAII (Michael W. Deem and Ramdas Pophale) SiO2 
 PCOD9119926
Probable space group: C 2
;
_chemical_formula_sum "Si O2"
_cell_formula_units_Z 30
_cell_length_a 5.513056
_cell_length_b 32.642794
_cell_length_c 6.767610
_cell_angle_alpha 90.000000
_cell_angle_beta 77.164523
_cell_angle_gamma 90.000000
_cell_volume 1187.476453
_symmetry_space_group_name_H-M "C 2"
_symmetry_group_IT_number 5
_symmetry_cell_setting 'monoclinic'
loop_
_space_group_symop_operation_xyz
x,y,z
-x,y,-z
1/2+x,1/2+y,z
1/2-x,1/2+y,-z
loop_
_atom_site_type_symbol
_atom_site_label
_atom_site_fract_x
_atom_site_fract_y
_atom_site_fract_z
Si Si1 0.794593 0.699520 0.254008
Si Si2 0.000000 0.974894 0.500000
Si Si3 0.784903 0.609382 0.368907
Si Si4 0.218170 0.231631 0.718507
Si Si5 0.923720 0.522823 0.281829
Si Si6 0.270952 0.356509 0.255012
Si Si7 0.275891 0.826850 0.281301
Si Si8 0.741153 0.446166 0.820004
O O1 0.758563 0.650780 0.249873
O O2 0.754518 0.712308 0.493211
O O3 0.572468 0.724031 0.190639
O O4 0.084571 0.709528 0.175787
O O5 0.821346 0.948373 0.401327
O O6 0.847743 0.002944 0.675438
O O7 0.500000 0.600294 0.500000
O O8 0.887629 0.569808 0.231202
O O9 0.000000 0.616473 0.500000
O O10 0.291801 0.279166 0.700089
O O11 0.000000 0.525547 0.500000
O O12 0.104515 0.487532 0.167641
O O13 0.569626 0.349994 0.184925
O O14 0.244889 0.347773 0.496763
O O15 0.164340 0.399834 0.191684
O O16 0.073270 0.326147 0.191720
O O17 0.500000 0.446925 0.000000
#
# Coordination Sequence:
#
# PCOD9119926 Si02
#       8
#     4   2   4   4   4   4   4   4
#     4  10  15  23  40  68 110 153 188 237 303 360
#     4  10  20  40  64  86 114 166 206 252 328 370
#     4  11  17  30  46  78 113 160 201 254 312 370
#     4  10  16  25  41  71 111 154 189 240 306 364
#     4   9  21  35  58  83 117 161 209 255 321 378
#     4  10  20  33  52  76 108 153 200 253 305 360
#     4  10  19  32  52  79 114 160 201 251 313 371
#     4  11  25  41  61  91 123 166 219 269 320 393
#
# _framework density 25.263658
#
# number of rings (size 3 to 8) (size 9 to 14) (size 15 to 20)
#    0.000    1.867    3.333    4.800    7.467    0.533 
#    0.000    0.000    0.000    0.000    0.000    0.000 
#    0.000    6.400    2.133    0.000    0.000    0.000 
#
# Total GULP energy -83689.506281 kJ/mol
# GULP energy per Si atom -5579.300419 kJ/mol
# Density = 2.520616 g / cm^3
# Si number density = 25.263658 Si / 1000 Ang^3
#
#
#
# Elastic Constant Matrix: (Units=GPa)
#
#
# Indices 1 2 3 4 5 6 
#
# 1 177.4469 17.4472 25.9913 0.0000 2.4544 0.0000
# 2 17.4472 192.2166 9.8079 0.0000 -6.2121 0.0000
# 3 25.9913 9.8079 60.9856 0.0000 0.8714 0.0000
# 4 0.0000 0.0000 0.0000 188.4646 0.0000 72.6866
# 5 2.4544 -6.2121 0.8714 0.0000 51.8945 0.0000
# 6 0.0000 0.0000 0.0000 72.6866 0.0000 62.8624
#
#
#
# Elastic Compliance Matrix: (Units=1/GPa)
#
#
# Indices 1 2 3 4 5 6 
#
# 1 0.006049 -0.000431 -0.002504 0.000000 -0.000296 0.000000
# 2 -0.000431 0.005298 -0.000678 0.000000 0.000666 0.000000
# 3 -0.002504 -0.000678 0.017577 0.000000 -0.000258 0.000000
# 4 0.000000 0.000000 0.000000 0.009577 0.000000 -0.011074
# 5 -0.000296 0.000666 -0.000258 0.000000 0.019368 0.000000
# 6 0.000000 0.000000 0.000000 -0.011074 0.000000 0.028712
#
#
# Mechanical properties :
#
#
# Convention : Reuss Voigt Hill
#
# Bulk Modulus (GPa) = 46.08802 59.68243 52.88523
# Shear Modulus (GPa) = 49.48574 85.80448 67.64511
#
# Velocity S-wave (km/s) = 4.43060 5.83415 5.18013
# Velocity P-wave (km/s) = 6.66754 8.31013 7.53373
#
# Compressibility (1/GPa) = 0.02169761
#
# Stress axis : x y z
#
# Youngs Moduli (GPa) = 165.32304 188.76194 56.89131
#
# Poissons Ratio (x) = 0.08132 0.14248
# Poissons Ratio (y) = 0.07122 0.03857
# Poissons Ratio (z) = 0.41404 0.12796
#
# Static dielectric constant tensor:
#      x y z
#    x 1.717860 0.000000 0.335030 
#    y 0.000000 1.933590 0.000000 
#    z 0.335030 0.000000 1.650860 
# 
# From -- ./inp_files/13351.got.cif
#   From: 2010.05.17/outbox.cif.g08.bks.cpg/sg5_7_cif.got.tgz:13351.got - 2010.06.03 18:56:24.
