data_PCOD9119014
_publ_section_title
;
Structure prediction by ZEFSAII (Michael W. Deem and Ramdas Pophale) SiO2 
 PCOD9119014
Probable space group: P 21
;
_chemical_formula_sum "Si O2"
_cell_formula_units_Z 16
_cell_length_a 6.252188
_cell_length_b 8.110808
_cell_length_c 14.501459
_cell_angle_alpha 90.000000
_cell_angle_beta 116.342699
_cell_angle_gamma 90.000000
_cell_volume 659.009173
_symmetry_space_group_name_H-M "P 21"
_symmetry_group_IT_number 4
_symmetry_cell_setting 'monoclinic'
loop_
_space_group_symop_operation_xyz
x,y,z
-x,1/2+y,-z
loop_
_atom_site_type_symbol
_atom_site_label
_atom_site_fract_x
_atom_site_fract_y
_atom_site_fract_z
Si Si1 0.003684 0.563760 0.145062
Si Si2 0.518383 0.937122 0.314024
Si Si3 0.025534 0.059082 0.184229
Si Si4 0.956970 0.173977 0.448955
Si Si5 0.836452 0.270924 0.991582
Si Si6 0.331035 0.278985 0.825782
Si Si7 0.687008 0.384421 0.522584
Si Si8 0.174103 0.364340 0.338638
O O1 0.756450 0.609011 0.147578
O O2 0.078156 0.713735 0.093071
O O3 0.157992 0.514637 0.263585
O O4 0.982801 0.412997 0.070583
O O5 0.605906 0.783918 0.269877
O O6 0.403061 0.892980 0.389937
O O7 0.733011 0.066843 0.368732
O O8 0.299658 0.015646 0.214601
O O9 0.062214 0.210706 0.261119
O O10 0.879783 0.911744 0.202993
O O11 0.876491 0.118656 0.068253
O O12 0.873065 0.239979 0.532502
O O13 0.022709 0.341419 0.404104
O O14 0.185961 0.056545 0.480017
O O15 0.564023 0.324519 0.928757
O O16 0.450114 0.350370 0.418040
#
# Coordination Sequence:
#
# PCOD9119014 Si02
#       8
#     2   2   2   2   2   2   2   2
#     4  11  26  48  73 116 152 198 257 313 396 458
#     4  12  24  49  78 106 154 200 257 313 387 469
#     4  11  23  49  80 104 153 202 255 312 398 450
#     4  12  25  51  76 110 148 210 250 325 387 461
#     4  11  25  47  77 108 154 197 255 327 376 468
#     4  12  24  46  73 113 146 202 257 312 389 461
#     4  12  26  51  77 112 150 202 265 317 395 458
#     4  11  25  51  72 113 155 199 254 323 380 467
#
# _framework density 24.278872
#
# number of rings (size 3 to 8) (size 9 to 14) (size 15 to 20)
#    0.000    0.500    3.750    3.750    0.000    1.000 
#   33.750    0.000    0.000    0.000    0.000    0.000 
#    0.000    0.000    0.000    0.000    0.000    0.000 
#
# Total GULP energy -89468.296462 kJ/mol
# GULP energy per Si atom -5591.768529 kJ/mol
# Density = 2.422361 g / cm^3
# Si number density = 24.278872 Si / 1000 Ang^3
#
#
#
# Elastic Constant Matrix: (Units=GPa)
#
#
# Indices 1 2 3 4 5 6 
#
# 1 133.0909 43.5835 64.4693 0.0000 -16.4986 0.0000
# 2 43.5835 61.8088 36.8066 0.0000 -27.6973 0.0000
# 3 64.4693 36.8066 103.2332 0.0000 4.0218 0.0000
# 4 0.0000 0.0000 0.0000 44.3386 0.0000 -7.6261
# 5 -16.4986 -27.6973 4.0218 0.0000 45.7785 0.0000
# 6 0.0000 0.0000 0.0000 -7.6261 0.0000 44.0143
#
#
#
# Elastic Compliance Matrix: (Units=1/GPa)
#
#
# Indices 1 2 3 4 5 6 
#
# 1 0.012117 -0.003407 -0.006464 0.000000 0.002873 0.000000
# 2 -0.003407 0.034198 -0.010861 0.000000 0.020417 0.000000
# 3 -0.006464 -0.010861 0.018004 0.000000 -0.010482 0.000000
# 4 0.000000 0.000000 0.000000 0.023246 0.000000 0.004028
# 5 0.002873 0.020417 -0.010482 0.000000 0.036154 0.000000
# 6 0.000000 0.000000 0.000000 0.004028 0.000000 0.023418
#
#
# Mechanical properties :
#
#
# Convention : Reuss Voigt Hill
#
# Bulk Modulus (GPa) = 43.75334 65.31685 54.53510
# Shear Modulus (GPa) = 25.48178 37.04451 31.26315
#
# Velocity S-wave (km/s) = 3.24318 3.91038 3.59230
# Velocity P-wave (km/s) = 5.66433 6.88108 6.30214
#
# Compressibility (1/GPa) = 0.02285540
#
# Stress axis : x y z
#
# Youngs Moduli (GPa) = 82.52993 29.24172 55.54229
#
# Poissons Ratio (x) = 0.09962 0.35904
# Poissons Ratio (y) = 0.28117 0.60322
# Poissons Ratio (z) = 0.53349 0.31758
#
# Static dielectric constant tensor:
#      x y z
#    x 1.937410 0.000000 -0.034140 
#    y 0.000000 2.007320 0.000000 
#    z -0.034140 0.000000 1.954880 
# 
# From -- ./inp_files/13311.got.cif
#   From: 2010.05.17/outbox.cif.g08.bks.cpg/sg4_7_cif.got.tgz:13311.got - 2010.06.03 18:43:04.
