data_PCOD9119859
_publ_section_title
;
Structure prediction by ZEFSAII (Michael W. Deem and Ramdas Pophale) SiO2 
 PCOD9119859
Probable space group: P 21
;
_chemical_formula_sum "Si O2"
_cell_formula_units_Z 10
_cell_length_a 6.000000
_cell_length_b 12.000000
_cell_length_c 6.000000
_cell_angle_alpha 90.000000
_cell_angle_beta 80.000000
_cell_angle_gamma 90.000000
_cell_volume 425.436949
_symmetry_space_group_name_H-M "P 21"
_symmetry_group_IT_number 4
_symmetry_cell_setting 'monoclinic'
loop_
_space_group_symop_operation_xyz
x,y,z
-x,1/2+y,-z
loop_
_atom_site_type_symbol
_atom_site_label
_atom_site_fract_x
_atom_site_fract_y
_atom_site_fract_z
Si Si1 0.048357 0.271080 0.439364
Si Si2 0.787599 0.454472 0.244292
Si Si3 0.900044 0.084554 0.118081
Si Si4 0.311462 0.766535 0.101466
Si Si5 0.388673 0.391169 0.615312
O O1 0.302889 0.295800 0.461438
O O2 0.978864 0.389840 0.347848
O O3 0.998820 0.170217 0.282693
O O4 0.892290 0.258244 0.684063
O O5 0.578392 0.464118 0.452159
O O6 0.727773 0.363741 0.068527
O O7 0.902692 0.555147 0.092891
O O8 0.798931 0.974698 0.252664
O O9 0.697529 0.149188 0.024632
O O10 0.519673 0.814185 0.202402
#
# Coordination Sequence:
#
# PCOD9119859 Si02
#       5
#     2   2   2   2   2
#     4  10  24  48  69 106 146 180 244 297 339 435
#     4  10  24  48  70 101 144 188 234 296 354 415
#     4  11  25  49  73 102 150 193 226 298 366 405
#     4  10  24  48  69 108 141 186 242 290 352 424
#     4  11  25  49  73 105 147 183 244 295 345 433
#
# _framework density 23.505246
#
# number of rings (size 3 to 8) (size 9 to 14) (size 15 to 20)
#    0.000    1.600    2.000    0.000    5.600    0.000 
#   28.800    0.000    0.000    0.000    0.000    0.000 
#    0.000    0.000    0.000    0.000    0.000    0.000 
#
# Total GULP energy -55869.388959 kJ/mol
# GULP energy per Si atom -5586.938896 kJ/mol
# Density = 2.345175 g / cm^3
# Si number density = 23.505246 Si / 1000 Ang^3
#
#
#
# Elastic Constant Matrix: (Units=GPa)
#
#
# Indices 1 2 3 4 5 6 
#
# 1 35.8056 43.2473 11.4378 0.0000 44.0856 0.0000
# 2 43.2473 97.9730 39.7965 0.0000 5.0403 0.0000
# 3 11.4378 39.7965 75.6640 0.0000 43.3557 0.0000
# 4 0.0000 0.0000 0.0000 46.0646 0.0000 3.5003
# 5 44.0856 5.0403 43.3557 0.0000 -6.4234 0.0000
# 6 0.0000 0.0000 0.0000 3.5003 0.0000 1.1747
#
#
#
# Elastic Compliance Matrix: (Units=1/GPa)
#
#
# Indices 1 2 3 4 5 6 
#
# 1 0.013119 -0.002395 -0.010527 0.000000 0.017109 0.000000
# 2 -0.002395 0.011914 -0.000378 0.000000 -0.009644 0.000000
# 3 -0.010527 -0.000378 0.011623 0.000000 0.005905 0.000000
# 4 0.000000 0.000000 0.000000 0.028062 0.000000 -0.083618
# 5 0.017109 -0.009644 0.005905 0.000000 -0.005967 0.000000
# 6 0.000000 0.000000 0.000000 -0.083618 0.000000 1.100437
#
#
# Mechanical properties :
#
#
# Convention : Reuss Voigt Hill
#
# Bulk Modulus (GPa) = 99.44901 44.26732 71.85816
# Shear Modulus (GPa) = 4.20472 15.82725 10.01598
#
# Velocity S-wave (km/s) = 1.33893 2.59771 2.06650
# Velocity P-wave (km/s) = 6.69264 5.27933 6.02755
#
# Compressibility (1/GPa) = 0.01005540
#
# Stress axis : x y z
#
# Youngs Moduli (GPa) = 76.22455 83.93487 86.03745
#
# Poissons Ratio (x) = 0.20105 0.90570
# Poissons Ratio (y) = 0.18258 0.03254
# Poissons Ratio (z) = 0.80240 0.03175
#
# Static dielectric constant tensor:
#      x y z
#    x 1.942460 0.000000 0.083280 
#    y 0.000000 1.836280 0.000000 
#    z 0.083280 0.000000 1.935640 
# 
# From -- ./inp_files/192.got.cif
#   From: 2010.05.17/outbox.ucp.g08.bks.cvg/sg4_1_cif.got.tgz:192.got - 2010.06.11 12:51:24.
