data_PCOD9119276
_publ_section_title
;
Structure prediction by ZEFSAII (Michael W. Deem and Ramdas Pophale) SiO2 
 PCOD9119276
Probable space group: P 21
;
_chemical_formula_sum "Si O2"
_cell_formula_units_Z 16
_cell_length_a 9.490321
_cell_length_b 4.899163
_cell_length_c 26.592796
_cell_angle_alpha 90.000000
_cell_angle_beta 148.467875
_cell_angle_gamma 90.000000
_cell_volume 646.619811
_symmetry_space_group_name_H-M "P 21"
_symmetry_group_IT_number 4
_symmetry_cell_setting 'monoclinic'
loop_
_space_group_symop_operation_xyz
x,y,z
-x,1/2+y,-z
loop_
_atom_site_type_symbol
_atom_site_label
_atom_site_fract_x
_atom_site_fract_y
_atom_site_fract_z
Si Si1 0.821457 0.866890 0.762383
Si Si2 0.642760 0.378416 0.648430
Si Si3 0.035017 0.436471 0.476146
Si Si4 0.086861 0.650456 0.713676
Si Si5 0.188449 0.492632 0.125243
Si Si6 0.645470 0.741162 0.926152
Si Si7 0.760291 0.677163 0.298284
Si Si8 0.568814 0.565501 0.053109
O O1 0.737890 0.560950 0.724334
O O2 0.770552 0.896731 0.805759
O O3 0.131514 0.951001 0.848803
O O4 0.675565 0.068657 0.678082
O O5 0.330360 0.419813 0.541581
O O6 0.832199 0.515321 0.663591
O O7 0.048869 0.648659 0.526435
O O8 0.830215 0.555411 0.373365
O O9 0.353874 0.603131 0.829125
O O10 0.120737 0.474126 0.673717
O O11 0.111535 0.966236 0.704125
O O12 0.237237 0.289581 0.093749
O O13 0.439829 0.695726 0.193252
O O14 0.886058 0.597778 0.028728
O O15 0.584344 0.010638 0.941142
O O16 0.563666 0.868632 0.029608
#
# Coordination Sequence:
#
# PCOD9119276 Si02
#       8
#     2   2   2   2   2   2   2   2
#     4  12  26  45  71 104 142 183 243 292 357 426
#     4  12  26  46  76 102 140 185 237 298 364 431
#     4  12  26  48  75 106 139 184 239 302 370 433
#     4  11  25  44  69 103 140 185 231 290 356 426
#     4  11  25  41  67 100 138 189 230 290 349 416
#     4  11  25  42  68 101 145 188 241 286 352 422
#     4  11  25  45  69 101 144 180 235 296 355 422
#     4  12  26  45  69 101 142 190 244 298 349 424
#
# _framework density 24.744060999999999
#
# number of rings (size 3 to 8) (size 9 to 14) (size 15 to 20)
#    0.000    0.500    2.500    5.250    3.500    4.000 
#    0.000    0.000    0.000    0.000    0.000    0.000 
#    0.000    0.000    0.000    0.000    0.000    0.000 
#
# Total GULP energy -89575.568427 kJ/mol
# GULP energy per Si atom -5598.473027 kJ/mol
# Density = 2.468774 g / cm^3
# Si number density = 24.744061 Si / 1000 Ang^3
#
#
#
# Elastic Constant Matrix: (Units=GPa)
#
#
# Indices 1 2 3 4 5 6 
#
# 1 99.2945 3.9840 -4.3123 0.0000 -3.0874 0.0000
# 2 3.9840 68.9222 -9.5197 0.0000 -3.2338 0.0000
# 3 -4.3123 -9.5197 100.0928 0.0000 13.3833 0.0000
# 4 0.0000 0.0000 0.0000 28.2352 0.0000 -8.1014
# 5 -3.0874 -3.2338 13.3833 0.0000 33.2250 0.0000
# 6 0.0000 0.0000 0.0000 -8.1014 0.0000 32.4827
#
#
#
# Elastic Compliance Matrix: (Units=1/GPa)
#
#
# Indices 1 2 3 4 5 6 
#
# 1 0.010128 -0.000510 0.000284 0.000000 0.000777 0.000000
# 2 -0.000510 0.014754 0.001264 0.000000 0.000880 0.000000
# 3 0.000284 0.001264 0.010678 0.000000 -0.004152 0.000000
# 4 0.000000 0.000000 0.000000 0.038147 0.000000 0.009514
# 5 0.000777 0.000880 -0.004152 0.000000 0.031928 0.000000
# 6 0.000000 0.000000 0.000000 0.009514 0.000000 0.033158
#
#
# Mechanical properties :
#
#
# Convention : Reuss Voigt Hill
#
# Bulk Modulus (GPa) = 26.56998 27.62372 27.09685
# Shear Modulus (GPa) = 33.49780 37.33242 35.41511
#
# Velocity S-wave (km/s) = 3.68335 3.88847 3.78730
# Velocity P-wave (km/s) = 5.37128 5.59895 5.48630
#
# Compressibility (1/GPa) = 0.03763646
#
# Stress axis : x y z
#
# Youngs Moduli (GPa) = 98.73615 67.77645 93.64787
#
# Poissons Ratio (x) = 0.03455 -0.02659
# Poissons Ratio (y) = 0.05033 -0.11834
# Poissons Ratio (z) = -0.02804 -0.08565
#
# Static dielectric constant tensor:
#      x y z
#    x 1.984490 0.000000 0.009360 
#    y 0.000000 1.940960 0.000000 
#    z 0.009360 0.000000 1.943540 
# 
# From -- ./inp_files/16070.got.cif
#   From: 2010.05.17/outbox.cif.g08.bks.cpg/sg4_9_cif.got.tgz:16070.got - 2010.06.03 18:43:04.
