data_PCOD9119532
_publ_section_title
;
Structure prediction by ZEFSAII (Michael W. Deem and Ramdas Pophale) SiO2 
 PCOD9119532
Probable space group: P 21
;
_chemical_formula_sum "Si O2"
_cell_formula_units_Z 12
_cell_length_a 15.693500
_cell_length_b 5.059121
_cell_length_c 9.849921
_cell_angle_alpha 90.000000
_cell_angle_beta 143.497135
_cell_angle_gamma 90.000000
_cell_volume 465.205209
_symmetry_space_group_name_H-M "P 21"
_symmetry_group_IT_number 4
_symmetry_cell_setting 'monoclinic'
loop_
_space_group_symop_operation_xyz
x,y,z
-x,1/2+y,-z
loop_
_atom_site_type_symbol
_atom_site_label
_atom_site_fract_x
_atom_site_fract_y
_atom_site_fract_z
Si Si1 0.352405 0.491370 0.426028
Si Si2 0.854459 0.406395 0.494392
Si Si3 0.030017 0.476581 0.976881
Si Si4 0.101489 0.058894 0.754870
Si Si5 0.421602 0.979120 0.687903
Si Si6 0.702159 0.059698 0.940860
O O1 0.429366 0.697741 0.621961
O O2 0.390606 0.523468 0.316501
O O3 0.360850 0.209270 0.510769
O O4 0.188238 0.583015 0.203506
O O5 0.888167 0.539583 0.394750
O O6 0.689712 0.432346 0.331225
O O7 0.942744 0.536090 0.730546
O O8 0.935530 0.120523 0.581720
O O9 0.953540 0.661393 0.989893
O O10 0.192921 0.312704 0.916289
O O11 0.195707 0.813579 0.927531
O O12 0.587791 0.063302 0.917711
#
# Coordination Sequence:
#
# PCOD9119532 Si02
#       6
#     2   2   2   2   2   2
#     4  12  23  44  73 111 146 194 244 310 377 452
#     4  12  28  49  74 110 144 198 253 311 366 446
#     4  12  24  42  72 110 142 186 246 318 376 437
#     4  12  29  48  74 105 150 200 254 307 367 448
#     4  12  27  46  77 108 151 193 252 311 376 447
#     4  12  27  49  74 110 151 201 243 307 380 454
#
# _framework density 25.795067
#
# number of rings (size 3 to 8) (size 9 to 14) (size 15 to 20)
#    0.000    0.000    5.000    4.000    2.333    6.667 
#    0.000    0.000    0.000    0.000    0.000    0.000 
#    0.000    0.000    0.000    0.000    0.000    0.000 
#
# Total GULP energy -67057.417145 kJ/mol
# GULP energy per Si atom -5588.118095 kJ/mol
# Density = 2.573636 g / cm^3
# Si number density = 25.795067 Si / 1000 Ang^3
#
#
#
# Elastic Constant Matrix: (Units=GPa)
#
#
# Indices 1 2 3 4 5 6 
#
# 1 152.6000 48.7550 7.5768 0.0000 17.6513 0.0000
# 2 48.7550 160.2239 27.5684 0.0000 7.7197 0.0000
# 3 7.5768 27.5684 17.2580 0.0000 -11.4829 0.0000
# 4 0.0000 0.0000 0.0000 32.2328 0.0000 -5.8804
# 5 17.6513 7.7197 -11.4829 0.0000 58.6383 0.0000
# 6 0.0000 0.0000 0.0000 -5.8804 0.0000 34.0300
#
#
#
# Elastic Compliance Matrix: (Units=1/GPa)
#
#
# Indices 1 2 3 4 5 6 
#
# 1 0.007515 -0.001830 -0.001978 0.000000 -0.002408 0.000000
# 2 -0.001830 0.010167 -0.018353 0.000000 -0.004382 0.000000
# 3 -0.001978 -0.018353 0.103637 0.000000 0.023306 0.000000
# 4 0.000000 0.000000 0.000000 0.032034 0.000000 0.005535
# 5 -0.002408 -0.004382 0.023306 0.000000 0.022919 0.000000
# 6 0.000000 0.000000 0.000000 0.005535 0.000000 0.030342
#
#
# Mechanical properties :
#
#
# Convention : Reuss Voigt Hill
#
# Bulk Modulus (GPa) = 12.98757 55.32027 34.15392
# Shear Modulus (GPa) = 18.07643 41.39234 29.73439
#
# Velocity S-wave (km/s) = 2.65008 4.01017 3.39885
# Velocity P-wave (km/s) = 3.79602 6.55245 5.35464
#
# Compressibility (1/GPa) = 0.07699667
#
# Stress axis : x y z
#
# Youngs Moduli (GPa) = 133.07370 98.35548 9.64903
#
# Poissons Ratio (x) = 0.18002 0.01908
# Poissons Ratio (y) = 0.24357 0.17709
# Poissons Ratio (z) = 0.26319 1.80513
#
# Static dielectric constant tensor:
#      x y z
#    x 2.198570 0.000000 -0.000850 
#    y 0.000000 2.019120 0.000000 
#    z -0.000850 0.000000 1.991660 
# 
# From -- ./inp_files/9089.got.cif
#   From: 2010.05.17/outbox.cif.g08.bks.cpg/sg4_5_cif.got.tgz:9089.got - 2010.06.03 18:43:04.
