data_PCOD9119372
_publ_section_title
;
Structure prediction by ZEFSAII (Michael W. Deem and Ramdas Pophale) SiO2 
 PCOD9119372
Probable space group: P 21
;
_chemical_formula_sum "Si O2"
_cell_formula_units_Z 8
_cell_length_a 7.145935
_cell_length_b 7.226777
_cell_length_c 7.047806
_cell_angle_alpha 90.000000
_cell_angle_beta 58.464444
_cell_angle_gamma 90.000000
_cell_volume 310.211699
_symmetry_space_group_name_H-M "P 21"
_symmetry_group_IT_number 4
_symmetry_cell_setting 'monoclinic'
loop_
_space_group_symop_operation_xyz
x,y,z
-x,1/2+y,-z
loop_
_atom_site_type_symbol
_atom_site_label
_atom_site_fract_x
_atom_site_fract_y
_atom_site_fract_z
Si Si1 0.293554 0.100820 0.521493
Si Si2 0.717518 0.081084 0.044201
Si Si3 0.873274 0.340444 0.674783
Si Si4 0.182413 0.156839 0.986986
O O1 0.324462 0.092438 0.729941
O O2 0.119930 0.264974 0.568262
O O3 0.180832 0.912205 0.504787
O O4 0.513474 0.122555 0.286106
O O5 0.717887 0.180477 0.840566
O O6 0.935860 0.156384 0.031805
O O7 0.745177 0.862908 0.003426
O O8 0.824362 0.515791 0.836032
#
# Coordination Sequence:
#
# PCOD9119372 Si02
#       4
#     2   2   2   2
#     4  11  28  47  77 105 149 198 240 302 379 420
#     4  11  25  48  74 109 148 194 243 306 367 437
#     4  11  28  47  71 111 151 189 251 304 355 457
#     4  11  25  50  72 109 150 189 254 300 357 454
#
# _framework density 25.788837000000001
#
# number of rings (size 3 to 8) (size 9 to 14) (size 15 to 20)
#    0.000    1.000    5.000    0.000   14.000    0.000 
#    0.000    0.000    0.000    0.000    0.000    0.000 
#    0.000    0.000    0.000    0.000    0.000    0.000 
#
# Total GULP energy -44908.323388 kJ/mol
# GULP energy per Si atom -5613.540423 kJ/mol
# Density = 2.573014 g / cm^3
# Si number density = 25.788837 Si / 1000 Ang^3
#
#
#
# Elastic Constant Matrix: (Units=GPa)
#
#
# Indices 1 2 3 4 5 6 
#
# 1 64.6732 43.6767 36.0289 0.0000 7.0376 0.0000
# 2 43.6767 193.4310 92.7409 0.0000 7.4718 0.0000
# 3 36.0289 92.7409 163.7516 0.0000 -15.5325 0.0000
# 4 0.0000 0.0000 0.0000 50.6187 0.0000 6.0114
# 5 7.0376 7.4718 -15.5325 0.0000 51.1569 0.0000
# 6 0.0000 0.0000 0.0000 6.0114 0.0000 33.8091
#
#
#
# Elastic Compliance Matrix: (Units=1/GPa)
#
#
# Indices 1 2 3 4 5 6 
#
# 1 0.019365 -0.002835 -0.002954 0.000000 -0.003147 0.000000
# 2 -0.002835 0.007791 -0.003974 0.000000 -0.001954 0.000000
# 3 -0.002954 -0.003974 0.009371 0.000000 0.003832 0.000000
# 4 0.000000 0.000000 0.000000 0.020182 0.000000 -0.003588
# 5 -0.003147 -0.001954 0.003832 0.000000 0.021430 0.000000
# 6 0.000000 0.000000 0.000000 -0.003588 0.000000 0.030216
#
#
# Mechanical properties :
#
#
# Convention : Reuss Voigt Hill
#
# Bulk Modulus (GPa) = 58.81876 85.19433 72.00654
# Shear Modulus (GPa) = 37.44046 43.74423 40.59234
#
# Velocity S-wave (km/s) = 3.81439 4.12302 3.97171
# Velocity P-wave (km/s) = 6.50052 7.46812 7.00106
#
# Compressibility (1/GPa) = 0.01700138
#
# Stress axis : x y z
#
# Youngs Moduli (GPa) = 51.64030 128.35753 106.71457
#
# Poissons Ratio (x) = 0.36388 0.31519
# Poissons Ratio (y) = 0.14639 0.42408
# Poissons Ratio (z) = 0.15252 0.51009
#
# Static dielectric constant tensor:
#      x y z
#    x 2.064920 0.000000 0.001160 
#    y 0.000000 2.001430 0.000000 
#    z 0.001160 0.000000 2.017010 
# 
# From -- ./inp_files/5138.got.cif
#   From: 2010.05.17/outbox.cif.g08.bks.cpg/sg4_3_cif.got.tgz:5138.got - 2010.06.03 18:43:04.
