data_PCOD9119866
_publ_section_title
;
Structure prediction by ZEFSAII (Michael W. Deem and Ramdas Pophale) SiO2 
 PCOD9119866
Probable space group: P 21
;
_chemical_formula_sum "Si O2"
_cell_formula_units_Z 16
_cell_length_a 12.000000
_cell_length_b 9.000000
_cell_length_c 18.000000
_cell_angle_alpha 90.000000
_cell_angle_beta 160.000000
_cell_angle_gamma 90.000000
_cell_volume 664.887159
_symmetry_space_group_name_H-M "P 21"
_symmetry_group_IT_number 4
_symmetry_cell_setting 'monoclinic'
loop_
_space_group_symop_operation_xyz
x,y,z
-x,1/2+y,-z
loop_
_atom_site_type_symbol
_atom_site_label
_atom_site_fract_x
_atom_site_fract_y
_atom_site_fract_z
Si Si1 0.751881 0.496500 0.859403
Si Si2 0.645173 0.720962 0.671523
Si Si3 0.564900 0.081106 0.104730
Si Si4 0.787950 0.589951 0.385797
Si Si5 0.370274 0.837549 0.080452
Si Si6 0.589090 0.918495 0.963599
Si Si7 0.719151 0.509776 0.602145
Si Si8 0.380621 0.671305 0.272917
O O1 0.642905 0.644468 0.749697
O O2 0.535144 0.443976 0.791433
O O3 0.746965 0.341846 0.808878
O O4 0.093085 0.553303 0.107619
O O5 0.517636 0.586151 0.540947
O O6 0.423255 0.862442 0.522891
O O7 0.017269 0.763530 0.879065
O O8 0.430667 0.247714 0.024867
O O9 0.885563 0.080851 0.360177
O O10 0.330956 0.951802 0.989272
O O11 0.607357 0.026350 0.046922
O O12 0.678564 0.727825 0.263460
O O13 0.693123 0.453101 0.273070
O O14 0.512371 0.620224 0.275644
O O15 0.938895 0.960544 0.148626
O O16 0.679477 0.640066 0.515762
#
# Coordination Sequence:
#
# PCOD9119866 Si02
#       8
#     2   2   2   2   2   2   2   2
#     4  11  21  43  69 103 140 191 230 294 356 428
#     4  12  25  44  70 103 147 180 235 294 368 428
#     4  12  28  48  74 106 140 191 245 293 355 421
#     4  11  23  50  73 100 140 191 234 297 352 412
#     4  11  24  45  73 102 139 187 237 295 354 427
#     4  12  27  48  76 103 145 186 243 299 351 429
#     4  12  25  44  68 109 140 191 230 301 361 429
#     4  11  21  40  73 102 145 187 234 287 363 424
#
# _framework density 24.064233999999999
#
# number of rings (size 3 to 8) (size 9 to 14) (size 15 to 20)
#    0.000    0.500    6.250    2.250    1.750    3.000 
#    9.000    0.000    0.000    0.000    0.000    0.000 
#    0.000    0.000    0.000    0.000    0.000    0.000 
#
# Total GULP energy -89195.913342 kJ/mol
# GULP energy per Si atom -5574.744584 kJ/mol
# Density = 2.400946 g / cm^3
# Si number density = 24.064234 Si / 1000 Ang^3
#
#
#
# Elastic Constant Matrix: (Units=GPa)
#
#
# Indices 1 2 3 4 5 6 
#
# 1 44.5799 3.7674 -5.1811 0.0000 -13.6420 0.0000
# 2 3.7674 5.6185 -19.8009 0.0000 -7.0417 0.0000
# 3 -5.1811 -19.8009 70.6059 0.0000 -18.9277 0.0000
# 4 0.0000 0.0000 0.0000 32.2984 0.0000 -16.7094
# 5 -13.6420 -7.0417 -18.9277 0.0000 24.9103 0.0000
# 6 0.0000 0.0000 0.0000 -16.7094 0.0000 48.1030
#
#
#
# Elastic Compliance Matrix: (Units=1/GPa)
#
#
# Indices 1 2 3 4 5 6 
#
# 1 0.025434 -0.023500 -0.003480 0.000000 0.004642 0.000000
# 2 -0.023500 -0.109462 -0.055465 0.000000 -0.085956 0.000000
# 3 -0.003480 -0.055465 -0.007988 0.000000 -0.023654 0.000000
# 4 0.000000 0.000000 0.000000 0.037744 0.000000 0.013111
# 5 0.004642 -0.085956 -0.023654 0.000000 0.000414 0.000000
# 6 0.000000 0.000000 0.000000 0.013111 0.000000 0.025343
#
#
# Mechanical properties :
#
#
# Convention : Reuss Voigt Hill
#
# Bulk Modulus (GPa) = -3.89249 8.70832 2.40791
# Shear Modulus (GPa) = 98.54411 30.53029 64.53720
#
# Velocity S-wave (km/s) = 6.40620 3.56575 5.18430
# Velocity P-wave (km/s) = 7.28684 4.53645 6.06949
#
# Compressibility (1/GPa) = -0.25690469
#
# Stress axis : x y z
#
# Youngs Moduli (GPa) = 39.31809 -9.13559 -125.18674
#
# Poissons Ratio (x) = -0.21468 -0.43560
# Poissons Ratio (y) = 0.92396 -6.94348
# Poissons Ratio (z) = 0.13681 -0.50671
#
# Static dielectric constant tensor:
#      x y z
#    x 2.041980 0.000000 -0.038940 
#    y 0.000000 1.983090 0.000000 
#    z -0.038940 0.000000 2.013090 
# 
# From -- ./inp_files/15182.got.cif
#   From: 2010.05.17/outbox.ucp.g08.bks.cvg/sg4_8_cif.got.tgz:15182.got - 2010.06.11 12:51:24.
