data_PCOD9119022
_publ_section_title
;
Structure prediction by ZEFSAII (Michael W. Deem and Ramdas Pophale) SiO2 
 PCOD9119022
Probable space group: P 21
;
_chemical_formula_sum "Si O2"
_cell_formula_units_Z 16
_cell_length_a 21.312871
_cell_length_b 5.217862
_cell_length_c 7.273499
_cell_angle_alpha 90.000000
_cell_angle_beta 60.525718
_cell_angle_gamma 90.000000
_cell_volume 704.182030
_symmetry_space_group_name_H-M "P 21"
_symmetry_group_IT_number 4
_symmetry_cell_setting 'monoclinic'
loop_
_space_group_symop_operation_xyz
x,y,z
-x,1/2+y,-z
loop_
_atom_site_type_symbol
_atom_site_label
_atom_site_fract_x
_atom_site_fract_y
_atom_site_fract_z
Si Si1 0.267377 0.987620 0.423459
Si Si2 0.922404 0.856680 0.529813
Si Si3 0.611510 0.398818 0.450618
Si Si4 0.026652 0.181487 0.163094
Si Si5 0.763499 0.006474 0.745824
Si Si6 0.354068 0.396450 0.830530
Si Si7 0.517449 0.938308 0.094738
Si Si8 0.888789 0.474560 0.272370
O O1 0.334473 0.952089 0.458649
O O2 0.270368 0.780900 0.255492
O O3 0.193725 0.903012 0.632924
O O4 0.257306 0.278603 0.367400
O O5 0.944034 0.844290 0.709576
O O6 0.850311 0.028323 0.618895
O O7 0.896825 0.600368 0.462559
O O8 0.994120 0.936886 0.316744
O O9 0.625679 0.624078 0.284775
O O10 0.532432 0.414108 0.652605
O O11 0.626385 0.124467 0.337387
O O12 0.954010 0.275766 0.168461
O O13 0.088673 0.162062 0.924279
O O14 0.729042 0.916932 0.987697
O O15 0.401379 0.431840 0.947233
O O16 0.500578 0.699534 0.986227
#
# Coordination Sequence:
#
# PCOD9119022 Si02
#       8
#     2   2   2   2   2   2   2   2
#     4  11  24  45  67  93 133 177 223 271 334 405
#     4  11  24  40  65  92 129 169 227 282 345 405
#     4  12  25  44  68 104 139 173 221 277 328 389
#     4  12  22  42  62  94 122 174 220 290 342 410
#     4  11  24  45  67  93 133 177 223 271 334 405
#     4  12  25  44  68 104 139 173 221 277 328 389
#     4  12  24  44  74 102 136 184 222 264 328 394
#     4  11  24  40  65  92 129 169 227 282 345 405
#
# _framework density 22.721398000000001
#
# number of rings (size 3 to 8) (size 9 to 14) (size 15 to 20)
#    0.000    0.500    3.750    5.250    1.750    0.000 
#    4.500    0.000    0.000    0.000    0.000    0.000 
#    0.000    0.000    0.000    0.000    0.000    0.000 
#
# Total GULP energy -89449.201433 kJ/mol
# GULP energy per Si atom -5590.575090 kJ/mol
# Density = 2.266968 g / cm^3
# Si number density = 22.721398 Si / 1000 Ang^3
#
#
#
# Elastic Constant Matrix: (Units=GPa)
#
#
# Indices 1 2 3 4 5 6 
#
# 1 67.9896 1.0084 -2.2670 0.0000 -4.9066 0.0000
# 2 1.0084 64.6930 -10.5851 0.0000 9.0645 0.0000
# 3 -2.2670 -10.5851 78.6573 0.0000 -14.7064 0.0000
# 4 0.0000 0.0000 0.0000 45.1729 0.0000 4.7944
# 5 -4.9066 9.0645 -14.7064 0.0000 36.9800 0.0000
# 6 0.0000 0.0000 0.0000 4.7944 0.0000 25.2170
#
#
#
# Elastic Compliance Matrix: (Units=1/GPa)
#
#
# Indices 1 2 3 4 5 6 
#
# 1 0.014916 -0.000436 0.000822 0.000000 0.002413 0.000000
# 2 -0.000436 0.016193 0.001527 0.000000 -0.003420 0.000000
# 3 0.000822 0.001527 0.013929 0.000000 0.005274 0.000000
# 4 0.000000 0.000000 0.000000 0.022593 0.000000 -0.004296
# 5 0.002413 -0.003420 0.005274 0.000000 0.030297 0.000000
# 6 0.000000 0.000000 0.000000 -0.004296 0.000000 0.040473
#
#
# Mechanical properties :
#
#
# Convention : Reuss Voigt Hill
#
# Bulk Modulus (GPa) = 20.46434 20.85026 20.65730
# Shear Modulus (GPa) = 33.14271 36.35289 34.74780
#
# Velocity S-wave (km/s) = 3.82338 4.00427 3.91487
# Velocity P-wave (km/s) = 5.34015 5.52949 5.43564
#
# Compressibility (1/GPa) = 0.04886548
#
# Stress axis : x y z
#
# Youngs Moduli (GPa) = 67.04136 61.75320 71.79436
#
# Poissons Ratio (x) = 0.02693 -0.05904
# Poissons Ratio (y) = 0.02923 -0.10965
# Poissons Ratio (z) = -0.05513 -0.09431
#
# Static dielectric constant tensor:
#      x y z
#    x 1.834250 0.000000 -0.031990 
#    y 0.000000 1.898760 0.000000 
#    z -0.031990 0.000000 1.884620 
# 
# From -- ./inp_files/4014.got.cif
#   From: 2010.05.17/outbox.cif.g08.bks.cpg/sg4_3_cif.got.tgz:4014.got - 2010.06.03 18:43:04.
