data_PCOD9119750
_publ_section_title
;
Structure prediction by ZEFSAII (Michael W. Deem and Ramdas Pophale) SiO2 
 PCOD9119750
Probable space group: P 21
;
_chemical_formula_sum "Si O2"
_cell_formula_units_Z 12
_cell_length_a 8.125551
_cell_length_b 13.514691
_cell_length_c 4.899087
_cell_angle_alpha 90.000000
_cell_angle_beta 58.714545
_cell_angle_gamma 90.000000
_cell_volume 459.761127
_symmetry_space_group_name_H-M "P 21"
_symmetry_group_IT_number 4
_symmetry_cell_setting 'monoclinic'
loop_
_space_group_symop_operation_xyz
x,y,z
-x,1/2+y,-z
loop_
_atom_site_type_symbol
_atom_site_label
_atom_site_fract_x
_atom_site_fract_y
_atom_site_fract_z
Si Si1 0.805656 0.783930 0.346964
Si Si2 0.987458 0.587563 0.394926
Si Si3 0.477311 0.173217 0.796817
Si Si4 0.581274 0.052657 0.190023
Si Si5 0.101953 0.958926 0.015950
Si Si6 0.544360 0.361978 0.976675
O O1 0.927176 0.700538 0.401511
O O2 0.704265 0.726026 0.185276
O O3 0.634951 0.827736 0.682078
O O4 0.942147 0.873218 0.136098
O O5 0.968358 0.543131 0.712452
O O6 0.869243 0.513592 0.295432
O O7 0.205650 0.573765 0.103261
O O8 0.559221 0.095849 0.509192
O O9 0.443822 0.114827 0.104487
O O10 0.615879 0.264244 0.756748
O O11 0.532896 0.939625 0.177445
O O12 0.292356 0.909676 0.977122
#
# Coordination Sequence:
#
# PCOD9119750 Si02
#       6
#     2   2   2   2   2   2
#     4  12  28  50  79 116 155 207 266 318 392 468
#     4  12  28  51  77 117 157 201 262 325 385 466
#     4  12  27  47  76 115 150 208 252 326 379 467
#     4  12  26  50  81 112 160 205 260 320 397 460
#     4  12  29  51  78 116 157 204 258 327 386 462
#     4  12  28  51  79 116 155 211 262 322 397 465
#
# _framework density 26.10051
#
# number of rings (size 3 to 8) (size 9 to 14) (size 15 to 20)
#    0.000    0.000    3.333    5.000    7.000    0.000 
#    0.000    0.000    0.000    0.000    0.000    0.000 
#    0.000    0.000    0.000    0.000    0.000    0.000 
#
# Total GULP energy -67456.935791 kJ/mol
# GULP energy per Si atom -5621.411316 kJ/mol
# Density = 2.604110 g / cm^3
# Si number density = 26.100510 Si / 1000 Ang^3
#
#
#
# Elastic Constant Matrix: (Units=GPa)
#
#
# Indices 1 2 3 4 5 6 
#
# 1 106.3919 42.3008 37.0983 0.0000 -2.7418 0.0000
# 2 42.3008 159.5349 38.7177 0.0000 6.7540 0.0000
# 3 37.0983 38.7177 115.3478 0.0000 11.9537 0.0000
# 4 0.0000 0.0000 0.0000 53.5324 0.0000 5.0107
# 5 -2.7418 6.7540 11.9537 0.0000 46.2138 0.0000
# 6 0.0000 0.0000 0.0000 5.0107 0.0000 56.7536
#
#
#
# Elastic Compliance Matrix: (Units=1/GPa)
#
#
# Indices 1 2 3 4 5 6 
#
# 1 0.011462 -0.002369 -0.003080 0.000000 0.001823 0.000000
# 2 -0.002369 0.007321 -0.001613 0.000000 -0.000793 0.000000
# 3 -0.003080 -0.001613 0.010477 0.000000 -0.002657 0.000000
# 4 0.000000 0.000000 0.000000 0.018836 0.000000 -0.001663
# 5 0.001823 -0.000793 -0.002657 0.000000 0.022550 0.000000
# 6 0.000000 0.000000 0.000000 -0.001663 0.000000 0.017767
#
#
# Mechanical properties :
#
#
# Convention : Reuss Voigt Hill
#
# Bulk Modulus (GPa) = 66.06971 68.61200 67.34085
# Shear Modulus (GPa) = 46.47557 48.84382 47.65970
#
# Velocity S-wave (km/s) = 4.22434 4.33063 4.27782
# Velocity P-wave (km/s) = 7.01156 7.16593 7.08916
#
# Compressibility (1/GPa) = 0.01513553
#
# Stress axis : x y z
#
# Youngs Moduli (GPa) = 87.24427 136.58467 95.44700
#
# Poissons Ratio (x) = 0.32354 0.29400
# Poissons Ratio (y) = 0.20666 0.15400
# Poissons Ratio (z) = 0.26873 0.22037
#
# Static dielectric constant tensor:
#      x y z
#    x 2.099730 0.000000 -0.040970 
#    y 0.000000 2.022560 0.000000 
#    z -0.040970 0.000000 2.001770 
# 
# From -- ./inp_files/1464.got.cif
#   From: 2010.05.17/outbox.cif.g08.bks.cpg/sg4_1_cif.got.tgz:1464.got - 2010.06.03 18:43:04.
