data_PCOD9119788
_publ_section_title
;
Structure prediction by ZEFSAII (Michael W. Deem and Ramdas Pophale) SiO2 
 PCOD9119788
Probable space group: P 21
;
_chemical_formula_sum "Si O2"
_cell_formula_units_Z 16
_cell_length_a 16.495767
_cell_length_b 8.227691
_cell_length_c 8.326246
_cell_angle_alpha 90.000000
_cell_angle_beta 146.216648
_cell_angle_gamma 90.000000
_cell_volume 628.371968
_symmetry_space_group_name_H-M "P 21"
_symmetry_group_IT_number 4
_symmetry_cell_setting 'monoclinic'
loop_
_space_group_symop_operation_xyz
x,y,z
-x,1/2+y,-z
loop_
_atom_site_type_symbol
_atom_site_label
_atom_site_fract_x
_atom_site_fract_y
_atom_site_fract_z
Si Si1 0.704480 0.654970 0.902053
Si Si2 0.967281 0.426116 0.296116
Si Si3 0.787440 0.182111 0.214015
Si Si4 0.340008 0.886055 0.698141
Si Si5 0.636317 0.742071 0.135181
Si Si6 0.789690 0.963019 0.652554
Si Si7 0.396010 0.508787 0.362105
Si Si8 0.052047 0.785501 0.081096
O O1 0.567350 0.533682 0.660151
O O2 0.648667 0.822034 0.734719
O O3 0.843876 0.562874 0.066200
O O4 0.727939 0.702860 0.127289
O O5 0.899646 0.315002 0.326489
O O6 0.113437 0.525379 0.579116
O O7 0.978295 0.309008 0.158385
O O8 0.699124 0.269535 0.213535
O O9 0.674213 0.118453 0.893262
O O10 0.190136 0.894555 0.353988
O O11 0.382209 0.066940 0.815946
O O12 0.478304 0.814261 0.832733
O O13 0.704467 0.867455 0.374855
O O14 0.681032 0.047534 0.596391
O O15 0.898689 0.107907 0.784164
O O16 0.903766 0.839613 0.921032
#
# Coordination Sequence:
#
# PCOD9119788 Si02
#       8
#     2   2   2   2   2   2   2   2
#     4  12  29  49  79 117 157 208 261 328 393 475
#     4  12  28  50  79 117 157 211 261 328 394 469
#     4  12  28  51  80 118 159 209 262 327 399 471
#     4  12  28  49  79 112 159 208 262 326 392 477
#     4  12  29  50  79 114 160 206 267 325 397 469
#     4  12  29  51  79 115 155 211 258 329 393 471
#     4  12  29  50  82 116 160 205 266 324 400 471
#     4  12  28  50  79 111 161 204 269 321 394 471
#
# _framework density 25.462626
#
# number of rings (size 3 to 8) (size 9 to 14) (size 15 to 20)
#    0.000    0.000    2.500    5.250   17.500    0.000 
#    0.000    0.000    0.000    0.000    0.000    0.000 
#    0.000    0.000    0.000    0.000    0.000    0.000 
#
# Total GULP energy -89729.545468 kJ/mol
# GULP energy per Si atom -5608.096592 kJ/mol
# Density = 2.540467 g / cm^3
# Si number density = 25.462626 Si / 1000 Ang^3
#
#
#
# Elastic Constant Matrix: (Units=GPa)
#
#
# Indices 1 2 3 4 5 6 
#
# 1 63.5758 5.5004 12.6579 0.0000 6.6386 0.0000
# 2 5.5004 127.1234 24.2263 0.0000 -5.1967 0.0000
# 3 12.6579 24.2263 125.7358 0.0000 -0.4433 0.0000
# 4 0.0000 0.0000 0.0000 57.9889 0.0000 -3.2972
# 5 6.6386 -5.1967 -0.4433 0.0000 28.7049 0.0000
# 6 0.0000 0.0000 0.0000 -3.2972 0.0000 49.5281
#
#
#
# Elastic Compliance Matrix: (Units=1/GPa)
#
#
# Indices 1 2 3 4 5 6 
#
# 1 0.016503 -0.000577 -0.001564 0.000000 -0.003945 0.000000
# 2 -0.000577 0.008248 -0.001525 0.000000 0.001603 0.000000
# 3 -0.001564 -0.001525 0.008405 0.000000 0.000215 0.000000
# 4 0.000000 0.000000 0.000000 0.017310 0.000000 0.001152
# 5 -0.003945 0.001603 0.000215 0.000000 0.036043 0.000000
# 6 0.000000 0.000000 0.000000 0.001152 0.000000 0.020267
#
#
# Mechanical properties :
#
#
# Convention : Reuss Voigt Hill
#
# Bulk Modulus (GPa) = 38.72639 44.57825 41.65232
# Shear Modulus (GPa) = 40.74424 45.51439 43.12932
#
# Velocity S-wave (km/s) = 4.00454 4.23247 4.12008
# Velocity P-wave (km/s) = 6.05177 6.43664 6.24717
#
# Compressibility (1/GPa) = 0.02582219
#
# Stress axis : x y z
#
# Youngs Moduli (GPa) = 60.59672 121.24789 118.97267
#
# Poissons Ratio (x) = 0.06999 0.18607
# Poissons Ratio (y) = 0.03498 0.18147
# Poissons Ratio (z) = 0.09477 0.18494
#
# Static dielectric constant tensor:
#      x y z
#    x 2.035440 0.000000 -0.028620 
#    y 0.000000 2.020060 0.000000 
#    z -0.028620 0.000000 1.981730 
# 
# From -- ./inp_files/9679.got.cif
#   From: 2010.05.17/outbox.cif.g08.bks.cpg/sg4_5_cif.got.tgz:9679.got - 2010.06.03 18:43:04.
