data_PCOD9119650
_publ_section_title
;
Structure prediction by ZEFSAII (Michael W. Deem and Ramdas Pophale) SiO2 
 PCOD9119650
Probable space group: P 21
;
_chemical_formula_sum "Si O2"
_cell_formula_units_Z 16
_cell_length_a 11.933692
_cell_length_b 8.737557
_cell_length_c 17.067498
_cell_angle_alpha 90.000000
_cell_angle_beta 157.488910
_cell_angle_gamma 90.000000
_cell_volume 681.360971
_symmetry_space_group_name_H-M "P 21"
_symmetry_group_IT_number 4
_symmetry_cell_setting 'monoclinic'
loop_
_space_group_symop_operation_xyz
x,y,z
-x,1/2+y,-z
loop_
_atom_site_type_symbol
_atom_site_label
_atom_site_fract_x
_atom_site_fract_y
_atom_site_fract_z
Si Si1 0.745564 0.082210 0.866560
Si Si2 0.797028 0.301500 0.314387
Si Si3 0.872909 0.604509 0.599707
Si Si4 0.328817 0.677947 0.450881
Si Si5 0.784810 0.856631 0.672972
Si Si6 0.144675 0.604897 0.503866
Si Si7 0.143071 0.390175 0.904494
Si Si8 0.240897 0.935356 0.079254
O O1 0.424463 0.035079 0.627864
O O2 0.726486 0.265357 0.864155
O O3 0.813083 0.000108 0.992738
O O4 0.000332 0.030155 0.972514
O O5 0.901888 0.245708 0.467598
O O6 0.931532 0.178772 0.341538
O O7 0.910060 0.470737 0.365618
O O8 0.448032 0.305549 0.087574
O O9 0.784627 0.743838 0.600156
O O10 0.047811 0.488031 0.767416
O O11 0.631077 0.769545 0.645565
O O12 0.391181 0.508912 0.460373
O O13 0.171261 0.659847 0.431906
O O14 0.115521 0.766761 0.253704
O O15 0.106868 0.907596 0.906529
O O16 0.455784 0.524591 0.723891
#
# Coordination Sequence:
#
# PCOD9119650 Si02
#       8
#     2   2   2   2   2   2   2   2
#     4  12  27  50  76 119 156 205 252 327 397 464
#     4  12  29  51  78 109 156 212 266 313 387 465
#     4  12  27  54  76 114 158 202 260 328 385 467
#     4  12  27  49  76 118 156 197 264 325 395 469
#     4  12  25  46  80 113 158 201 248 330 401 461
#     4  12  29  51  78 114 154 212 261 328 384 467
#     4  12  30  48  79 111 153 211 263 310 394 466
#     4  12  26  45  79 114 159 196 264 317 397 473
#
# _framework density 23.482413999999999
#
# number of rings (size 3 to 8) (size 9 to 14) (size 15 to 20)
#    0.000    0.000    3.750    4.500   14.000    1.000 
#    0.000    0.000    0.000    0.000    0.000    0.000 
#    0.000    0.000    0.000    0.000    0.000    0.000 
#
# Total GULP energy -89756.511022 kJ/mol
# GULP energy per Si atom -5609.781939 kJ/mol
# Density = 2.342897 g / cm^3
# Si number density = 23.482414 Si / 1000 Ang^3
#
#
#
# Elastic Constant Matrix: (Units=GPa)
#
#
# Indices 1 2 3 4 5 6 
#
# 1 80.9121 25.2061 0.9113 0.0000 -13.0543 0.0000
# 2 25.2061 94.9827 -1.2647 0.0000 -6.7512 0.0000
# 3 0.9113 -1.2647 84.2089 0.0000 -7.4218 0.0000
# 4 0.0000 0.0000 0.0000 48.7945 0.0000 0.7596
# 5 -13.0543 -6.7512 -7.4218 0.0000 40.1061 0.0000
# 6 0.0000 0.0000 0.0000 0.7596 0.0000 42.6817
#
#
#
# Elastic Compliance Matrix: (Units=1/GPa)
#
#
# Indices 1 2 3 4 5 6 
#
# 1 0.014082 -0.003449 0.000151 0.000000 0.004031 0.000000
# 2 -0.003449 0.011509 0.000287 0.000000 0.000868 0.000000
# 3 0.000151 0.000287 0.012084 0.000000 0.002334 0.000000
# 4 0.000000 0.000000 0.000000 0.020500 0.000000 -0.000365
# 5 0.004031 0.000868 0.002334 0.000000 0.026824 0.000000
# 6 0.000000 0.000000 0.000000 -0.000365 0.000000 0.023436
#
#
# Mechanical properties :
#
#
# Convention : Reuss Voigt Hill
#
# Bulk Modulus (GPa) = 31.59254 34.42323 33.00788
# Shear Modulus (GPa) = 39.99793 41.99985 40.99889
#
# Velocity S-wave (km/s) = 4.13160 4.23373 4.18298
# Velocity P-wave (km/s) = 6.02022 6.21211 6.11692
#
# Compressibility (1/GPa) = 0.03165304
#
# Stress axis : x y z
#
# Youngs Moduli (GPa) = 71.01233 86.88940 82.75695
#
# Poissons Ratio (x) = 0.29964 -0.01250
# Poissons Ratio (y) = 0.24489 -0.02372
# Poissons Ratio (z) = -0.01073 -0.02491
#
# Static dielectric constant tensor:
#      x y z
#    x 1.867560 0.000000 -0.026540 
#    y 0.000000 1.877280 0.000000 
#    z -0.026540 0.000000 1.853910 
# 
# From -- ./inp_files/12907.got.cif
#   From: 2010.05.17/outbox.cif.g08.bks.cpg/sg4_7_cif.got.tgz:12907.got - 2010.06.03 18:43:04.
