data_PCOD9119746
_publ_section_title
;
Structure prediction by ZEFSAII (Michael W. Deem and Ramdas Pophale) SiO2 
 PCOD9119746
Probable space group: P 21
;
_chemical_formula_sum "Si O2"
_cell_formula_units_Z 16
_cell_length_a 5.833425
_cell_length_b 15.127341
_cell_length_c 7.670086
_cell_angle_alpha 90.000000
_cell_angle_beta 117.685995
_cell_angle_gamma 90.000000
_cell_volume 599.347305
_symmetry_space_group_name_H-M "P 21"
_symmetry_group_IT_number 4
_symmetry_cell_setting 'monoclinic'
loop_
_space_group_symop_operation_xyz
x,y,z
-x,1/2+y,-z
loop_
_atom_site_type_symbol
_atom_site_label
_atom_site_fract_x
_atom_site_fract_y
_atom_site_fract_z
Si Si1 0.875747 0.303730 0.392097
Si Si2 0.235285 0.190950 0.345570
Si Si3 0.592215 0.573697 0.914793
Si Si4 0.436769 0.684885 0.184187
Si Si5 0.690889 0.956640 0.399942
Si Si6 0.199272 0.842199 0.252277
Si Si7 0.877941 0.033140 0.790840
Si Si8 0.333109 0.358981 0.127950
O O1 0.950536 0.213664 0.320142
O O2 0.112438 0.374233 0.504758
O O3 0.798679 0.288101 0.565922
O O4 0.637044 0.346424 0.205972
O O5 0.318101 0.117196 0.236459
O O6 0.381594 0.176174 0.581115
O O7 0.278657 0.281599 0.250640
O O8 0.352407 0.507901 0.796964
O O9 0.557968 0.648553 0.049837
O O10 0.826778 0.514066 0.066116
O O11 0.192519 0.623396 0.140269
O O12 0.339816 0.784462 0.154493
O O13 0.812495 0.031502 0.565960
O O14 0.399694 0.923380 0.347695
O O15 0.900362 0.853388 0.093584
O O16 0.702655 0.955008 0.802065
#
# Coordination Sequence:
#
# PCOD9119746 Si02
#       8
#     2   2   2   2   2   2   2   2
#     4  12  26  49  87 120 159 221 273 347 398 499
#     4  12  27  53  81 116 167 218 280 333 413 489
#     4  12  31  53  80 123 165 222 270 349 414 491
#     4  12  28  53  80 117 165 220 274 343 408 492
#     4  12  26  52  83 119 168 215 278 338 414 490
#     4  12  27  54  81 120 165 219 275 335 415 498
#     4  12  26  51  77 119 166 207 276 338 411 493
#     4  12  27  49  81 120 163 212 272 331 415 490
#
# _framework density 26.695706000000001
#
# number of rings (size 3 to 8) (size 9 to 14) (size 15 to 20)
#    0.000    0.000    7.500    0.750    7.000    3.000 
#    4.500    0.000    0.000    0.000    0.000    0.000 
#    0.000    0.000    0.000    0.000    0.000    0.000 
#
# Total GULP energy -89546.350671 kJ/mol
# GULP energy per Si atom -5596.646917 kJ/mol
# Density = 2.663495 g / cm^3
# Si number density = 26.695706 Si / 1000 Ang^3
#
#
#
# Elastic Constant Matrix: (Units=GPa)
#
#
# Indices 1 2 3 4 5 6 
#
# 1 96.7585 29.9181 79.0753 0.0000 4.1495 0.0000
# 2 29.9181 81.9390 33.1485 0.0000 -10.9800 0.0000
# 3 79.0753 33.1485 202.6080 0.0000 18.5663 0.0000
# 4 0.0000 0.0000 0.0000 41.8923 0.0000 -4.6272
# 5 4.1495 -10.9800 18.5663 0.0000 55.4022 0.0000
# 6 0.0000 0.0000 0.0000 -4.6272 0.0000 51.5458
#
#
#
# Elastic Compliance Matrix: (Units=1/GPa)
#
#
# Indices 1 2 3 4 5 6 
#
# 1 0.016096 -0.003573 -0.005697 0.000000 -0.000004 0.000000
# 2 -0.003573 0.014519 -0.001309 0.000000 0.003584 0.000000
# 3 -0.005697 -0.001309 0.007591 0.000000 -0.002377 0.000000
# 4 0.000000 0.000000 0.000000 0.024110 0.000000 0.002164
# 5 -0.000004 0.003584 -0.002377 0.000000 0.019557 0.000000
# 6 0.000000 0.000000 0.000000 0.002164 0.000000 0.019595
#
#
# Mechanical properties :
#
#
# Convention : Reuss Voigt Hill
#
# Bulk Modulus (GPa) = 58.66086 73.95437 66.30761
# Shear Modulus (GPa) = 38.96883 45.71229 42.34056
#
# Velocity S-wave (km/s) = 3.82480 4.14254 3.98684
# Velocity P-wave (km/s) = 6.44415 7.11644 6.78862
#
# Compressibility (1/GPa) = 0.01704714
#
# Stress axis : x y z
#
# Youngs Moduli (GPa) = 62.12806 68.87674 131.73270
#
# Poissons Ratio (x) = 0.24609 0.75048
# Poissons Ratio (y) = 0.22197 0.17249
# Poissons Ratio (z) = 0.35394 0.09018
#
# Static dielectric constant tensor:
#      x y z
#    x 2.188290 0.000000 -0.003580 
#    y 0.000000 2.063540 0.000000 
#    z -0.003580 0.000000 2.110740 
# 
# From -- ./inp_files/4913.got.cif
#   From: 2010.05.17/outbox.cif.g08.bks.cpg/sg4_3_cif.got.tgz:4913.got - 2010.06.03 18:43:04.
