data_PCOD9119596
_publ_section_title
;
Structure prediction by ZEFSAII (Michael W. Deem and Ramdas Pophale) SiO2 
 PCOD9119596
Probable space group: P 21
;
_chemical_formula_sum "Si O2"
_cell_formula_units_Z 16
_cell_length_a 9.039120
_cell_length_b 6.889331
_cell_length_c 15.046013
_cell_angle_alpha 90.000000
_cell_angle_beta 127.876170
_cell_angle_gamma 90.000000
_cell_volume 739.585648
_symmetry_space_group_name_H-M "P 21"
_symmetry_group_IT_number 4
_symmetry_cell_setting 'monoclinic'
loop_
_space_group_symop_operation_xyz
x,y,z
-x,1/2+y,-z
loop_
_atom_site_type_symbol
_atom_site_label
_atom_site_fract_x
_atom_site_fract_y
_atom_site_fract_z
Si Si1 0.251420 0.176570 0.502825
Si Si2 0.742249 0.589354 0.840479
Si Si3 0.560620 0.223707 0.152841
Si Si4 0.733102 0.992984 0.055315
Si Si5 0.048930 0.863831 0.928210
Si Si6 0.884365 0.459806 0.368219
Si Si7 0.012303 0.168997 0.761268
Si Si8 0.347781 0.883057 0.374543
O O1 0.440146 0.309712 0.564544
O O2 0.074296 0.327683 0.437078
O O3 0.200094 0.043901 0.570784
O O4 0.291935 0.021444 0.437496
O O5 0.542056 0.597292 0.811631
O O6 0.719900 0.497986 0.736930
O O7 0.835896 0.799843 0.864667
O O8 0.871834 0.474049 0.957620
O O9 0.621101 0.089448 0.094397
O O10 0.730709 0.329228 0.262512
O O11 0.410035 0.375300 0.058421
O O12 0.833957 0.168199 0.042430
O O13 0.885989 0.849761 0.154463
O O14 0.062402 0.990259 0.844142
O O15 0.917532 0.637293 0.312493
O O16 0.790044 0.198164 0.673183
#
# Coordination Sequence:
#
# PCOD9119596 Si02
#       8
#     2   2   2   2   2   2   2   2
#     4  12  30  52  76 112 148 196 272 328 374 440
#     4  12  26  42  76 108 154 193 244 298 374 456
#     4  12  26  42  76 108 154 193 244 298 374 456
#     4  12  24  48  70 116 155 197 241 298 373 472
#     4  12  24  48  70 116 155 197 241 298 373 472
#     4  12  28  49  78 108 148 199 254 322 379 440
#     4  12  24  50  78 110 150 202 240 310 388 454
#     4  12  28  49  78 108 148 199 254 322 379 440
#
# _framework density 21.633734
#
# number of rings (size 3 to 8) (size 9 to 14) (size 15 to 20)
#    0.000    0.000    3.750    6.000    8.750    0.000 
#    0.000    0.000    0.000    0.000    0.000    0.000 
#    0.000    0.000    0.000    0.000    0.000    0.000 
#
# Total GULP energy -89455.940603 kJ/mol
# GULP energy per Si atom -5590.996288 kJ/mol
# Density = 2.158449 g / cm^3
# Si number density = 21.633734 Si / 1000 Ang^3
#
#
#
# Elastic Constant Matrix: (Units=GPa)
#
#
# Indices 1 2 3 4 5 6 
#
# 1 171.9009 52.6102 79.3716 0.0000 -19.3784 0.0000
# 2 52.6102 82.4604 36.4902 0.0000 -19.1993 0.0000
# 3 79.3716 36.4902 106.5882 0.0000 -25.0922 0.0000
# 4 0.0000 0.0000 0.0000 -5.2786 0.0000 10.6368
# 5 -19.3784 -19.1993 -25.0922 0.0000 41.7859 0.0000
# 6 0.0000 0.0000 0.0000 10.6368 0.0000 52.2680
#
#
#
# Elastic Compliance Matrix: (Units=1/GPa)
#
#
# Indices 1 2 3 4 5 6 
#
# 1 0.009685 -0.003657 -0.006170 0.000000 -0.000894 0.000000
# 2 -0.003657 0.016344 -0.001751 0.000000 0.004762 0.000000
# 3 -0.006170 -0.001751 0.015971 0.000000 0.005924 0.000000
# 4 0.000000 0.000000 0.000000 -0.134349 0.000000 0.027341
# 5 -0.000894 0.004762 0.005924 0.000000 0.029262 0.000000
# 6 0.000000 0.000000 0.000000 0.027341 0.000000 0.013568
#
#
# Mechanical properties :
#
#
# Convention : Reuss Voigt Hill
#
# Bulk Modulus (GPa) = 53.07079 77.54373 65.30726
# Shear Modulus (GPa) = -248.98180 30.58688 -109.19746
#
# Velocity S-wave (km/s) = -10.73962 3.76420 -7.11232
# Velocity P-wave (km/s) = 11.36667 7.40365 6.09866
#
# Compressibility (1/GPa) = 0.01884276
#
# Stress axis : x y z
#
# Youngs Moduli (GPa) = 103.25618 61.18590 62.61362
#
# Poissons Ratio (x) = 0.22373 0.38635
# Poissons Ratio (y) = 0.37756 0.10966
# Poissons Ratio (z) = 0.63713 0.10716
#
# Static dielectric constant tensor:
#      x y z
#    x 1.817460 0.000000 0.014860 
#    y 0.000000 1.795210 0.000000 
#    z 0.014860 0.000000 1.750620 
# 
# From -- ./inp_files/9006.got.cif
#   From: 2010.05.17/outbox.cif.g08.bks.cpg/sg4_5_cif.got.tgz:9006.got - 2010.06.03 18:43:04.
