data_PCOD9119249
_publ_section_title
;
Structure prediction by ZEFSAII (Michael W. Deem and Ramdas Pophale) SiO2 
 PCOD9119249
Probable space group: P 21
;
_chemical_formula_sum "Si O2"
_cell_formula_units_Z 16
_cell_length_a 5.042238
_cell_length_b 16.622679
_cell_length_c 8.365395
_cell_angle_alpha 90.000000
_cell_angle_beta 63.551494
_cell_angle_gamma 90.000000
_cell_volume 627.763963
_symmetry_space_group_name_H-M "P 21"
_symmetry_group_IT_number 4
_symmetry_cell_setting 'monoclinic'
loop_
_space_group_symop_operation_xyz
x,y,z
-x,1/2+y,-z
loop_
_atom_site_type_symbol
_atom_site_label
_atom_site_fract_x
_atom_site_fract_y
_atom_site_fract_z
Si Si1 0.450185 0.850010 0.017838
Si Si2 0.116254 0.799177 0.792663
Si Si3 0.878830 0.112248 0.934831
Si Si4 0.819125 0.347543 0.563944
Si Si5 0.710486 0.131353 0.296864
Si Si6 0.837388 0.014575 0.496009
Si Si7 0.100134 0.182384 0.572180
Si Si8 0.572336 0.514523 0.121610
O O1 0.385802 0.835661 0.223445
O O2 0.296660 0.802809 0.910561
O O3 0.802008 0.842490 0.897447
O O4 0.333534 0.938753 0.004968
O O5 0.283637 0.836380 0.592778
O O6 0.059321 0.704836 0.770261
O O7 0.739449 0.041397 0.868846
O O8 0.966066 0.179989 0.786040
O O9 0.178103 0.082044 0.938031
O O10 0.628595 0.127253 0.132812
O O11 0.963660 0.436037 0.537885
O O12 0.038557 0.270527 0.521136
O O13 0.780938 0.040993 0.329772
O O14 0.445883 0.163451 0.477021
O O15 0.528633 0.997985 0.669675
O O16 0.965033 0.102524 0.520913
#
# Coordination Sequence:
#
# PCOD9119249 Si02
#       8
#     2   2   2   2   2   2   2   2
#     4  12  28  50  77 117 159 207 263 323 397 466
#     4  12  28  49  76 114 158 200 260 329 378 472
#     4  11  26  45  78 105 155 200 253 319 392 462
#     4  12  27  51  81 113 159 213 264 328 404 473
#     4  12  26  46  79 109 150 208 257 316 401 470
#     4  11  25  48  78 109 154 205 257 323 395 461
#     4  11  26  50  70 113 152 201 258 323 388 464
#     4  11  24  49  71 114 155 196 258 327 375 472
#
# _framework density 25.487286000000001
#
# number of rings (size 3 to 8) (size 9 to 14) (size 15 to 20)
#    0.000    0.500    3.750    3.000    5.250    5.000 
#    0.000    0.000    0.000    0.000    0.000    0.000 
#    0.000    0.000    0.000    0.000    0.000    0.000 
#
# Total GULP energy -89345.449316 kJ/mol
# GULP energy per Si atom -5584.090582 kJ/mol
# Density = 2.542928 g / cm^3
# Si number density = 25.487286 Si / 1000 Ang^3
#
#
#
# Elastic Constant Matrix: (Units=GPa)
#
#
# Indices 1 2 3 4 5 6 
#
# 1 67.0922 7.3641 23.5828 0.0000 2.3284 0.0000
# 2 7.3641 92.4025 16.3517 0.0000 -3.8320 0.0000
# 3 23.5828 16.3517 164.2985 0.0000 23.2321 0.0000
# 4 0.0000 0.0000 0.0000 37.7495 0.0000 -0.2253
# 5 2.3284 -3.8320 23.2321 0.0000 7.4947 0.0000
# 6 0.0000 0.0000 0.0000 -0.2253 0.0000 19.7554
#
#
#
# Elastic Compliance Matrix: (Units=1/GPa)
#
#
# Indices 1 2 3 4 5 6 
#
# 1 0.015795 -0.000685 -0.002591 0.000000 0.002775 0.000000
# 2 -0.000685 0.012254 -0.003627 0.000000 0.017721 0.000000
# 3 -0.002591 -0.003627 0.012405 0.000000 -0.039503 0.000000
# 4 0.000000 0.000000 0.000000 0.026492 0.000000 0.000302
# 5 0.002775 0.017721 -0.039503 0.000000 0.264077 0.000000
# 6 0.000000 0.000000 0.000000 0.000302 0.000000 0.050623
#
#
# Mechanical properties :
#
#
# Convention : Reuss Voigt Hill
#
# Bulk Modulus (GPa) = 37.52832 46.48783 42.00807
# Shear Modulus (GPa) = 12.36600 31.43290 21.89945
#
# Velocity S-wave (km/s) = 2.20508 3.51561 2.93444
# Velocity P-wave (km/s) = 4.60863 5.89564 5.29141
#
# Compressibility (1/GPa) = 0.02664654
#
# Stress axis : x y z
#
# Youngs Moduli (GPa) = 63.31273 81.60904 80.61132
#
# Poissons Ratio (x) = 0.05591 0.20889
# Poissons Ratio (y) = 0.04338 0.29237
# Poissons Ratio (z) = 0.16407 0.29599
#
# Static dielectric constant tensor:
#      x y z
#    x 2.038780 0.000000 0.082010 
#    y 0.000000 2.023290 0.000000 
#    z 0.082010 0.000000 2.068960 
# 
# From -- ./inp_files/4786.got.cif
#   From: 2010.05.17/outbox.cif.g08.bks.cpg/sg4_3_cif.got.tgz:4786.got - 2010.06.03 18:43:04.
