data_PCOD9119199
_publ_section_title
;
Structure prediction by ZEFSAII (Michael W. Deem and Ramdas Pophale) SiO2 
 PCOD9119199
Probable space group: P 21
;
_chemical_formula_sum "Si O2"
_cell_formula_units_Z 16
_cell_length_a 11.676616
_cell_length_b 5.141370
_cell_length_c 20.067687
_cell_angle_alpha 90.000000
_cell_angle_beta 150.912727
_cell_angle_gamma 90.000000
_cell_volume 585.673637
_symmetry_space_group_name_H-M "P 21"
_symmetry_group_IT_number 4
_symmetry_cell_setting 'monoclinic'
loop_
_space_group_symop_operation_xyz
x,y,z
-x,1/2+y,-z
loop_
_atom_site_type_symbol
_atom_site_label
_atom_site_fract_x
_atom_site_fract_y
_atom_site_fract_z
Si Si1 0.536930 0.322100 0.879450
Si Si2 0.419732 0.934571 0.445238
Si Si3 0.968923 0.224152 0.175379
Si Si4 0.826732 0.101657 0.241728
Si Si5 0.777699 0.310711 0.481151
Si Si6 0.871169 0.468048 0.380285
Si Si7 0.336242 0.594300 0.288841
Si Si8 0.156086 0.971988 0.083479
O O1 0.411757 0.434603 0.882472
O O2 0.324477 0.185844 0.733091
O O3 0.668148 0.491119 0.889583
O O4 0.751623 0.149316 0.018257
O O5 0.560127 0.194295 0.491354
O O6 0.157906 0.999791 0.287422
O O7 0.496555 0.201202 0.565485
O O8 0.877064 0.278945 0.203496
O O9 0.119089 0.453335 0.216337
O O10 0.773003 0.247698 0.282728
O O11 0.056716 0.932935 0.377393
O O12 0.880298 0.414501 0.462253
O O13 0.507542 0.392439 0.339459
O O14 0.868535 0.017304 0.518604
O O15 0.266799 0.826522 0.204021
O O16 0.958539 0.753631 0.963105
#
# Coordination Sequence:
#
# PCOD9119199 Si02
#       8
#     2   2   2   2   2   2   2   2
#     4  11  27  50  75 118 158 221 270 338 413 497
#     4  12  27  52  79 118 164 210 267 335 417 493
#     4  12  28  53  78 124 163 215 273 341 421 502
#     4  11  28  48  78 112 159 215 269 337 407 504
#     4  11  24  47  74 117 148 213 270 334 411 478
#     4  11  24  49  77 109 161 207 279 334 401 490
#     4  12  27  47  84 119 164 218 269 355 415 497
#     4  12  27  50  81 125 167 215 279 346 419 497
#
# _framework density 27.318966
#
# number of rings (size 3 to 8) (size 9 to 14) (size 15 to 20)
#    0.000    0.500    5.000    1.500    3.500    6.000 
#    0.000    0.000    0.000    0.000    0.000    0.000 
#    0.000    0.000    0.000    0.000    0.000    0.000 
#
# Total GULP energy -89299.282291 kJ/mol
# GULP energy per Si atom -5581.205143 kJ/mol
# Density = 2.725679 g / cm^3
# Si number density = 27.318966 Si / 1000 Ang^3
#
#
#
# Elastic Constant Matrix: (Units=GPa)
#
#
# Indices 1 2 3 4 5 6 
#
# 1 140.8536 24.6859 68.1320 0.0000 2.0159 0.0000
# 2 24.6859 123.9072 51.9157 0.0000 13.1846 0.0000
# 3 68.1320 51.9157 201.2572 0.0000 -7.8479 0.0000
# 4 0.0000 0.0000 0.0000 22.4113 0.0000 20.6211
# 5 2.0159 13.1846 -7.8479 0.0000 56.8758 0.0000
# 6 0.0000 0.0000 0.0000 20.6211 0.0000 -6.4673
#
#
#
# Elastic Compliance Matrix: (Units=1/GPa)
#
#
# Indices 1 2 3 4 5 6 
#
# 1 0.008541 -0.000470 -0.002793 0.000000 -0.000579 0.000000
# 2 -0.000470 0.009422 -0.002369 0.000000 -0.002494 0.000000
# 3 -0.002793 -0.002369 0.006586 0.000000 0.001557 0.000000
# 4 0.000000 0.000000 0.000000 0.011343 0.000000 0.036167
# 5 -0.000579 -0.002494 0.001557 0.000000 0.018396 0.000000
# 6 0.000000 0.000000 0.000000 0.036167 0.000000 -0.039306
#
#
# Mechanical properties :
#
#
# Convention : Reuss Voigt Hill
#
# Bulk Modulus (GPa) = 75.26503 83.94280 79.60391
# Shear Modulus (GPa) = 163.01148 35.98291 99.49720
#
# Velocity S-wave (km/s) = 7.73300 3.63318 6.04149
# Velocity P-wave (km/s) = 10.36063 6.95655 8.82429
#
# Compressibility (1/GPa) = 0.01328638
#
# Stress axis : x y z
#
# Youngs Moduli (GPa) = 117.08068 106.13422 151.83823
#
# Poissons Ratio (x) = 0.04987 0.42406
# Poissons Ratio (y) = 0.05501 0.35966
# Poissons Ratio (z) = 0.32699 0.25140
#
# Static dielectric constant tensor:
#      x y z
#    x 5.226510 0.000000 -1.862850 
#    y 0.000000 2.095580 0.000000 
#    z -1.862850 0.000000 3.356350 
# 
# From -- ./inp_files/11624.got.cif
#   From: 2010.05.17/outbox.cif.g08.bks.cpg/sg4_6_cif.got.tgz:11624.got - 2010.06.03 18:43:04.
