data_PCOD9119427
_publ_section_title
;
Structure prediction by ZEFSAII (Michael W. Deem and Ramdas Pophale) SiO2 
 PCOD9119427
Probable space group: P 21
;
_chemical_formula_sum "Si O2"
_cell_formula_units_Z 16
_cell_length_a 8.944726
_cell_length_b 8.840973
_cell_length_c 12.406846
_cell_angle_alpha 90.000000
_cell_angle_beta 138.593495
_cell_angle_gamma 90.000000
_cell_volume 648.919364
_symmetry_space_group_name_H-M "P 21"
_symmetry_group_IT_number 4
_symmetry_cell_setting 'monoclinic'
loop_
_space_group_symop_operation_xyz
x,y,z
-x,1/2+y,-z
loop_
_atom_site_type_symbol
_atom_site_label
_atom_site_fract_x
_atom_site_fract_y
_atom_site_fract_z
Si Si1 0.731118 0.401440 0.410797
Si Si2 0.114248 0.713085 0.943691
Si Si3 0.594966 0.703733 0.917260
Si Si4 0.826148 0.896461 0.462936
Si Si5 0.437692 0.373019 0.889530
Si Si6 0.299178 0.647923 0.457872
Si Si7 0.248357 0.151253 0.410015
Si Si8 0.052968 0.541864 0.111013
O O1 0.552703 0.309236 0.242145
O O2 0.828678 0.276635 0.546206
O O3 0.657481 0.528205 0.455466
O O4 0.934409 0.461359 0.446504
O O5 0.946849 0.611817 0.780382
O O6 0.320927 0.789187 0.991995
O O7 0.189224 0.612932 0.085403
O O8 0.980302 0.862489 0.912459
O O9 0.464594 0.555248 0.894808
O O10 0.661694 0.811443 0.053105
O O11 0.809818 0.625746 0.977210
O O12 0.700906 0.831003 0.291975
O O13 0.867639 0.774195 0.576767
O O14 0.666147 0.017539 0.434879
O O15 0.536314 0.708012 0.540678
O O16 0.160264 0.582786 0.283576
#
# Coordination Sequence:
#
# PCOD9119427 Si02
#       8
#     2   2   2   2   2   2   2   2
#     4  12  27  45  77 107 148 198 248 307 368 441
#     4  11  26  46  73 107 148 192 244 301 368 439
#     4  11  26  46  73 107 148 192 244 301 368 439
#     4  12  25  48  72 109 150 193 249 304 367 444
#     4  11  26  46  74 106 149 192 244 304 365 441
#     4  12  25  48  72 109 150 193 249 304 367 444
#     4  12  27  45  77 107 148 198 248 307 368 441
#     4  11  26  46  74 106 149 192 244 304 365 441
#
# _framework density 24.656378
#
# number of rings (size 3 to 8) (size 9 to 14) (size 15 to 20)
#    0.000    0.500    2.500    4.500   10.500    1.000 
#    0.000    0.000    0.000    0.000    0.000    0.000 
#    0.000    0.000    0.000    0.000    0.000    0.000 
#
# Total GULP energy -89559.212120 kJ/mol
# GULP energy per Si atom -5597.450757 kJ/mol
# Density = 2.460026 g / cm^3
# Si number density = 24.656378 Si / 1000 Ang^3
#
#
#
# Elastic Constant Matrix: (Units=GPa)
#
#
# Indices 1 2 3 4 5 6 
#
# 1 77.9092 48.4834 36.3682 0.0000 -13.6189 0.0000
# 2 48.4834 51.4183 17.8373 0.0000 -14.3320 0.0000
# 3 36.3682 17.8373 117.2783 0.0000 -14.7712 0.0000
# 4 0.0000 0.0000 0.0000 32.3570 0.0000 -7.6026
# 5 -13.6189 -14.3320 -14.7712 0.0000 40.1041 0.0000
# 6 0.0000 0.0000 0.0000 -7.6026 0.0000 41.3909
#
#
#
# Elastic Compliance Matrix: (Units=1/GPa)
#
#
# Indices 1 2 3 4 5 6 
#
# 1 0.034869 -0.031148 -0.006277 0.000000 -0.001602 0.000000
# 2 -0.031148 0.050102 0.003106 0.000000 0.008471 0.000000
# 3 -0.006277 0.003106 0.010353 0.000000 0.002791 0.000000
# 4 0.000000 0.000000 0.000000 0.032299 0.000000 0.005933
# 5 -0.001602 0.008471 0.002791 0.000000 0.028447 0.000000
# 6 0.000000 0.000000 0.000000 0.005933 0.000000 0.025250
#
#
# Mechanical properties :
#
#
# Convention : Reuss Voigt Hill
#
# Bulk Modulus (GPa) = 37.47435 50.22040 43.84737
# Shear Modulus (GPa) = 19.31599 32.36486 25.84043
#
# Velocity S-wave (km/s) = 2.80198 3.62696 3.24083
# Velocity P-wave (km/s) = 5.06949 6.16053 5.64145
#
# Compressibility (1/GPa) = 0.02668492
#
# Stress axis : x y z
#
# Youngs Moduli (GPa) = 28.67865 19.95925 96.59460
#
# Poissons Ratio (x) = 0.62169 0.60636
# Poissons Ratio (y) = 0.89328 -0.30000
# Poissons Ratio (z) = 0.18003 -0.06199
#
# Static dielectric constant tensor:
#      x y z
#    x 1.910460 0.000000 0.021430 
#    y 0.000000 1.965420 0.000000 
#    z 0.021430 0.000000 1.894520 
# 
# From -- ./inp_files/5753.got.cif
#   From: 2010.05.17/outbox.cif.g08.bks.cpg/sg4_3_cif.got.tgz:5753.got - 2010.06.03 18:43:04.
