data_PCOD9119107
_publ_section_title
;
Structure prediction by ZEFSAII (Michael W. Deem and Ramdas Pophale) SiO2 
 PCOD9119107
Probable space group: P 21
;
_chemical_formula_sum "Si O2"
_cell_formula_units_Z 16
_cell_length_a 8.368605
_cell_length_b 11.178785
_cell_length_c 12.020341
_cell_angle_alpha 90.000000
_cell_angle_beta 37.334093
_cell_angle_gamma 90.000000
_cell_volume 681.973954
_symmetry_space_group_name_H-M "P 21"
_symmetry_group_IT_number 4
_symmetry_cell_setting 'monoclinic'
loop_
_space_group_symop_operation_xyz
x,y,z
-x,1/2+y,-z
loop_
_atom_site_type_symbol
_atom_site_label
_atom_site_fract_x
_atom_site_fract_y
_atom_site_fract_z
Si Si1 0.441677 0.088870 0.797722
Si Si2 0.979160 0.809929 0.252863
Si Si3 0.407084 0.721175 0.501235
Si Si4 0.598096 0.572948 0.705394
Si Si5 0.028220 0.922648 0.651414
Si Si6 0.283389 0.338710 0.376068
Si Si7 0.117932 0.542991 0.831705
Si Si8 0.377323 0.602403 0.049077
O O1 0.582246 0.173467 0.630972
O O2 0.527260 0.111078 0.877316
O O3 0.529748 0.953637 0.719273
O O4 0.127429 0.103579 0.970699
O O5 0.708393 0.741306 0.370761
O O6 0.935207 0.844343 0.406118
O O7 0.228706 0.724626 0.100675
O O8 0.991829 0.926737 0.170106
O O9 0.250005 0.846095 0.589380
O O10 0.256969 0.627083 0.662810
O O11 0.843383 0.517211 0.505711
O O12 0.573460 0.712705 0.689289
O O13 0.341335 0.509641 0.797004
O O14 0.599232 0.568456 0.837522
O O15 0.851685 0.839354 0.670104
O O16 0.840327 0.997695 0.834521
#
# Coordination Sequence:
#
# PCOD9119107 Si02
#       8
#     2   2   2   2   2   2   2   2
#     4  11  27  45  69 107 137 181 235 280 346 415
#     4  12  23  46  74  98 139 183 228 288 349 406
#     4  12  25  45  70 101 138 180 228 285 344 413
#     4  12  25  48  70 102 142 181 230 287 348 407
#     4  11  26  45  69 103 135 184 231 279 350 407
#     4  11  24  44  74  97 139 183 227 285 345 411
#     4  12  26  45  72 103 137 185 228 287 347 413
#     4  11  26  46  70 101 141 181 227 289 341 414
#
# _framework density 23.461307999999999
#
# number of rings (size 3 to 8) (size 9 to 14) (size 15 to 20)
#    0.000    0.500    5.000    2.250    5.250    2.000 
#    4.500    0.000    0.000    0.000    0.000    0.000 
#    0.000    0.000    0.000    0.000    0.000    0.000 
#
# Total GULP energy -89650.503947 kJ/mol
# GULP energy per Si atom -5603.156497 kJ/mol
# Density = 2.340791 g / cm^3
# Si number density = 23.461308 Si / 1000 Ang^3
#
#
#
# Elastic Constant Matrix: (Units=GPa)
#
#
# Indices 1 2 3 4 5 6 
#
# 1 38.2458 4.5654 -5.3546 0.0000 9.2955 0.0000
# 2 4.5654 69.2360 4.3109 0.0000 8.7234 0.0000
# 3 -5.3546 4.3109 77.3186 0.0000 14.0372 0.0000
# 4 0.0000 0.0000 0.0000 9.4590 0.0000 -11.0425
# 5 9.2955 8.7234 14.0372 0.0000 39.1371 0.0000
# 6 0.0000 0.0000 0.0000 -11.0425 0.0000 32.2642
#
#
#
# Elastic Compliance Matrix: (Units=1/GPa)
#
#
# Indices 1 2 3 4 5 6 
#
# 1 0.028661 -0.001123 0.003463 0.000000 -0.007799 0.000000
# 2 -0.001123 0.014909 -0.000379 0.000000 -0.002921 0.000000
# 3 0.003463 -0.000379 0.014257 0.000000 -0.005852 0.000000
# 4 0.000000 0.000000 0.000000 0.176065 0.000000 0.060258
# 5 -0.007799 -0.002921 -0.005852 0.000000 0.030153 0.000000
# 6 0.000000 0.000000 0.000000 0.060258 0.000000 0.051618
#
#
# Mechanical properties :
#
#
# Convention : Reuss Voigt Hill
#
# Bulk Modulus (GPa) = 16.19419 21.31600 18.75509
# Shear Modulus (GPa) = 15.04562 28.25732 21.65147
#
# Velocity S-wave (km/s) = 2.53513 3.47424 3.04115
# Velocity P-wave (km/s) = 3.93531 5.01987 4.51031
#
# Compressibility (1/GPa) = 0.06175055
#
# Stress axis : x y z
#
# Youngs Moduli (GPa) = 34.89039 67.07376 70.14176
#
# Poissons Ratio (x) = 0.07532 -0.24293
# Poissons Ratio (y) = 0.03918 0.02657
# Poissons Ratio (z) = -0.12084 0.02541
#
# Static dielectric constant tensor:
#      x y z
#    x 1.888420 0.000000 -0.001120 
#    y 0.000000 1.863450 0.000000 
#    z -0.001120 0.000000 1.856570 
# 
# From -- ./inp_files/4604.got.cif
#   From: 2010.05.17/outbox.cif.g08.bks.cpg/sg4_3_cif.got.tgz:4604.got - 2010.06.03 18:43:04.
