data_PCOD9119197
_publ_section_title
;
Structure prediction by ZEFSAII (Michael W. Deem and Ramdas Pophale) SiO2 
 PCOD9119197
Probable space group: P 21
;
_chemical_formula_sum "Si O2"
_cell_formula_units_Z 14
_cell_length_a 6.305518
_cell_length_b 17.135776
_cell_length_c 5.355591
_cell_angle_alpha 90.000000
_cell_angle_beta 106.218550
_cell_angle_gamma 90.000000
_cell_volume 555.642105
_symmetry_space_group_name_H-M "P 21"
_symmetry_group_IT_number 4
_symmetry_cell_setting 'monoclinic'
loop_
_space_group_symop_operation_xyz
x,y,z
-x,1/2+y,-z
loop_
_atom_site_type_symbol
_atom_site_label
_atom_site_fract_x
_atom_site_fract_y
_atom_site_fract_z
Si Si1 0.424372 0.893100 0.130205
Si Si2 0.550460 0.645678 0.785207
Si Si3 0.689671 0.814642 0.822543
Si Si4 0.869730 0.922729 0.493420
Si Si5 0.114825 0.790241 0.308169
Si Si6 0.903750 0.527544 0.112158
Si Si7 0.301523 0.629139 0.219125
O O1 0.661225 0.934720 0.244730
O O2 0.341215 0.834300 0.314766
O O3 0.479500 0.836113 0.922040
O O4 0.224106 0.952697 0.036094
O O5 0.636209 0.728354 0.705470
O O6 0.463912 0.603996 0.501648
O O7 0.741051 0.597012 0.987213
O O8 0.391896 0.657305 0.978124
O O9 0.739417 0.893925 0.693239
O O10 0.918448 0.799967 0.044192
O O11 0.007522 0.843381 0.487286
O O12 0.030041 0.995652 0.588955
O O13 0.169977 0.698964 0.320303
O O14 0.138792 0.558597 0.099596
#
# Coordination Sequence:
#
# PCOD9119197 Si02
#       7
#     2   2   2   2   2   2   2
#     4  11  25  46  73 109 147 197 250 321 372 461
#     4  12  29  50  78 111 156 202 255 322 382 461
#     4  11  24  47  74 111 145 200 261 303 385 455
#     4  11  27  44  78 112 147 200 259 317 383 466
#     4  11  24  47  78 109 149 198 263 313 382 456
#     4  12  28  48  75 111 157 196 255 321 396 442
#     4  12  29  50  78 113 151 205 259 317 386 461
#
# _framework density 25.196072999999998
#
# number of rings (size 3 to 8) (size 9 to 14) (size 15 to 20)
#    0.000    0.571    4.286    1.714   10.000    3.429 
#    0.000    0.000    0.000    0.000    0.000    0.000 
#    0.000    0.000    0.000    0.000    0.000    0.000 
#
# Total GULP energy -78016.463824 kJ/mol
# GULP energy per Si atom -5572.604559 kJ/mol
# Density = 2.513873 g / cm^3
# Si number density = 25.196073 Si / 1000 Ang^3
#
#
#
# Elastic Constant Matrix: (Units=GPa)
#
#
# Indices 1 2 3 4 5 6 
#
# 1 86.2307 48.5838 41.6560 0.0000 17.1190 0.0000
# 2 48.5838 99.5076 2.6914 0.0000 15.9599 0.0000
# 3 41.6560 2.6914 75.6116 0.0000 15.1351 0.0000
# 4 0.0000 0.0000 0.0000 35.0923 0.0000 16.4857
# 5 17.1190 15.9599 15.1351 0.0000 39.3036 0.0000
# 6 0.0000 0.0000 0.0000 16.4857 0.0000 46.4792
#
#
#
# Elastic Compliance Matrix: (Units=1/GPa)
#
#
# Indices 1 2 3 4 5 6 
#
# 1 0.024449 -0.011419 -0.012850 0.000000 -0.001064 0.000000
# 2 -0.011419 0.016103 0.006535 0.000000 -0.004082 0.000000
# 3 -0.012850 0.006535 0.021110 0.000000 -0.005186 0.000000
# 4 0.000000 0.000000 0.000000 0.034194 0.000000 -0.012128
# 5 -0.001064 -0.004082 -0.005186 0.000000 0.029561 0.000000
# 6 0.000000 0.000000 0.000000 -0.012128 0.000000 0.025817
#
#
# Mechanical properties :
#
#
# Convention : Reuss Voigt Hill
#
# Bulk Modulus (GPa) = 38.17759 49.69026 43.93392
# Shear Modulus (GPa) = 25.58416 35.40294 30.49355
#
# Velocity S-wave (km/s) = 3.19000 3.75253 3.48264
# Velocity P-wave (km/s) = 5.36220 6.20802 5.80055
#
# Compressibility (1/GPa) = 0.02619338
#
# Stress axis : x y z
#
# Youngs Moduli (GPa) = 40.90099 62.10180 47.37014
#
# Poissons Ratio (x) = 0.70914 0.60872
# Poissons Ratio (y) = 0.46705 -0.30955
# Poissons Ratio (z) = 0.52559 -0.40582
#
# Static dielectric constant tensor:
#      x y z
#    x 1.973420 0.000000 0.035030 
#    y 0.000000 1.982910 0.000000 
#    z 0.035030 0.000000 2.085780 
# 
# From -- ./inp_files/368.got.cif
#   From: 2010.05.17/outbox.cif.g08.bks.cpg/sg4_1_cif.got.tgz:368.got - 2010.06.03 18:43:04.
