data_PCOD9119711
_publ_section_title
;
Structure prediction by ZEFSAII (Michael W. Deem and Ramdas Pophale) SiO2 
 PCOD9119711
Probable space group: P 21
;
_chemical_formula_sum "Si O2"
_cell_formula_units_Z 12
_cell_length_a 11.201836
_cell_length_b 7.510632
_cell_length_c 6.054880
_cell_angle_alpha 90.000000
_cell_angle_beta 78.349928
_cell_angle_gamma 90.000000
_cell_volume 498.920049
_symmetry_space_group_name_H-M "P 21"
_symmetry_group_IT_number 4
_symmetry_cell_setting 'monoclinic'
loop_
_space_group_symop_operation_xyz
x,y,z
-x,1/2+y,-z
loop_
_atom_site_type_symbol
_atom_site_label
_atom_site_fract_x
_atom_site_fract_y
_atom_site_fract_z
Si Si1 0.711911 0.017600 0.735886
Si Si2 0.574671 0.795255 0.473376
Si Si3 0.845413 0.326208 0.462811
Si Si4 0.272428 0.019324 0.860478
Si Si5 0.889230 0.677749 0.730198
Si Si6 0.515053 0.516578 0.858880
O O1 0.787388 0.195550 0.665993
O O2 0.636255 0.973774 0.541973
O O3 0.801600 0.848364 0.730165
O O4 0.613843 0.020538 0.968651
O O5 0.671151 0.668925 0.319258
O O6 0.530641 0.693598 0.707476
O O7 0.482490 0.855966 0.318089
O O8 0.760298 0.353633 0.280914
O O9 0.866557 0.520981 0.560925
O O10 0.972969 0.242427 0.339273
O O11 0.150807 0.091285 0.022970
O O12 0.374796 0.996996 0.010652
#
# Coordination Sequence:
#
# PCOD9119711 Si02
#       6
#     2   2   2   2   2   2
#     4  12  27  51  84 122 162 215 271 339 410 488
#     4  12  26  46  78 115 168 212 263 332 407 490
#     4  12  29  51  90 116 166 220 276 341 404 483
#     4  12  27  51  80 120 163 213 271 338 407 488
#     4  12  26  54  82 118 163 216 284 331 404 492
#     4  12  27  49  80 119 166 214 273 331 420 491
#
# _framework density 24.051950000000001
#
# number of rings (size 3 to 8) (size 9 to 14) (size 15 to 20)
#    0.000    0.000    6.667    1.000    0.000   17.333 
#    0.000    0.000    0.000    0.000    0.000    0.000 
#    0.000    0.000    0.000    0.000    0.000    0.000 
#
# Total GULP energy -67328.746109 kJ/mol
# GULP energy per Si atom -5610.728842 kJ/mol
# Density = 2.399721 g / cm^3
# Si number density = 24.051950 Si / 1000 Ang^3
#
#
#
# Elastic Constant Matrix: (Units=GPa)
#
#
# Indices 1 2 3 4 5 6 
#
# 1 118.6950 67.7321 77.4086 0.0000 -27.2301 0.0000
# 2 67.7321 138.4218 57.7216 0.0000 -4.5522 0.0000
# 3 77.4086 57.7216 140.4787 0.0000 -17.1473 0.0000
# 4 0.0000 0.0000 0.0000 49.7733 0.0000 -3.8456
# 5 -27.2301 -4.5522 -17.1473 0.0000 47.6737 0.0000
# 6 0.0000 0.0000 0.0000 -3.8456 0.0000 49.7548
#
#
#
# Elastic Compliance Matrix: (Units=1/GPa)
#
#
# Indices 1 2 3 4 5 6 
#
# 1 0.017476 -0.005629 -0.006448 0.000000 0.007126 0.000000
# 2 -0.005629 0.010541 -0.001568 0.000000 -0.002772 0.000000
# 3 -0.006448 -0.001568 0.011346 0.000000 0.000248 0.000000
# 4 0.000000 0.000000 0.000000 0.020212 0.000000 0.001562
# 5 0.007126 -0.002772 0.000248 0.000000 0.024871 0.000000
# 6 0.000000 0.000000 0.000000 0.001562 0.000000 0.020219
#
#
# Mechanical properties :
#
#
# Convention : Reuss Voigt Hill
#
# Bulk Modulus (GPa) = 82.81568 89.25781 86.03675
# Shear Modulus (GPa) = 36.77039 42.42257 39.59648
#
# Velocity S-wave (km/s) = 3.91422 4.20431 4.06185
# Velocity P-wave (km/s) = 7.41181 7.79482 7.60573
#
# Compressibility (1/GPa) = 0.01207501
#
# Stress axis : x y z
#
# Youngs Moduli (GPa) = 57.21993 94.86599 88.13635
#
# Poissons Ratio (x) = 0.53396 0.56827
# Poissons Ratio (y) = 0.32206 0.13821
# Poissons Ratio (z) = 0.36893 0.14877
#
# Static dielectric constant tensor:
#      x y z
#    x 1.911280 0.000000 0.031430 
#    y 0.000000 1.943520 0.000000 
#    z 0.031430 0.000000 1.896270 
# 
# From -- ./inp_files/2408.got.cif
#   From: 2010.05.17/outbox.cif.g08.bks.cpg/sg4_2_cif.got.tgz:2408.got - 2010.06.03 18:43:04.
