data_PCOD9119238
_publ_section_title
;
Structure prediction by ZEFSAII (Michael W. Deem and Ramdas Pophale) SiO2 
 PCOD9119238
Probable space group: P 21
;
_chemical_formula_sum "Si O2"
_cell_formula_units_Z 16
_cell_length_a 14.175330
_cell_length_b 8.717163
_cell_length_c 13.960202
_cell_angle_alpha 90.000000
_cell_angle_beta 159.395958
_cell_angle_gamma 90.000000
_cell_volume 607.056056
_symmetry_space_group_name_H-M "P 21"
_symmetry_group_IT_number 4
_symmetry_cell_setting 'monoclinic'
loop_
_space_group_symop_operation_xyz
x,y,z
-x,1/2+y,-z
loop_
_atom_site_type_symbol
_atom_site_label
_atom_site_fract_x
_atom_site_fract_y
_atom_site_fract_z
Si Si1 0.906567 0.665200 0.664806
Si Si2 0.788190 0.943166 0.310523
Si Si3 0.496099 0.241542 0.412728
Si Si4 0.468142 0.657011 0.094497
Si Si5 0.748630 0.735246 0.002223
Si Si6 0.893316 0.989268 0.740263
Si Si7 0.183872 0.754921 0.562545
Si Si8 0.873833 0.507893 0.832243
O O1 0.680826 0.602393 0.377394
O O2 0.816481 0.832023 0.617907
O O3 0.958280 0.565703 0.808488
O O4 0.185267 0.689690 0.875397
O O5 0.608121 0.808125 0.183733
O O6 0.053946 0.861064 0.521003
O O7 0.875798 0.077507 0.466355
O O8 0.612915 0.036070 0.065033
O O9 0.317907 0.317868 0.160984
O O10 0.694839 0.356907 0.651575
O O11 0.315444 0.146567 0.312274
O O12 0.667894 0.117574 0.516831
O O13 0.496087 0.752109 0.832454
O O14 0.844132 0.565203 0.059128
O O15 0.002012 0.799835 0.299211
O O16 0.934247 0.978651 0.894370
#
# Coordination Sequence:
#
# PCOD9119238 Si02
#       8
#     2   2   2   2   2   2   2   2
#     4  12  29  50  80 123 161 212 276 335 402 494
#     4  12  30  56  82 121 162 218 271 350 440 485
#     4  11  25  48  75 115 157 218 257 332 391 476
#     4  12  31  54  85 116 166 211 279 350 421 505
#     4  11  25  45  78 115 150 205 263 322 392 483
#     4  11  24  48  78 117 162 218 262 325 401 474
#     4  12  27  50  81 112 161 204 271 335 407 502
#     4  11  27  45  79 113 171 208 275 321 404 473
#
# _framework density 26.35671
#
# number of rings (size 3 to 8) (size 9 to 14) (size 15 to 20)
#    0.000    0.500    1.250    4.500   10.500    8.000 
#    0.000    0.000    0.000    0.000    0.000    0.000 
#    0.000    0.000    0.000    0.000    0.000    0.000 
#
# Total GULP energy -89802.646628 kJ/mol
# GULP energy per Si atom -5612.665414 kJ/mol
# Density = 2.629672 g / cm^3
# Si number density = 26.356710 Si / 1000 Ang^3
#
#
#
# Elastic Constant Matrix: (Units=GPa)
#
#
# Indices 1 2 3 4 5 6 
#
# 1 135.9966 49.1555 45.1431 0.0000 5.8953 0.0000
# 2 49.1555 122.7887 33.9436 0.0000 8.5551 0.0000
# 3 45.1431 33.9436 124.6911 0.0000 -7.5082 0.0000
# 4 0.0000 0.0000 0.0000 46.1817 0.0000 -7.8283
# 5 5.8953 8.5551 -7.5082 0.0000 38.4127 0.0000
# 6 0.0000 0.0000 0.0000 -7.8283 0.0000 37.1828
#
#
#
# Elastic Compliance Matrix: (Units=1/GPa)
#
#
# Indices 1 2 3 4 5 6 
#
# 1 0.009349 -0.002913 -0.002670 0.000000 -0.001308 0.000000
# 2 -0.002913 0.009950 -0.001781 0.000000 -0.002117 0.000000
# 3 -0.002670 -0.001781 0.009634 0.000000 0.002690 0.000000
# 4 0.000000 0.000000 0.000000 0.022455 0.000000 0.004728
# 5 -0.001308 -0.002117 0.002690 0.000000 0.027231 0.000000
# 6 0.000000 0.000000 0.000000 0.004728 0.000000 0.027889
#
#
# Mechanical properties :
#
#
# Convention : Reuss Voigt Hill
#
# Bulk Modulus (GPa) = 70.40980 71.10676 70.75828
# Shear Modulus (GPa) = 39.69091 41.37107 40.53099
#
# Velocity S-wave (km/s) = 3.88482 3.96619 3.92572
# Velocity P-wave (km/s) = 6.84796 6.92903 6.88861
#
# Compressibility (1/GPa) = 0.01420257
#
# Stress axis : x y z
#
# Youngs Moduli (GPa) = 106.95976 100.49906 103.80414
#
# Poissons Ratio (x) = 0.29279 0.27721
# Poissons Ratio (y) = 0.31162 0.18492
# Poissons Ratio (z) = 0.28563 0.17903
#
# Static dielectric constant tensor:
#      x y z
#    x 2.072090 0.000000 -0.020980 
#    y 0.000000 2.049840 0.000000 
#    z -0.020980 0.000000 2.023150 
# 
# From -- ./inp_files/14216.got.cif
#   From: 2010.05.17/outbox.cif.g08.bks.cpg/sg4_8_cif.got.tgz:14216.got - 2010.06.03 18:43:04.
