data_PCOD9119454
_publ_section_title
;
Structure prediction by ZEFSAII (Michael W. Deem and Ramdas Pophale) SiO2 
 PCOD9119454
Probable space group: P 21
;
_chemical_formula_sum "Si O2"
_cell_formula_units_Z 12
_cell_length_a 8.639219
_cell_length_b 5.138557
_cell_length_c 14.236254
_cell_angle_alpha 90.000000
_cell_angle_beta 48.229218
_cell_angle_gamma 90.000000
_cell_volume 471.349412
_symmetry_space_group_name_H-M "P 21"
_symmetry_group_IT_number 4
_symmetry_cell_setting 'monoclinic'
loop_
_space_group_symop_operation_xyz
x,y,z
-x,1/2+y,-z
loop_
_atom_site_type_symbol
_atom_site_label
_atom_site_fract_x
_atom_site_fract_y
_atom_site_fract_z
Si Si1 0.769259 0.615550 0.159792
Si Si2 0.106882 0.919613 0.413338
Si Si3 0.771034 0.980348 0.985738
Si Si4 0.455756 0.227564 0.220566
Si Si5 0.372907 0.113467 0.575839
Si Si6 0.911792 0.038902 0.721257
O O1 0.719511 0.754783 0.081214
O O2 0.645552 0.345389 0.201562
O O3 0.697133 0.708680 0.291690
O O4 0.017424 0.607194 0.060819
O O5 0.091577 0.843500 0.308916
O O6 0.030443 0.664505 0.499155
O O7 0.345119 0.002633 0.325621
O O8 0.564309 0.149166 0.079251
O O9 0.835606 0.944801 0.853006
O O10 0.266152 0.417298 0.273211
O O11 0.466728 0.370633 0.488252
O O12 0.160285 0.996236 0.615735
#
# Coordination Sequence:
#
# PCOD9119454 Si02
#       6
#     2   2   2   2   2   2
#     4  11  26  50  77 115 159 215 261 332 395 480
#     4  12  28  51  77 120 161 205 263 333 401 471
#     4  11  26  49  77 116 164 209 270 323 406 473
#     4  12  27  46  84 114 160 210 268 329 402 464
#     4  11  30  51  82 111 160 210 263 320 398 476
#     4  11  29  49  79 122 156 207 267 337 388 474
#
# _framework density 25.458818999999998
#
# number of rings (size 3 to 8) (size 9 to 14) (size 15 to 20)
#    0.000    0.667    3.333    1.000   11.667    1.333 
#    0.000    0.000    0.000    0.000    0.000    0.000 
#    0.000    0.000    0.000    0.000    0.000    0.000 
#
# Total GULP energy -66950.160155 kJ/mol
# GULP energy per Si atom -5579.180013 kJ/mol
# Density = 2.540087 g / cm^3
# Si number density = 25.458819 Si / 1000 Ang^3
#
#
#
# Elastic Constant Matrix: (Units=GPa)
#
#
# Indices 1 2 3 4 5 6 
#
# 1 75.5137 31.6499 43.4097 0.0000 -24.8772 0.0000
# 2 31.6499 96.2564 72.7260 0.0000 -8.0927 0.0000
# 3 43.4097 72.7260 206.3215 0.0000 -22.7996 0.0000
# 4 0.0000 0.0000 0.0000 36.0446 0.0000 -9.3333
# 5 -24.8772 -8.0927 -22.7996 0.0000 52.6435 0.0000
# 6 0.0000 0.0000 0.0000 -9.3333 0.0000 42.1130
#
#
#
# Elastic Compliance Matrix: (Units=1/GPa)
#
#
# Indices 1 2 3 4 5 6 
#
# 1 0.018328 -0.004237 -0.001552 0.000000 0.007338 0.000000
# 2 -0.004237 0.015140 -0.004631 0.000000 -0.001680 0.000000
# 3 -0.001552 -0.004631 0.006980 0.000000 0.001578 0.000000
# 4 0.000000 0.000000 0.000000 0.029432 0.000000 0.006523
# 5 0.007338 -0.001680 0.001578 0.000000 0.022888 0.000000
# 6 0.000000 0.000000 0.000000 0.006523 0.000000 0.025191
#
#
# Mechanical properties :
#
#
# Convention : Reuss Voigt Hill
#
# Bulk Modulus (GPa) = 50.99904 74.85140 62.92522
# Shear Modulus (GPa) = 34.40341 41.51395 37.95868
#
# Velocity S-wave (km/s) = 3.68004 4.04249 3.86551
# Velocity P-wave (km/s) = 6.17514 7.15917 6.68529
#
# Compressibility (1/GPa) = 0.01960821
#
# Stress axis : x y z
#
# Youngs Moduli (GPa) = 54.56181 66.05222 143.26760
#
# Poissons Ratio (x) = 0.27986 0.22232
# Poissons Ratio (y) = 0.23118 0.66344
# Poissons Ratio (z) = 0.08467 0.30587
#
# Static dielectric constant tensor:
#      x y z
#    x 2.071180 0.000000 0.109490 
#    y 0.000000 2.170740 0.000000 
#    z 0.109490 0.000000 1.995450 
# 
# From -- ./inp_files/13571.got.cif
#   From: 2010.05.17/outbox.cif.g08.bks.cpg/sg4_7_cif.got.tgz:13571.got - 2010.06.03 18:43:04.
