data_PCOD9119056
_publ_section_title
;
Structure prediction by ZEFSAII (Michael W. Deem and Ramdas Pophale) SiO2 
 PCOD9119056
Probable space group: P 21
;
_chemical_formula_sum "Si O2"
_cell_formula_units_Z 16
_cell_length_a 23.706122
_cell_length_b 5.191442
_cell_length_c 4.968913
_cell_angle_alpha 90.000000
_cell_angle_beta 95.530162
_cell_angle_gamma 90.000000
_cell_volume 608.672691
_symmetry_space_group_name_H-M "P 21"
_symmetry_group_IT_number 4
_symmetry_cell_setting 'monoclinic'
loop_
_space_group_symop_operation_xyz
x,y,z
-x,1/2+y,-z
loop_
_atom_site_type_symbol
_atom_site_label
_atom_site_fract_x
_atom_site_fract_y
_atom_site_fract_z
Si Si1 0.688075 0.972420 0.998036
Si Si2 0.035227 0.531383 0.459838
Si Si3 0.570501 0.739833 0.948029
Si Si4 0.455319 0.740934 0.706099
Si Si5 0.891803 0.937609 0.006618
Si Si6 0.178899 0.933492 0.100782
Si Si7 0.341289 0.792928 0.497745
Si Si8 0.753734 0.597753 0.345968
O O1 0.695220 0.137135 0.734038
O O2 0.636507 0.772835 0.907639
O O3 0.743062 0.845366 0.155327
O O4 0.663443 0.150128 0.220591
O O5 0.055476 0.452408 0.173053
O O6 0.991111 0.315043 0.539945
O O7 0.088049 0.517473 0.688004
O O8 0.560760 0.479332 0.107876
O O9 0.554213 0.975209 0.139103
O O10 0.522921 0.756995 0.690233
O O11 0.407588 0.774909 0.453053
O O12 0.848968 0.155199 0.875540
O O13 0.866729 0.650621 0.006357
O O14 0.205584 0.055902 0.383372
O O15 0.223283 0.909887 0.875407
O O16 0.308339 0.052447 0.551893
#
# Coordination Sequence:
#
# PCOD9119056 Si02
#       8
#     2   2   2   2   2   2   2   2
#     4  11  24  43  68  98 135 179 240 307 371 457
#     4  12  24  45  80 114 154 197 240 296 354 420
#     4   9  18  38  64  94 131 173 219 288 375 458
#     4   9  18  38  64  94 131 173 219 288 375 458
#     4  12  26  49  70 114 152 197 248 296 354 426
#     4  12  28  45  74 100 152 199 248 306 360 422
#     4  11  24  43  68  98 135 179 240 307 371 457
#     4  12  26  45  70 102 134 199 248 312 368 432
#
# _framework density 26.286708000000001
#
# number of rings (size 3 to 8) (size 9 to 14) (size 15 to 20)
#    0.000    1.000    1.250    5.250    5.250    0.000 
#    0.000   10.000    0.000    0.000    0.000    0.000 
#    0.000    0.000    0.000    0.000    0.000    0.000 
#
# Total GULP energy -89612.832364 kJ/mol
# GULP energy per Si atom -5600.802023 kJ/mol
# Density = 2.622688 g / cm^3
# Si number density = 26.286708 Si / 1000 Ang^3
#
#
#
# Elastic Constant Matrix: (Units=GPa)
#
#
# Indices 1 2 3 4 5 6 
#
# 1 49.6391 12.1592 10.7879 0.0000 -12.9741 0.0000
# 2 12.1592 111.8242 20.9121 0.0000 -6.9118 0.0000
# 3 10.7879 20.9121 116.9576 0.0000 2.9035 0.0000
# 4 0.0000 0.0000 0.0000 33.0421 0.0000 0.8341
# 5 -12.9741 -6.9118 2.9035 0.0000 47.0832 0.0000
# 6 0.0000 0.0000 0.0000 0.8341 0.0000 49.5723
#
#
#
# Elastic Compliance Matrix: (Units=1/GPa)
#
#
# Indices 1 2 3 4 5 6 
#
# 1 0.022576 -0.001718 -0.001926 0.000000 0.006088 0.000000
# 2 -0.001718 0.009484 -0.001563 0.000000 0.001015 0.000000
# 3 -0.001926 -0.001563 0.009040 0.000000 -0.001318 0.000000
# 4 0.000000 0.000000 0.000000 0.030277 0.000000 -0.000509
# 5 0.006088 0.001015 -0.001318 0.000000 0.023147 0.000000
# 6 0.000000 0.000000 0.000000 -0.000509 0.000000 0.020181
#
#
# Mechanical properties :
#
#
# Convention : Reuss Voigt Hill
#
# Bulk Modulus (GPa) = 32.58799 40.68214 36.63506
# Shear Modulus (GPa) = 36.94170 41.57696 39.25933
#
# Velocity S-wave (km/s) = 3.75285 3.98134 3.86878
# Velocity P-wave (km/s) = 5.58593 6.05348 5.82440
#
# Compressibility (1/GPa) = 0.03068615
#
# Stress axis : x y z
#
# Youngs Moduli (GPa) = 44.29473 105.43629 110.62105
#
# Poissons Ratio (x) = 0.18117 0.21308
# Poissons Ratio (y) = 0.07611 0.17285
# Poissons Ratio (z) = 0.08532 0.16475
#
# Static dielectric constant tensor:
#      x y z
#    x 2.177940 0.000000 0.074910 
#    y 0.000000 2.050710 0.000000 
#    z 0.074910 0.000000 2.004970 
# 
# From -- ./inp_files/4266.got.cif
#   From: 2010.05.17/outbox.cif.g08.bks.cpg/sg4_3_cif.got.tgz:4266.got - 2010.06.03 18:43:04.
