data_PCOD9119361
_publ_section_title
;
Structure prediction by ZEFSAII (Michael W. Deem and Ramdas Pophale) SiO2 
 PCOD9119361
Probable space group: P 21
;
_chemical_formula_sum "Si O2"
_cell_formula_units_Z 14
_cell_length_a 10.019525
_cell_length_b 4.945632
_cell_length_c 11.839053
_cell_angle_alpha 90.000000
_cell_angle_beta 120.861844
_cell_angle_gamma 90.000000
_cell_volume 503.592204
_symmetry_space_group_name_H-M "P 21"
_symmetry_group_IT_number 4
_symmetry_cell_setting 'monoclinic'
loop_
_space_group_symop_operation_xyz
x,y,z
-x,1/2+y,-z
loop_
_atom_site_type_symbol
_atom_site_label
_atom_site_fract_x
_atom_site_fract_y
_atom_site_fract_z
Si Si1 0.866153 0.231340 0.542805
Si Si2 0.608338 0.669717 0.423017
Si Si3 0.686501 0.895273 0.664809
Si Si4 0.557656 0.791597 0.179489
Si Si5 0.732993 0.068224 0.053034
Si Si6 0.897949 0.687053 0.952904
Si Si7 0.840503 0.398578 0.288624
O O1 0.774216 0.517144 0.497453
O O2 0.877648 0.202105 0.410456
O O3 0.768036 0.066587 0.597971
O O4 0.038800 0.147422 0.655938
O O5 0.584929 0.694056 0.545894
O O6 0.445236 0.533778 0.317514
O O7 0.602920 0.900402 0.324240
O O8 0.806061 0.751325 0.798593
O O9 0.621116 0.966699 0.104629
O O10 0.666474 0.521815 0.222010
O O11 0.378174 0.743815 0.075082
O O12 0.856510 0.240313 0.178142
O O13 0.802691 0.816525 0.015195
O O14 0.947267 0.375913 0.980068
#
# Coordination Sequence:
#
# PCOD9119361 Si02
#       7
#     2   2   2   2   2   2   2
#     4  11  27  45  73 110 151 199 249 322 389 461
#     4  11  25  48  75 114 147 199 261 322 396 468
#     4  12  25  48  79 109 157 199 259 329 389 479
#     4  11  25  47  75 112 150 201 257 321 390 465
#     4  12  25  49  79 110 158 200 263 320 394 478
#     4  12  32  52  79 119 165 215 264 324 402 481
#     4  11  27  45  72 114 150 199 255 320 388 468
#
# _framework density 27.800270000000001
#
# number of rings (size 3 to 8) (size 9 to 14) (size 15 to 20)
#    0.000    0.571    4.286    1.714   12.000    0.000 
#    2.571    0.000    0.000    0.000    0.000    0.000 
#    0.000    0.000    0.000    0.000    0.000    0.000 
#
# Total GULP energy -78250.021242 kJ/mol
# GULP energy per Si atom -5589.287232 kJ/mol
# Density = 2.773699 g / cm^3
# Si number density = 27.800270 Si / 1000 Ang^3
#
#
#
# Elastic Constant Matrix: (Units=GPa)
#
#
# Indices 1 2 3 4 5 6 
#
# 1 125.1695 7.1604 27.5412 0.0000 7.6352 0.0000
# 2 7.1604 53.3850 25.3243 0.0000 3.2337 0.0000
# 3 27.5412 25.3243 186.1935 0.0000 -15.6861 0.0000
# 4 0.0000 0.0000 0.0000 34.1136 0.0000 -4.7404
# 5 7.6352 3.2337 -15.6861 0.0000 45.7557 0.0000
# 6 0.0000 0.0000 0.0000 -4.7404 0.0000 45.5773
#
#
#
# Elastic Compliance Matrix: (Units=1/GPa)
#
#
# Indices 1 2 3 4 5 6 
#
# 1 0.008420 -0.000378 -0.001349 0.000000 -0.001841 0.000000
# 2 -0.000378 0.020304 -0.002905 0.000000 -0.002368 0.000000
# 3 -0.001349 -0.002905 0.006180 0.000000 0.002549 0.000000
# 4 0.000000 0.000000 0.000000 0.029744 0.000000 0.003094
# 5 -0.001841 -0.002368 0.002549 0.000000 0.023204 0.000000
# 6 0.000000 0.000000 0.000000 0.003094 0.000000 0.022263
#
#
# Mechanical properties :
#
#
# Convention : Reuss Voigt Hill
#
# Bulk Modulus (GPa) = 39.00168 53.86663 46.43415
# Shear Modulus (GPa) = 39.08539 45.40412 42.24475
#
# Velocity S-wave (km/s) = 3.75365 4.04570 3.90241
# Velocity P-wave (km/s) = 5.73116 6.42199 6.08639
#
# Compressibility (1/GPa) = 0.02563992
#
# Stress axis : x y z
#
# Youngs Moduli (GPa) = 118.76589 49.25115 161.80688
#
# Poissons Ratio (x) = 0.01861 0.21830
# Poissons Ratio (y) = 0.04488 0.47008
# Poissons Ratio (z) = 0.16023 0.14308
#
# Static dielectric constant tensor:
#      x y z
#    x 2.228740 0.000000 -0.039780 
#    y 0.000000 2.511900 0.000000 
#    z -0.039780 0.000000 2.141710 
# 
# From -- ./inp_files/11471.got.cif
#   From: 2010.05.17/outbox.cif.g08.bks.cpg/sg4_6_cif.got.tgz:11471.got - 2010.06.03 18:43:04.
