data_PCOD9119015
_publ_section_title
;
Structure prediction by ZEFSAII (Michael W. Deem and Ramdas Pophale) SiO2 
 PCOD9119015
Probable space group: P 21
;
_chemical_formula_sum "Si O2"
_cell_formula_units_Z 14
_cell_length_a 12.186443
_cell_length_b 8.033105
_cell_length_c 9.522489
_cell_angle_alpha 90.000000
_cell_angle_beta 38.383889
_cell_angle_gamma 90.000000
_cell_volume 578.830893
_symmetry_space_group_name_H-M "P 21"
_symmetry_group_IT_number 4
_symmetry_cell_setting 'monoclinic'
loop_
_space_group_symop_operation_xyz
x,y,z
-x,1/2+y,-z
loop_
_atom_site_type_symbol
_atom_site_label
_atom_site_fract_x
_atom_site_fract_y
_atom_site_fract_z
Si Si1 0.963180 0.871470 0.399287
Si Si2 0.608301 0.581041 0.179577
Si Si3 0.757972 0.557867 0.719006
Si Si4 0.853610 0.111808 0.978976
Si Si5 0.498709 0.448773 0.741819
Si Si6 0.245801 0.487649 0.631765
Si Si7 0.210614 0.108809 0.733773
O O1 0.819866 0.734085 0.592350
O O2 0.865531 0.007714 0.399594
O O3 0.102421 0.770553 0.161557
O O4 0.065976 0.950926 0.426425
O O5 0.448446 0.462023 0.382274
O O6 0.769325 0.561685 0.125260
O O7 0.517855 0.760773 0.291848
O O8 0.670861 0.577616 0.958460
O O9 0.613918 0.469536 0.765799
O O10 0.047428 0.032014 0.811677
O O11 0.701422 0.013445 0.050706
O O12 0.785529 0.118348 0.210299
O O13 0.608034 0.555162 0.519777
O O14 0.186640 0.307379 0.750111
#
# Coordination Sequence:
#
# PCOD9119015 Si02
#       7
#     2   2   2   2   2   2   2
#     4  11  29  50  74 111 153 206 256 309 388 458
#     4  12  27  44  77 111 149 196 251 310 390 449
#     4  12  30  48  75 109 158 204 248 312 385 465
#     4  11  24  46  80 104 152 194 257 320 368 443
#     4  12  27  47  72 110 150 199 246 316 372 456
#     4  11  24  47  75 111 146 192 258 315 371 450
#     4  11  23  50  73 112 146 197 258 314 372 441
#
# _framework density 24.186684
#
# number of rings (size 3 to 8) (size 9 to 14) (size 15 to 20)
#    0.000    0.571    5.714    0.857   10.000    3.429 
#    0.000    0.000    0.000    0.000    0.000    0.000 
#    0.000    0.000    0.000    0.000    0.000    0.000 
#
# Total GULP energy -78308.648673 kJ/mol
# GULP energy per Si atom -5593.474905 kJ/mol
# Density = 2.413163 g / cm^3
# Si number density = 24.186684 Si / 1000 Ang^3
#
#
#
# Elastic Constant Matrix: (Units=GPa)
#
#
# Indices 1 2 3 4 5 6 
#
# 1 191.3194 9.2321 4.7459 0.0000 -8.3089 0.0000
# 2 9.2321 34.3620 1.6130 0.0000 -2.9089 0.0000
# 3 4.7459 1.6130 77.3059 0.0000 0.7477 0.0000
# 4 0.0000 0.0000 0.0000 33.2708 0.0000 1.9372
# 5 -8.3089 -2.9089 0.7477 0.0000 45.3210 0.0000
# 6 0.0000 0.0000 0.0000 1.9372 0.0000 32.9525
#
#
#
# Elastic Compliance Matrix: (Units=1/GPa)
#
#
# Indices 1 2 3 4 5 6 
#
# 1 0.005338 -0.001344 -0.000308 0.000000 0.000898 0.000000
# 2 -0.001344 0.029630 -0.000552 0.000000 0.001665 0.000000
# 3 -0.000308 -0.000552 0.012969 0.000000 -0.000306 0.000000
# 4 0.000000 0.000000 0.000000 0.030160 0.000000 -0.001773
# 5 0.000898 0.001665 -0.000306 0.000000 0.022341 0.000000
# 6 0.000000 0.000000 0.000000 -0.001773 0.000000 0.030451
#
#
# Mechanical properties :
#
#
# Convention : Reuss Voigt Hill
#
# Bulk Modulus (GPa) = 22.97313 37.12995 30.05154
# Shear Modulus (GPa) = 33.37633 41.46860 37.42247
#
# Velocity S-wave (km/s) = 3.71879 4.14517 3.93776
# Velocity P-wave (km/s) = 5.28754 6.18827 5.75555
#
# Compressibility (1/GPa) = 0.04352911
#
# Stress axis : x y z
#
# Youngs Moduli (GPa) = 187.32431 33.74981 77.10674
#
# Poissons Ratio (x) = 0.04535 0.02378
# Poissons Ratio (y) = 0.25173 0.04255
# Poissons Ratio (z) = 0.05777 0.01862
#
# Static dielectric constant tensor:
#      x y z
#    x 1.948610 0.000000 -0.005340 
#    y 0.000000 1.915070 0.000000 
#    z -0.005340 0.000000 1.939440 
# 
# From -- ./inp_files/7463.got.cif
#   From: 2010.05.17/outbox.cif.g08.bks.cpg/sg4_4_cif.got.tgz:7463.got - 2010.06.03 18:43:04.
