data_PCOD9119162
_publ_section_title
;
Structure prediction by ZEFSAII (Michael W. Deem and Ramdas Pophale) SiO2 
 PCOD9119162
Probable space group: P 21
;
_chemical_formula_sum "Si O2"
_cell_formula_units_Z 16
_cell_length_a 5.702637
_cell_length_b 11.223869
_cell_length_c 14.425199
_cell_angle_alpha 90.000000
_cell_angle_beta 131.728591
_cell_angle_gamma 90.000000
_cell_volume 689.060161
_symmetry_space_group_name_H-M "P 21"
_symmetry_group_IT_number 4
_symmetry_cell_setting 'monoclinic'
loop_
_space_group_symop_operation_xyz
x,y,z
-x,1/2+y,-z
loop_
_atom_site_type_symbol
_atom_site_label
_atom_site_fract_x
_atom_site_fract_y
_atom_site_fract_z
Si Si1 0.064278 0.345500 0.720733
Si Si2 0.844933 0.881817 0.459724
Si Si3 0.408202 0.945334 0.017251
Si Si4 0.593697 0.162861 0.603535
Si Si5 0.925674 0.774015 0.847220
Si Si6 0.818638 0.074555 0.968403
Si Si7 0.422907 0.977494 0.712665
Si Si8 0.378238 0.069117 0.352936
O O1 0.019593 0.329068 0.599040
O O2 0.396447 0.373135 0.854013
O O3 0.916423 0.224018 0.721322
O O4 0.862315 0.463695 0.687519
O O5 0.643416 0.773866 0.447036
O O6 0.646998 0.995672 0.369951
O O7 0.077717 0.929926 0.599505
O O8 0.221303 0.856611 0.898485
O O9 0.662964 0.017118 0.021362
O O10 0.123081 0.011939 0.998223
O O11 0.516869 0.049378 0.645428
O O12 0.550682 0.119336 0.488180
O O13 0.801489 0.674348 0.744916
O O14 0.636333 0.862143 0.786288
O O15 0.046451 0.702606 0.968487
O O16 0.526270 0.067363 0.820777
#
# Coordination Sequence:
#
# PCOD9119162 Si02
#       8
#     2   2   2   2   2   2   2   2
#     4  11  24  46  74 100 151 194 245 315 385 455
#     4  11  26  45  74 108 150 202 247 318 399 449
#     4  11  27  47  76 109 148 200 258 309 392 451
#     4  11  27  43  70 109 146 192 252 320 384 457
#     4  11  26  47  76 108 153 198 258 320 386 461
#     4  11  27  50  72 111 151 202 255 319 372 472
#     4  11  27  46  74 112 146 198 258 317 387 466
#     4  11  24  46  72 107 145 194 255 306 387 461
#
# _framework density 23.220032
#
# number of rings (size 3 to 8) (size 9 to 14) (size 15 to 20)
#    0.000    1.000    2.500    1.500   10.500    7.000 
#    2.250    0.000    0.000    0.000    0.000    0.000 
#    0.000    0.000    0.000    0.000    0.000    0.000 
#
# Total GULP energy -89308.873106 kJ/mol
# GULP energy per Si atom -5581.804569 kJ/mol
# Density = 2.316718 g / cm^3
# Si number density = 23.220032 Si / 1000 Ang^3
#
#
#
# Elastic Constant Matrix: (Units=GPa)
#
#
# Indices 1 2 3 4 5 6 
#
# 1 71.4702 35.8569 25.4403 0.0000 16.2854 0.0000
# 2 35.8569 90.5067 9.6893 0.0000 13.7739 0.0000
# 3 25.4403 9.6893 94.9153 0.0000 14.1143 0.0000
# 4 0.0000 0.0000 0.0000 29.1075 0.0000 73.9627
# 5 16.2854 13.7739 14.1143 0.0000 31.5920 0.0000
# 6 0.0000 0.0000 0.0000 73.9627 0.0000 -179.8934
#
#
#
# Elastic Compliance Matrix: (Units=1/GPa)
#
#
# Indices 1 2 3 4 5 6 
#
# 1 0.019985 -0.006641 -0.003832 0.000000 -0.005695 0.000000
# 2 -0.006641 0.014061 0.000800 0.000000 -0.003065 0.000000
# 3 -0.003832 0.000800 0.012039 0.000000 -0.003752 0.000000
# 4 0.000000 0.000000 0.000000 0.016802 0.000000 0.006908
# 5 -0.005695 -0.003065 -0.003752 0.000000 0.037602 0.000000
# 6 0.000000 0.000000 0.000000 0.006908 0.000000 -0.002719
#
#
# Mechanical properties :
#
#
# Convention : Reuss Voigt Hill
#
# Bulk Modulus (GPa) = 37.39709 44.31834 40.85772
# Shear Modulus (GPa) = 39.67367 -11.44507 14.11430
#
# Velocity S-wave (km/s) = 4.13800 -2.22254 2.46814
# Velocity P-wave (km/s) = 6.24270 3.54139 5.07507
#
# Compressibility (1/GPa) = 0.02674005
#
# Stress axis : x y z
#
# Youngs Moduli (GPa) = 50.03698 71.12085 83.06298
#
# Poissons Ratio (x) = 0.47230 0.31829
# Poissons Ratio (y) = 0.33229 -0.06648
# Poissons Ratio (z) = 0.19174 -0.05692
#
# Static dielectric constant tensor:
#      x y z
#    x 4.266310 0.000000 -0.357400 
#    y 0.000000 1.896170 0.000000 
#    z -0.357400 0.000000 1.925690 
# 
# From -- ./inp_files/10364.got.cif
#   From: 2010.05.17/outbox.cif.g08.bks.cpg/sg4_6_cif.got.tgz:10364.got - 2010.06.03 18:43:04.
