data_PCOD9119593
_publ_section_title
;
Structure prediction by ZEFSAII (Michael W. Deem and Ramdas Pophale) SiO2 
 PCOD9119593
Probable space group: P 21
;
_chemical_formula_sum "Si O2"
_cell_formula_units_Z 14
_cell_length_a 18.648207
_cell_length_b 4.861231
_cell_length_c 12.722803
_cell_angle_alpha 90.000000
_cell_angle_beta 152.857460
_cell_angle_gamma 90.000000
_cell_volume 526.170966
_symmetry_space_group_name_H-M "P 21"
_symmetry_group_IT_number 4
_symmetry_cell_setting 'monoclinic'
loop_
_space_group_symop_operation_xyz
x,y,z
-x,1/2+y,-z
loop_
_atom_site_type_symbol
_atom_site_label
_atom_site_fract_x
_atom_site_fract_y
_atom_site_fract_z
Si Si1 0.822524 0.380370 0.548964
Si Si2 0.462422 0.237565 0.881636
Si Si3 0.002572 0.888460 0.432699
Si Si4 0.588551 0.556249 0.729328
Si Si5 0.334911 0.547038 0.049231
Si Si6 0.862520 0.668975 0.923987
Si Si7 0.252972 0.661098 0.335038
O O1 0.715600 0.653629 0.386352
O O2 0.720950 0.238983 0.509871
O O3 0.873718 0.305284 0.496104
O O4 0.991177 0.313179 0.827015
O O5 0.584298 0.158519 0.949623
O O6 0.487306 0.545058 0.954365
O O7 0.939395 0.616533 0.408564
O O8 0.853288 0.052884 0.191057
O O9 0.596254 0.237821 0.768887
O O10 0.721115 0.648011 0.822129
O O11 0.413949 0.659658 0.479656
O O12 0.626565 0.729884 0.883412
O O13 0.867225 0.363722 0.881458
O O14 0.808449 0.854567 0.756294
#
# Coordination Sequence:
#
# PCOD9119593 Si02
#       7
#     2   2   2   2   2   2   2
#     4  12  28  49  80 108 160 198 244 331 378 442
#     4  12  27  48  75 112 149 199 259 316 386 455
#     4  12  27  48  75 112 149 199 259 316 386 455
#     4  12  24  48  76 105 149 200 242 309 370 453
#     4  12  24  47  74 105 145 196 254 300 382 457
#     4  12  27  48  76 114 149 196 254 305 381 458
#     4  12  27  48  76 114 149 196 254 305 381 458
#
# _framework density 26.607322
#
# number of rings (size 3 to 8) (size 9 to 14) (size 15 to 20)
#    0.000    0.000    2.857    6.857    0.000    2.286 
#    0.000    0.000    0.000    0.000    0.000    0.000 
#    0.000    0.000    0.000    0.000    0.000    0.000 
#
# Total GULP energy -78269.983442 kJ/mol
# GULP energy per Si atom -5590.713103 kJ/mol
# Density = 2.654676 g / cm^3
# Si number density = 26.607322 Si / 1000 Ang^3
#
#
#
# Elastic Constant Matrix: (Units=GPa)
#
#
# Indices 1 2 3 4 5 6 
#
# 1 194.6627 16.3093 28.5321 0.0000 1.1169 0.0000
# 2 16.3093 97.4310 18.7743 0.0000 -12.7781 0.0000
# 3 28.5321 18.7743 124.3564 0.0000 15.9554 0.0000
# 4 0.0000 0.0000 0.0000 -10.5405 0.0000 -32.9405
# 5 1.1169 -12.7781 15.9554 0.0000 53.6388 0.0000
# 6 0.0000 0.0000 0.0000 -32.9405 0.0000 25.2117
#
#
#
# Elastic Compliance Matrix: (Units=1/GPa)
#
#
# Indices 1 2 3 4 5 6 
#
# 1 0.005359 -0.000669 -0.001137 0.000000 0.000067 0.000000
# 2 -0.000669 0.011179 -0.001952 0.000000 0.003258 0.000000
# 3 -0.001137 -0.001952 0.008997 0.000000 -0.003118 0.000000
# 4 0.000000 0.000000 0.000000 -0.018664 0.000000 -0.024386
# 5 0.000067 0.003258 -0.003118 0.000000 0.020345 0.000000
# 6 0.000000 0.000000 0.000000 -0.024386 0.000000 0.007803
#
#
# Mechanical properties :
#
#
# Convention : Reuss Voigt Hill
#
# Bulk Modulus (GPa) = 55.49881 60.40904 57.95392
# Shear Modulus (GPa) = 103.00075 37.18430 70.09252
#
# Velocity S-wave (km/s) = 6.22860 3.74240 5.13814
# Velocity P-wave (km/s) = 8.52238 6.43640 7.55177
#
# Compressibility (1/GPa) = 0.01801840
#
# Stress axis : x y z
#
# Youngs Moduli (GPa) = 186.58588 89.45250 111.14737
#
# Poissons Ratio (x) = 0.05986 0.12640
# Poissons Ratio (y) = 0.12486 0.21698
# Poissons Ratio (z) = 0.21220 0.17463
#
# Static dielectric constant tensor:
#      x y z
#    x 2.039730 0.000000 0.029160 
#    y 0.000000 2.012490 0.000000 
#    z 0.029160 0.000000 2.145980 
# 
# From -- ./inp_files/12773.got.cif
#   From: 2010.05.17/outbox.cif.g08.bks.cpg/sg4_7_cif.got.tgz:12773.got - 2010.06.03 18:43:04.
