data_PCOD9119845
_publ_section_title
;
Structure prediction by ZEFSAII (Michael W. Deem and Ramdas Pophale) SiO2 
 PCOD9119845
Probable space group: P 21
;
_chemical_formula_sum "Si O2"
_cell_formula_units_Z 14
_cell_length_a 12.000000
_cell_length_b 9.000000
_cell_length_c 9.000000
_cell_angle_alpha 90.000000
_cell_angle_beta 40.000000
_cell_angle_gamma 90.000000
_cell_volume 624.789557
_symmetry_space_group_name_H-M "P 21"
_symmetry_group_IT_number 4
_symmetry_cell_setting 'monoclinic'
loop_
_space_group_symop_operation_xyz
x,y,z
-x,1/2+y,-z
loop_
_atom_site_type_symbol
_atom_site_label
_atom_site_fract_x
_atom_site_fract_y
_atom_site_fract_z
Si Si1 0.757483 0.210400 0.127522
Si Si2 0.607069 0.822900 0.515093
Si Si3 0.184863 0.870867 0.479111
Si Si4 0.510986 0.054423 0.179204
Si Si5 0.698155 0.031606 0.670004
Si Si6 0.915761 0.456698 0.747893
Si Si7 0.929842 0.735796 0.961358
O O1 0.835909 0.318023 0.919467
O O2 0.909428 0.187205 0.093104
O O3 0.581948 0.293297 0.366577
O O4 0.674045 0.067788 0.126802
O O5 0.586292 0.710231 0.679644
O O6 0.768036 0.783804 0.237438
O O7 0.616578 0.980212 0.594166
O O8 0.359403 0.939399 0.368701
O O9 0.233681 0.700211 0.398066
O O10 0.153427 0.954384 0.352349
O O11 0.022166 0.861254 0.760407
O O12 0.580839 0.023345 0.939927
O O13 0.877599 0.938840 0.486670
O O14 0.885307 0.600700 0.889319
#
# Coordination Sequence:
#
# PCOD9119845 Si02
#       7
#     2   2   2   2   2   2   2
#     4  10  23  50  75 113 160 202 277 332 399 488
#     4  10  24  46  81 113 159 216 262 337 406 479
#     4  11  25  47  74 116 156 210 278 329 404 484
#     4  10  23  45  77 115 162 207 265 336 397 488
#     4  11  21  45  77 113 158 212 261 332 395 481
#     4  11  24  47  77 108 167 210 273 335 398 490
#     4  11  26  50  79 114 160 213 270 343 409 482
#
# _framework density 22.407544999999999
#
# number of rings (size 3 to 8) (size 9 to 14) (size 15 to 20)
#    0.857    0.571    2.857    1.714    2.000    3.429 
#   18.000    1.429    0.000    0.000    0.000    0.000 
#    0.000    0.000    0.000    0.000    0.000    0.000 
#
# Total GULP energy -78111.343174 kJ/mol
# GULP energy per Si atom -5579.381655 kJ/mol
# Density = 2.235654 g / cm^3
# Si number density = 22.407545 Si / 1000 Ang^3
#
#
#
# Elastic Constant Matrix: (Units=GPa)
#
#
# Indices 1 2 3 4 5 6 
#
# 1 122.8345 43.1472 41.4422 0.0000 8.2433 0.0000
# 2 43.1472 45.6587 43.9841 0.0000 -2.9937 0.0000
# 3 41.4422 43.9841 197.5120 0.0000 5.3295 0.0000
# 4 0.0000 0.0000 0.0000 47.8085 0.0000 2.2097
# 5 8.2433 -2.9937 5.3295 0.0000 49.9350 0.0000
# 6 0.0000 0.0000 0.0000 2.2097 0.0000 46.1199
#
#
#
# Elastic Compliance Matrix: (Units=1/GPa)
#
#
# Indices 1 2 3 4 5 6 
#
# 1 0.012567 -0.012215 0.000159 0.000000 -0.002824 0.000000
# 2 -0.012215 0.040031 -0.006489 0.000000 0.005109 0.000000
# 3 0.000159 -0.006489 0.006505 0.000000 -0.001110 0.000000
# 4 0.000000 0.000000 0.000000 0.020963 0.000000 -0.001004
# 5 -0.002824 0.005109 -0.001110 0.000000 0.020917 0.000000
# 6 0.000000 0.000000 0.000000 -0.001004 0.000000 0.021731
#
#
# Mechanical properties :
#
#
# Convention : Reuss Voigt Hill
#
# Bulk Modulus (GPa) = 45.42715 69.23911 57.33313
# Shear Modulus (GPa) = 29.91480 44.60145 37.25812
#
# Velocity S-wave (km/s) = 3.65777 4.46630 4.08211
# Velocity P-wave (km/s) = 6.17707 7.58710 6.91811
#
# Compressibility (1/GPa) = 0.02201327
#
# Stress axis : x y z
#
# Youngs Moduli (GPa) = 79.57114 24.98064 153.73695
#
# Poissons Ratio (x) = 0.30513 -0.02451
# Poissons Ratio (y) = 0.97195 0.99767
# Poissons Ratio (z) = -0.01269 0.16211
#
# Static dielectric constant tensor:
#      x y z
#    x 1.883050 0.000000 -0.014480 
#    y 0.000000 1.935340 0.000000 
#    z -0.014480 0.000000 1.826980 
# 
# From -- ./inp_files/7914.got.cif
#   From: 2010.05.17/outbox.ucp.g08.bks.cvg/sg4_4_cif.got.tgz:7914.got - 2010.06.11 12:51:24.
