data_PCOD9119241
_publ_section_title
;
Structure prediction by ZEFSAII (Michael W. Deem and Ramdas Pophale) SiO2 
 PCOD9119241
Probable space group: P 21
;
_chemical_formula_sum "Si O2"
_cell_formula_units_Z 16
_cell_length_a 9.389288
_cell_length_b 9.123214
_cell_length_c 17.252274
_cell_angle_alpha 90.000000
_cell_angle_beta 28.102141
_cell_angle_gamma 90.000000
_cell_volume 696.128034
_symmetry_space_group_name_H-M "P 21"
_symmetry_group_IT_number 4
_symmetry_cell_setting 'monoclinic'
loop_
_space_group_symop_operation_xyz
x,y,z
-x,1/2+y,-z
loop_
_atom_site_type_symbol
_atom_site_label
_atom_site_fract_x
_atom_site_fract_y
_atom_site_fract_z
Si Si1 0.626863 0.817930 0.297882
Si Si2 0.485197 0.531234 0.774268
Si Si3 0.764884 0.178127 0.377387
Si Si4 0.295306 0.932824 0.994507
Si Si5 0.424587 0.229730 0.026679
Si Si6 0.792975 0.517436 0.138737
Si Si7 0.900306 0.416913 0.699795
Si Si8 0.457713 0.266506 0.374110
O O1 0.433822 0.759676 0.462510
O O2 0.732681 0.682436 0.193774
O O3 0.433591 0.920582 0.334338
O O4 0.934776 0.902598 0.173537
O O5 0.731813 0.521453 0.721189
O O6 0.469503 0.685601 0.740134
O O7 0.151752 0.489753 0.963704
O O8 0.567781 0.173348 0.394456
O O9 0.069852 0.264100 0.205842
O O10 0.883905 0.022973 0.353444
O O11 0.335629 0.983182 0.885869
O O12 0.441853 0.779617 0.953480
O O13 0.414608 0.065718 0.993311
O O14 0.640860 0.326688 0.868453
O O15 0.638673 0.417262 0.277675
O O16 0.110599 0.303575 0.553744
#
# Coordination Sequence:
#
# PCOD9119241 Si02
#       8
#     2   2   2   2   2   2   2   2
#     4  11  25  48  79 107 157 197 259 311 394 458
#     4  11  26  45  77 113 149 200 252 320 377 470
#     4  12  27  48  74 109 153 204 251 320 384 463
#     4  11  26  47  76 118 153 211 255 322 385 467
#     4  12  26  48  78 109 160 196 263 317 390 458
#     4  11  24  48  79 110 155 201 259 310 394 459
#     4  12  28  50  74 113 157 194 265 319 390 457
#     4  12  28  48  79 109 156 203 256 317 390 462
#
# _framework density 22.984276999999999
#
# number of rings (size 3 to 8) (size 9 to 14) (size 15 to 20)
#    0.000    0.500    2.500    5.250    7.000    3.000 
#    0.000    0.000    0.000    0.000    0.000    0.000 
#    0.000    0.000    0.000    0.000    0.000    0.000 
#
# Total GULP energy -89449.200362 kJ/mol
# GULP energy per Si atom -5590.575023 kJ/mol
# Density = 2.293196 g / cm^3
# Si number density = 22.984277 Si / 1000 Ang^3
#
#
#
# Elastic Constant Matrix: (Units=GPa)
#
#
# Indices 1 2 3 4 5 6 
#
# 1 90.4215 38.1940 16.6588 0.0000 2.8084 0.0000
# 2 38.1940 102.3082 15.1638 0.0000 6.2274 0.0000
# 3 16.6588 15.1638 115.4863 0.0000 21.2563 0.0000
# 4 0.0000 0.0000 0.0000 31.7706 0.0000 5.3659
# 5 2.8084 6.2274 21.2563 0.0000 22.1601 0.0000
# 6 0.0000 0.0000 0.0000 5.3659 0.0000 45.4655
#
#
#
# Elastic Compliance Matrix: (Units=1/GPa)
#
#
# Indices 1 2 3 4 5 6 
#
# 1 0.013338 -0.004825 -0.001492 0.000000 0.001097 0.000000
# 2 -0.004825 0.011779 -0.000430 0.000000 -0.002286 0.000000
# 3 -0.001492 -0.000430 0.010776 0.000000 -0.010027 0.000000
# 4 0.000000 0.000000 0.000000 0.032116 0.000000 -0.003790
# 5 0.001097 -0.002286 -0.010027 0.000000 0.055248 0.000000
# 6 0.000000 0.000000 0.000000 -0.003790 0.000000 0.022442
#
#
# Mechanical properties :
#
#
# Convention : Reuss Voigt Hill
#
# Bulk Modulus (GPa) = 44.64554 49.80548 47.22551
# Shear Modulus (GPa) = 30.00134 35.75920 32.88027
#
# Velocity S-wave (km/s) = 3.61681 3.94866 3.78637
# Velocity P-wave (km/s) = 6.07522 6.51963 6.30135
#
# Compressibility (1/GPa) = 0.02239866
#
# Stress axis : x y z
#
# Youngs Moduli (GPa) = 74.97201 84.90009 92.79648
#
# Poissons Ratio (x) = 0.40965 0.13849
# Poissons Ratio (y) = 0.36175 0.03988
# Poissons Ratio (z) = 0.11189 0.03649
#
# Static dielectric constant tensor:
#      x y z
#    x 1.880290 0.000000 0.026340 
#    y 0.000000 1.881190 0.000000 
#    z 0.026340 0.000000 1.809900 
# 
# From -- ./inp_files/14938.got.cif
#   From: 2010.05.17/outbox.cif.g08.bks.cpg/sg4_8_cif.got.tgz:14938.got - 2010.06.03 18:43:04.
