data_PCOD9119477
_publ_section_title
;
Structure prediction by ZEFSAII (Michael W. Deem and Ramdas Pophale) SiO2 
 PCOD9119477
Probable space group: P 21
;
_chemical_formula_sum "Si O2"
_cell_formula_units_Z 14
_cell_length_a 7.762083
_cell_length_b 13.810475
_cell_length_c 5.141261
_cell_angle_alpha 90.000000
_cell_angle_beta 64.995158
_cell_angle_gamma 90.000000
_cell_volume 499.476598
_symmetry_space_group_name_H-M "P 21"
_symmetry_group_IT_number 4
_symmetry_cell_setting 'monoclinic'
loop_
_space_group_symop_operation_xyz
x,y,z
-x,1/2+y,-z
loop_
_atom_site_type_symbol
_atom_site_label
_atom_site_fract_x
_atom_site_fract_y
_atom_site_fract_z
Si Si1 0.214794 0.790060 0.542134
Si Si2 0.359853 0.906060 0.840699
Si Si3 0.807473 0.154696 0.958741
Si Si4 0.593975 0.598606 0.971871
Si Si5 0.910286 0.886505 0.283667
Si Si6 0.695652 0.814887 0.918435
Si Si7 0.057715 0.007763 0.547677
O O1 0.399486 0.833123 0.577008
O O2 0.199881 0.726203 0.291458
O O3 0.120366 0.897479 0.570837
O O4 0.802023 0.866660 0.087077
O O5 0.500524 0.868784 0.973368
O O6 0.137558 0.893372 0.064063
O O7 0.407897 0.019285 0.795120
O O8 0.852558 0.215795 0.188375
O O9 0.600165 0.106479 0.068347
O O10 0.966684 0.073620 0.823591
O O11 0.648515 0.705577 0.025037
O O12 0.762677 0.560910 0.683043
O O13 0.890419 0.989933 0.441860
O O14 0.818172 0.816411 0.567470
#
# Coordination Sequence:
#
# PCOD9119477 Si02
#       7
#     2   2   2   2   2   2   2
#     4  12  29  55  87 126 182 226 285 384 429 522
#     4  11  27  55  82 119 179 215 283 369 424 508
#     4  12  29  56  87 130 176 233 300 359 451 529
#     4  11  28  51  86 126 165 234 290 363 435 540
#     4  11  28  51  80 124 168 224 280 358 423 519
#     4  12  28  50  85 123 167 229 286 343 453 513
#     4  11  29  56  87 130 177 233 300 364 447 531
#
# _framework density 28.029339
#
# number of rings (size 3 to 8) (size 9 to 14) (size 15 to 20)
#    0.000    0.571    1.429    3.429    8.000    9.143 
#    0.000    4.286    0.000    0.000    0.000    0.000 
#    0.000    0.000    0.000    0.000    0.000    0.000 
#
# Total GULP energy -78260.552528 kJ/mol
# GULP energy per Si atom -5590.039466 kJ/mol
# Density = 2.796554 g / cm^3
# Si number density = 28.029339 Si / 1000 Ang^3
#
#
#
# Elastic Constant Matrix: (Units=GPa)
#
#
# Indices 1 2 3 4 5 6 
#
# 1 159.1346 59.7865 67.4333 0.0000 6.7622 0.0000
# 2 59.7865 188.7429 44.8587 0.0000 7.8430 0.0000
# 3 67.4333 44.8587 125.9702 0.0000 17.3695 0.0000
# 4 0.0000 0.0000 0.0000 30.4973 0.0000 6.3051
# 5 6.7622 7.8430 17.3695 0.0000 71.5216 0.0000
# 6 0.0000 0.0000 0.0000 6.3051 0.0000 51.6887
#
#
#
# Elastic Compliance Matrix: (Units=1/GPa)
#
#
# Indices 1 2 3 4 5 6 
#
# 1 0.008657 -0.001796 -0.004044 0.000000 0.000361 0.000000
# 2 -0.001796 0.006162 -0.001203 0.000000 -0.000214 0.000000
# 3 -0.004044 -0.001203 0.010824 0.000000 -0.002114 0.000000
# 4 0.000000 0.000000 0.000000 0.033638 0.000000 -0.004103
# 5 0.000361 -0.000214 -0.002114 0.000000 0.014485 0.000000
# 6 0.000000 0.000000 0.000000 -0.004103 0.000000 0.019847
#
#
# Mechanical properties :
#
#
# Convention : Reuss Voigt Hill
#
# Bulk Modulus (GPa) = 86.54335 90.88941 88.71638
# Shear Modulus (GPa) = 44.82209 50.85947 47.84078
#
# Velocity S-wave (km/s) = 4.00323 4.26433 4.13584
# Velocity P-wave (km/s) = 7.23262 7.53279 7.38423
#
# Compressibility (1/GPa) = 0.01155490
#
# Stress axis : x y z
#
# Youngs Moduli (GPa) = 115.50976 162.28437 92.39141
#
# Poissons Ratio (x) = 0.29147 0.37368
# Poissons Ratio (y) = 0.20746 0.11119
# Poissons Ratio (z) = 0.46718 0.19530
#
# Static dielectric constant tensor:
#      x y z
#    x 2.676840 0.000000 0.166780 
#    y 0.000000 2.160150 0.000000 
#    z 0.166780 0.000000 2.456910 
# 
# From -- ./inp_files/6714.got.cif
#   From: 2010.05.17/outbox.cif.g08.bks.cpg/sg4_4_cif.got.tgz:6714.got - 2010.06.03 18:43:04.
