data_PCOD9119353
_publ_section_title
;
Structure prediction by ZEFSAII (Michael W. Deem and Ramdas Pophale) SiO2 
 PCOD9119353
Probable space group: P 21
;
_chemical_formula_sum "Si O2"
_cell_formula_units_Z 16
_cell_length_a 8.521492
_cell_length_b 9.327655
_cell_length_c 9.265353
_cell_angle_alpha 90.000000
_cell_angle_beta 115.929315
_cell_angle_gamma 90.000000
_cell_volume 662.325052
_symmetry_space_group_name_H-M "P 21"
_symmetry_group_IT_number 4
_symmetry_cell_setting 'monoclinic'
loop_
_space_group_symop_operation_xyz
x,y,z
-x,1/2+y,-z
loop_
_atom_site_type_symbol
_atom_site_label
_atom_site_fract_x
_atom_site_fract_y
_atom_site_fract_z
Si Si1 0.811988 0.464270 0.778284
Si Si2 0.066928 0.925951 0.877412
Si Si3 0.150999 0.292851 0.470796
Si Si4 0.087366 0.554723 0.647273
Si Si5 0.626957 0.747065 0.828547
Si Si6 0.747066 0.064132 0.812288
Si Si7 0.644211 0.232136 0.056320
Si Si8 0.456459 0.745063 0.468825
O O1 0.951982 0.500162 0.713538
O O2 0.736599 0.608269 0.823584
O O3 0.656939 0.373178 0.645131
O O4 0.908499 0.380933 0.945967
O O5 0.950789 0.835754 0.717593
O O6 0.263472 0.889716 0.902079
O O7 0.951640 0.069637 0.850247
O O8 0.030350 0.168253 0.488681
O O9 0.345810 0.246397 0.510264
O O10 0.152828 0.427868 0.574862
O O11 0.243720 0.631022 0.793191
O O12 0.548060 0.735436 0.956413
O O13 0.471266 0.753700 0.646604
O O14 0.717798 0.900554 0.848983
O O15 0.637590 0.102386 0.626124
O O16 0.670583 0.162094 0.909771
#
# Coordination Sequence:
#
# PCOD9119353 Si02
#       8
#     2   2   2   2   2   2   2   2
#     4  12  25  49  76 104 152 198 236 299 376 430
#     4  11  25  49  72 104 147 188 243 297 359 433
#     4  11  26  48  72 110 147 186 250 301 360 437
#     4  11  25  47  72 104 146 192 244 301 358 429
#     4  12  27  46  74 108 151 188 239 307 358 440
#     4  12  26  47  76 104 146 193 244 295 371 434
#     4  11  26  47  71 107 149 187 243 302 364 433
#     4  12  26  47  77 107 146 196 241 300 374 436
#
# _framework density 24.157322000000001
#
# number of rings (size 3 to 8) (size 9 to 14) (size 15 to 20)
#    0.000    0.500    5.000    2.250    7.000    1.000 
#    2.250    0.000    0.000    0.000    0.000    0.000 
#    0.000    0.000    0.000    0.000    0.000    0.000 
#
# Total GULP energy -89438.407485 kJ/mol
# GULP energy per Si atom -5589.900468 kJ/mol
# Density = 2.410234 g / cm^3
# Si number density = 24.157322 Si / 1000 Ang^3
#
#
#
# Elastic Constant Matrix: (Units=GPa)
#
#
# Indices 1 2 3 4 5 6 
#
# 1 66.7019 16.7443 11.2699 0.0000 -17.8851 0.0000
# 2 16.7443 67.7627 3.8069 0.0000 -15.4142 0.0000
# 3 11.2699 3.8069 77.5692 0.0000 2.9573 0.0000
# 4 0.0000 0.0000 0.0000 34.7927 0.0000 -4.8319
# 5 -17.8851 -15.4142 2.9573 0.0000 34.9935 0.0000
# 6 0.0000 0.0000 0.0000 -4.8319 0.0000 46.8238
#
#
#
# Elastic Compliance Matrix: (Units=1/GPa)
#
#
# Indices 1 2 3 4 5 6 
#
# 1 0.018387 -0.002432 -0.002879 0.000000 0.008569 0.000000
# 2 -0.002432 0.016814 -0.000709 0.000000 0.006223 0.000000
# 3 -0.002879 -0.000709 0.013456 0.000000 -0.002921 0.000000
# 4 0.000000 0.000000 0.000000 0.029160 0.000000 0.003009
# 5 0.008569 0.006223 -0.002921 0.000000 0.035945 0.000000
# 6 0.000000 0.000000 0.000000 0.003009 0.000000 0.021667
#
#
# Mechanical properties :
#
#
# Convention : Reuss Voigt Hill
#
# Bulk Modulus (GPa) = 27.31012 30.63066 28.97039
# Shear Modulus (GPa) = 31.31384 35.33616 33.32500
#
# Velocity S-wave (km/s) = 3.60425 3.82874 3.71819
# Velocity P-wave (km/s) = 5.35261 5.67916 5.51830
#
# Compressibility (1/GPa) = 0.03661646
#
# Stress axis : x y z
#
# Youngs Moduli (GPa) = 54.38684 59.47481 74.31569
#
# Poissons Ratio (x) = 0.14467 0.21393
# Poissons Ratio (y) = 0.13229 0.05269
# Poissons Ratio (z) = 0.15656 0.04217
#
# Static dielectric constant tensor:
#      x y z
#    x 1.938200 0.000000 0.001370 
#    y 0.000000 2.006900 0.000000 
#    z 0.001370 0.000000 1.906770 
# 
# From -- ./inp_files/5400.got.cif
#   From: 2010.05.17/outbox.cif.g08.bks.cpg/sg4_3_cif.got.tgz:5400.got - 2010.06.03 18:43:04.
