data_PCOD9119959
_publ_section_title
;
Structure prediction by ZEFSAII (Michael W. Deem and Ramdas Pophale) SiO2 
 PCOD9119959
Probable space group: C 2
;
_chemical_formula_sum "Si O2"
_cell_formula_units_Z 22
_cell_length_a 7.819975
_cell_length_b 17.689431
_cell_length_c 7.535203
_cell_angle_alpha 90.000000
_cell_angle_beta 53.148340
_cell_angle_gamma 90.000000
_cell_volume 834.080210
_symmetry_space_group_name_H-M "C 2"
_symmetry_group_IT_number 5
_symmetry_cell_setting 'monoclinic'
loop_
_space_group_symop_operation_xyz
x,y,z
-x,y,-z
1/2+x,1/2+y,z
1/2-x,1/2+y,-z
loop_
_atom_site_type_symbol
_atom_site_label
_atom_site_fract_x
_atom_site_fract_y
_atom_site_fract_z
Si Si1 0.653862 0.379950 0.185123
Si Si2 0.423782 0.692192 0.306874
Si Si3 0.500000 0.096030 0.000000
Si Si4 0.543606 0.864699 0.667228
Si Si5 0.880242 0.710708 0.814202
Si Si6 0.450673 0.537017 0.822353
O O1 0.773371 0.385257 0.300885
O O2 0.550273 0.297384 0.229406
O O3 0.500387 0.450833 0.252831
O O4 0.831053 0.378422 0.918063
O O5 0.412568 0.775356 0.395300
O O6 0.213354 0.690801 0.317231
O O7 0.439885 0.604823 0.353730
O O8 0.655959 0.701675 0.064413
O O9 0.539985 0.153889 0.811137
O O10 0.699322 0.046291 0.934835
O O11 0.500000 0.900132 0.500000
O O12 0.500000 0.549840 0.000000
#
# Coordination Sequence:
#
# PCOD9119959 Si02
#       6
#     4   4   2   4   4   4
#     4   9  19  31  53  86 111 144 194 229 288 342
#     4   8  14  30  49  75 109 141 181 232 271 328
#     4  10  16  26  48  76 108 148 186 232 266 334
#     4   9  17  34  61  82 112 152 195 234 276 336
#     4   8  14  27  45  73 102 137 188 225 260 329
#     4  11  19  31  52  85 118 147 183 235 291 334
#
# _framework density 26.376358
#
# number of rings (size 3 to 8) (size 9 to 14) (size 15 to 20)
#    0.000    2.909    3.636    3.273    1.273    0.000 
#    0.000    0.000    4.000    0.000    0.000    0.000 
#    0.000    0.000    0.000    0.000    0.000    0.000 
#
# Total GULP energy -61406.231167 kJ/mol
# GULP energy per Si atom -5582.384652 kJ/mol
# Density = 2.631632 g / cm^3
# Si number density = 26.376358 Si / 1000 Ang^3
#
#
#
# Elastic Constant Matrix: (Units=GPa)
#
#
# Indices 1 2 3 4 5 6 
#
# 1 144.3586 36.9220 70.6357 0.0000 23.0740 0.0000
# 2 36.9220 182.3940 24.7138 0.0000 7.1312 0.0000
# 3 70.6357 24.7138 123.4009 0.0000 23.5485 0.0000
# 4 0.0000 0.0000 0.0000 -6.2330 0.0000 4.8477
# 5 23.0740 7.1312 23.5485 0.0000 59.3627 0.0000
# 6 0.0000 0.0000 0.0000 4.8477 0.0000 20.9235
#
#
#
# Elastic Compliance Matrix: (Units=1/GPa)
#
#
# Indices 1 2 3 4 5 6 
#
# 1 0.010057 -0.001268 -0.005178 0.000000 -0.001703 0.000000
# 2 -0.001268 0.005799 -0.000429 0.000000 -0.000034 0.000000
# 3 -0.005178 -0.000429 0.011641 0.000000 -0.002554 0.000000
# 4 0.000000 0.000000 0.000000 -0.135940 0.000000 0.031495
# 5 -0.001703 -0.000034 -0.002554 0.000000 0.018524 0.000000
# 6 0.000000 0.000000 0.000000 0.031495 0.000000 0.040496
#
#
# Mechanical properties :
#
#
# Convention : Reuss Voigt Hill
#
# Bulk Modulus (GPa) = 72.74388 79.41074 76.07731
# Shear Modulus (GPa) = -160.82023 36.00277 -62.40873
#
# Velocity S-wave (km/s) = -7.81689 3.69855 -4.86952
# Velocity P-wave (km/s) = 7.33707 6.95781 1.64642
#
# Compressibility (1/GPa) = 0.01374686
#
# Stress axis : x y z
#
# Youngs Moduli (GPa) = 99.43080 172.45139 85.90429
#
# Poissons Ratio (x) = 0.21862 0.44481
# Poissons Ratio (y) = 0.12605 0.03688
# Poissons Ratio (z) = 0.51485 0.07403
#
# Static dielectric constant tensor:
#      x y z
#    x 2.027910 0.000000 -0.035960 
#    y 0.000000 2.047900 0.000000 
#    z -0.035960 0.000000 2.210370 
# 
# From -- ./inp_files/15691.got.cif
#   From: 2010.05.17/outbox.cif.g08.bks.cpg/sg5_8_cif.got.tgz:15691.got - 2010.06.03 18:56:24.
