data_PCOD9119416
_publ_section_title
;
Structure prediction by ZEFSAII (Michael W. Deem and Ramdas Pophale) SiO2 
 PCOD9119416
Probable space group: P 21
;
_chemical_formula_sum "Si O2"
_cell_formula_units_Z 14
_cell_length_a 9.146223
_cell_length_b 5.223766
_cell_length_c 15.270506
_cell_angle_alpha 90.000000
_cell_angle_beta 133.456976
_cell_angle_gamma 90.000000
_cell_volume 529.602926
_symmetry_space_group_name_H-M "P 21"
_symmetry_group_IT_number 4
_symmetry_cell_setting 'monoclinic'
loop_
_space_group_symop_operation_xyz
x,y,z
-x,1/2+y,-z
loop_
_atom_site_type_symbol
_atom_site_label
_atom_site_fract_x
_atom_site_fract_y
_atom_site_fract_z
Si Si1 0.770664 0.899680 0.482499
Si Si2 0.929139 0.422554 0.631132
Si Si3 0.965779 0.866491 0.839693
Si Si4 0.342391 0.271003 0.762190
Si Si5 0.752169 0.484778 0.885652
Si Si6 0.613635 0.390498 0.083421
Si Si7 0.682593 0.260259 0.681415
O O1 0.926994 0.692865 0.582174
O O2 0.748491 0.828032 0.371095
O O3 0.550172 0.816928 0.428075
O O4 0.825885 0.191652 0.530822
O O5 0.804329 0.448825 0.668896
O O6 0.154771 0.342297 0.745585
O O7 0.162425 0.816886 0.859248
O O8 0.802551 0.002167 0.709773
O O9 0.090388 0.001690 0.971312
O O10 0.829235 0.682576 0.844538
O O11 0.536858 0.451187 0.842683
O O12 0.393093 0.984448 0.816896
O O13 0.722230 0.255738 0.802384
O O14 0.472988 0.155586 0.995185
#
# Coordination Sequence:
#
# PCOD9119416 Si02
#       7
#     2   2   2   2   2   2   2
#     4  11  28  47  75 108 154 203 273 327 399 468
#     4  12  26  51  73 111 151 205 268 341 391 466
#     4  12  25  47  77 115 166 207 264 325 409 483
#     4  11  26  51  77 116 152 215 260 333 404 476
#     4  11  26  47  74 116 157 207 264 322 397 499
#     4  12  29  49  81 120 166 210 267 328 403 494
#     4  11  26  44  77 110 150 213 260 330 401 476
#
# _framework density 26.434901
#
# number of rings (size 3 to 8) (size 9 to 14) (size 15 to 20)
#    0.000    0.571    4.286    1.714    8.000    4.571 
#    2.571    0.000    0.000    0.000    0.000    0.000 
#    0.000    0.000    0.000    0.000    0.000    0.000 
#
# Total GULP energy -78057.049500 kJ/mol
# GULP energy per Si atom -5575.503536 kJ/mol
# Density = 2.637473 g / cm^3
# Si number density = 26.434901 Si / 1000 Ang^3
#
#
#
# Elastic Constant Matrix: (Units=GPa)
#
#
# Indices 1 2 3 4 5 6 
#
# 1 119.8833 36.9139 34.3608 0.0000 20.3434 0.0000
# 2 36.9139 117.2680 25.7358 0.0000 2.2350 0.0000
# 3 34.3608 25.7358 99.7116 0.0000 3.7706 0.0000
# 4 0.0000 0.0000 0.0000 -0.5036 0.0000 28.0477
# 5 20.3434 2.2350 3.7706 0.0000 69.8737 0.0000
# 6 0.0000 0.0000 0.0000 28.0477 0.0000 13.8861
#
#
#
# Elastic Compliance Matrix: (Units=1/GPa)
#
#
# Indices 1 2 3 4 5 6 
#
# 1 0.010427 -0.002611 -0.002813 0.000000 -0.002800 0.000000
# 2 -0.002611 0.009695 -0.001623 0.000000 0.000538 0.000000
# 3 -0.002813 -0.001623 0.011408 0.000000 0.000255 0.000000
# 4 0.000000 0.000000 0.000000 -0.017496 0.000000 0.035339
# 5 -0.002800 0.000538 0.000255 0.000000 0.015096 0.000000
# 6 0.000000 0.000000 0.000000 0.035339 0.000000 0.000634
#
#
# Mechanical properties :
#
#
# Convention : Reuss Voigt Hill
#
# Bulk Modulus (GPa) = 57.35610 58.98713 58.17162
# Shear Modulus (GPa) = 100.66212 32.64142 66.65177
#
# Velocity S-wave (km/s) = 6.17753 3.51776 5.02676
# Velocity P-wave (km/s) = 8.52213 6.23395 7.46622
#
# Compressibility (1/GPa) = 0.01743494
#
# Stress axis : x y z
#
# Youngs Moduli (GPa) = 95.90373 103.14145 87.66105
#
# Poissons Ratio (x) = 0.26935 0.24661
# Poissons Ratio (y) = 0.25045 0.14226
# Poissons Ratio (z) = 0.26980 0.16738
#
# Static dielectric constant tensor:
#      x y z
#    x 2.838380 0.000000 -0.256770 
#    y 0.000000 2.261290 0.000000 
#    z -0.256770 0.000000 2.185630 
# 
# From -- ./inp_files/13491.got.cif
#   From: 2010.05.17/outbox.cif.g08.bks.cpg/sg4_7_cif.got.tgz:13491.got - 2010.06.03 18:43:04.
