data_PCOD9119143
_publ_section_title
;
Structure prediction by ZEFSAII (Michael W. Deem and Ramdas Pophale) SiO2 
 PCOD9119143
Probable space group: P 21
;
_chemical_formula_sum "Si O2"
_cell_formula_units_Z 14
_cell_length_a 24.904635
_cell_length_b 5.014411
_cell_length_c 8.622787
_cell_angle_alpha 90.000000
_cell_angle_beta 149.072681
_cell_angle_gamma 90.000000
_cell_volume 553.437919
_symmetry_space_group_name_H-M "P 21"
_symmetry_group_IT_number 4
_symmetry_cell_setting 'monoclinic'
loop_
_space_group_symop_operation_xyz
x,y,z
-x,1/2+y,-z
loop_
_atom_site_type_symbol
_atom_site_label
_atom_site_fract_x
_atom_site_fract_y
_atom_site_fract_z
Si Si1 0.416887 0.316000 0.417100
Si Si2 0.003692 0.841280 0.903725
Si Si3 0.679558 0.707078 0.347460
Si Si4 0.712492 0.248573 0.894932
Si Si5 0.216353 0.706538 0.254487
Si Si6 0.220767 0.224162 0.744790
Si Si7 0.508865 0.371050 0.298231
O O1 0.403342 0.605110 0.467688
O O2 0.455866 0.289907 0.335333
O O3 0.520907 0.196844 0.766551
O O4 0.285052 0.430721 0.018630
O O5 0.899419 0.802712 0.545399
O O6 0.107834 0.759669 0.071822
O O7 0.991361 0.639535 0.018298
O O8 0.702155 0.419491 0.474364
O O9 0.738158 0.745549 0.327522
O O10 0.736720 0.915870 0.601143
O O11 0.559978 0.775369 0.017348
O O12 0.792579 0.245560 0.951269
O O13 0.631850 0.522084 0.651189
O O14 0.761448 0.419085 0.159430
#
# Coordination Sequence:
#
# PCOD9119143 Si02
#       7
#     2   2   2   2   2   2   2
#     4   9  21  41  66  97 138 176 223 284 341 409
#     4  12  25  48  70 102 136 183 235 303 354 428
#     4  12  26  41  75 102 140 189 236 281 359 424
#     4   9  25  45  69 101 146 179 233 295 350 424
#     4  12  26  46  69 106 141 185 239 296 353 424
#     4  11  24  45  74  96 140 182 237 287 360 410
#     4   9  21  42  65 102 137 182 223 284 339 425
#
# _framework density 25.296426
#
# number of rings (size 3 to 8) (size 9 to 14) (size 15 to 20)
#    0.857    0.571    2.857    0.857    8.000    3.429 
#    2.571    0.000    0.000    0.000    0.000    0.000 
#    0.000    0.000    0.000    0.000    0.000    0.000 
#
# Total GULP energy -78212.898198 kJ/mol
# GULP energy per Si atom -5586.635586 kJ/mol
# Density = 2.523885 g / cm^3
# Si number density = 25.296426 Si / 1000 Ang^3
#
#
#
# Elastic Constant Matrix: (Units=GPa)
#
#
# Indices 1 2 3 4 5 6 
#
# 1 102.5956 19.2155 11.0494 0.0000 -2.3801 0.0000
# 2 19.2155 126.2860 11.4373 0.0000 -4.0314 0.0000
# 3 11.0494 11.4373 118.6513 0.0000 17.1775 0.0000
# 4 0.0000 0.0000 0.0000 41.4899 0.0000 -9.0735
# 5 -2.3801 -4.0314 17.1775 0.0000 17.1067 0.0000
# 6 0.0000 0.0000 0.0000 -9.0735 0.0000 30.0304
#
#
#
# Elastic Compliance Matrix: (Units=1/GPa)
#
#
# Indices 1 2 3 4 5 6 
#
# 1 0.010179 -0.001374 -0.001139 0.000000 0.002236 0.000000
# 2 -0.001374 0.008318 -0.001088 0.000000 0.002861 0.000000
# 3 -0.001139 -0.001088 0.010179 0.000000 -0.010636 0.000000
# 4 0.000000 0.000000 0.000000 0.025808 0.000000 0.007798
# 5 0.002236 0.002861 -0.010636 0.000000 0.070122 0.000000
# 6 0.000000 0.000000 0.000000 0.007798 0.000000 0.035656
#
#
# Mechanical properties :
#
#
# Convention : Reuss Voigt Hill
#
# Bulk Modulus (GPa) = 46.57163 47.88193 47.22678
# Shear Modulus (GPa) = 28.63350 38.11412 33.37381
#
# Velocity S-wave (km/s) = 3.36805 3.88583 3.63617
# Velocity P-wave (km/s) = 5.79442 6.25319 6.02817
#
# Compressibility (1/GPa) = 0.02147230
#
# Stress axis : x y z
#
# Youngs Moduli (GPa) = 98.24180 120.22809 98.24333
#
# Poissons Ratio (x) = 0.16522 0.11192
# Poissons Ratio (y) = 0.13501 0.10689
# Poissons Ratio (z) = 0.11192 0.13081
#
# Static dielectric constant tensor:
#      x y z
#    x 1.882090 0.000000 0.051220 
#    y 0.000000 2.022060 0.000000 
#    z 0.051220 0.000000 2.054870 
# 
# From -- ./inp_files/9956.got.cif
#   From: 2010.05.17/outbox.cif.g08.bks.cpg/sg4_5_cif.got.tgz:9956.got - 2010.06.03 18:43:04.
