data_PCOD9119373
_publ_section_title
;
Structure prediction by ZEFSAII (Michael W. Deem and Ramdas Pophale) SiO2 
 PCOD9119373
Probable space group: P 21
;
_chemical_formula_sum "Si O2"
_cell_formula_units_Z 14
_cell_length_a 11.492061
_cell_length_b 7.632375
_cell_length_c 16.536572
_cell_angle_alpha 90.000000
_cell_angle_beta 20.972835
_cell_angle_gamma 90.000000
_cell_volume 519.153139
_symmetry_space_group_name_H-M "P 21"
_symmetry_group_IT_number 4
_symmetry_cell_setting 'monoclinic'
loop_
_space_group_symop_operation_xyz
x,y,z
-x,1/2+y,-z
loop_
_atom_site_type_symbol
_atom_site_label
_atom_site_fract_x
_atom_site_fract_y
_atom_site_fract_z
Si Si1 0.499999 0.540440 0.674987
Si Si2 0.421514 0.194108 0.208025
Si Si3 0.217936 0.971758 0.117663
Si Si4 0.584964 0.847534 0.035690
Si Si5 0.596575 0.768563 0.463741
Si Si6 0.240029 0.035188 0.789393
Si Si7 0.712638 0.191121 0.607554
O O1 0.590016 0.674927 0.688459
O O2 0.585978 0.604233 0.530767
O O3 0.705889 0.368963 0.559826
O O4 0.113121 0.520868 0.940626
O O5 0.073236 0.140527 0.398884
O O6 0.669354 0.046614 0.009971
O O7 0.524115 0.385832 0.112527
O O8 0.334823 0.882357 0.124819
O O9 0.875924 0.902299 0.309272
O O10 0.204309 0.181777 0.131472
O O11 0.446053 0.761651 0.207014
O O12 0.685822 0.701888 0.316879
O O13 0.278801 0.871111 0.702974
O O14 0.498723 0.055963 0.694480
#
# Coordination Sequence:
#
# PCOD9119373 Si02
#       7
#     2   2   2   2   2   2   2
#     4  11  26  52  78 108 157 203 265 325 394 471
#     4  11  25  48  74 113 157 203 259 323 391 461
#     4  12  25  46  75 116 156 200 260 319 388 473
#     4  11  26  44  74 111 159 200 253 320 391 455
#     4  12  28  49  79 110 155 205 266 325 394 470
#     4  12  27  50  76 112 155 207 266 321 395 474
#     4  11  27  47  74 112 153 208 263 325 395 462
#
# _framework density 26.966992999999999
#
# number of rings (size 3 to 8) (size 9 to 14) (size 15 to 20)
#    0.000    0.571    2.857    3.429    8.000    4.571 
#    0.000    0.000    0.000    0.000    0.000    0.000 
#    0.000    0.000    0.000    0.000    0.000    0.000 
#
# Total GULP energy -78423.688430 kJ/mol
# GULP energy per Si atom -5601.692031 kJ/mol
# Density = 2.690562 g / cm^3
# Si number density = 26.966993 Si / 1000 Ang^3
#
#
#
# Elastic Constant Matrix: (Units=GPa)
#
#
# Indices 1 2 3 4 5 6 
#
# 1 114.9743 19.5016 29.9889 0.0000 27.6885 0.0000
# 2 19.5016 135.5364 14.9551 0.0000 8.3085 0.0000
# 3 29.9889 14.9551 111.4223 0.0000 -2.1879 0.0000
# 4 0.0000 0.0000 0.0000 50.4352 0.0000 11.1381
# 5 27.6885 8.3085 -2.1879 0.0000 32.8245 0.0000
# 6 0.0000 0.0000 0.0000 11.1381 0.0000 47.9801
#
#
#
# Elastic Compliance Matrix: (Units=1/GPa)
#
#
# Indices 1 2 3 4 5 6 
#
# 1 0.012193 -0.000748 -0.003384 0.000000 -0.010321 0.000000
# 2 -0.000748 0.007664 -0.000854 0.000000 -0.001366 0.000000
# 3 -0.003384 -0.000854 0.010074 0.000000 0.003742 0.000000
# 4 0.000000 0.000000 0.000000 0.020899 0.000000 -0.004851
# 5 -0.010321 -0.001366 0.003742 0.000000 0.039766 0.000000
# 6 0.000000 0.000000 0.000000 -0.004851 0.000000 0.021968
#
#
# Mechanical properties :
#
#
# Convention : Reuss Voigt Hill
#
# Bulk Modulus (GPa) = 50.10579 54.53605 52.32092
# Shear Modulus (GPa) = 38.70316 46.08043 42.39179
#
# Velocity S-wave (km/s) = 3.79252 4.13821 3.96913
# Velocity P-wave (km/s) = 6.14804 6.56508 6.35998
#
# Compressibility (1/GPa) = 0.01995777
#
# Stress axis : x y z
#
# Youngs Moduli (GPa) = 82.01631 130.48524 99.26816
#
# Poissons Ratio (x) = 0.09764 0.33591
# Poissons Ratio (y) = 0.06137 0.08478
# Poissons Ratio (z) = 0.27753 0.11144
#
# Static dielectric constant tensor:
#      x y z
#    x 2.069590 0.000000 0.022260 
#    y 0.000000 2.176490 0.000000 
#    z 0.022260 0.000000 2.134760 
# 
# From -- ./inp_files/15147.got.cif
#   From: 2010.05.17/outbox.cif.g08.bks.cpg/sg4_8_cif.got.tgz:15147.got - 2010.06.03 18:43:04.
