data_PCOD9119869
_publ_section_title
;
Structure prediction by ZEFSAII (Michael W. Deem and Ramdas Pophale) SiO2 
 PCOD9119869
Probable space group: P 21
;
_chemical_formula_sum "Si O2"
_cell_formula_units_Z 16
_cell_length_a 15.000000
_cell_length_b 9.000000
_cell_length_c 12.000000
_cell_angle_alpha 90.000000
_cell_angle_beta 150.000000
_cell_angle_gamma 90.000000
_cell_volume 810.000000
_symmetry_space_group_name_H-M "P 21"
_symmetry_group_IT_number 4
_symmetry_cell_setting 'monoclinic'
loop_
_space_group_symop_operation_xyz
x,y,z
-x,1/2+y,-z
loop_
_atom_site_type_symbol
_atom_site_label
_atom_site_fract_x
_atom_site_fract_y
_atom_site_fract_z
Si Si1 0.219930 0.074230 0.331548
Si Si2 0.065122 0.178632 0.933385
Si Si3 0.289407 0.726746 0.343892
Si Si4 0.702716 0.036912 0.111782
Si Si5 0.589687 0.265234 0.190981
Si Si6 0.596434 0.223759 0.780057
Si Si7 0.040942 0.938904 0.338227
Si Si8 0.588871 0.573302 0.803103
O O1 0.136054 0.163149 0.136676
O O2 0.408080 0.148517 0.553907
O O3 0.255679 0.901575 0.333739
O O4 0.110625 0.069668 0.330288
O O5 0.200899 0.088317 0.001217
O O6 0.857180 0.143193 0.736453
O O7 0.062355 0.333774 0.862899
O O8 0.286256 0.710270 0.206530
O O9 0.479157 0.661973 0.588651
O O10 0.656951 0.157137 0.161593
O O11 0.668394 0.130770 0.962067
O O12 0.906005 0.976409 0.296558
O O13 0.563164 0.898166 0.983245
O O14 0.774949 0.350750 0.427616
O O15 0.492040 0.154043 0.174498
O O16 0.561548 0.396622 0.770879
#
# Coordination Sequence:
#
# PCOD9119869 Si02
#       8
#     2   2   2   2   2   2   2   2
#     4  11  22  42  68 106 143 185 232 278 354 431
#     4  11  22  39  69 103 139 189 220 285 356 423
#     4  11  22  41  66  99 146 188 225 285 352 423
#     4  12  27  49  78  97 139 191 235 302 348 408
#     4  12  26  52  73 104 134 188 246 289 359 407
#     4  12  23  42  69 105 141 183 236 287 350 425
#     4  11  25  48  72 102 148 183 235 295 352 425
#     4  12  23  43  67 100 140 183 231 289 353 418
#
# _framework density 19.753086
#
# number of rings (size 3 to 8) (size 9 to 14) (size 15 to 20)
#    0.000    0.500    7.500    1.500    0.000    4.000 
#    6.750    0.000    0.000    0.000    0.000    0.000 
#    0.000    0.000    0.000    0.000    0.000    0.000 
#
# Total GULP energy -89077.464261 kJ/mol
# GULP energy per Si atom -5567.341516 kJ/mol
# Density = 1.970813 g / cm^3
# Si number density = 19.753086 Si / 1000 Ang^3
#
#
#
# Elastic Constant Matrix: (Units=GPa)
#
#
# Indices 1 2 3 4 5 6 
#
# 1 161.2961 87.4049 22.2670 0.0000 27.7706 0.0000
# 2 87.4049 23.5728 49.2091 0.0000 -8.5546 0.0000
# 3 22.2670 49.2091 51.0494 0.0000 22.0538 0.0000
# 4 0.0000 0.0000 0.0000 25.4577 0.0000 -5.1079
# 5 27.7706 -8.5546 22.0538 0.0000 33.6710 0.0000
# 6 0.0000 0.0000 0.0000 -5.1079 0.0000 36.8707
#
#
#
# Elastic Compliance Matrix: (Units=1/GPa)
#
#
# Indices 1 2 3 4 5 6 
#
# 1 0.003751 0.005462 -0.008597 0.000000 0.003925 0.000000
# 2 0.005462 -0.008527 0.012160 0.000000 -0.014636 0.000000
# 3 -0.008597 0.012160 0.010068 0.000000 0.003586 0.000000
# 4 0.000000 0.000000 0.000000 0.040404 0.000000 0.005597
# 5 0.003925 -0.014636 0.003586 0.000000 0.020395 0.000000
# 6 0.000000 0.000000 0.000000 0.005597 0.000000 0.027897
#
#
# Mechanical properties :
#
#
# Convention : Reuss Voigt Hill
#
# Bulk Modulus (GPa) = 42.84017 61.52001 52.18009
# Shear Modulus (GPa) = 59.72466 24.33570 42.03018
#
# Velocity S-wave (km/s) = 5.50466 3.51379 4.61779
# Velocity P-wave (km/s) = 7.88268 6.90466 7.40982
#
# Compressibility (1/GPa) = 0.02334258
#
# Stress axis : x y z
#
# Youngs Moduli (GPa) = 266.59347 -117.27157 99.32811
#
# Poissons Ratio (x) = 0.64054 0.85390
# Poissons Ratio (y) = -1.45613 -1.20786
# Poissons Ratio (z) = 2.29184 1.42606
#
# Static dielectric constant tensor:
#      x y z
#    x 1.721090 0.000000 -0.003680 
#    y 0.000000 1.748200 0.000000 
#    z -0.003680 0.000000 1.772370 
# 
# From -- ./inp_files/12632.got.cif
#   From: 2010.05.17/outbox.ucp.g08.bks.cvg/sg4_7_cif.got.tgz:12632.got - 2010.06.11 12:51:24.
