data_PCOD9119150
_publ_section_title
;
Structure prediction by ZEFSAII (Michael W. Deem and Ramdas Pophale) SiO2 
 PCOD9119150
Probable space group: P 21
;
_chemical_formula_sum "Si O2"
_cell_formula_units_Z 14
_cell_length_a 6.811000
_cell_length_b 6.838974
_cell_length_c 20.405376
_cell_angle_alpha 90.000000
_cell_angle_beta 133.714228
_cell_angle_gamma 90.000000
_cell_volume 687.008184
_symmetry_space_group_name_H-M "P 21"
_symmetry_group_IT_number 4
_symmetry_cell_setting 'monoclinic'
loop_
_space_group_symop_operation_xyz
x,y,z
-x,1/2+y,-z
loop_
_atom_site_type_symbol
_atom_site_label
_atom_site_fract_x
_atom_site_fract_y
_atom_site_fract_z
Si Si1 0.852328 0.064770 0.521737
Si Si2 0.517011 0.510167 0.919447
Si Si3 0.849636 0.350109 0.117150
Si Si4 0.743489 0.402357 0.598971
Si Si5 0.125503 0.696477 0.622492
Si Si6 0.311449 0.038397 0.189026
Si Si7 0.016579 0.745955 0.210904
O O1 0.801245 0.258240 0.552024
O O2 0.910528 0.117344 0.459992
O O3 0.572423 0.942596 0.461827
O O4 0.084736 0.928754 0.606748
O O5 0.649612 0.505127 0.878804
O O6 0.273375 0.352537 0.864813
O O7 0.382972 0.721987 0.901441
O O8 0.722770 0.457098 0.024823
O O9 0.976000 0.516389 0.192147
O O10 0.077394 0.196684 0.147989
O O11 0.898397 0.602832 0.617311
O O12 0.869778 0.305755 0.692446
O O13 0.412302 0.622657 0.716003
O O14 0.218706 0.840759 0.204120
#
# Coordination Sequence:
#
# PCOD9119150 Si02
#       7
#     2   2   2   2   2   2   2
#     4  12  26  42  71  97 134 182 222 273 336 395
#     4  11  24  46  67 100 138 175 215 278 330 395
#     4  11  26  43  69 101 133 175 226 266 334 403
#     4  12  25  43  69  99 136 177 222 278 333 392
#     4  12  25  45  65 103 138 170 228 278 331 391
#     4  11  27  42  69 100 137 171 221 282 325 398
#     4  11  25  45  68  98 136 176 220 273 335 396
#
# _framework density 20.378214
#
# number of rings (size 3 to 8) (size 9 to 14) (size 15 to 20)
#    0.000    0.571    7.143    0.000    4.000    4.571 
#    0.000    0.000    0.000    0.000    0.000    0.000 
#    0.000    0.000    0.000    0.000    0.000    0.000 
#
# Total GULP energy -78344.167069 kJ/mol
# GULP energy per Si atom -5596.011934 kJ/mol
# Density = 2.033183 g / cm^3
# Si number density = 20.378214 Si / 1000 Ang^3
#
#
#
# Elastic Constant Matrix: (Units=GPa)
#
#
# Indices 1 2 3 4 5 6 
#
# 1 82.7296 7.8646 2.2468 0.0000 -20.7369 0.0000
# 2 7.8646 52.2715 -17.1813 0.0000 3.2841 0.0000
# 3 2.2468 -17.1813 40.4278 0.0000 -8.1678 0.0000
# 4 0.0000 0.0000 0.0000 31.7004 0.0000 1.4047
# 5 -20.7369 3.2841 -8.1678 0.0000 34.2277 0.0000
# 6 0.0000 0.0000 0.0000 1.4047 0.0000 21.7692
#
#
#
# Elastic Compliance Matrix: (Units=1/GPa)
#
#
# Indices 1 2 3 4 5 6 
#
# 1 0.014643 -0.002834 -0.000180 0.000000 0.009101 0.000000
# 2 -0.002834 0.022786 0.009511 0.000000 -0.001634 0.000000
# 3 -0.000180 0.009511 0.030029 0.000000 0.006144 0.000000
# 4 0.000000 0.000000 0.000000 0.031636 0.000000 -0.002041
# 5 0.009101 -0.001634 0.006144 0.000000 0.036353 0.000000
# 6 0.000000 0.000000 0.000000 -0.002041 0.000000 0.046068
#
#
# Mechanical properties :
#
#
# Convention : Reuss Voigt Hill
#
# Bulk Modulus (GPa) = 12.42949 17.92102 15.17526
# Shear Modulus (GPa) = 25.59678 29.70605 27.65142
#
# Velocity S-wave (km/s) = 3.54797 3.82217 3.68762
# Velocity P-wave (km/s) = 4.78506 5.31902 5.05909
#
# Compressibility (1/GPa) = 0.08045385
#
# Stress axis : x y z
#
# Youngs Moduli (GPa) = 68.29215 43.88620 33.30110
#
# Poissons Ratio (x) = 0.12437 0.00598
# Poissons Ratio (y) = 0.19354 -0.31674
# Poissons Ratio (z) = 0.01226 -0.41742
#
# Static dielectric constant tensor:
#      x y z
#    x 1.693770 0.000000 0.013460 
#    y 0.000000 1.718880 0.000000 
#    z 0.013460 0.000000 1.698840 
# 
# From -- ./inp_files/3298.got.cif
#   From: 2010.05.17/outbox.cif.g08.bks.cpg/sg4_2_cif.got.tgz:3298.got - 2010.06.03 18:43:04.
