data_PCOD9119579
_publ_section_title
;
Structure prediction by ZEFSAII (Michael W. Deem and Ramdas Pophale) SiO2 
 PCOD9119579
Probable space group: P 21
;
_chemical_formula_sum "Si O2"
_cell_formula_units_Z 16
_cell_length_a 11.077001
_cell_length_b 9.406340
_cell_length_c 6.931466
_cell_angle_alpha 90.000000
_cell_angle_beta 93.331728
_cell_angle_gamma 90.000000
_cell_volume 720.996728
_symmetry_space_group_name_H-M "P 21"
_symmetry_group_IT_number 4
_symmetry_cell_setting 'monoclinic'
loop_
_space_group_symop_operation_xyz
x,y,z
-x,1/2+y,-z
loop_
_atom_site_type_symbol
_atom_site_label
_atom_site_fract_x
_atom_site_fract_y
_atom_site_fract_z
Si Si1 0.074867 0.287290 0.431901
Si Si2 0.162222 0.778178 0.340086
Si Si3 0.257777 0.407332 0.767849
Si Si4 0.368468 0.125368 0.906849
Si Si5 0.535969 0.110176 0.280215
Si Si6 0.397500 0.906599 0.561250
Si Si7 0.872005 0.562129 0.872664
Si Si8 0.893172 0.017120 0.886950
O O1 0.169112 0.348337 0.595600
O O2 0.124307 0.149118 0.326403
O O3 0.059224 0.405110 0.264879
O O4 0.950149 0.254072 0.527472
O O5 0.274414 0.843567 0.463356
O O6 0.187979 0.632302 0.231542
O O7 0.124894 0.896719 0.180428
O O8 0.354725 0.283673 0.821066
O O9 0.327877 0.549786 0.713792
O O10 0.181429 0.440177 0.952594
O O11 0.375102 0.009081 0.740279
O O12 0.480806 0.112024 0.061222
O O13 0.247278 0.098815 0.019991
O O14 0.527923 0.268404 0.364776
O O15 0.462110 0.001244 0.405951
O O16 0.991833 0.594693 0.006673
#
# Coordination Sequence:
#
# PCOD9119579 Si02
#       8
#     2   2   2   2   2   2   2   2
#     4  12  25  48  73 108 149 193 240 299 377 435
#     4  12  25  44  76 107 147 190 238 301 366 441
#     4  12  27  47  75 106 145 197 242 302 367 434
#     4  12  26  49  73 103 142 194 246 300 363 431
#     4  12  29  47  75 105 144 194 246 308 357 432
#     4  12  28  49  75 107 145 192 248 303 366 432
#     4  12  24  45  73 106 146 191 239 296 368 436
#     4  12  26  45  70 112 150 187 241 303 368 441
#
# _framework density 22.191503000000001
#
# number of rings (size 3 to 8) (size 9 to 14) (size 15 to 20)
#    0.000    0.000    3.750    6.000    5.250    4.000 
#    0.000    0.000    0.000    0.000    0.000    0.000 
#    0.000    0.000    0.000    0.000    0.000    0.000 
#
# Total GULP energy -89703.713313 kJ/mol
# GULP energy per Si atom -5606.482082 kJ/mol
# Density = 2.214099 g / cm^3
# Si number density = 22.191503 Si / 1000 Ang^3
#
#
#
# Elastic Constant Matrix: (Units=GPa)
#
#
# Indices 1 2 3 4 5 6 
#
# 1 57.1202 0.1621 25.5885 0.0000 6.4976 0.0000
# 2 0.1621 101.7143 29.8274 0.0000 -2.3352 0.0000
# 3 25.5885 29.8274 105.9798 0.0000 8.6459 0.0000
# 4 0.0000 0.0000 0.0000 57.6158 0.0000 0.2157
# 5 6.4976 -2.3352 8.6459 0.0000 35.1012 0.0000
# 6 0.0000 0.0000 0.0000 0.2157 0.0000 29.9055
#
#
#
# Elastic Compliance Matrix: (Units=1/GPa)
#
#
# Indices 1 2 3 4 5 6 
#
# 1 0.020028 0.001389 -0.005033 0.000000 -0.002375 0.000000
# 2 0.001389 0.010889 -0.003509 0.000000 0.001331 0.000000
# 3 -0.005033 -0.003509 0.011819 0.000000 -0.002213 0.000000
# 4 0.000000 0.000000 0.000000 0.017357 0.000000 -0.000125
# 5 -0.002375 0.001331 -0.002213 0.000000 0.029562 0.000000
# 6 0.000000 0.000000 0.000000 -0.000125 0.000000 0.033440
#
#
# Mechanical properties :
#
#
# Convention : Reuss Voigt Hill
#
# Bulk Modulus (GPa) = 35.17259 41.77447 38.47353
# Shear Modulus (GPa) = 34.04239 38.47359 36.25799
#
# Velocity S-wave (km/s) = 3.92092 4.16830 4.04650
# Velocity P-wave (km/s) = 6.03176 6.48319 6.26154
#
# Compressibility (1/GPa) = 0.02843123
#
# Stress axis : x y z
#
# Youngs Moduli (GPa) = 49.93049 91.83818 84.60971
#
# Poissons Ratio (x) = -0.12760 0.42584
# Poissons Ratio (y) = -0.06938 0.29687
# Poissons Ratio (z) = 0.25130 0.32223
#
# Static dielectric constant tensor:
#      x y z
#    x 1.787480 0.000000 0.019600 
#    y 0.000000 1.806400 0.000000 
#    z 0.019600 0.000000 1.790080 
# 
# From -- ./inp_files/2568.got.cif
#   From: 2010.05.17/outbox.cif.g08.bks.cpg/sg4_2_cif.got.tgz:2568.got - 2010.06.03 18:43:04.
