data_PCOD9119545
_publ_section_title
;
Structure prediction by ZEFSAII (Michael W. Deem and Ramdas Pophale) SiO2 
 PCOD9119545
Probable space group: P 21
;
_chemical_formula_sum "Si O2"
_cell_formula_units_Z 16
_cell_length_a 16.304609
_cell_length_b 5.988805
_cell_length_c 7.148464
_cell_angle_alpha 90.000000
_cell_angle_beta 77.007680
_cell_angle_gamma 90.000000
_cell_volume 680.143675
_symmetry_space_group_name_H-M "P 21"
_symmetry_group_IT_number 4
_symmetry_cell_setting 'monoclinic'
loop_
_space_group_symop_operation_xyz
x,y,z
-x,1/2+y,-z
loop_
_atom_site_type_symbol
_atom_site_label
_atom_site_fract_x
_atom_site_fract_y
_atom_site_fract_z
Si Si1 0.657963 0.226550 0.747258
Si Si2 0.350154 0.411878 0.934889
Si Si3 0.881896 0.382144 0.127572
Si Si4 0.890323 0.829172 0.494407
Si Si5 0.242646 0.572408 0.646560
Si Si6 0.038119 0.613519 0.232015
Si Si7 0.496764 0.843324 0.400232
Si Si8 0.787050 0.574538 0.838616
O O1 0.699427 0.076630 0.564695
O O2 0.589417 0.371395 0.672601
O O3 0.733205 0.358658 0.809501
O O4 0.614324 0.081761 0.930044
O O5 0.295145 0.533351 0.804754
O O6 0.425677 0.302843 0.780959
O O7 0.285009 0.254198 0.077615
O O8 0.807853 0.301895 0.299749
O O9 0.963356 0.451236 0.202370
O O10 0.844246 0.551853 0.994539
O O11 0.911767 0.183191 0.976464
O O12 0.982713 0.802806 0.360871
O O13 0.849003 0.632944 0.636413
O O14 0.827905 0.888837 0.359742
O O15 0.899367 0.019461 0.645933
O O16 0.489816 0.595411 0.511157
#
# Coordination Sequence:
#
# PCOD9119545 Si02
#       8
#     2   2   2   2   2   2   2   2
#     4  12  28  51  78 115 157 203 262 315 397 475
#     4  12  28  51  78 115 157 203 262 315 397 475
#     4  12  24  43  69 104 147 198 257 323 391 465
#     4  12  24  43  69 104 147 198 257 323 391 465
#     4  12  24  49  72 107 154 196 260 321 386 473
#     4  12  24  42  66 104 146 194 256 322 394 460
#     4  12  32  54  88 122 168 212 260 324 400 476
#     4  12  26  45  76 109 150 206 258 321 394 465
#
# _framework density 23.524440999999999
#
# number of rings (size 3 to 8) (size 9 to 14) (size 15 to 20)
#    0.000    0.000    3.750    6.000    8.750    0.000 
#    0.000    0.000    0.000    0.000    0.000    0.000 
#    0.000    0.000    0.000    0.000    0.000    0.000 
#
# Total GULP energy -89446.891751 kJ/mol
# GULP energy per Si atom -5590.430734 kJ/mol
# Density = 2.347090 g / cm^3
# Si number density = 23.524441 Si / 1000 Ang^3
#
#
#
# Elastic Constant Matrix: (Units=GPa)
#
#
# Indices 1 2 3 4 5 6 
#
# 1 83.8785 8.9029 18.8466 0.0000 -2.9402 0.0000
# 2 8.9029 46.4218 30.6439 0.0000 5.9346 0.0000
# 3 18.8466 30.6439 112.1532 0.0000 7.6234 0.0000
# 4 0.0000 0.0000 0.0000 35.5024 0.0000 3.0302
# 5 -2.9402 5.9346 7.6234 0.0000 31.1015 0.0000
# 6 0.0000 0.0000 0.0000 3.0302 0.0000 38.1843
#
#
#
# Elastic Compliance Matrix: (Units=1/GPa)
#
#
# Indices 1 2 3 4 5 6 
#
# 1 0.012557 -0.001432 -0.001849 0.000000 0.001913 0.000000
# 2 -0.001432 0.026785 -0.006835 0.000000 -0.003571 0.000000
# 3 -0.001849 -0.006835 0.011205 0.000000 -0.001617 0.000000
# 4 0.000000 0.000000 0.000000 0.028359 0.000000 -0.002251
# 5 0.001913 -0.003571 -0.001617 0.000000 0.033411 0.000000
# 6 0.000000 0.000000 0.000000 -0.002251 0.000000 0.026367
#
#
# Mechanical properties :
#
#
# Convention : Reuss Voigt Hill
#
# Bulk Modulus (GPa) = 32.98862 39.91559 36.45211
# Shear Modulus (GPa) = 29.58222 33.22832 31.40527
#
# Velocity S-wave (km/s) = 3.54999 3.76240 3.65774
# Velocity P-wave (km/s) = 5.55489 5.98989 5.77649
#
# Compressibility (1/GPa) = 0.03031348
#
# Stress axis : x y z
#
# Youngs Moduli (GPa) = 79.63998 37.33469 89.24984
#
# Poissons Ratio (x) = 0.05348 0.16500
# Poissons Ratio (y) = 0.11407 0.61003
# Poissons Ratio (z) = 0.14723 0.25518
#
# Static dielectric constant tensor:
#      x y z
#    x 1.877550 0.000000 -0.010590 
#    y 0.000000 2.003020 0.000000 
#    z -0.010590 0.000000 1.884700 
# 
# From -- ./inp_files/3990.got.cif
#   From: 2010.05.17/outbox.cif.g08.bks.cpg/sg4_2_cif.got.tgz:3990.got - 2010.06.03 18:43:04.
