data_PCOD9119823
_publ_section_title
;
Structure prediction by ZEFSAII (Michael W. Deem and Ramdas Pophale) SiO2 
 PCOD9119823
Probable space group: P 21
;
_chemical_formula_sum "Si O2"
_cell_formula_units_Z 16
_cell_length_a 9.000000
_cell_length_b 12.000000
_cell_length_c 6.000000
_cell_angle_alpha 90.000000
_cell_angle_beta 80.000000
_cell_angle_gamma 90.000000
_cell_volume 638.155424
_symmetry_space_group_name_H-M "P 21"
_symmetry_group_IT_number 4
_symmetry_cell_setting 'monoclinic'
loop_
_space_group_symop_operation_xyz
x,y,z
-x,1/2+y,-z
loop_
_atom_site_type_symbol
_atom_site_label
_atom_site_fract_x
_atom_site_fract_y
_atom_site_fract_z
Si Si1 0.321037 0.359850 0.760095
Si Si2 0.818820 0.193084 0.657915
Si Si3 0.478916 0.804398 0.911970
Si Si4 0.915280 0.459483 0.633646
Si Si5 0.046160 0.431802 0.099876
Si Si6 0.300304 0.161609 0.452745
Si Si7 0.555057 0.026758 0.640036
Si Si8 0.145981 0.709999 0.867412
O O1 0.219142 0.409680 0.985074
O O2 0.242507 0.260545 0.635154
O O3 0.361604 0.456960 0.576937
O O4 0.472077 0.314513 0.841991
O O5 0.838450 0.331736 0.655957
O O6 0.664256 0.120651 0.712879
O O7 0.859943 0.164586 0.386684
O O8 0.893336 0.154109 0.879030
O O9 0.605250 0.727468 0.760152
O O10 0.317138 0.755020 0.875477
O O11 0.491288 0.930961 0.818676
O O12 0.809234 0.567852 0.620139
O O13 0.980091 0.475975 0.871618
O O14 0.015871 0.461941 0.373948
O O15 0.967532 0.311387 0.118721
O O16 0.416141 0.090700 0.568434
#
# Coordination Sequence:
#
# PCOD9119823 Si02
#       8
#     2   2   2   2   2   2   2   2
#     4  11  28  46  69 111 150 190 247 312 364 438
#     4  10  21  42  67 103 134 183 239 295 354 427
#     4  11  25  42  74 101 149 188 245 308 361 432
#     4  10  24  46  76 102 142 194 246 292 367 444
#     4  10  24  48  72 100 149 189 243 293 366 435
#     4  11  25  45  74 107 144 196 246 306 367 441
#     4  11  24  42  70 106 146 187 242 303 369 425
#     4  10  21  43  70  98 136 191 234 291 352 436
#
# _framework density 25.072261999999998
#
# number of rings (size 3 to 8) (size 9 to 14) (size 15 to 20)
#    0.000    1.500    1.250    2.250   14.000    1.000 
#    9.000    0.000    0.000    0.000    0.000    0.000 
#    0.000    0.000    0.000    0.000    0.000    0.000 
#
# Total GULP energy -89371.460249 kJ/mol
# GULP energy per Si atom -5585.716266 kJ/mol
# Density = 2.501520 g / cm^3
# Si number density = 25.072262 Si / 1000 Ang^3
#
#
#
# Elastic Constant Matrix: (Units=GPa)
#
#
# Indices 1 2 3 4 5 6 
#
# 1 70.1211 19.1008 20.3566 0.0000 15.7110 0.0000
# 2 19.1008 110.8174 42.7828 0.0000 4.8428 0.0000
# 3 20.3566 42.7828 155.5617 0.0000 25.3629 0.0000
# 4 0.0000 0.0000 0.0000 47.5007 0.0000 -15.7689
# 5 15.7110 4.8428 25.3629 0.0000 53.4949 0.0000
# 6 0.0000 0.0000 0.0000 -15.7689 0.0000 21.3651
#
#
#
# Elastic Compliance Matrix: (Units=1/GPa)
#
#
# Indices 1 2 3 4 5 6 
#
# 1 0.016037 -0.002275 -0.000800 0.000000 -0.004125 0.000000
# 2 -0.002275 0.010428 -0.002737 0.000000 0.001022 0.000000
# 3 -0.000800 -0.002737 0.007811 0.000000 -0.003220 0.000000
# 4 0.000000 0.000000 0.000000 0.027885 0.000000 0.020581
# 5 -0.004125 0.001022 -0.003220 0.000000 0.021339 0.000000
# 6 0.000000 0.000000 0.000000 0.020581 0.000000 0.061995
#
#
# Mechanical properties :
#
#
# Convention : Reuss Voigt Hill
#
# Bulk Modulus (GPa) = 44.14714 55.66451 49.90583
# Shear Modulus (GPa) = 30.36378 41.42280 35.89329
#
# Velocity S-wave (km/s) = 3.48379 4.06906 3.78775
# Velocity P-wave (km/s) = 5.81623 6.65779 6.25119
#
# Compressibility (1/GPa) = 0.02265152
#
# Stress axis : x y z
#
# Youngs Moduli (GPa) = 62.35490 95.89666 128.02796
#
# Poissons Ratio (x) = 0.21816 0.10249
# Poissons Ratio (y) = 0.14185 0.35038
# Poissons Ratio (z) = 0.04991 0.26245
#
# Static dielectric constant tensor:
#      x y z
#    x 2.028790 0.000000 -0.027280 
#    y 0.000000 2.010030 0.000000 
#    z -0.027280 0.000000 2.023460 
# 
# From -- ./inp_files/1408.got.cif
#   From: 2010.05.17/outbox.ucp.g08.bks.cvg/sg4_1_cif.got.tgz:1408.got - 2010.06.11 12:51:24.
