data_PCOD9119255
_publ_section_title
;
Structure prediction by ZEFSAII (Michael W. Deem and Ramdas Pophale) SiO2 
 PCOD9119255
Probable space group: P 21
;
_chemical_formula_sum "Si O2"
_cell_formula_units_Z 16
_cell_length_a 9.339572
_cell_length_b 9.301829
_cell_length_c 7.206862
_cell_angle_alpha 90.000000
_cell_angle_beta 108.056450
_cell_angle_gamma 90.000000
_cell_volume 595.262600
_symmetry_space_group_name_H-M "P 21"
_symmetry_group_IT_number 4
_symmetry_cell_setting 'monoclinic'
loop_
_space_group_symop_operation_xyz
x,y,z
-x,1/2+y,-z
loop_
_atom_site_type_symbol
_atom_site_label
_atom_site_fract_x
_atom_site_fract_y
_atom_site_fract_z
Si Si1 0.297915 0.539460 0.383996
Si Si2 0.003417 0.151166 0.567447
Si Si3 0.339340 0.192696 0.030479
Si Si4 0.894003 0.904156 0.998284
Si Si5 0.191402 0.026673 0.312638
Si Si6 0.535518 0.323863 0.602023
Si Si7 0.589596 0.388666 0.053338
Si Si8 0.924066 0.372152 0.261418
O O1 0.169451 0.589543 0.479380
O O2 0.214467 0.516985 0.151369
O O3 0.379699 0.392821 0.473535
O O4 0.427144 0.658870 0.421912
O O5 0.972779 0.312422 0.481213
O O6 0.127266 0.106462 0.464367
O O7 0.067039 0.045620 0.754628
O O8 0.207008 0.301897 0.912530
O O9 0.276099 0.117130 0.188521
O O10 0.475149 0.300739 0.132341
O O11 0.400801 0.061831 0.929093
O O12 0.966256 0.816236 0.854658
O O13 0.040559 0.960927 0.159629
O O14 0.317280 0.908491 0.416234
O O15 0.539505 0.352071 0.824498
O O16 0.755909 0.329159 0.150737
#
# Coordination Sequence:
#
# PCOD9119255 Si02
#       8
#     2   2   2   2   2   2   2   2
#     4  11  29  48  76 112 158 201 254 320 397 454
#     4  11  26  45  77 113 149 195 253 324 384 451
#     4  11  26  47  76 115 151 201 260 321 387 454
#     4  11  25  47  79 111 151 200 257 327 384 458
#     4  11  25  47  80 110 152 196 265 319 388 463
#     4  11  27  50  73 113 153 206 251 318 391 463
#     4  11  28  49  78 114 153 209 263 317 390 480
#     4  11  24  49  75 110 153 196 259 320 387 457
#
# _framework density 26.878895
#
# number of rings (size 3 to 8) (size 9 to 14) (size 15 to 20)
#    0.000    1.000    3.750    0.750   14.000    2.000 
#    2.250    0.000    0.000    0.000    0.000    0.000 
#    0.000    0.000    0.000    0.000    0.000    0.000 
#
# Total GULP energy -89452.591612 kJ/mol
# GULP energy per Si atom -5590.786976 kJ/mol
# Density = 2.681772 g / cm^3
# Si number density = 26.878895 Si / 1000 Ang^3
#
#
#
# Elastic Constant Matrix: (Units=GPa)
#
#
# Indices 1 2 3 4 5 6 
#
# 1 113.8797 58.5324 11.1475 0.0000 8.5834 0.0000
# 2 58.5324 119.4916 11.0919 0.0000 5.9051 0.0000
# 3 11.1475 11.0919 62.5735 0.0000 4.2573 0.0000
# 4 0.0000 0.0000 0.0000 31.9470 0.0000 -4.1001
# 5 8.5834 5.9051 4.2573 0.0000 41.1917 0.0000
# 6 0.0000 0.0000 0.0000 -4.1001 0.0000 58.5548
#
#
#
# Elastic Compliance Matrix: (Units=1/GPa)
#
#
# Indices 1 2 3 4 5 6 
#
# 1 0.011908 -0.005662 -0.001011 0.000000 -0.001565 0.000000
# 2 -0.005662 0.011248 -0.000962 0.000000 -0.000333 0.000000
# 3 -0.001011 -0.000962 0.016424 0.000000 -0.001349 0.000000
# 4 0.000000 0.000000 0.000000 0.031586 0.000000 0.002212
# 5 -0.001565 -0.000333 -0.001349 0.000000 0.024790 0.000000
# 6 0.000000 0.000000 0.000000 0.002212 0.000000 0.017233
#
#
# Mechanical properties :
#
#
# Convention : Reuss Voigt Hill
#
# Bulk Modulus (GPa) = 41.13785 50.83204 45.98495
# Shear Modulus (GPa) = 36.61302 40.68355 38.64829
#
# Velocity S-wave (km/s) = 3.69473 3.89471 3.79604
# Velocity P-wave (km/s) = 5.79133 6.25920 6.02980
#
# Compressibility (1/GPa) = 0.02430852
#
# Stress axis : x y z
#
# Youngs Moduli (GPa) = 83.97458 88.90378 60.88745
#
# Poissons Ratio (x) = 0.50338 0.06158
# Poissons Ratio (y) = 0.47547 0.05860
# Poissons Ratio (z) = 0.08493 0.08557
#
# Static dielectric constant tensor:
#      x y z
#    x 2.087370 0.000000 0.015460 
#    y 0.000000 2.173820 0.000000 
#    z 0.015460 0.000000 2.185040 
# 
# From -- ./inp_files/5510.got.cif
#   From: 2010.05.17/outbox.cif.g08.bks.cpg/sg4_3_cif.got.tgz:5510.got - 2010.06.03 18:43:04.
