data_PCOD9119763
_publ_section_title
;
Structure prediction by ZEFSAII (Michael W. Deem and Ramdas Pophale) SiO2 
 PCOD9119763
Probable space group: P 21
;
_chemical_formula_sum "Si O2"
_cell_formula_units_Z 14
_cell_length_a 5.698344
_cell_length_b 7.834780
_cell_length_c 13.094093
_cell_angle_alpha 90.000000
_cell_angle_beta 92.215126
_cell_angle_gamma 90.000000
_cell_volume 584.152502
_symmetry_space_group_name_H-M "P 21"
_symmetry_group_IT_number 4
_symmetry_cell_setting 'monoclinic'
loop_
_space_group_symop_operation_xyz
x,y,z
-x,1/2+y,-z
loop_
_atom_site_type_symbol
_atom_site_label
_atom_site_fract_x
_atom_site_fract_y
_atom_site_fract_z
Si Si1 0.542090 0.878520 0.710304
Si Si2 0.476364 0.892876 0.368779
Si Si3 0.289358 0.515763 0.095262
Si Si4 0.230926 0.061150 0.198901
Si Si5 0.739614 0.682897 0.517305
Si Si6 0.856740 0.190157 0.355053
Si Si7 0.792671 0.384230 0.010607
O O1 0.582773 0.713387 0.785846
O O2 0.655862 0.818754 0.604679
O O3 0.267531 0.865045 0.681121
O O4 0.658687 0.021801 0.781373
O O5 0.345029 0.900432 0.259736
O O6 0.308357 0.992890 0.444383
O O7 0.683433 0.032146 0.366285
O O8 0.591733 0.724763 0.415415
O O9 0.243722 0.694589 0.036281
O O10 0.541900 0.443215 0.056098
O O11 0.042350 0.409271 0.075265
O O12 0.020812 0.129813 0.265231
O O13 0.172448 0.008163 0.085723
O O14 0.015061 0.706990 0.533714
#
# Coordination Sequence:
#
# PCOD9119763 Si02
#       7
#     2   2   2   2   2   2   2
#     4   9  20  38  62  86 122 162 212 264 322 383
#     4   9  19  35  57  85 120 161 204 255 315 379
#     4  12  27  45  69 100 133 173 221 274 332 394
#     4   9  20  38  62  86 122 162 212 264 322 383
#     4   9  19  35  57  85 120 161 204 255 315 379
#     4   8  18  34  60  86 118 162 210 252 326 370
#     4  12  27  45  69 100 133 173 221 274 332 394
#
# _framework density 23.966345
#
# number of rings (size 3 to 8) (size 9 to 14) (size 15 to 20)
#    0.000    2.857    0.000    2.571   10.000    5.714 
#    0.000    0.000    0.000    0.000    0.000    0.000 
#    0.000    0.000    0.000    0.000    0.000    0.000 
#
# Total GULP energy -77968.131981 kJ/mol
# GULP energy per Si atom -5569.152284 kJ/mol
# Density = 2.391180 g / cm^3
# Si number density = 23.966345 Si / 1000 Ang^3
#
#
#
# Elastic Constant Matrix: (Units=GPa)
#
#
# Indices 1 2 3 4 5 6 
#
# 1 113.3579 17.8103 15.8556 0.0000 13.6416 0.0000
# 2 17.8103 75.4781 -14.2869 0.0000 -9.1382 0.0000
# 3 15.8556 -14.2869 62.7971 0.0000 13.2724 0.0000
# 4 0.0000 0.0000 0.0000 40.4790 0.0000 9.0214
# 5 13.6416 -9.1382 13.2724 0.0000 31.9313 0.0000
# 6 0.0000 0.0000 0.0000 9.0214 0.0000 23.3880
#
#
#
# Elastic Compliance Matrix: (Units=1/GPa)
#
#
# Indices 1 2 3 4 5 6 
#
# 1 0.010216 -0.003396 -0.002438 0.000000 -0.004323 0.000000
# 2 -0.003396 0.015225 0.003392 0.000000 0.004398 0.000000
# 3 -0.002438 0.003392 0.018513 0.000000 -0.005683 0.000000
# 4 0.000000 0.000000 0.000000 0.027028 0.000000 -0.010425
# 5 -0.004323 0.004398 -0.005683 0.000000 0.036785 0.000000
# 6 0.000000 0.000000 0.000000 -0.010425 0.000000 0.046778
#
#
# Mechanical properties :
#
#
# Convention : Reuss Voigt Hill
#
# Bulk Modulus (GPa) = 25.59601 32.26567 28.93084
# Shear Modulus (GPa) = 28.99358 34.64327 31.81842
#
# Velocity S-wave (km/s) = 3.48194 3.80609 3.64762
# Velocity P-wave (km/s) = 5.18347 5.72776 5.46240
#
# Compressibility (1/GPa) = 0.03906859
#
# Stress axis : x y z
#
# Youngs Moduli (GPa) = 97.88171 65.68324 54.01721
#
# Poissons Ratio (x) = 0.22304 0.13172
# Poissons Ratio (y) = 0.33237 -0.18320
# Poissons Ratio (z) = 0.23868 -0.22277
#
# Static dielectric constant tensor:
#      x y z
#    x 2.138650 0.000000 0.060320 
#    y 0.000000 1.993870 0.000000 
#    z 0.060320 0.000000 1.951750 
# 
# From -- ./inp_files/3436.got.cif
#   From: 2010.05.17/outbox.cif.g08.bks.cpg/sg4_2_cif.got.tgz:3436.got - 2010.06.03 18:43:04.
