data_PCOD9119227
_publ_section_title
;
Structure prediction by ZEFSAII (Michael W. Deem and Ramdas Pophale) SiO2 
 PCOD9119227
Probable space group: P 21
;
_chemical_formula_sum "Si O2"
_cell_formula_units_Z 16
_cell_length_a 8.126549
_cell_length_b 8.645421
_cell_length_c 17.260954
_cell_angle_alpha 90.000000
_cell_angle_beta 146.628472
_cell_angle_gamma 90.000000
_cell_volume 667.070527
_symmetry_space_group_name_H-M "P 21"
_symmetry_group_IT_number 4
_symmetry_cell_setting 'monoclinic'
loop_
_space_group_symop_operation_xyz
x,y,z
-x,1/2+y,-z
loop_
_atom_site_type_symbol
_atom_site_label
_atom_site_fract_x
_atom_site_fract_y
_atom_site_fract_z
Si Si1 0.926277 0.131880 0.599586
Si Si2 0.777794 0.066968 0.108900
Si Si3 0.159300 0.804680 0.725865
Si Si4 0.704619 0.747450 0.129938
Si Si5 0.204647 0.297317 0.098721
Si Si6 0.904215 0.106998 0.852364
Si Si7 0.413603 0.044316 0.302247
Si Si8 0.730057 0.719580 0.419775
O O1 0.587602 0.136880 0.438171
O O2 0.050659 0.257771 0.706922
O O3 0.118375 0.149635 0.596817
O O4 0.993536 0.969119 0.668244
O O5 0.829354 0.196025 0.194803
O O6 0.091866 0.995726 0.206897
O O7 0.603429 0.918682 0.070529
O O8 0.591020 0.148824 0.967673
O O9 0.497898 0.842314 0.832630
O O10 0.970367 0.720609 0.583354
O O11 0.853758 0.657259 0.116358
O O12 0.087051 0.437693 0.105210
O O13 0.333612 0.158136 0.201614
O O14 0.958536 0.228706 0.943800
O O15 0.575961 0.127629 0.686177
O O16 0.621358 0.897525 0.364971
#
# Coordination Sequence:
#
# PCOD9119227 Si02
#       8
#     2   2   2   2   2   2   2   2
#     4  11  26  45  74 107 146 188 240 305 366 434
#     4  12  28  47  72 103 153 191 242 303 364 447
#     4  11  25  47  72 105 145 188 242 296 368 429
#     4  12  29  47  71 107 147 195 241 304 377 431
#     4  12  26  46  73 104 142 192 244 297 360 435
#     4  12  27  46  73 107 143 190 246 301 364 440
#     4  11  27  46  74 107 144 196 244 296 367 435
#     4  11  24  48  73 104 144 188 247 302 354 439
#
# _framework density 23.985469999999999
#
# number of rings (size 3 to 8) (size 9 to 14) (size 15 to 20)
#    0.000    0.500    5.000    1.500    8.750    1.000 
#    0.000    0.000    0.000    0.000    0.000    0.000 
#    0.000    0.000    0.000    0.000    0.000    0.000 
#
# Total GULP energy -89575.036963 kJ/mol
# GULP energy per Si atom -5598.439810 kJ/mol
# Density = 2.393088 g / cm^3
# Si number density = 23.985470 Si / 1000 Ang^3
#
#
#
# Elastic Constant Matrix: (Units=GPa)
#
#
# Indices 1 2 3 4 5 6 
#
# 1 44.2954 19.2541 12.0765 0.0000 1.7348 0.0000
# 2 19.2541 69.3155 22.3670 0.0000 -3.9413 0.0000
# 3 12.0765 22.3670 117.2279 0.0000 2.8857 0.0000
# 4 0.0000 0.0000 0.0000 47.9799 0.0000 -6.5397
# 5 1.7348 -3.9413 2.8857 0.0000 34.1492 0.0000
# 6 0.0000 0.0000 0.0000 -6.5397 0.0000 36.3001
#
#
#
# Elastic Compliance Matrix: (Units=1/GPa)
#
#
# Indices 1 2 3 4 5 6 
#
# 1 0.026019 -0.006919 -0.001311 0.000000 -0.002010 0.000000
# 2 -0.006919 0.017354 -0.002662 0.000000 0.002579 0.000000
# 3 -0.001311 -0.002662 0.009198 0.000000 -0.001018 0.000000
# 4 0.000000 0.000000 0.000000 0.021367 0.000000 0.003849
# 5 -0.002010 0.002579 -0.001018 0.000000 0.029769 0.000000
# 6 0.000000 0.000000 0.000000 0.003849 0.000000 0.028242
#
#
# Mechanical properties :
#
#
# Convention : Reuss Voigt Hill
#
# Bulk Modulus (GPa) = 32.47936 37.58156 35.03046
# Shear Modulus (GPa) = 30.48867 35.49524 32.99196
#
# Velocity S-wave (km/s) = 3.56916 3.85107 3.71279
# Velocity P-wave (km/s) = 5.52774 5.95624 5.74599
#
# Compressibility (1/GPa) = 0.03078879
#
# Stress axis : x y z
#
# Youngs Moduli (GPa) = 38.43311 57.62271 108.71477
#
# Poissons Ratio (x) = 0.39868 0.14251
# Poissons Ratio (y) = 0.26591 0.28939
# Poissons Ratio (z) = 0.05038 0.15339
#
# Static dielectric constant tensor:
#      x y z
#    x 1.935250 0.000000 0.002990 
#    y 0.000000 1.902750 0.000000 
#    z 0.002990 0.000000 1.903130 
# 
# From -- ./inp_files/5573.got.cif
#   From: 2010.05.17/outbox.cif.g08.bks.cpg/sg4_3_cif.got.tgz:5573.got - 2010.06.03 18:43:04.
