data_PCOD9119564
_publ_section_title
;
Structure prediction by ZEFSAII (Michael W. Deem and Ramdas Pophale) SiO2 
 PCOD9119564
Probable space group: P 21
;
_chemical_formula_sum "Si O2"
_cell_formula_units_Z 10
_cell_length_a 6.982781
_cell_length_b 6.787094
_cell_length_c 12.145357
_cell_angle_alpha 90.000000
_cell_angle_beta 128.767891
_cell_angle_gamma 90.000000
_cell_volume 448.790831
_symmetry_space_group_name_H-M "P 21"
_symmetry_group_IT_number 4
_symmetry_cell_setting 'monoclinic'
loop_
_space_group_symop_operation_xyz
x,y,z
-x,1/2+y,-z
loop_
_atom_site_type_symbol
_atom_site_label
_atom_site_fract_x
_atom_site_fract_y
_atom_site_fract_z
Si Si1 0.755131 0.474670 0.839270
Si Si2 0.285000 0.735806 0.719935
Si Si3 0.715267 0.137218 0.647189
Si Si4 0.196683 0.971428 0.482590
Si Si5 0.084721 0.812292 0.867868
O O1 0.517768 0.612825 0.763782
O O2 0.706018 0.283333 0.748132
O O3 0.967606 0.602849 0.858005
O O4 0.831342 0.412230 0.989134
O O5 0.254085 0.923614 0.630099
O O6 0.295698 0.789387 0.852409
O O7 0.040712 0.604156 0.617805
O O8 0.829603 0.263237 0.589203
O O9 0.439039 0.072539 0.519487
O O10 0.877609 0.949415 0.737091
#
# Coordination Sequence:
#
# PCOD9119564 Si02
#       5
#     2   2   2   2   2
#     4  12  26  48  73 102 143 188 235 292 349 411
#     4  12  26  44  72 110 138 184 236 288 348 416
#     4  12  24  46  76  98 148 192 224 288 358 410
#     4  12  24  44  72 108 146 180 234 286 350 426
#     4  12  26  48  73 102 143 188 235 292 349 411
#
# _framework density 22.282095000000002
#
# number of rings (size 3 to 8) (size 9 to 14) (size 15 to 20)
#    0.000    0.000    6.000    4.800    0.000    4.800 
#    0.000    0.000    0.000    0.000    0.000    0.000 
#    0.000    0.000    0.000    0.000    0.000    0.000 
#
# Total GULP energy -56056.170402 kJ/mol
# GULP energy per Si atom -5605.617040 kJ/mol
# Density = 2.223138 g / cm^3
# Si number density = 22.282095 Si / 1000 Ang^3
#
#
#
# Elastic Constant Matrix: (Units=GPa)
#
#
# Indices 1 2 3 4 5 6 
#
# 1 52.4596 -3.5783 -0.0780 0.0000 -22.5756 0.0000
# 2 -3.5783 61.7331 8.7936 0.0000 -13.0618 0.0000
# 3 -0.0780 8.7936 61.8665 0.0000 -19.4893 0.0000
# 4 0.0000 0.0000 0.0000 53.8752 0.0000 -8.0282
# 5 -22.5756 -13.0618 -19.4893 0.0000 43.2935 0.0000
# 6 0.0000 0.0000 0.0000 -8.0282 0.0000 34.5024
#
#
#
# Elastic Compliance Matrix: (Units=1/GPa)
#
#
# Indices 1 2 3 4 5 6 
#
# 1 0.027000 0.004604 0.004955 0.000000 0.017699 0.000000
# 2 0.004604 0.018136 -0.000107 0.000000 0.007824 0.000000
# 3 0.004955 -0.000107 0.019797 0.000000 0.011463 0.000000
# 4 0.000000 0.000000 0.000000 0.019228 0.000000 0.004474
# 5 0.017699 0.007824 0.011463 0.000000 0.039849 0.000000
# 6 0.000000 0.000000 0.000000 0.004474 0.000000 0.030025
#
#
# Mechanical properties :
#
#
# Convention : Reuss Voigt Hill
#
# Bulk Modulus (GPa) = 11.92780 20.70376 16.31578
# Shear Modulus (GPa) = 30.66050 37.72902 34.19476
#
# Velocity S-wave (km/s) = 3.71349 4.11937 3.92168
# Velocity P-wave (km/s) = 4.87354 5.65132 5.27678
#
# Compressibility (1/GPa) = 0.08383778
#
# Stress axis : x y z
#
# Youngs Moduli (GPa) = 37.03640 55.13759 50.51391
#
# Poissons Ratio (x) = -0.25386 -0.25031
# Poissons Ratio (y) = -0.17052 0.00542
# Poissons Ratio (z) = -0.18353 0.00591
#
# Static dielectric constant tensor:
#      x y z
#    x 1.786020 0.000000 -0.029110 
#    y 0.000000 1.793110 0.000000 
#    z -0.029110 0.000000 1.814120 
# 
# From -- ./inp_files/872.got.cif
#   From: 2010.05.17/outbox.cif.g08.bks.cpg/sg4_1_cif.got.tgz:872.got - 2010.06.03 18:43:04.
