data_PCOD9119815
_publ_section_title
;
Structure prediction by ZEFSAII (Michael W. Deem and Ramdas Pophale) SiO2 
 PCOD9119815
Probable space group: P 21
;
_chemical_formula_sum "Si O2"
_cell_formula_units_Z 14
_cell_length_a 12.000000
_cell_length_b 6.000000
_cell_length_c 9.000000
_cell_angle_alpha 90.000000
_cell_angle_beta 100.000000
_cell_angle_gamma 90.000000
_cell_volume 638.155424
_symmetry_space_group_name_H-M "P 21"
_symmetry_group_IT_number 4
_symmetry_cell_setting 'monoclinic'
loop_
_space_group_symop_operation_xyz
x,y,z
-x,1/2+y,-z
loop_
_atom_site_type_symbol
_atom_site_label
_atom_site_fract_x
_atom_site_fract_y
_atom_site_fract_z
Si Si1 0.771873 0.954160 0.421232
Si Si2 0.243459 0.661371 0.270278
Si Si3 0.165854 0.023226 0.449122
Si Si4 0.207849 0.912763 0.971709
Si Si5 0.942200 0.242260 0.310713
Si Si6 0.607201 0.139996 0.167026
Si Si7 0.642661 0.813573 0.905000
O O1 0.764847 0.691235 0.431605
O O2 0.803682 0.029148 0.596582
O O3 0.862928 0.025182 0.317942
O O4 0.660866 0.078055 0.338021
O O5 0.335836 0.496865 0.219299
O O6 0.252215 0.896165 0.360858
O O7 0.184259 0.744204 0.104056
O O8 0.068739 0.152201 0.334769
O O9 0.090374 0.876358 0.546397
O O10 0.101531 0.888977 0.836774
O O11 0.315640 0.828546 0.896455
O O12 0.251257 0.146393 0.048817
O O13 0.475716 0.192128 0.152308
O O14 0.624256 0.935383 0.058150
#
# Coordination Sequence:
#
# PCOD9119815 Si02
#       7
#     2   2   2   2   2   2   2
#     4  10  21  41  61  92 127 167 214 273 316 388
#     4  10  24  40  60  90 136 172 210 270 326 382
#     4  11  20  41  63  94 129 171 216 267 321 394
#     4  10  21  41  61  92 127 167 214 273 316 388
#     4  10  21  37  67  92 122 169 221 263 325 380
#     4  10  21  37  67  92 122 169 221 263 325 380
#     4  11  20  41  63  94 129 171 216 267 321 394
#
# _framework density 21.938229
#
# number of rings (size 3 to 8) (size 9 to 14) (size 15 to 20)
#    0.000    1.714    2.857    1.714    0.000    0.000 
#    5.143    0.000    0.000    0.000    0.000    0.000 
#    0.000    0.000    0.000    0.000    0.000    0.000 
#
# Total GULP energy -77940.973308 kJ/mol
# GULP energy per Si atom -5567.212379 kJ/mol
# Density = 2.188830 g / cm^3
# Si number density = 21.938229 Si / 1000 Ang^3
#
#
#
# Elastic Constant Matrix: (Units=GPa)
#
#
# Indices 1 2 3 4 5 6 
#
# 1 26.0706 31.3057 29.2375 0.0000 5.7376 0.0000
# 2 31.3057 89.0138 39.4271 0.0000 2.7850 0.0000
# 3 29.2375 39.4271 76.9794 0.0000 2.1097 0.0000
# 4 0.0000 0.0000 0.0000 34.1903 0.0000 -14.7893
# 5 5.7376 2.7850 2.1097 0.0000 25.8408 0.0000
# 6 0.0000 0.0000 0.0000 -14.7893 0.0000 31.4207
#
#
#
# Elastic Compliance Matrix: (Units=1/GPa)
#
#
# Indices 1 2 3 4 5 6 
#
# 1 0.097156 -0.022631 -0.024841 0.000000 -0.017105 0.000000
# 2 -0.022631 0.019826 -0.001642 0.000000 0.003022 0.000000
# 3 -0.024841 -0.001642 0.023162 0.000000 0.003801 0.000000
# 4 0.000000 0.000000 0.000000 0.036725 0.000000 0.017286
# 5 -0.017105 0.003022 0.003801 0.000000 0.041860 0.000000
# 6 0.000000 0.000000 0.000000 0.017286 0.000000 0.039963
#
#
# Mechanical properties :
#
#
# Convention : Reuss Voigt Hill
#
# Bulk Modulus (GPa) = 23.85700 43.55606 33.70653
# Shear Modulus (GPa) = 13.48100 24.42991 18.95545
#
# Velocity S-wave (km/s) = 2.48160 3.34065 2.94264
# Velocity P-wave (km/s) = 4.37142 5.89720 5.19068
#
# Compressibility (1/GPa) = 0.04191642
#
# Stress axis : x y z
#
# Youngs Moduli (GPa) = 10.29271 50.43832 43.17425
#
# Poissons Ratio (x) = 1.14149 1.07248
# Poissons Ratio (y) = 0.23294 0.07088
# Poissons Ratio (z) = 0.25568 0.08281
#
# Static dielectric constant tensor:
#      x y z
#    x 1.773330 0.000000 0.028610 
#    y 0.000000 1.970690 0.000000 
#    z 0.028610 0.000000 1.788600 
# 
# From -- ./inp_files/7411.got.cif
#   From: 2010.05.17/outbox.ucp.g08.bks.cvg/sg4_4_cif.got.tgz:7411.got - 2010.06.11 12:51:24.
