data_PCOD9119424
_publ_section_title
;
Structure prediction by ZEFSAII (Michael W. Deem and Ramdas Pophale) SiO2 
 PCOD9119424
Probable space group: P 21
;
_chemical_formula_sum "Si O2"
_cell_formula_units_Z 16
_cell_length_a 8.484006
_cell_length_b 9.459349
_cell_length_c 16.633105
_cell_angle_alpha 90.000000
_cell_angle_beta 30.762797
_cell_angle_gamma 90.000000
_cell_volume 682.760622
_symmetry_space_group_name_H-M "P 21"
_symmetry_group_IT_number 4
_symmetry_cell_setting 'monoclinic'
loop_
_space_group_symop_operation_xyz
x,y,z
-x,1/2+y,-z
loop_
_atom_site_type_symbol
_atom_site_label
_atom_site_fract_x
_atom_site_fract_y
_atom_site_fract_z
Si Si1 0.809831 0.141410 0.518024
Si Si2 0.243742 0.442534 0.932767
Si Si3 0.524940 0.523041 0.065640
Si Si4 0.261138 0.824544 0.158379
Si Si5 0.392206 0.096660 0.365109
Si Si6 0.772696 0.650719 0.121606
Si Si7 0.868309 0.392135 0.385229
Si Si8 0.372188 0.354263 0.475386
O O1 0.523894 0.191927 0.696605
O O2 0.834348 0.228936 0.425541
O O3 0.120534 0.163639 0.430928
O O4 0.758198 0.976350 0.524660
O O5 0.518852 0.401583 0.872214
O O6 0.375543 0.521967 0.796869
O O7 0.089584 0.296099 0.972473
O O8 0.998863 0.553457 0.074238
O O9 0.423186 0.673534 0.071834
O O10 0.658767 0.561384 0.094392
O O11 0.213153 0.433021 0.211716
O O12 0.749624 0.429174 0.912660
O O13 0.923319 0.801191 0.343879
O O14 0.518681 0.223738 0.363506
O O15 0.235094 0.983345 0.492667
O O16 0.629157 0.421233 0.419421
#
# Coordination Sequence:
#
# PCOD9119424 Si02
#       8
#     2   2   2   2   2   2   2   2
#     4  12  25  45  76 104 144 189 241 293 351 422
#     4  11  26  46  72 103 140 186 240 293 356 420
#     4  11  27  47  72 100 149 185 233 291 364 428
#     4  11  26  49  68 105 145 187 232 293 360 432
#     4  12  23  49  74 100 146 189 240 296 346 424
#     4  11  26  46  70 106 137 189 240 293 352 426
#     4  12  26  46  73 106 143 189 235 298 358 414
#     4  12  27  44  73 110 144 186 239 295 355 424
#
# _framework density 23.434275
#
# number of rings (size 3 to 8) (size 9 to 14) (size 15 to 20)
#    0.000    0.500    5.000    2.250    7.000    2.000 
#    0.000    0.000    0.000    0.000    0.000    0.000 
#    0.000    0.000    0.000    0.000    0.000    0.000 
#
# Total GULP energy -89658.842720 kJ/mol
# GULP energy per Si atom -5603.677670 kJ/mol
# Density = 2.338094 g / cm^3
# Si number density = 23.434275 Si / 1000 Ang^3
#
#
#
# Elastic Constant Matrix: (Units=GPa)
#
#
# Indices 1 2 3 4 5 6 
#
# 1 58.4560 9.0195 20.1948 0.0000 -1.9931 0.0000
# 2 9.0195 89.3825 27.3377 0.0000 8.5179 0.0000
# 3 20.1948 27.3377 52.7201 0.0000 0.1069 0.0000
# 4 0.0000 0.0000 0.0000 -5.3971 0.0000 -8.0858
# 5 -1.9931 8.5179 0.1069 0.0000 30.4452 0.0000
# 6 0.0000 0.0000 0.0000 -8.0858 0.0000 33.8512
#
#
#
# Elastic Compliance Matrix: (Units=1/GPa)
#
#
# Indices 1 2 3 4 5 6 
#
# 1 0.019773 0.000241 -0.007702 0.000000 0.001254 0.000000
# 2 0.000241 0.013729 -0.007204 0.000000 -0.003800 0.000000
# 3 -0.007702 -0.007204 0.025651 0.000000 0.001421 0.000000
# 4 0.000000 0.000000 0.000000 -0.136454 0.000000 -0.032594
# 5 0.001254 -0.003800 0.001421 0.000000 0.033986 0.000000
# 6 0.000000 0.000000 0.000000 -0.032594 0.000000 0.021756
#
#
# Mechanical properties :
#
#
# Convention : Reuss Voigt Hill
#
# Bulk Modulus (GPa) = 33.53009 34.85138 34.19074
# Shear Modulus (GPa) = 282.31284 21.38031 151.84657
#
# Velocity S-wave (km/s) = 10.98779 3.02379 8.05838
# Velocity P-wave (km/s) = 13.24064 5.20532 10.06007
#
# Compressibility (1/GPa) = 0.02982395
#
# Stress axis : x y z
#
# Youngs Moduli (GPa) = 50.57361 72.83891 38.98522
#
# Poissons Ratio (x) = -0.01754 0.30025
# Poissons Ratio (y) = -0.01218 0.28083
# Poissons Ratio (z) = 0.38950 0.52470
#
# Static dielectric constant tensor:
#      x y z
#    x 1.828190 0.000000 0.004800 
#    y 0.000000 1.851580 0.000000 
#    z 0.004800 0.000000 1.863930 
# 
# From -- ./inp_files/5385.got.cif
#   From: 2010.05.17/outbox.cif.g08.bks.cpg/sg4_3_cif.got.tgz:5385.got - 2010.06.03 18:43:04.
