data_PCOD9119568
_publ_section_title
;
Structure prediction by ZEFSAII (Michael W. Deem and Ramdas Pophale) SiO2 
 PCOD9119568
Probable space group: P 21
;
_chemical_formula_sum "Si O2"
_cell_formula_units_Z 14
_cell_length_a 11.669020
_cell_length_b 4.766467
_cell_length_c 19.042591
_cell_angle_alpha 90.000000
_cell_angle_beta 150.176817
_cell_angle_gamma 90.000000
_cell_volume 526.741258
_symmetry_space_group_name_H-M "P 21"
_symmetry_group_IT_number 4
_symmetry_cell_setting 'monoclinic'
loop_
_space_group_symop_operation_xyz
x,y,z
-x,1/2+y,-z
loop_
_atom_site_type_symbol
_atom_site_label
_atom_site_fract_x
_atom_site_fract_y
_atom_site_fract_z
Si Si1 0.328936 0.308970 0.527302
Si Si2 0.934900 0.499698 0.418943
Si Si3 0.612965 0.813703 0.097016
Si Si4 0.585424 0.790089 0.719831
Si Si5 0.988650 0.023362 0.854210
Si Si6 0.482478 0.156715 0.160817
Si Si7 0.924018 0.504460 0.725636
O O1 0.501415 0.571633 0.616461
O O2 0.265377 0.156709 0.421805
O O3 0.098674 0.433861 0.440446
O O4 0.426769 0.064232 0.629767
O O5 0.680374 0.391988 0.265789
O O6 0.966683 0.812970 0.463797
O O7 0.563344 0.921361 0.148784
O O8 0.876018 0.879569 0.217808
O O9 0.458028 0.000443 0.960918
O O10 0.551005 0.620252 0.773419
O O11 0.839983 0.906736 0.839958
O O12 0.846527 0.241800 0.731468
O O13 0.035747 0.749209 0.832731
O O14 0.218249 0.193229 0.995792
#
# Coordination Sequence:
#
# PCOD9119568 Si02
#       7
#     2   2   2   2   2   2   2
#     4  12  25  48  77 112 151 206 264 325 390 459
#     4  12  24  44  73 114 157 194 250 322 399 465
#     4  12  24  44  73 114 157 194 250 322 399 465
#     4  12  29  49  74 111 158 210 264 316 386 477
#     4  12  29  49  74 111 158 210 264 316 386 477
#     4  12  26  48  82 116 162 202 260 330 404 470
#     4  12  25  48  77 112 151 206 264 325 390 459
#
# _framework density 26.578513999999998
#
# number of rings (size 3 to 8) (size 9 to 14) (size 15 to 20)
#    0.000    0.000    7.143    1.714    0.000    9.143 
#    0.000    0.000    0.000    0.000    0.000    0.000 
#    0.000    0.000    0.000    0.000    0.000    0.000 
#
# Total GULP energy -78515.302212 kJ/mol
# GULP energy per Si atom -5608.235872 kJ/mol
# Density = 2.651802 g / cm^3
# Si number density = 26.578514 Si / 1000 Ang^3
#
#
#
# Elastic Constant Matrix: (Units=GPa)
#
#
# Indices 1 2 3 4 5 6 
#
# 1 125.6897 22.6927 29.8037 0.0000 8.0221 0.0000
# 2 22.6927 117.9111 36.9556 0.0000 -7.3132 0.0000
# 3 29.8037 36.9556 116.3292 0.0000 -3.2231 0.0000
# 4 0.0000 0.0000 0.0000 45.4934 0.0000 -12.9641
# 5 8.0221 -7.3132 -3.2231 0.0000 45.8731 0.0000
# 6 0.0000 0.0000 0.0000 -12.9641 0.0000 20.1641
#
#
#
# Elastic Compliance Matrix: (Units=1/GPa)
#
#
# Indices 1 2 3 4 5 6 
#
# 1 0.008744 -0.001199 -0.001911 0.000000 -0.001855 0.000000
# 2 -0.001199 0.009660 -0.002719 0.000000 0.001559 0.000000
# 3 -0.001911 -0.002719 0.009966 0.000000 0.000601 0.000000
# 4 0.000000 0.000000 0.000000 0.026912 0.000000 0.017302
# 5 -0.001855 0.001559 0.000601 0.000000 0.022414 0.000000
# 6 0.000000 0.000000 0.000000 0.017302 0.000000 0.060717
#
#
# Mechanical properties :
#
#
# Convention : Reuss Voigt Hill
#
# Bulk Modulus (GPa) = 59.83007 59.87045 59.85026
# Shear Modulus (GPa) = 32.12503 40.33798 36.23151
#
# Velocity S-wave (km/s) = 3.48039 3.89998 3.69614
# Velocity P-wave (km/s) = 6.22176 6.54634 6.38612
#
# Compressibility (1/GPa) = 0.01671400
#
# Stress axis : x y z
#
# Youngs Moduli (GPa) = 114.36398 103.51481 100.34011
#
# Poissons Ratio (x) = 0.12412 0.19172
# Poissons Ratio (y) = 0.13712 0.27278
# Poissons Ratio (z) = 0.21852 0.28141
#
# Static dielectric constant tensor:
#      x y z
#    x 2.116620 0.000000 0.001370 
#    y 0.000000 1.984400 0.000000 
#    z 0.001370 0.000000 2.113940 
# 
# From -- ./inp_files/15089.got.cif
#   From: 2010.05.17/outbox.cif.g08.bks.cpg/sg4_8_cif.got.tgz:15089.got - 2010.06.03 18:43:04.
