data_PCOD9119955
_publ_section_title
;
Structure prediction by ZEFSAII (Michael W. Deem and Ramdas Pophale) SiO2 
 PCOD9119955
Probable space group: C 2
;
_chemical_formula_sum "Si O2"
_cell_formula_units_Z 20
_cell_length_a 9.176189
_cell_length_b 21.641191
_cell_length_c 6.851676
_cell_angle_alpha 90.000000
_cell_angle_beta 147.008683
_cell_angle_gamma 90.000000
_cell_volume 740.879752
_symmetry_space_group_name_H-M "C 2"
_symmetry_group_IT_number 5
_symmetry_cell_setting 'monoclinic'
loop_
_space_group_symop_operation_xyz
x,y,z
-x,y,-z
1/2+x,1/2+y,z
1/2-x,1/2+y,-z
loop_
_atom_site_type_symbol
_atom_site_label
_atom_site_fract_x
_atom_site_fract_y
_atom_site_fract_z
Si Si1 0.985836 0.536470 0.747212
Si Si2 0.901759 0.279173 0.169855
Si Si3 0.109530 0.715257 0.348186
Si Si4 0.220856 0.411912 0.081173
Si Si5 0.504786 0.602361 0.741548
O O1 0.671876 0.546144 0.371362
O O2 0.000000 0.542027 0.000000
O O3 0.113675 0.470639 0.841328
O O4 0.182858 0.587959 0.876777
O O5 0.000000 0.266315 0.500000
O O6 0.186622 0.272341 0.382417
O O7 0.670944 0.229401 0.860114
O O8 0.773596 0.346795 0.021818
O O9 0.319686 0.659063 0.605820
O O10 0.000000 0.710908 0.000000
O O11 0.500000 0.426487 0.500000
O O12 0.000000 0.403320 0.000000
O O13 0.500000 0.606109 0.500000
#
# Coordination Sequence:
#
# PCOD9119955 Si02
#       5
#     4   4   4   4   4
#     4   9  17  27  44  71 102 130 163 207 257 303
#     4  10  21  35  51  75 105 136 171 210 251 300
#     4  10  18  29  47  72 103 133 164 207 258 304
#     4  11  21  35  53  76 105 138 173 210 250 302
#     4  10  16  26  45  72 103 131 158 206 266 305
#
# _framework density 26.994934000000001
#
# number of rings (size 3 to 8) (size 9 to 14) (size 15 to 20)
#    0.000    2.000    0.000    9.000    0.000    0.000 
#    0.000    0.000    0.000    0.000    0.000   14.000 
#    0.000    0.000    0.000    0.000    0.000    0.000 
#
# Total GULP energy -55861.046177 kJ/mol
# GULP energy per Si atom -5586.104618 kJ/mol
# Density = 2.693349 g / cm^3
# Si number density = 26.994934 Si / 1000 Ang^3
#
#
#
# Elastic Constant Matrix: (Units=GPa)
#
#
# Indices 1 2 3 4 5 6 
#
# 1 100.3725 9.4856 59.6033 0.0000 17.0518 0.0000
# 2 9.4856 169.6667 62.8298 0.0000 29.0188 0.0000
# 3 59.6033 62.8298 188.6039 0.0000 38.6958 0.0000
# 4 0.0000 0.0000 0.0000 26.0704 0.0000 19.7620
# 5 17.0518 29.0188 38.6958 0.0000 64.6169 0.0000
# 6 0.0000 0.0000 0.0000 19.7620 0.0000 25.0279
#
#
#
# Elastic Compliance Matrix: (Units=1/GPa)
#
#
# Indices 1 2 3 4 5 6 
#
# 1 0.012474 0.001016 -0.004003 0.000000 -0.001351 0.000000
# 2 0.001016 0.007020 -0.002232 0.000000 -0.002084 0.000000
# 3 -0.004003 -0.002232 0.007853 0.000000 -0.002644 0.000000
# 4 0.000000 0.000000 0.000000 0.095545 0.000000 -0.075442
# 5 -0.001351 -0.002084 -0.002644 0.000000 0.018352 0.000000
# 6 0.000000 0.000000 0.000000 -0.075442 0.000000 0.099525
#
#
# Mechanical properties :
#
#
# Convention : Reuss Voigt Hill
#
# Bulk Modulus (GPa) = 59.14246 80.27563 69.70904
# Shear Modulus (GPa) = 19.46715 44.92466 32.19591
#
# Velocity S-wave (km/s) = 2.68832 4.08387 3.45724
# Velocity P-wave (km/s) = 5.62071 7.21382 6.46651
#
# Compressibility (1/GPa) = 0.01690833
#
# Stress axis : x y z
#
# Youngs Moduli (GPa) = 80.16947 142.44717 127.33397
#
# Poissons Ratio (x) = -0.14474 0.50976
# Poissons Ratio (y) = -0.08146 0.28423
# Poissons Ratio (z) = 0.32095 0.31796
#
# Static dielectric constant tensor:
#      x y z
#    x 2.190760 0.000000 -0.105880 
#    y 0.000000 2.224100 0.000000 
#    z -0.105880 0.000000 2.041290 
# 
# From -- ./inp_files/43432.got.cif
#   From: 2010.05.17/outbox.cif.g08.bks.cpg/sg5_22_cif.got.tgz:43432.got - 2010.06.03 18:56:24.
