data_PCOD9119141
_publ_section_title
;
Structure prediction by ZEFSAII (Michael W. Deem and Ramdas Pophale) SiO2 
 PCOD9119141
Probable space group: P 21
;
_chemical_formula_sum "Si O2"
_cell_formula_units_Z 16
_cell_length_a 8.136826
_cell_length_b 9.105268
_cell_length_c 11.763443
_cell_angle_alpha 90.000000
_cell_angle_beta 130.460985
_cell_angle_gamma 90.000000
_cell_volume 663.101686
_symmetry_space_group_name_H-M "P 21"
_symmetry_group_IT_number 4
_symmetry_cell_setting 'monoclinic'
loop_
_space_group_symop_operation_xyz
x,y,z
-x,1/2+y,-z
loop_
_atom_site_type_symbol
_atom_site_label
_atom_site_fract_x
_atom_site_fract_y
_atom_site_fract_z
Si Si1 0.988200 0.332550 0.304777
Si Si2 0.700962 0.573842 0.825587
Si Si3 0.625357 0.602545 0.529206
Si Si4 0.020546 0.793185 0.040728
Si Si5 0.865376 0.146226 0.688635
Si Si6 0.355701 0.436163 0.841244
Si Si7 0.344593 0.672391 0.010700
Si Si8 0.902800 0.374491 0.527110
O O1 0.202313 0.232937 0.407554
O O2 0.044563 0.483445 0.267665
O O3 0.806417 0.249353 0.152194
O O4 0.911824 0.368081 0.396969
O O5 0.627252 0.556236 0.662711
O O6 0.897205 0.458632 0.933345
O O7 0.518557 0.528004 0.833101
O O8 0.798899 0.736238 0.886415
O O9 0.385419 0.649262 0.391947
O O10 0.706673 0.469261 0.488328
O O11 0.012078 0.750715 0.168729
O O12 0.209903 0.698039 0.064722
O O13 0.886278 0.212228 0.572285
O O14 0.370717 0.509941 0.972617
O O15 0.120941 0.442483 0.679060
O O16 0.439534 0.268568 0.881788
#
# Coordination Sequence:
#
# PCOD9119141 Si02
#       8
#     2   2   2   2   2   2   2   2
#     4  12  26  47  69 106 143 181 238 286 351 416
#     4  11  24  45  74 100 143 180 235 290 346 414
#     4  12  25  48  70 104 138 189 234 288 350 411
#     4  11  24  46  71 104 138 184 231 288 342 414
#     4  12  27  43  75 104 137 189 239 280 351 422
#     4  11  26  45  72 104 140 183 230 288 360 411
#     4  11  26  46  70 105 140 184 229 289 352 421
#     4  12  26  48  73  99 147 184 228 301 348 411
#
# _framework density 24.12903
#
# number of rings (size 3 to 8) (size 9 to 14) (size 15 to 20)
#    0.000    0.500    3.750    3.750    8.750    1.000 
#    0.000    0.000    0.000    0.000    0.000    0.000 
#    0.000    0.000    0.000    0.000    0.000    0.000 
#
# Total GULP energy -89727.267433 kJ/mol
# GULP energy per Si atom -5607.954215 kJ/mol
# Density = 2.407411 g / cm^3
# Si number density = 24.129030 Si / 1000 Ang^3
#
#
#
# Elastic Constant Matrix: (Units=GPa)
#
#
# Indices 1 2 3 4 5 6 
#
# 1 61.4653 3.8132 28.0143 0.0000 -2.5465 0.0000
# 2 3.8132 64.1997 -6.5717 0.0000 3.1907 0.0000
# 3 28.0143 -6.5717 73.4968 0.0000 -18.4481 0.0000
# 4 0.0000 0.0000 0.0000 22.3438 0.0000 3.2653
# 5 -2.5465 3.1907 -18.4481 0.0000 37.8425 0.0000
# 6 0.0000 0.0000 0.0000 3.2653 0.0000 46.3555
#
#
#
# Elastic Compliance Matrix: (Units=1/GPa)
#
#
# Indices 1 2 3 4 5 6 
#
# 1 0.020164 -0.001939 -0.008520 0.000000 -0.002633 0.000000
# 2 -0.001939 0.015924 0.002043 0.000000 -0.000477 0.000000
# 3 -0.008520 0.002043 0.019198 0.000000 0.008614 0.000000
# 4 0.000000 0.000000 0.000000 0.045221 0.000000 -0.003185
# 5 -0.002633 -0.000477 0.008614 0.000000 0.030487 0.000000
# 6 0.000000 0.000000 0.000000 -0.003185 0.000000 0.021797
#
#
# Mechanical properties :
#
#
# Convention : Reuss Voigt Hill
#
# Bulk Modulus (GPa) = 26.00443 27.74148 26.87295
# Shear Modulus (GPa) = 27.40610 32.90208 30.15409
#
# Velocity S-wave (km/s) = 3.37384 3.69669 3.53895
# Velocity P-wave (km/s) = 5.09683 5.45369 5.27828
#
# Compressibility (1/GPa) = 0.03845498
#
# Stress axis : x y z
#
# Youngs Moduli (GPa) = 49.59404 62.79662 52.08805
#
# Poissons Ratio (x) = 0.12176 0.44379
# Poissons Ratio (y) = 0.09616 -0.10642
# Poissons Ratio (z) = 0.42254 -0.12830
#
# Static dielectric constant tensor:
#      x y z
#    x 1.891540 0.000000 -0.003440 
#    y 0.000000 1.948400 0.000000 
#    z -0.003440 0.000000 1.856140 
# 
# From -- ./inp_files/5594.got.cif
#   From: 2010.05.17/outbox.cif.g08.bks.cpg/sg4_3_cif.got.tgz:5594.got - 2010.06.03 18:43:04.
