data_PCOD9119787
_publ_section_title
;
Structure prediction by ZEFSAII (Michael W. Deem and Ramdas Pophale) SiO2 
 PCOD9119787
Probable space group: P 21
;
_chemical_formula_sum "Si O2"
_cell_formula_units_Z 10
_cell_length_a 18.652254
_cell_length_b 5.068735
_cell_length_c 7.549735
_cell_angle_alpha 90.000000
_cell_angle_beta 35.760653
_cell_angle_gamma 90.000000
_cell_volume 417.131735
_symmetry_space_group_name_H-M "P 21"
_symmetry_group_IT_number 4
_symmetry_cell_setting 'monoclinic'
loop_
_space_group_symop_operation_xyz
x,y,z
-x,1/2+y,-z
loop_
_atom_site_type_symbol
_atom_site_label
_atom_site_fract_x
_atom_site_fract_y
_atom_site_fract_z
Si Si1 0.585622 0.231030 0.345546
Si Si2 0.748799 0.440438 0.718321
Si Si3 0.582754 0.794830 0.851708
Si Si4 0.997489 0.652191 0.385731
Si Si5 0.245867 0.648497 0.669414
O O1 0.483660 0.453680 0.518241
O O2 0.658132 0.272712 0.384166
O O3 0.689389 0.255380 0.986224
O O4 0.649435 0.671139 0.885966
O O5 0.875378 0.563056 0.529424
O O6 0.763516 0.295354 0.500184
O O7 0.692020 0.866494 0.498277
O O8 0.489268 0.568501 0.976704
O O9 0.013851 0.445971 0.514238
O O10 0.114940 0.631900 0.023777
#
# Coordination Sequence:
#
# PCOD9119787 Si02
#       5
#     2   2   2   2   2
#     4  12  32  50  84 122 168 210 266 338 416 486
#     4  12  31  54  87 120 162 221 276 337 407 488
#     4  12  28  48  84 124 162 206 270 334 402 492
#     4  12  32  58  84 118 168 212 282 346 408 482
#     4  12  31  54  87 120 162 221 276 337 407 488
#
# _framework density 23.973244000000001
#
# number of rings (size 3 to 8) (size 9 to 14) (size 15 to 20)
#    0.000    0.000    4.000    1.200   22.400    0.000 
#    0.000    0.000    0.000    0.000    0.000    0.000 
#    0.000    0.000    0.000    0.000    0.000    0.000 
#
# Total GULP energy -56102.208313 kJ/mol
# GULP energy per Si atom -5610.220831 kJ/mol
# Density = 2.391868 g / cm^3
# Si number density = 23.973244 Si / 1000 Ang^3
#
#
#
# Elastic Constant Matrix: (Units=GPa)
#
#
# Indices 1 2 3 4 5 6 
#
# 1 124.5237 -12.9688 4.6996 0.0000 -9.2387 0.0000
# 2 -12.9688 82.5441 0.8169 0.0000 3.1087 0.0000
# 3 4.6996 0.8169 113.3519 0.0000 11.4735 0.0000
# 4 0.0000 0.0000 0.0000 36.7638 0.0000 6.3975
# 5 -9.2387 3.1087 11.4735 0.0000 54.5798 0.0000
# 6 0.0000 0.0000 0.0000 6.3975 0.0000 33.3112
#
#
#
# Elastic Compliance Matrix: (Units=1/GPa)
#
#
# Indices 1 2 3 4 5 6 
#
# 1 0.008286 0.001253 -0.000498 0.000000 0.001436 0.000000
# 2 0.001253 0.012330 -0.000093 0.000000 -0.000471 0.000000
# 3 -0.000498 -0.000093 0.009044 0.000000 -0.001980 0.000000
# 4 0.000000 0.000000 0.000000 0.028141 0.000000 -0.005405
# 5 0.001436 -0.000471 -0.001980 0.000000 0.019008 0.000000
# 6 0.000000 0.000000 0.000000 -0.005405 0.000000 0.031058
#
#
# Mechanical properties :
#
#
# Convention : Reuss Voigt Hill
#
# Bulk Modulus (GPa) = 32.27496 33.94610 33.11053
# Shear Modulus (GPa) = 42.78183 46.78908 44.78546
#
# Velocity S-wave (km/s) = 4.22900 4.42262 4.32689
# Velocity P-wave (km/s) = 6.11048 6.34588 6.22929
#
# Compressibility (1/GPa) = 0.03098378
#
# Stress axis : x y z
#
# Youngs Moduli (GPa) = 120.67962 81.10158 110.57258
#
# Poissons Ratio (x) = -0.10160 0.05506
# Poissons Ratio (y) = -0.15118 0.01030
# Poissons Ratio (z) = 0.06009 0.00756
#
# Static dielectric constant tensor:
#      x y z
#    x 1.906510 0.000000 0.034990 
#    y 0.000000 1.917560 0.000000 
#    z 0.034990 0.000000 1.901980 
# 
# From -- ./inp_files/9741.got.cif
#   From: 2010.05.17/outbox.cif.g08.bks.cpg/sg4_5_cif.got.tgz:9741.got - 2010.06.03 18:43:04.
