data_PCOD9119967
_publ_section_title
;
Structure prediction by ZEFSAII (Michael W. Deem and Ramdas Pophale) SiO2 
 PCOD9119967
Probable space group: C 2
;
_chemical_formula_sum "Si O2"
_cell_formula_units_Z 32
_cell_length_a 18.805107
_cell_length_b 8.694817
_cell_length_c 23.836069
_cell_angle_alpha 90.000000
_cell_angle_beta 158.764437
_cell_angle_gamma 90.000000
_cell_volume 1411.637395
_symmetry_space_group_name_H-M "C 2"
_symmetry_group_IT_number 5
_symmetry_cell_setting 'monoclinic'
loop_
_space_group_symop_operation_xyz
x,y,z
-x,y,-z
1/2+x,1/2+y,z
1/2-x,1/2+y,-z
loop_
_atom_site_type_symbol
_atom_site_label
_atom_site_fract_x
_atom_site_fract_y
_atom_site_fract_z
Si Si1 0.804755 0.086080 0.824812
Si Si2 0.004214 0.304866 0.233354
Si Si3 0.166683 0.116218 0.659852
Si Si4 0.831146 0.265614 0.222384
Si Si5 0.310311 0.429456 0.710787
Si Si6 0.578731 0.199476 0.495751
Si Si7 0.936372 0.502093 0.014009
Si Si8 0.699148 0.479055 0.942684
O O1 0.615682 0.197819 0.685586
O O2 0.739932 0.927143 0.806265
O O3 0.850977 0.042122 0.793879
O O4 0.000000 0.135281 0.000000
O O5 0.986041 0.291991 0.287095
O O6 0.879572 0.447246 0.117385
O O7 0.231159 0.295557 0.382382
O O8 0.886659 0.153111 0.123804
O O9 0.106955 0.158737 0.679660
O O10 0.218552 0.276677 0.668117
O O11 0.360943 0.015226 0.804114
O O12 0.000000 0.044284 0.500000
O O13 0.648652 0.173829 0.060241
O O14 0.162863 0.523181 0.562112
O O15 0.510684 0.389322 0.826840
O O16 0.500000 0.229018 0.500000
O O17 0.776234 0.430318 0.937643
O O18 0.000000 0.444185 0.000000
#
# Coordination Sequence:
#
# PCOD9119967 Si02
#       8
#     4   4   4   4   4   4   4   4
#     4  10  16  27  51  81 112 145 185 234 289 341
#     4  10  20  36  59  87 119 155 195 245 298 347
#     4  10  17  29  52  82 112 145 189 239 285 334
#     4   9  17  31  54  84 114 146 189 245 293 333
#     4   9  16  28  50  81 108 137 185 238 285 329
#     4   9  19  33  52  78 113 154 190 233 290 349
#     4   9  18  32  52  80 114 152 191 231 284 348
#     4  10  19  34  59  85 112 150 194 237 289 351
#
# _framework density 22.668710999999998
#
# number of rings (size 3 to 8) (size 9 to 14) (size 15 to 20)
#    0.000    2.500    0.000    6.000    0.000    0.000 
#    0.000    3.125    0.000   27.750    0.000    0.000 
#    0.000    0.000    0.000    0.000    0.000    0.000 
#
# Total GULP energy -89367.770733 kJ/mol
# GULP energy per Si atom -5585.485671 kJ/mol
# Density = 2.261712 g / cm^3
# Si number density = 22.668711 Si / 1000 Ang^3
#
#
#
# Elastic Constant Matrix: (Units=GPa)
#
#
# Indices 1 2 3 4 5 6 
#
# 1 148.1976 10.5266 67.4885 0.0007 43.2440 0.0006
# 2 10.5266 39.5127 25.6010 0.0013 5.6266 -0.0003
# 3 67.4885 25.6010 186.9864 0.0008 9.0211 -0.0015
# 4 0.0007 0.0013 0.0008 -2.8964 -0.0013 18.4347
# 5 43.2440 5.6266 9.0211 -0.0013 37.8204 -0.0007
# 6 0.0006 -0.0003 -0.0015 18.4347 -0.0007 -1.5994
#
#
#
# Elastic Compliance Matrix: (Units=1/GPa)
#
#
# Indices 1 2 3 4 5 6 
#
# 1 0.012386 0.001190 -0.003987 -0.000001 -0.013388 -0.000002
# 2 0.001190 0.028290 -0.004081 0.000000 -0.004596 -0.000002
# 3 -0.003987 -0.004081 0.007179 0.000001 0.003454 0.000001
# 4 -0.000001 0.000000 0.000001 0.004772 0.000003 0.054995
# 5 -0.013388 -0.004596 0.003454 0.000003 0.041608 0.000004
# 6 -0.000002 -0.000002 0.000001 0.054995 0.000004 0.008641
#
#
# Mechanical properties :
#
#
# Convention : Reuss Voigt Hill
#
# Bulk Modulus (GPa) = 29.32695 64.65878 46.99287
# Shear Modulus (GPa) = 39.06315 24.73695 31.90005
#
# Velocity S-wave (km/s) = 4.15567 3.30697 3.75537
# Velocity P-wave (km/s) = 5.99928 6.57014 6.29119
#
# Compressibility (1/GPa) = 0.03409833
#
# Stress axis : x y z
#
# Youngs Moduli (GPa) = 80.73919 35.34819 139.29006
#
# Poissons Ratio (x) = -0.04207 0.55540
# Poissons Ratio (y) = -0.09610 0.56846
# Poissons Ratio (z) = 0.32194 0.14426
#
# Static dielectric constant tensor:
#      x y z
#    x 1.854860 0.000000 -0.028690 
#    y 0.000000 1.871890 0.000000 
#    z -0.028690 0.000000 1.863760 
# 
# From -- ./inp_files/69270.got.cif
#   From: 2010.05.17/outbox.cif.g08.bks.cpg/sg5_35_cif.got.tgz:69270.got - 2010.06.03 18:56:24.
