data_PCOD9119431
_publ_section_title
;
Structure prediction by ZEFSAII (Michael W. Deem and Ramdas Pophale) SiO2 
 PCOD9119431
Probable space group: P 21
;
_chemical_formula_sum "Si O2"
_cell_formula_units_Z 16
_cell_length_a 21.728540
_cell_length_b 6.263968
_cell_length_c 9.334407
_cell_angle_alpha 90.000000
_cell_angle_beta 147.714672
_cell_angle_gamma 90.000000
_cell_volume 678.607356
_symmetry_space_group_name_H-M "P 21"
_symmetry_group_IT_number 4
_symmetry_cell_setting 'monoclinic'
loop_
_space_group_symop_operation_xyz
x,y,z
-x,1/2+y,-z
loop_
_atom_site_type_symbol
_atom_site_label
_atom_site_fract_x
_atom_site_fract_y
_atom_site_fract_z
Si Si1 0.208964 0.048280 0.492759
Si Si2 0.355025 0.409878 0.933250
Si Si3 0.981680 0.609022 0.650384
Si Si4 0.646397 0.140825 0.340181
Si Si5 0.126620 0.984462 0.855764
Si Si6 0.322569 0.722788 0.086108
Si Si7 0.173148 0.313412 0.162909
Si Si8 0.501297 0.087229 0.335405
O O1 0.296788 0.218220 0.734016
O O2 0.122513 0.025302 0.455405
O O3 0.136797 0.166721 0.225858
O O4 0.281137 0.852479 0.564289
O O5 0.410057 0.553392 0.917490
O O6 0.276257 0.571643 0.867964
O O7 0.429539 0.305358 0.204509
O O8 0.943252 0.597645 0.409371
O O9 0.036343 0.846565 0.772867
O O10 0.081660 0.451451 0.897159
O O11 0.548757 0.127597 0.268287
O O12 0.737550 0.975814 0.589703
O O13 0.215489 0.831229 0.950911
O O14 0.206301 0.139322 0.108552
O O15 0.391928 0.602351 0.347984
O O16 0.414791 0.891235 0.197418
#
# Coordination Sequence:
#
# PCOD9119431 Si02
#       8
#     2   2   2   2   2   2   2   2
#     4  11  27  48  74 108 146 193 253 319 372 454
#     4  11  26  46  75 105 146 195 247 308 381 452
#     4  12  26  45  74 105 152 195 244 308 384 441
#     4  11  27  48  74 108 146 193 253 319 372 454
#     4  12  27  47  73 111 152 197 253 306 376 463
#     4  12  27  47  73 111 152 197 253 306 376 463
#     4  11  26  46  75 105 146 195 247 308 381 452
#     4  12  26  45  74 105 152 195 244 308 384 441
#
# _framework density 23.577697000000001
#
# number of rings (size 3 to 8) (size 9 to 14) (size 15 to 20)
#    0.000    0.500    2.500    4.500   10.500    4.000 
#    0.000    0.000    0.000    0.000    0.000    0.000 
#    0.000    0.000    0.000    0.000    0.000    0.000 
#
# Total GULP energy -89251.823388 kJ/mol
# GULP energy per Si atom -5578.238962 kJ/mol
# Density = 2.352403 g / cm^3
# Si number density = 23.577697 Si / 1000 Ang^3
#
#
#
# Elastic Constant Matrix: (Units=GPa)
#
#
# Indices 1 2 3 4 5 6 
#
# 1 75.4098 31.4502 10.5180 0.0000 -4.4064 0.0000
# 2 31.4502 78.5281 26.8517 0.0000 -6.3146 0.0000
# 3 10.5180 26.8517 78.7593 0.0000 -21.1862 0.0000
# 4 0.0000 0.0000 0.0000 32.3466 0.0000 -6.5457
# 5 -4.4064 -6.3146 -21.1862 0.0000 40.1575 0.0000
# 6 0.0000 0.0000 0.0000 -6.5457 0.0000 23.7280
#
#
#
# Elastic Compliance Matrix: (Units=1/GPa)
#
#
# Indices 1 2 3 4 5 6 
#
# 1 0.015948 -0.006417 0.000300 0.000000 0.000899 0.000000
# 2 -0.006417 0.017002 -0.005139 0.000000 -0.000742 0.000000
# 3 0.000300 -0.005139 0.016549 0.000000 0.007956 0.000000
# 4 0.000000 0.000000 0.000000 0.032743 0.000000 0.009033
# 5 0.000899 -0.000742 0.007956 0.000000 0.029081 0.000000
# 6 0.000000 0.000000 0.000000 0.009033 0.000000 0.044636
#
#
# Mechanical properties :
#
#
# Convention : Reuss Voigt Hill
#
# Bulk Modulus (GPa) = 37.05634 41.14857 39.10245
# Shear Modulus (GPa) = 26.67124 30.17156 28.42140
#
# Velocity S-wave (km/s) = 3.36699 3.58112 3.47571
# Velocity P-wave (km/s) = 5.55575 5.88128 5.72083
#
# Compressibility (1/GPa) = 0.02698594
#
# Stress axis : x y z
#
# Youngs Moduli (GPa) = 62.70377 58.81643 60.42648
#
# Poissons Ratio (x) = 0.37745 -0.01813
# Poissons Ratio (y) = 0.40239 0.31054
# Poissons Ratio (z) = -0.01881 0.30227
#
# Static dielectric constant tensor:
#      x y z
#    x 1.989530 0.000000 0.071960 
#    y 0.000000 2.005520 0.000000 
#    z 0.071960 0.000000 1.942820 
# 
# From -- ./inp_files/7318.got.cif
#   From: 2010.05.17/outbox.cif.g08.bks.cpg/sg4_4_cif.got.tgz:7318.got - 2010.06.03 18:43:04.
