data_PCOD9119293
_publ_section_title
;
Structure prediction by ZEFSAII (Michael W. Deem and Ramdas Pophale) SiO2 
 PCOD9119293
Probable space group: P 21
;
_chemical_formula_sum "Si O2"
_cell_formula_units_Z 16
_cell_length_a 14.543745
_cell_length_b 9.647666
_cell_length_c 5.643051
_cell_angle_alpha 90.000000
_cell_angle_beta 127.052904
_cell_angle_gamma 90.000000
_cell_volume 631.914955
_symmetry_space_group_name_H-M "P 21"
_symmetry_group_IT_number 4
_symmetry_cell_setting 'monoclinic'
loop_
_space_group_symop_operation_xyz
x,y,z
-x,1/2+y,-z
loop_
_atom_site_type_symbol
_atom_site_label
_atom_site_fract_x
_atom_site_fract_y
_atom_site_fract_z
Si Si1 0.009784 0.132970 0.740980
Si Si2 0.824980 0.221508 0.112486
Si Si3 0.767586 0.524237 0.119500
Si Si4 0.032032 0.357530 0.128972
Si Si5 0.480193 0.397241 0.316067
Si Si6 0.344206 0.109140 0.560389
Si Si7 0.618608 0.107326 0.499926
Si Si8 0.708548 0.886804 0.321365
O O1 0.889096 0.147158 0.424855
O O2 0.004042 0.017818 0.937932
O O3 0.101236 0.074322 0.699075
O O4 0.045515 0.280046 0.902124
O O5 0.927673 0.279480 0.101775
O O6 0.761657 0.358658 0.106117
O O7 0.731557 0.128922 0.837559
O O8 0.713278 0.573489 0.782773
O O9 0.722760 0.572611 0.302647
O O10 0.155737 0.357267 0.450037
O O11 0.543839 0.512459 0.252556
O O12 0.552791 0.255073 0.407453
O O13 0.466833 0.489944 0.530441
O O14 0.352778 0.363541 0.023871
O O15 0.353076 0.274055 0.600041
O O16 0.673116 0.040434 0.350247
#
# Coordination Sequence:
#
# PCOD9119293 Si02
#       8
#     2   2   2   2   2   2   2   2
#     4  11  25  44  75 114 157 213 267 338 418 493
#     4  11  26  47  80 111 164 209 276 337 420 489
#     4  11  27  48  82 113 161 213 276 338 410 492
#     4  11  25  46  73 116 155 210 267 343 408 502
#     4  12  29  49  79 112 161 212 277 335 417 482
#     4  12  27  51  80 113 156 216 273 340 406 489
#     4  12  28  52  76 120 156 214 276 344 409 498
#     4  12  27  45  79 109 164 203 282 329 420 477
#
# _framework density 25.319863999999999
#
# number of rings (size 3 to 8) (size 9 to 14) (size 15 to 20)
#    0.000    0.500    2.500    3.750    8.750    7.000 
#    0.000    0.000    0.000    0.000    0.000    0.000 
#    0.000    0.000    0.000    0.000    0.000    0.000 
#
# Total GULP energy -89556.667495 kJ/mol
# GULP energy per Si atom -5597.291718 kJ/mol
# Density = 2.526223 g / cm^3
# Si number density = 25.319864 Si / 1000 Ang^3
#
#
#
# Elastic Constant Matrix: (Units=GPa)
#
#
# Indices 1 2 3 4 5 6 
#
# 1 89.3378 47.3077 17.9781 0.0000 0.2728 0.0000
# 2 47.3077 101.0649 27.3512 0.0000 -4.6571 0.0000
# 3 17.9781 27.3512 111.7684 0.0000 14.1801 0.0000
# 4 0.0000 0.0000 0.0000 36.3335 0.0000 -3.5108
# 5 0.2728 -4.6571 14.1801 0.0000 33.5003 0.0000
# 6 0.0000 0.0000 0.0000 -3.5108 0.0000 47.5421
#
#
#
# Elastic Compliance Matrix: (Units=1/GPa)
#
#
# Indices 1 2 3 4 5 6 
#
# 1 0.014960 -0.006872 -0.000621 0.000000 -0.000814 0.000000
# 2 -0.006872 0.013992 -0.002719 0.000000 0.003152 0.000000
# 3 -0.000621 -0.002719 0.010313 0.000000 -0.004738 0.000000
# 4 0.000000 0.000000 0.000000 0.027721 0.000000 0.002047
# 5 -0.000814 0.003152 -0.004738 0.000000 0.032301 0.000000
# 6 0.000000 0.000000 0.000000 0.002047 0.000000 0.021185
#
#
# Mechanical properties :
#
#
# Convention : Reuss Voigt Hill
#
# Bulk Modulus (GPa) = 53.07349 54.16055 53.61702
# Shear Modulus (GPa) = 33.97267 37.44411 35.70839
#
# Velocity S-wave (km/s) = 3.66695 3.84975 3.75946
# Velocity P-wave (km/s) = 6.23982 6.41854 6.32981
#
# Compressibility (1/GPa) = 0.01884180
#
# Stress axis : x y z
#
# Youngs Moduli (GPa) = 66.84502 71.46771 96.96063
#
# Poissons Ratio (x) = 0.49113 0.06025
# Poissons Ratio (y) = 0.45936 0.26360
# Poissons Ratio (z) = 0.04154 0.19429
#
# Static dielectric constant tensor:
#      x y z
#    x 2.039100 0.000000 -0.011480 
#    y 0.000000 2.013040 0.000000 
#    z -0.011480 0.000000 2.004030 
# 
# From -- ./inp_files/2617.got.cif
#   From: 2010.05.17/outbox.cif.g08.bks.cpg/sg4_2_cif.got.tgz:2617.got - 2010.06.03 18:43:04.
