data_PCOD9119852
_publ_section_title
;
Structure prediction by ZEFSAII (Michael W. Deem and Ramdas Pophale) SiO2 
 PCOD9119852
Probable space group: P 21
;
_chemical_formula_sum "Si O2"
_cell_formula_units_Z 16
_cell_length_a 9.000000
_cell_length_b 9.000000
_cell_length_c 9.000000
_cell_angle_alpha 90.000000
_cell_angle_beta 110.000000
_cell_angle_gamma 90.000000
_cell_volume 685.035921
_symmetry_space_group_name_H-M "P 21"
_symmetry_group_IT_number 4
_symmetry_cell_setting 'monoclinic'
loop_
_space_group_symop_operation_xyz
x,y,z
-x,1/2+y,-z
loop_
_atom_site_type_symbol
_atom_site_label
_atom_site_fract_x
_atom_site_fract_y
_atom_site_fract_z
Si Si1 0.670493 0.971320 0.108398
Si Si2 0.729318 0.366877 0.717366
Si Si3 0.562529 0.273364 0.133562
Si Si4 0.282625 0.216042 0.270670
Si Si5 0.133579 0.809545 0.562540
Si Si6 0.108386 0.111587 0.670485
Si Si7 0.053357 0.291456 0.946633
Si Si8 0.372518 0.291459 0.627471
O O1 0.829364 0.918707 0.080312
O O2 0.683271 0.929759 0.287963
O O3 0.625126 0.137141 0.059818
O O4 0.510308 0.889136 0.004046
O O5 0.699083 0.541460 0.699095
O O6 0.806333 0.332150 0.584604
O O7 0.562609 0.286200 0.685787
O O8 0.869802 0.333279 0.881094
O O9 0.415381 0.250787 0.193652
O O10 0.709239 0.291455 0.290747
O O11 0.314197 0.296717 0.437380
O O12 0.118893 0.249629 0.130187
O O13 0.995985 0.693758 0.489702
O O14 0.059823 0.945757 0.625136
O O15 0.080301 0.164205 0.829354
O O16 0.287948 0.153159 0.683257
#
# Coordination Sequence:
#
# PCOD9119852 Si02
#       8
#     2   2   2   2   2   2   2   2
#     4  10  24  43  67  95 132 175 223 272 325 395
#     4  11  22  43  65  97 137 171 220 276 334 390
#     4  11  24  41  69  98 132 175 221 272 331 389
#     4  11  22  43  65  97 137 171 220 276 334 390
#     4  11  24  41  69  98 132 175 221 272 331 389
#     4  10  24  43  67  95 132 175 223 272 325 395
#     4   9  24  46  64  93 140 176 216 279 324 396
#     4  11  22  42  68  95 130 174 224 267 332 392
#
# _framework density 23.356439000000002
#
# number of rings (size 3 to 8) (size 9 to 14) (size 15 to 20)
#    0.000    1.500    3.750    0.000   10.500    0.000 
#    6.750    0.000    0.000    0.000    0.000    0.000 
#    0.000    0.000    0.000    0.000    0.000    0.000 
#
# Total GULP energy -89304.334360 kJ/mol
# GULP energy per Si atom -5581.520898 kJ/mol
# Density = 2.330328 g / cm^3
# Si number density = 23.356439 Si / 1000 Ang^3
#
#
#
# Elastic Constant Matrix: (Units=GPa)
#
#
# Indices 1 2 3 4 5 6 
#
# 1 20.3633 -44.3184 22.1835 0.0000 27.9326 0.0000
# 2 -44.3184 -47.0154 -20.7840 0.0000 32.3174 0.0000
# 3 22.1835 -20.7840 77.5585 0.0000 50.7401 0.0000
# 4 0.0000 0.0000 0.0000 50.4993 0.0000 16.6709
# 5 27.9326 32.3174 50.7401 0.0000 40.5452 0.0000
# 6 0.0000 0.0000 0.0000 16.6709 0.0000 38.3865
#
#
#
# Elastic Compliance Matrix: (Units=1/GPa)
#
#
# Indices 1 2 3 4 5 6 
#
# 1 0.029836 -0.010743 -0.019677 0.000000 0.012632 0.000000
# 2 -0.010743 0.000922 -0.005746 0.000000 0.013857 0.000000
# 3 -0.019677 -0.005746 0.028227 0.000000 -0.017189 0.000000
# 4 0.000000 0.000000 0.000000 0.023116 0.000000 -0.010039
# 5 0.012632 0.013857 -0.017189 0.000000 0.026428 0.000000
# 6 0.000000 0.000000 0.000000 -0.010039 0.000000 0.030411
#
#
# Mechanical properties :
#
#
# Convention : Reuss Voigt Hill
#
# Bulk Modulus (GPa) = -74.93054 -3.88127 -39.40591
# Shear Modulus (GPa) = 24.17551 32.14122 28.15836
#
# Velocity S-wave (km/s) = 3.22074 3.71363 3.47593
# Velocity P-wave (km/s) = 4.28020 4.08934 0.89370
#
# Compressibility (1/GPa) = -0.01334569
#
# Stress axis : x y z
#
# Youngs Moduli (GPa) = 33.51688 1085.13683 35.42682
#
# Poissons Ratio (x) = 11.65711 0.69709
# Poissons Ratio (y) = 0.36006 0.20355
# Poissons Ratio (z) = 0.65950 6.23496
#
# Static dielectric constant tensor:
#      x y z
#    x 1.675510 0.000000 -0.167840 
#    y 0.000000 1.969750 0.000000 
#    z -0.167840 0.000000 1.553410 
# 
# From -- ./inp_files/5508.got.cif
#   From: 2010.05.17/outbox.ucp.g08.bks.cvg/sg4_3_cif.got.tgz:5508.got - 2010.06.11 12:51:24.
