data_PCOD9119911
_publ_section_title
;
Structure prediction by ZEFSAII (Michael W. Deem and Ramdas Pophale) SiO2 
 PCOD9119911
Probable space group: C 2
;
_chemical_formula_sum "Si O2"
_cell_formula_units_Z 26
_cell_length_a 19.576730
_cell_length_b 7.099032
_cell_length_c 19.389647
_cell_angle_alpha 90.000000
_cell_angle_beta 21.019800
_cell_angle_gamma 90.000000
_cell_volume 966.560678
_symmetry_space_group_name_H-M "C 2"
_symmetry_group_IT_number 5
_symmetry_cell_setting 'monoclinic'
loop_
_space_group_symop_operation_xyz
x,y,z
-x,y,-z
1/2+x,1/2+y,z
1/2-x,1/2+y,-z
loop_
_atom_site_type_symbol
_atom_site_label
_atom_site_fract_x
_atom_site_fract_y
_atom_site_fract_z
Si Si1 0.641950 0.948060 0.075432
Si Si2 0.064948 0.032955 0.094440
Si Si3 0.000000 0.625365 0.000000
Si Si4 0.287732 0.131542 0.762818
Si Si5 0.784817 0.513914 0.342802
Si Si6 0.319211 0.079604 0.572334
Si Si7 0.144454 0.065559 0.261946
O O1 0.587721 0.737739 0.105929
O O2 0.437439 0.053353 0.260601
O O3 0.783467 0.027073 0.883173
O O4 0.768874 0.926600 0.023529
O O5 0.849335 0.961506 0.303287
O O6 0.101433 0.076609 0.979863
O O7 0.088042 0.532455 0.846872
O O8 0.201331 0.697249 0.843802
O O9 0.297033 0.071304 0.675726
O O10 0.460030 0.044735 0.645619
O O11 0.323875 0.358471 0.731760
O O12 0.718154 0.296836 0.412935
O O13 0.579625 0.615919 0.526598
#
# Coordination Sequence:
#
# PCOD9119911 Si02
#       7
#     4   4   2   4   4   4   4
#     4   9  20  31  46  67  96 130 165 187 232 279
#     4  10  19  32  47  69  98 126 159 195 229 284
#     4  10  14  20  40  68  92 118 148 192 242 280
#     4   9  16  26  45  72  94 117 153 202 246 274
#     4   9  16  26  42  67  99 123 148 192 242 283
#     4   9  16  26  45  72  94 117 153 202 246 274
#     4   9  16  26  42  67  99 123 148 192 242 283
#
# _framework density 26.899502999999999
#
# number of rings (size 3 to 8) (size 9 to 14) (size 15 to 20)
#    0.000    2.769    1.538    1.846    0.000    1.231 
#    0.000    0.000    0.000    0.000   16.000    0.000 
#    0.000    0.000    0.000    0.000    0.000    0.000 
#
# Total GULP energy -72551.125423 kJ/mol
# GULP energy per Si atom -5580.855802 kJ/mol
# Density = 2.683828 g / cm^3
# Si number density = 26.899503 Si / 1000 Ang^3
#
#
#
# Elastic Constant Matrix: (Units=GPa)
#
#
# Indices 1 2 3 4 5 6 
#
# 1 98.3308 6.7265 44.4989 -0.0001 -37.6747 -0.0001
# 2 6.7265 80.1880 14.3367 -0.0010 -15.2970 0.0007
# 3 44.4989 14.3367 171.8281 -0.0005 -61.7428 0.0003
# 4 -0.0001 -0.0010 -0.0005 8.9369 0.0002 -10.3032
# 5 -37.6747 -15.2970 -61.7428 0.0002 48.7981 -0.0001
# 6 -0.0001 0.0007 0.0003 -10.3032 -0.0001 18.6870
#
#
#
# Elastic Compliance Matrix: (Units=1/GPa)
#
#
# Indices 1 2 3 4 5 6 
#
# 1 0.014541 0.001017 0.000546 0.000000 0.012237 0.000000
# 2 0.001017 0.013382 0.000751 0.000002 0.005930 0.000001
# 3 0.000546 0.000751 0.010730 0.000000 0.014234 0.000000
# 4 0.000000 0.000002 0.000000 0.307110 0.000000 0.169327
# 5 0.012237 0.005930 0.014234 0.000000 0.049809 0.000000
# 6 0.000000 0.000001 0.000000 0.169327 0.000000 0.146873
#
#
# Mechanical properties :
#
#
# Convention : Reuss Voigt Hill
#
# Bulk Modulus (GPa) = 23.10396 53.49678 38.30037
# Shear Modulus (GPa) = 9.05396 34.27005 21.66200
#
# Velocity S-wave (km/s) = 1.83661 3.57319 2.84085
# Velocity P-wave (km/s) = 3.62011 6.07901 5.00298
#
# Compressibility (1/GPa) = 0.04328263
#
# Stress axis : x y z
#
# Youngs Moduli (GPa) = 68.76933 74.72486 93.19409
#
# Poissons Ratio (x) = -0.07599 -0.05092
# Poissons Ratio (y) = -0.06993 -0.06999
# Poissons Ratio (z) = -0.03757 -0.05612
#
# Static dielectric constant tensor:
#      x y z
#    x 2.107210 0.000000 -0.090020 
#    y 0.000000 2.265280 0.000000 
#    z -0.090020 0.000000 2.106060 
# 
# From -- ./inp_files/67107.got.cif
#   From: 2010.05.17/outbox.cif.g08.bks.cpg/sg5_34_cif.got.tgz:67107.got - 2010.06.03 18:56:24.
