data_PCOD9119985
_publ_section_title
;
Structure prediction by ZEFSAII (Michael W. Deem and Ramdas Pophale) SiO2 
 PCOD9119985
Probable space group: C 2
;
_chemical_formula_sum "Si O2"
_cell_formula_units_Z 26
_cell_length_a 5.359448
_cell_length_b 14.670218
_cell_length_c 15.163365
_cell_angle_alpha 90.000000
_cell_angle_beta 77.896083
_cell_angle_gamma 90.000000
_cell_volume 1165.704410
_symmetry_space_group_name_H-M "C 2"
_symmetry_group_IT_number 5
_symmetry_cell_setting 'monoclinic'
loop_
_space_group_symop_operation_xyz
x,y,z
-x,y,-z
1/2+x,1/2+y,z
1/2-x,1/2+y,-z
loop_
_atom_site_type_symbol
_atom_site_label
_atom_site_fract_x
_atom_site_fract_y
_atom_site_fract_z
Si Si1 0.224619 0.605980 0.543648
Si Si2 0.278134 0.045969 0.089450
Si Si3 0.079836 0.259406 0.742120
Si Si4 0.577952 0.141383 0.747996
Si Si5 0.000000 0.186062 0.000000
Si Si6 0.729306 0.813742 0.533730
Si Si7 0.201574 0.352042 0.910730
O O1 0.500000 0.569131 0.500000
O O2 0.163831 0.596332 0.650216
O O3 0.239646 0.714952 0.518288
O O4 0.000000 0.569714 0.500000
O O5 0.403999 0.071203 0.173158
O O6 0.142289 0.945925 0.104661
O O7 0.500000 0.054696 0.000000
O O8 0.079038 0.122640 0.074380
O O9 0.303346 0.186588 0.749299
O O10 0.160169 0.298341 0.640758
O O11 0.092615 0.330483 0.822189
O O12 0.796549 0.217498 0.753258
O O13 0.237828 0.250814 0.950241
O O14 0.500000 0.860725 0.500000
O O15 0.000000 0.859763 0.500000
O O16 0.000000 0.381296 0.000000
#
# Coordination Sequence:
#
# PCOD9119985 Si02
#       7
#     4   4   4   4   2   4   4
#     4  10  16  30  51  89 120 160 217 265 312 392
#     4  11  24  43  66  92 131 173 222 276 334 404
#     4  12  20  36  61  95 124 169 220 268 325 397
#     4  12  21  34  65  92 125 171 219 266 331 392
#     4  10  20  46  66  88 128 172 222 264 348 386
#     4  10  16  29  52  87 120 161 216 264 314 389
#     4   9  22  44  61  96 129 167 222 276 329 404
#
# _framework density 22.304110999999999
#
# number of rings (size 3 to 8) (size 9 to 14) (size 15 to 20)
#    0.462    0.923    7.692    0.923    0.000    0.000 
#    9.692    0.000    0.000    1.846    0.000    0.000 
#    0.000    0.000    0.000    0.000    0.000    0.000 
#
# Total GULP energy -72403.565468 kJ/mol
# GULP energy per Si atom -5569.505036 kJ/mol
# Density = 2.225335 g / cm^3
# Si number density = 22.304111 Si / 1000 Ang^3
#
#
#
# Elastic Constant Matrix: (Units=GPa)
#
#
# Indices 1 2 3 4 5 6 
#
# 1 119.3868 18.7418 18.1379 0.0000 11.9872 0.0000
# 2 18.7418 112.5835 22.3473 0.0000 13.8857 0.0000
# 3 18.1379 22.3473 191.7946 0.0000 17.3908 0.0000
# 4 0.0000 0.0000 0.0000 20.6374 0.0000 -14.2009
# 5 11.9872 13.8857 17.3908 0.0000 33.6704 0.0000
# 6 0.0000 0.0000 0.0000 -14.2009 0.0000 -6.3207
#
#
#
# Elastic Compliance Matrix: (Units=1/GPa)
#
#
# Indices 1 2 3 4 5 6 
#
# 1 0.008866 -0.001075 -0.000490 0.000000 -0.002460 0.000000
# 2 -0.001075 0.009600 -0.000727 0.000000 -0.003201 0.000000
# 3 -0.000490 -0.000727 0.005562 0.000000 -0.002399 0.000000
# 4 0.000000 0.000000 0.000000 0.019032 0.000000 -0.042760
# 5 -0.002460 -0.003201 -0.002399 0.000000 0.033135 0.000000
# 6 0.000000 0.000000 0.000000 -0.042760 0.000000 -0.062141
#
#
# Mechanical properties :
#
#
# Convention : Reuss Voigt Hill
#
# Bulk Modulus (GPa) = 51.42713 60.24652 55.83683
# Shear Modulus (GPa) = 199.03794 33.89996 116.46895
#
# Velocity S-wave (km/s) = 9.45685 3.90282 7.23408
# Velocity P-wave (km/s) = 11.93105 6.88326 9.73985
#
# Compressibility (1/GPa) = 0.01944499
#
# Stress axis : x y z
#
# Youngs Moduli (GPa) = 112.78539 104.16294 179.77705
#
# Poissons Ratio (x) = 0.11201 0.08812
# Poissons Ratio (y) = 0.12128 0.13064
# Poissons Ratio (z) = 0.05528 0.07569
#
# Static dielectric constant tensor:
#      x y z
#    x 1.866550 0.000000 -0.034580 
#    y 0.000000 1.930520 0.000000 
#    z -0.034580 0.000000 1.779910 
# 
# From -- ./inp_files/48915.got.cif
#   From: 2010.05.17/outbox.cif.g08.bks.cpg/sg5_25_cif.got.tgz:48915.got - 2010.06.03 18:56:24.
