data_PCOD9119432
_publ_section_title
;
Structure prediction by ZEFSAII (Michael W. Deem and Ramdas Pophale) SiO2 
 PCOD9119432
Probable space group: P 21
;
_chemical_formula_sum "Si O2"
_cell_formula_units_Z 16
_cell_length_a 12.026342
_cell_length_b 9.342423
_cell_length_c 5.631828
_cell_angle_alpha 90.000000
_cell_angle_beta 79.450366
_cell_angle_gamma 90.000000
_cell_volume 622.069181
_symmetry_space_group_name_H-M "P 21"
_symmetry_group_IT_number 4
_symmetry_cell_setting 'monoclinic'
loop_
_space_group_symop_operation_xyz
x,y,z
-x,1/2+y,-z
loop_
_atom_site_type_symbol
_atom_site_label
_atom_site_fract_x
_atom_site_fract_y
_atom_site_fract_z
Si Si1 0.212467 0.509200 0.963137
Si Si2 0.592476 0.595892 0.799718
Si Si3 0.991512 0.162649 0.789207
Si Si4 0.535311 0.386643 0.177181
Si Si5 0.191944 0.177258 0.019398
Si Si6 0.337931 0.573851 0.415823
Si Si7 0.062698 0.958440 0.410479
Si Si8 0.718553 0.385838 0.432312
O O1 0.174438 0.346894 0.031366
O O2 0.283288 0.545613 0.175820
O O3 0.104789 0.615851 0.989759
O O4 0.274771 0.520534 0.682255
O O5 0.514925 0.729849 0.775493
O O6 0.676774 0.652106 0.975650
O O7 0.668535 0.531644 0.562150
O O8 0.525502 0.460177 0.926499
O O9 0.981461 0.327786 0.727350
O O10 0.970597 0.050756 0.584650
O O11 0.121193 0.135358 0.814055
O O12 0.458489 0.492881 0.365722
O O13 0.668789 0.379856 0.187577
O O14 0.128769 0.078224 0.235372
O O15 0.338788 0.745455 0.431213
O O16 0.150864 0.880873 0.554379
#
# Coordination Sequence:
#
# PCOD9119432 Si02
#       8
#     2   2   2   2   2   2   2   2
#     4  12  29  50  79 114 156 202 260 320 383 464
#     4  11  26  47  74 115 149 199 261 318 382 467
#     4  12  26  46  77 109 154 203 255 317 396 448
#     4  12  26  46  77 109 154 203 255 317 396 448
#     4  11  26  46  76 107 157 197 261 311 389 456
#     4  12  29  50  79 114 156 202 260 320 383 464
#     4  11  26  47  74 115 149 199 261 318 382 467
#     4  11  26  46  76 107 157 197 261 311 389 456
#
# _framework density 25.720611999999999
#
# number of rings (size 3 to 8) (size 9 to 14) (size 15 to 20)
#    0.000    0.500    2.500    3.750   10.500    4.000 
#    0.000    0.000    0.000    0.000    0.000    0.000 
#    0.000    0.000    0.000    0.000    0.000    0.000 
#
# Total GULP energy -89474.096415 kJ/mol
# GULP energy per Si atom -5592.131026 kJ/mol
# Density = 2.566207 g / cm^3
# Si number density = 25.720612 Si / 1000 Ang^3
#
#
#
# Elastic Constant Matrix: (Units=GPa)
#
#
# Indices 1 2 3 4 5 6 
#
# 1 86.5273 7.5287 25.7875 0.0000 28.5273 0.0000
# 2 7.5287 97.5940 28.9788 0.0000 5.8061 0.0000
# 3 25.7875 28.9788 89.7624 0.0000 -1.5900 0.0000
# 4 0.0000 0.0000 0.0000 43.0303 0.0000 -4.4168
# 5 28.5273 5.8061 -1.5900 0.0000 44.3927 0.0000
# 6 0.0000 0.0000 0.0000 -4.4168 0.0000 37.0696
#
#
#
# Elastic Compliance Matrix: (Units=1/GPa)
#
#
# Indices 1 2 3 4 5 6 
#
# 1 0.016693 0.000941 -0.005295 0.000000 -0.011040 0.000000
# 2 0.000941 0.011503 -0.004024 0.000000 -0.002253 0.000000
# 3 -0.005295 -0.004024 0.014039 0.000000 0.004432 0.000000
# 4 0.000000 0.000000 0.000000 0.023527 0.000000 0.002803
# 5 -0.011040 -0.002253 0.004432 0.000000 0.030074 0.000000
# 6 0.000000 0.000000 0.000000 0.002803 0.000000 0.027310
#
#
# Mechanical properties :
#
#
# Convention : Reuss Voigt Hill
#
# Bulk Modulus (GPa) = 39.24691 44.27488 41.76090
# Shear Modulus (GPa) = 33.69379 39.00443 36.34911
#
# Velocity S-wave (km/s) = 3.62331 3.89841 3.76337
# Velocity P-wave (km/s) = 5.72683 6.12492 5.92921
#
# Compressibility (1/GPa) = 0.02547971
#
# Stress axis : x y z
#
# Youngs Moduli (GPa) = 59.90535 86.93536 71.22857
#
# Poissons Ratio (x) = -0.08183 0.37716
# Poissons Ratio (y) = -0.05639 0.28662
# Poissons Ratio (z) = 0.31721 0.34982
#
# Static dielectric constant tensor:
#      x y z
#    x 2.081750 0.000000 0.034230 
#    y 0.000000 1.960470 0.000000 
#    z 0.034230 0.000000 2.069840 
# 
# From -- ./inp_files/2618.got.cif
#   From: 2010.05.17/outbox.cif.g08.bks.cpg/sg4_2_cif.got.tgz:2618.got - 2010.06.03 18:43:04.
