data_PCOD9119019
_publ_section_title
;
Structure prediction by ZEFSAII (Michael W. Deem and Ramdas Pophale) SiO2 
 PCOD9119019
Probable space group: P 21
;
_chemical_formula_sum "Si O2"
_cell_formula_units_Z 14
_cell_length_a 9.864393
_cell_length_b 10.865710
_cell_length_c 6.832864
_cell_angle_alpha 90.000000
_cell_angle_beta 133.102508
_cell_angle_gamma 90.000000
_cell_volume 534.727912
_symmetry_space_group_name_H-M "P 21"
_symmetry_group_IT_number 4
_symmetry_cell_setting 'monoclinic'
loop_
_space_group_symop_operation_xyz
x,y,z
-x,1/2+y,-z
loop_
_atom_site_type_symbol
_atom_site_label
_atom_site_fract_x
_atom_site_fract_y
_atom_site_fract_z
Si Si1 0.382561 0.462550 0.494103
Si Si2 0.441342 0.533298 0.975434
Si Si3 0.115705 0.717012 0.750835
Si Si4 0.745266 0.379429 0.420623
Si Si5 0.502167 0.731890 0.593336
Si Si6 0.196857 0.146621 0.870539
Si Si7 0.002709 0.044801 0.050748
O O1 0.352466 0.469678 0.698224
O O2 0.496014 0.586211 0.543086
O O3 0.489755 0.334814 0.564349
O O4 0.188700 0.479555 0.194001
O O5 0.293127 0.626666 0.913469
O O6 0.540173 0.438725 0.216341
O O7 0.628402 0.597751 0.080444
O O8 0.186876 0.846727 0.731554
O O9 0.960147 0.683932 0.436165
O O10 0.031067 0.678538 0.877106
O O11 0.689746 0.253306 0.476411
O O12 0.885328 0.461922 0.681980
O O13 0.695733 0.749610 0.899534
O O14 0.109265 0.062214 0.952408
#
# Coordination Sequence:
#
# PCOD9119019 Si02
#       7
#     2   2   2   2   2   2   2
#     4  11  24  46  74 114 152 204 253 323 375 462
#     4  11  24  48  74 105 154 198 252 312 380 449
#     4  12  25  49  74 113 150 196 262 316 382 459
#     4  12  24  46  77 108 153 206 254 322 383 463
#     4  11  24  48  78 110 157 203 262 313 388 461
#     4  11  23  52  72 113 153 198 252 328 376 457
#     4  12  26  47  79 111 153 203 261 314 398 451
#
# _framework density 26.181540999999999
#
# number of rings (size 3 to 8) (size 9 to 14) (size 15 to 20)
#    0.000    0.571    5.714    3.429    2.000    0.000 
#   10.286    0.000    0.000    0.000    0.000    0.000 
#    0.000    0.000    0.000    0.000    0.000    0.000 
#
# Total GULP energy -78312.084661 kJ/mol
# GULP energy per Si atom -5593.720333 kJ/mol
# Density = 2.612195 g / cm^3
# Si number density = 26.181541 Si / 1000 Ang^3
#
#
#
# Elastic Constant Matrix: (Units=GPa)
#
#
# Indices 1 2 3 4 5 6 
#
# 1 95.9232 20.4766 17.1146 0.0000 11.1006 0.0000
# 2 20.4766 51.5971 27.4061 0.0000 8.1825 0.0000
# 3 17.1146 27.4061 168.9961 0.0000 16.2377 0.0000
# 4 0.0000 0.0000 0.0000 30.3058 0.0000 3.5912
# 5 11.1006 8.1825 16.2377 0.0000 38.2615 0.0000
# 6 0.0000 0.0000 0.0000 3.5912 0.0000 43.4466
#
#
#
# Elastic Compliance Matrix: (Units=1/GPa)
#
#
# Indices 1 2 3 4 5 6 
#
# 1 0.011623 -0.004083 -0.000286 0.000000 -0.002377 0.000000
# 2 -0.004083 0.023027 -0.003087 0.000000 -0.002429 0.000000
# 3 -0.000286 -0.003087 0.006647 0.000000 -0.002077 0.000000
# 4 0.000000 0.000000 0.000000 0.033323 0.000000 -0.002754
# 5 -0.002377 -0.002429 -0.002077 0.000000 0.028227 0.000000
# 6 0.000000 0.000000 0.000000 -0.002754 0.000000 0.023244
#
#
# Mechanical properties :
#
#
# Convention : Reuss Voigt Hill
#
# Bulk Modulus (GPa) = 37.90502 49.61233 43.75868
# Shear Modulus (GPa) = 33.37807 39.17071 36.27439
#
# Velocity S-wave (km/s) = 3.57441 3.87217 3.72626
# Velocity P-wave (km/s) = 5.61644 6.24356 5.93828
#
# Compressibility (1/GPa) = 0.02638173
#
# Stress axis : x y z
#
# Youngs Moduli (GPa) = 86.03694 43.42806 150.45368
#
# Poissons Ratio (x) = 0.17734 0.04310
# Poissons Ratio (y) = 0.35133 0.46449
# Poissons Ratio (z) = 0.02464 0.13407
#
# Static dielectric constant tensor:
#      x y z
#    x 2.121450 0.000000 -0.104120 
#    y 0.000000 2.209690 0.000000 
#    z -0.104120 0.000000 2.110480 
# 
# From -- ./inp_files/8379.got.cif
#   From: 2010.05.17/outbox.cif.g08.bks.cpg/sg4_5_cif.got.tgz:8379.got - 2010.06.03 18:43:04.
