data_PCOD9119552
_publ_section_title
;
Structure prediction by ZEFSAII (Michael W. Deem and Ramdas Pophale) SiO2 
 PCOD9119552
Probable space group: P 21
;
_chemical_formula_sum "Si O2"
_cell_formula_units_Z 10
_cell_length_a 14.248575
_cell_length_b 5.290657
_cell_length_c 13.875921
_cell_angle_alpha 90.000000
_cell_angle_beta 159.106187
_cell_angle_gamma 90.000000
_cell_volume 373.052024
_symmetry_space_group_name_H-M "P 21"
_symmetry_group_IT_number 4
_symmetry_cell_setting 'monoclinic'
loop_
_space_group_symop_operation_xyz
x,y,z
-x,1/2+y,-z
loop_
_atom_site_type_symbol
_atom_site_label
_atom_site_fract_x
_atom_site_fract_y
_atom_site_fract_z
Si Si1 0.709709 0.464440 0.095943
Si Si2 0.802301 0.684617 0.392944
Si Si3 0.878569 0.675775 0.053831
Si Si4 0.447825 0.864643 0.389121
Si Si5 0.360247 0.000272 0.565636
O O1 0.759344 0.618360 0.240820
O O2 0.837696 0.561239 0.120694
O O3 0.889189 0.218643 0.290651
O O4 0.400580 0.417062 0.786639
O O5 0.701078 0.501073 0.379805
O O6 0.139938 0.838817 0.301111
O O7 0.822581 0.466620 0.918114
O O8 0.640651 0.875090 0.818669
O O9 0.449828 0.603731 0.451364
O O10 0.623682 0.781016 0.464770
#
# Coordination Sequence:
#
# PCOD9119552 Si02
#       5
#     2   2   2   2   2
#     4  12  24  43  73 114 162 211 268 330 410 501
#     4  12  24  43  73 114 162 211 268 330 410 501
#     4  12  27  52  81 117 163 213 273 347 418 499
#     4  12  28  58  84 124 164 222 284 358 424 498
#     4  12  27  52  81 117 163 213 273 347 418 499
#
# _framework density 26.805910999999998
#
# number of rings (size 3 to 8) (size 9 to 14) (size 15 to 20)
#    0.000    0.000    4.000    6.000    0.000    0.000 
#    7.200    0.000    0.000    0.000    0.000    0.000 
#    0.000    0.000    0.000    0.000    0.000    0.000 
#
# Total GULP energy -56043.852272 kJ/mol
# GULP energy per Si atom -5604.385227 kJ/mol
# Density = 2.674490 g / cm^3
# Si number density = 26.805911 Si / 1000 Ang^3
#
#
#
# Elastic Constant Matrix: (Units=GPa)
#
#
# Indices 1 2 3 4 5 6 
#
# 1 125.1292 45.3952 33.4010 0.0000 -31.1570 0.0000
# 2 45.3952 128.2784 46.1594 0.0000 -21.5165 0.0000
# 3 33.4010 46.1594 131.1207 0.0000 -15.2374 0.0000
# 4 0.0000 0.0000 0.0000 53.7000 0.0000 -6.1411
# 5 -31.1570 -21.5165 -15.2374 0.0000 49.1419 0.0000
# 6 0.0000 0.0000 0.0000 -6.1411 0.0000 66.6529
#
#
#
# Elastic Compliance Matrix: (Units=1/GPa)
#
#
# Indices 1 2 3 4 5 6 
#
# 1 0.010487 -0.002396 -0.001221 0.000000 0.005221 0.000000
# 2 -0.002396 0.009935 -0.002654 0.000000 0.002008 0.000000
# 3 -0.001221 -0.002654 0.008970 0.000000 0.000845 0.000000
# 4 0.000000 0.000000 0.000000 0.018820 0.000000 0.001734
# 5 0.005221 0.002008 0.000845 0.000000 0.024801 0.000000
# 6 0.000000 0.000000 0.000000 0.001734 0.000000 0.015163
#
#
# Mechanical properties :
#
#
# Convention : Reuss Voigt Hill
#
# Bulk Modulus (GPa) = 59.34599 70.49330 64.91964
# Shear Modulus (GPa) = 47.02111 51.20380 49.11245
#
# Velocity S-wave (km/s) = 4.19278 4.37529 4.28501
# Velocity P-wave (km/s) = 6.75473 7.20270 6.98231
#
# Compressibility (1/GPa) = 0.01685034
#
# Stress axis : x y z
#
# Youngs Moduli (GPa) = 95.35593 100.65207 111.48125
#
# Poissons Ratio (x) = 0.24116 0.13614
# Poissons Ratio (y) = 0.22847 0.29586
# Poissons Ratio (z) = 0.11645 0.26712
#
# Static dielectric constant tensor:
#      x y z
#    x 2.145700 0.000000 -0.014270 
#    y 0.000000 2.184510 0.000000 
#    z -0.014270 0.000000 2.057740 
# 
# From -- ./inp_files/13160.got.cif
#   From: 2010.05.17/outbox.cif.g08.bks.cpg/sg4_7_cif.got.tgz:13160.got - 2010.06.03 18:43:04.
