data_PCOD9119029
_publ_section_title
;
Structure prediction by ZEFSAII (Michael W. Deem and Ramdas Pophale) SiO2 
 PCOD9119029
Probable space group: P 21
;
_chemical_formula_sum "Si O2"
_cell_formula_units_Z 16
_cell_length_a 5.787340
_cell_length_b 9.225647
_cell_length_c 11.112780
_cell_angle_alpha 90.000000
_cell_angle_beta 93.260940
_cell_angle_gamma 90.000000
_cell_volume 592.372351
_symmetry_space_group_name_H-M "P 21"
_symmetry_group_IT_number 4
_symmetry_cell_setting 'monoclinic'
loop_
_space_group_symop_operation_xyz
x,y,z
-x,1/2+y,-z
loop_
_atom_site_type_symbol
_atom_site_label
_atom_site_fract_x
_atom_site_fract_y
_atom_site_fract_z
Si Si1 0.821842 0.328420 0.884536
Si Si2 0.517969 0.997183 0.966413
Si Si3 0.254597 0.431509 0.592450
Si Si4 0.094528 0.625308 0.910423
Si Si5 0.863193 0.474683 0.412632
Si Si6 0.412501 0.194419 0.747328
Si Si7 0.836213 0.865225 0.781061
Si Si8 0.490129 0.733259 0.596042
O O1 0.672108 0.262340 0.769474
O O2 0.950143 0.481350 0.875478
O O3 0.631872 0.373783 0.979895
O O4 0.956506 0.202453 0.961076
O O5 0.735819 0.936755 0.897475
O O6 0.390471 0.101397 0.868540
O O7 0.637739 0.082596 0.078204
O O8 0.253350 0.333818 0.713261
O O9 0.435859 0.563363 0.597314
O O10 0.347878 0.311763 0.499444
O O11 0.011247 0.496177 0.538484
O O12 0.031270 0.748702 0.815136
O O13 0.657453 0.577138 0.356951
O O14 0.751202 0.317296 0.423625
O O15 0.053971 0.475133 0.311546
O O16 0.619515 0.781667 0.719597
#
# Coordination Sequence:
#
# PCOD9119029 Si02
#       8
#     2   2   2   2   2   2   2   2
#     4  11  26  44  70 105 143 191 244 292 363 426
#     4  11  25  43  69 101 144 192 237 296 354 427
#     4  11  25  45  70 108 138 184 240 296 365 435
#     4  11  24  42  66 102 137 185 239 292 343 437
#     4  11  24  45  71 102 138 191 238 291 368 426
#     4  11  24  46  71 102 142 190 237 302 362 416
#     4  11  24  41  70 100 140 187 234 292 358 417
#     4  11  24  44  71 100 144 178 235 301 355 434
#
# _framework density 27.010037000000001
#
# number of rings (size 3 to 8) (size 9 to 14) (size 15 to 20)
#    0.000    1.000    2.500    3.000    5.250    2.000 
#    0.000    1.250    0.000    0.000    0.000    0.000 
#    0.000    0.000    0.000    0.000    0.000    0.000 
#
# Total GULP energy -89510.459173 kJ/mol
# GULP energy per Si atom -5594.403698 kJ/mol
# Density = 2.694856 g / cm^3
# Si number density = 27.010037 Si / 1000 Ang^3
#
#
#
# Elastic Constant Matrix: (Units=GPa)
#
#
# Indices 1 2 3 4 5 6 
#
# 1 52.1188 18.5841 27.6767 0.0000 22.8156 0.0000
# 2 18.5841 159.5877 47.0154 0.0000 26.0241 0.0000
# 3 27.6767 47.0154 59.3671 0.0000 29.0079 0.0000
# 4 0.0000 0.0000 0.0000 45.3852 0.0000 17.2831
# 5 22.8156 26.0241 29.0079 0.0000 54.8861 0.0000
# 6 0.0000 0.0000 0.0000 17.2831 0.0000 50.8158
#
#
#
# Elastic Compliance Matrix: (Units=1/GPa)
#
#
# Indices 1 2 3 4 5 6 
#
# 1 0.027055 0.000893 -0.010270 0.000000 -0.006242 0.000000
# 2 0.000893 0.008218 -0.006524 0.000000 -0.000820 0.000000
# 3 -0.010270 -0.006524 0.031279 0.000000 -0.009169 0.000000
# 4 0.000000 0.000000 0.000000 0.025312 0.000000 -0.008609
# 5 -0.006242 -0.000820 -0.009169 0.000000 0.026049 0.000000
# 6 0.000000 0.000000 0.000000 -0.008609 0.000000 0.022607
#
#
# Mechanical properties :
#
#
# Convention : Reuss Voigt Hill
#
# Bulk Modulus (GPa) = 28.77742 50.84733 39.81238
# Shear Modulus (GPa) = 27.18814 42.07059 34.62936
#
# Velocity S-wave (km/s) = 3.17613 3.95091 3.58452
# Velocity P-wave (km/s) = 4.91201 6.29914 5.64832
#
# Compressibility (1/GPa) = 0.03474946
#
# Stress axis : x y z
#
# Youngs Moduli (GPa) = 36.96211 121.68742 31.97064
#
# Poissons Ratio (x) = -0.10866 0.32834
# Poissons Ratio (y) = -0.03301 0.20857
# Poissons Ratio (z) = 0.37960 0.79386
#
# Static dielectric constant tensor:
#      x y z
#    x 2.097890 0.000000 -0.017000 
#    y 0.000000 2.080760 0.000000 
#    z -0.017000 0.000000 2.146390 
# 
# From -- ./inp_files/3630.got.cif
#   From: 2010.05.17/outbox.cif.g08.bks.cpg/sg4_2_cif.got.tgz:3630.got - 2010.06.03 18:43:04.
