data_PCOD9119699
_publ_section_title
;
Structure prediction by ZEFSAII (Michael W. Deem and Ramdas Pophale) SiO2 
 PCOD9119699
Probable space group: P 21
;
_chemical_formula_sum "Si O2"
_cell_formula_units_Z 8
_cell_length_a 11.314851
_cell_length_b 5.381006
_cell_length_c 12.008004
_cell_angle_alpha 90.000000
_cell_angle_beta 24.097715
_cell_angle_gamma 90.000000
_cell_volume 298.508152
_symmetry_space_group_name_H-M "P 21"
_symmetry_group_IT_number 4
_symmetry_cell_setting 'monoclinic'
loop_
_space_group_symop_operation_xyz
x,y,z
-x,1/2+y,-z
loop_
_atom_site_type_symbol
_atom_site_label
_atom_site_fract_x
_atom_site_fract_y
_atom_site_fract_z
Si Si1 0.175718 0.143720 0.175845
Si Si2 0.092222 0.655471 0.975688
Si Si3 0.707758 0.842370 0.697558
Si Si4 0.732367 0.511442 0.477444
O O1 0.296920 0.332845 0.165378
O O2 0.929404 0.265980 0.311983
O O3 0.011083 0.950084 0.396447
O O4 0.446510 0.019916 0.883629
O O5 0.943004 0.689754 0.224940
O O6 0.413412 0.537459 0.701991
O O7 0.908878 0.427493 0.078992
O O8 0.682461 0.593145 0.647892
#
# Coordination Sequence:
#
# PCOD9119699 Si02
#       4
#     2   2   2   2
#     4  12  26  45  73 114 162 205 254 312 394 493
#     4  12  30  54  80 114 154 208 280 344 396 466
#     4  12  26  45  73 114 162 205 254 312 394 493
#     4  12  28  50  78 112 152 214 254 328 412 466
#
# _framework density 26.799938000000001
#
# number of rings (size 3 to 8) (size 9 to 14) (size 15 to 20)
#    0.000    0.000    2.500    6.000   14.000    0.000 
#    0.000    0.000    0.000    0.000    0.000    0.000 
#    0.000    0.000    0.000    0.000    0.000    0.000 
#
# Total GULP energy -44806.770710 kJ/mol
# GULP energy per Si atom -5600.846339 kJ/mol
# Density = 2.673894 g / cm^3
# Si number density = 26.799938 Si / 1000 Ang^3
#
#
#
# Elastic Constant Matrix: (Units=GPa)
#
#
# Indices 1 2 3 4 5 6 
#
# 1 60.7306 14.2975 17.7321 0.0000 15.9186 0.0000
# 2 14.2975 94.9945 23.8127 0.0000 -6.7120 0.0000
# 3 17.7321 23.8127 162.8640 0.0000 -10.2806 0.0000
# 4 0.0000 0.0000 0.0000 52.8422 0.0000 6.8634
# 5 15.9186 -6.7120 -10.2806 0.0000 52.7490 0.0000
# 6 0.0000 0.0000 0.0000 6.8634 0.0000 34.2166
#
#
#
# Elastic Compliance Matrix: (Units=1/GPa)
#
#
# Indices 1 2 3 4 5 6 
#
# 1 0.019511 -0.002875 -0.002125 0.000000 -0.006668 0.000000
# 2 -0.002875 0.011414 -0.001224 0.000000 0.002081 0.000000
# 3 -0.002125 -0.001224 0.006663 0.000000 0.001784 0.000000
# 4 0.000000 0.000000 0.000000 0.019430 0.000000 -0.003897
# 5 -0.006668 0.002081 0.001784 0.000000 0.021583 0.000000
# 6 0.000000 0.000000 0.000000 -0.003897 0.000000 0.030007
#
#
# Mechanical properties :
#
#
# Convention : Reuss Voigt Hill
#
# Bulk Modulus (GPa) = 39.77842 47.80818 43.79330
# Shear Modulus (GPa) = 38.62886 45.47801 42.05344
#
# Velocity S-wave (km/s) = 3.80067 4.12387 3.96556
# Velocity P-wave (km/s) = 5.84252 6.36810 6.11096
#
# Compressibility (1/GPa) = 0.02513926
#
# Stress axis : x y z
#
# Youngs Moduli (GPa) = 51.25241 87.61446 150.08076
#
# Poissons Ratio (x) = 0.25190 0.31890
# Poissons Ratio (y) = 0.14736 0.18376
# Poissons Ratio (z) = 0.10890 0.10728
#
# Static dielectric constant tensor:
#      x y z
#    x 2.197440 0.000000 -0.076180 
#    y 0.000000 2.205180 0.000000 
#    z -0.076180 0.000000 2.005440 
# 
# From -- ./inp_files/2310.got.cif
#   From: 2010.05.17/outbox.cif.g08.bks.cpg/sg4_2_cif.got.tgz:2310.got - 2010.06.03 18:43:04.
