data_PCOD9119966
_publ_section_title
;
Structure prediction by ZEFSAII (Michael W. Deem and Ramdas Pophale) SiO2 
 PCOD9119966
Probable space group: C 2
;
_chemical_formula_sum "Si O2"
_cell_formula_units_Z 26
_cell_length_a 16.678664
_cell_length_b 5.078675
_cell_length_c 25.768354
_cell_angle_alpha 90.000000
_cell_angle_beta 32.751252
_cell_angle_gamma 90.000000
_cell_volume 1180.836814
_symmetry_space_group_name_H-M "C 2"
_symmetry_group_IT_number 5
_symmetry_cell_setting 'monoclinic'
loop_
_space_group_symop_operation_xyz
x,y,z
-x,y,-z
1/2+x,1/2+y,z
1/2-x,1/2+y,-z
loop_
_atom_site_type_symbol
_atom_site_label
_atom_site_fract_x
_atom_site_fract_y
_atom_site_fract_z
Si Si1 0.939389 0.745300 0.871145
Si Si2 0.447003 0.952769 0.289280
Si Si3 0.790239 0.187136 0.801307
Si Si4 0.905513 0.682009 0.693590
Si Si5 0.585074 0.747603 0.053790
Si Si6 0.500000 0.432249 0.000000
Si Si7 0.300197 0.301620 0.505927
O O1 0.956690 0.546025 0.910306
O O2 0.031707 0.611348 0.774950
O O3 0.967152 0.045630 0.872371
O O4 0.764286 0.730538 0.952679
O O5 0.574848 0.732826 0.230753
O O6 0.287674 0.842685 0.392495
O O7 0.489071 0.152382 0.313011
O O8 0.821013 0.406919 0.740137
O O9 0.642853 0.254960 0.911862
O O10 0.796782 0.912981 0.768659
O O11 0.025202 0.739837 0.584352
O O12 0.524549 0.623222 0.034885
O O13 0.280021 0.564163 0.481728
#
# Coordination Sequence:
#
# PCOD9119966 Si02
#       7
#     4   4   4   4   4   2   4
#     4  10  21  37  53  81 105 146 172 237 272 320
#     4   9  19  31  55  77 114 138 177 225 279 318
#     4  10  21  31  53  76 112 139 182 223 268 315
#     4   9  18  32  47  84 110 141 171 236 271 315
#     4  10  23  36  56  74 111 139 191 216 276 322
#     4  12  24  42  56  86 104 162 182 230 258 342
#     4  10  16  27  50  78 113 134 178 219 288 314
#
# _framework density 22.018284000000001
#
# number of rings (size 3 to 8) (size 9 to 14) (size 15 to 20)
#    0.923    1.231    3.077    0.000    2.154    4.923 
#    0.000    0.000    0.000    0.000    0.000    6.462 
#    0.000    0.000    0.000    0.000    0.000    0.000 
#
# Total GULP energy -72563.033263 kJ/mol
# GULP energy per Si atom -5581.771789 kJ/mol
# Density = 2.196817 g / cm^3
# Si number density = 22.018284 Si / 1000 Ang^3
#
#
#
# Elastic Constant Matrix: (Units=GPa)
#
#
# Indices 1 2 3 4 5 6 
#
# 1 27.0576 -9.3256 3.7248 -0.0054 4.4586 -0.0182
# 2 -9.3256 86.0951 -3.9671 -0.0078 -1.9573 -0.0136
# 3 3.7248 -3.9671 120.2915 -0.0010 -9.5793 0.0095
# 4 -0.0054 -0.0078 -0.0010 21.7104 -0.0005 -1.0007
# 5 4.4586 -1.9573 -9.5793 -0.0005 18.6265 -0.0039
# 6 -0.0182 -0.0136 0.0095 -1.0007 -0.0039 9.9186
#
#
#
# Elastic Compliance Matrix: (Units=1/GPa)
#
#
# Indices 1 2 3 4 5 6 
#
# 1 0.040300 0.004044 -0.001928 0.000015 -0.010213 0.000079
# 2 0.004044 0.012078 0.000310 0.000006 0.000460 0.000025
# 3 -0.001928 0.000310 0.008782 0.000000 0.005011 -0.000010
# 4 0.000015 0.000006 0.000000 0.046276 -0.000001 0.004669
# 5 -0.010213 0.000460 0.005011 -0.000001 0.058757 0.000000
# 6 0.000079 0.000025 -0.000010 0.004669 0.000000 0.101292
#
#
# Mechanical properties :
#
#
# Convention : Reuss Voigt Hill
#
# Bulk Modulus (GPa) = 15.14863 23.81206 19.48034
# Shear Modulus (GPa) = 17.56622 26.25192 21.90907
#
# Velocity S-wave (km/s) = 2.82760 3.45668 3.15785
# Velocity P-wave (km/s) = 4.18992 5.17394 4.70771
#
# Compressibility (1/GPa) = 0.06601259
#
# Stress axis : x y z
#
# Youngs Moduli (GPa) = 24.81364 82.79608 113.86854
#
# Poissons Ratio (x) = -0.33485 0.21952
# Poissons Ratio (y) = -0.10035 -0.03527
# Poissons Ratio (z) = 0.04784 -0.02565
#
# Static dielectric constant tensor:
#      x y z
#    x 1.814260 -0.000010 -0.021340 
#    y -0.000010 1.820560 0.000000 
#    z -0.021340 0.000000 1.873970 
# 
# From -- ./inp_files/68985.got.cif
#   From: 2010.05.17/outbox.cif.g08.bks.cpg/sg5_35_cif.got.tgz:68985.got - 2010.06.03 18:56:24.
