data_PCOD9119755
_publ_section_title
;
Structure prediction by ZEFSAII (Michael W. Deem and Ramdas Pophale) SiO2 
 PCOD9119755
Probable space group: P 21
;
_chemical_formula_sum "Si O2"
_cell_formula_units_Z 8
_cell_length_a 12.275879
_cell_length_b 4.947908
_cell_length_c 6.877994
_cell_angle_alpha 90.000000
_cell_angle_beta 130.145838
_cell_angle_gamma 90.000000
_cell_volume 319.344915
_symmetry_space_group_name_H-M "P 21"
_symmetry_group_IT_number 4
_symmetry_cell_setting 'monoclinic'
loop_
_space_group_symop_operation_xyz
x,y,z
-x,1/2+y,-z
loop_
_atom_site_type_symbol
_atom_site_label
_atom_site_fract_x
_atom_site_fract_y
_atom_site_fract_z
Si Si1 0.687452 0.037880 0.931236
Si Si2 0.988281 0.922505 0.119191
Si Si3 0.611413 0.698926 0.522946
Si Si4 0.725934 0.199607 0.412805
O O1 0.560297 0.211029 0.688131
O O2 0.654213 0.743084 0.798700
O O3 0.677509 0.102104 0.146336
O O4 0.853461 0.063927 0.065342
O O5 0.109503 0.798121 0.397797
O O6 0.947905 0.660658 0.942370
O O7 0.648566 0.451472 0.424395
O O8 0.692044 0.949908 0.514005
#
# Coordination Sequence:
#
# PCOD9119755 Si02
#       4
#     2   2   2   2
#     4  12  28  50  86 118 168 222 277 343 438 482
#     4  12  26  51  79 119 169 218 282 348 417 507
#     4  12  27  50  79 123 165 212 280 348 413 509
#     4  12  27  51  80 120 166 216 281 345 414 514
#
# _framework density 25.051283000000002
#
# number of rings (size 3 to 8) (size 9 to 14) (size 15 to 20)
#    0.000    0.000    5.000    3.000    0.000   12.000 
#    0.000    0.000    0.000    0.000    0.000    0.000 
#    0.000    0.000    0.000    0.000    0.000    0.000 
#
# Total GULP energy -44685.081371 kJ/mol
# GULP energy per Si atom -5585.635171 kJ/mol
# Density = 2.499426 g / cm^3
# Si number density = 25.051283 Si / 1000 Ang^3
#
#
#
# Elastic Constant Matrix: (Units=GPa)
#
#
# Indices 1 2 3 4 5 6 
#
# 1 114.8607 44.2308 67.5799 0.0000 11.3100 0.0000
# 2 44.2308 158.4358 40.4140 0.0000 -19.6314 0.0000
# 3 67.5799 40.4140 186.0744 0.0000 -16.7054 0.0000
# 4 0.0000 0.0000 0.0000 45.2649 0.0000 6.1988
# 5 11.3100 -19.6314 -16.7054 0.0000 49.2386 0.0000
# 6 0.0000 0.0000 0.0000 6.1988 0.0000 36.4367
#
#
#
# Elastic Compliance Matrix: (Units=1/GPa)
#
#
# Indices 1 2 3 4 5 6 
#
# 1 0.013277 -0.003255 -0.004647 0.000000 -0.005924 0.000000
# 2 -0.003255 0.007728 -0.000157 0.000000 0.003776 0.000000
# 3 -0.004647 -0.000157 0.007412 0.000000 0.003519 0.000000
# 4 0.000000 0.000000 0.000000 0.022619 0.000000 -0.003848
# 5 -0.005924 0.003776 0.003519 0.000000 0.024369 0.000000
# 6 0.000000 0.000000 0.000000 -0.003848 0.000000 0.028100
#
#
# Mechanical properties :
#
#
# Convention : Reuss Voigt Hill
#
# Bulk Modulus (GPa) = 81.31034 84.86893 83.08963
# Shear Modulus (GPa) = 40.41233 46.66443 43.53838
#
# Velocity S-wave (km/s) = 4.02080 4.32065 4.17342
# Velocity P-wave (km/s) = 7.35417 7.67087 7.51419
#
# Compressibility (1/GPa) = 0.01229856
#
# Stress axis : x y z
#
# Youngs Moduli (GPa) = 75.31700 129.39175 134.91563
#
# Poissons Ratio (x) = 0.42121 0.62695
# Poissons Ratio (y) = 0.24518 0.02122
# Poissons Ratio (z) = 0.34999 0.02035
#
# Static dielectric constant tensor:
#      x y z
#    x 2.053130 0.000000 0.055220 
#    y 0.000000 2.004490 0.000000 
#    z 0.055220 0.000000 2.002710 
# 
# From -- ./inp_files/2316.got.cif
#   From: 2010.05.17/outbox.cif.g08.bks.cpg/sg4_2_cif.got.tgz:2316.got - 2010.06.03 18:43:04.
