data_PCOD9119105
_publ_section_title
;
Structure prediction by ZEFSAII (Michael W. Deem and Ramdas Pophale) SiO2 
 PCOD9119105
Probable space group: P 21
;
_chemical_formula_sum "Si O2"
_cell_formula_units_Z 14
_cell_length_a 7.871355
_cell_length_b 8.380451
_cell_length_c 16.491094
_cell_angle_alpha 90.000000
_cell_angle_beta 149.209304
_cell_angle_gamma 90.000000
_cell_volume 556.870679
_symmetry_space_group_name_H-M "P 21"
_symmetry_group_IT_number 4
_symmetry_cell_setting 'monoclinic'
loop_
_space_group_symop_operation_xyz
x,y,z
-x,1/2+y,-z
loop_
_atom_site_type_symbol
_atom_site_label
_atom_site_fract_x
_atom_site_fract_y
_atom_site_fract_z
Si Si1 0.664164 0.613220 0.374255
Si Si2 0.546806 0.559383 0.615281
Si Si3 0.118348 0.876093 0.124300
Si Si4 0.520573 0.220925 0.067365
Si Si5 0.829639 0.376686 0.585470
Si Si6 0.899085 0.347560 0.369735
Si Si7 0.596067 0.366511 0.930286
O O1 0.355755 0.729955 0.249297
O O2 0.706565 0.505518 0.470472
O O3 0.647953 0.483856 0.296366
O O4 0.995284 0.725170 0.515303
O O5 0.714871 0.538781 0.772842
O O6 0.790301 0.464761 0.655143
O O7 0.416045 0.726533 0.527224
O O8 0.222858 0.449179 0.484098
O O9 0.147884 0.865629 0.039222
O O10 0.770375 0.841010 0.023656
O O11 0.794490 0.253260 0.247847
O O12 0.394908 0.042426 0.027846
O O13 0.638539 0.251153 0.024408
O O14 0.223499 0.336989 0.741052
#
# Coordination Sequence:
#
# PCOD9119105 Si02
#       7
#     2   2   2   2   2   2   2
#     4  11  24  44  74 107 143 196 254 313 376 444
#     4  11  24  44  79 107 150 191 256 316 374 451
#     4  11  27  52  75 114 151 199 260 312 386 457
#     4  12  30  49  73 113 153 204 250 308 391 460
#     4  12  24  46  76 114 150 198 255 319 381 449
#     4  11  24  45  71 106 144 192 248 311 376 443
#     4  12  29  50  76 109 161 200 253 317 378 466
#
# _framework density 25.140485999999999
#
# number of rings (size 3 to 8) (size 9 to 14) (size 15 to 20)
#    0.000    0.571    2.857    5.143    8.000    0.000 
#    0.000    0.000    0.000    0.000    0.000    0.000 
#    0.000    0.000    0.000    0.000    0.000    0.000 
#
# Total GULP energy -78416.831393 kJ/mol
# GULP energy per Si atom -5601.202242 kJ/mol
# Density = 2.508327 g / cm^3
# Si number density = 25.140486 Si / 1000 Ang^3
#
#
#
# Elastic Constant Matrix: (Units=GPa)
#
#
# Indices 1 2 3 4 5 6 
#
# 1 101.6569 13.0142 21.9432 0.0000 -14.6972 0.0000
# 2 13.0142 117.9627 18.8826 0.0000 -15.2722 0.0000
# 3 21.9432 18.8826 61.9952 0.0000 -14.3293 0.0000
# 4 0.0000 0.0000 0.0000 38.6489 0.0000 -4.1490
# 5 -14.6972 -15.2722 -14.3293 0.0000 45.0501 0.0000
# 6 0.0000 0.0000 0.0000 -4.1490 0.0000 41.9409
#
#
#
# Elastic Compliance Matrix: (Units=1/GPa)
#
#
# Indices 1 2 3 4 5 6 
#
# 1 0.010925 -0.000381 -0.003191 0.000000 0.002420 0.000000
# 2 -0.000381 0.009157 -0.002121 0.000000 0.002305 0.000000
# 3 -0.003191 -0.002121 0.018888 0.000000 0.004247 0.000000
# 4 0.000000 0.000000 0.000000 0.026152 0.000000 0.002587
# 5 0.002420 0.002305 0.004247 0.000000 0.025119 0.000000
# 6 0.000000 0.000000 0.000000 0.002587 0.000000 0.024099
#
#
# Mechanical properties :
#
#
# Convention : Reuss Voigt Hill
#
# Bulk Modulus (GPa) = 36.25583 43.25498 39.75540
# Shear Modulus (GPa) = 37.05860 40.31297 38.68578
#
# Velocity S-wave (km/s) = 3.84351 4.00873 3.92699
# Velocity P-wave (km/s) = 5.84375 6.21845 6.03401
#
# Compressibility (1/GPa) = 0.02758177
#
# Stress axis : x y z
#
# Youngs Moduli (GPa) = 91.53720 109.20207 52.94436
#
# Poissons Ratio (x) = 0.04162 0.16897
# Poissons Ratio (y) = 0.03489 0.11232
# Poissons Ratio (z) = 0.29213 0.23166
#
# Static dielectric constant tensor:
#      x y z
#    x 2.045500 0.000000 0.017540 
#    y 0.000000 1.989350 0.000000 
#    z 0.017540 0.000000 1.984850 
# 
# From -- ./inp_files/5354.got.cif
#   From: 2010.05.17/outbox.cif.g08.bks.cpg/sg4_3_cif.got.tgz:5354.got - 2010.06.03 18:43:04.
