data_PCOD9119709
_publ_section_title
;
Structure prediction by ZEFSAII (Michael W. Deem and Ramdas Pophale) SiO2 
 PCOD9119709
Probable space group: P 21
;
_chemical_formula_sum "Si O2"
_cell_formula_units_Z 16
_cell_length_a 9.871775
_cell_length_b 5.530848
_cell_length_c 14.679584
_cell_angle_alpha 90.000000
_cell_angle_beta 51.657151
_cell_angle_gamma 90.000000
_cell_volume 628.622523
_symmetry_space_group_name_H-M "P 21"
_symmetry_group_IT_number 4
_symmetry_cell_setting 'monoclinic'
loop_
_space_group_symop_operation_xyz
x,y,z
-x,1/2+y,-z
loop_
_atom_site_type_symbol
_atom_site_label
_atom_site_fract_x
_atom_site_fract_y
_atom_site_fract_z
Si Si1 0.832162 0.922320 0.177406
Si Si2 0.111038 0.603380 0.044506
Si Si3 0.950775 0.057879 0.319178
Si Si4 0.613327 0.503200 0.063178
Si Si5 0.921786 0.305917 0.574228
Si Si6 0.266997 0.307082 0.145359
Si Si7 0.514407 0.271630 0.717323
Si Si8 0.557456 0.025070 0.522176
O O1 0.927734 0.057184 0.219563
O O2 0.626551 0.951852 0.268954
O O3 0.914914 0.656371 0.157665
O O4 0.893499 0.975126 0.050296
O O5 0.210751 0.481688 0.086856
O O6 0.229996 0.836146 0.973676
O O7 0.759285 0.093826 0.434263
O O8 0.025159 0.824257 0.340878
O O9 0.099835 0.250471 0.273904
O O10 0.425964 0.384139 0.139631
O O11 0.579004 0.715998 0.148552
O O12 0.660476 0.577747 0.940899
O O13 0.714333 0.333915 0.648492
O O14 0.010319 0.549938 0.494389
O O15 0.507526 0.048039 0.649259
O O16 0.531891 0.754827 0.492648
#
# Coordination Sequence:
#
# PCOD9119709 Si02
#       8
#     2   2   2   2   2   2   2   2
#     4  12  26  46  76 114 154 208 258 322 398 480
#     4  12  26  48  76 110 168 198 268 310 406 482
#     4  12  29  49  82 114 159 210 268 334 402 479
#     4  12  27  48  75 117 157 210 259 330 392 482
#     4  12  32  56  82 120 162 214 278 340 408 476
#     4  12  27  48  75 117 157 210 259 330 392 482
#     4  12  29  49  82 114 159 210 268 334 402 479
#     4  12  30  54  82 120 160 212 272 336 404 476
#
# _framework density 25.452473999999999
#
# number of rings (size 3 to 8) (size 9 to 14) (size 15 to 20)
#    0.000    0.000    6.250    1.500   12.250    0.000 
#    0.000    0.000    0.000    0.000    0.000    0.000 
#    0.000    0.000    0.000    0.000    0.000    0.000 
#
# Total GULP energy -89413.518505 kJ/mol
# GULP energy per Si atom -5588.344907 kJ/mol
# Density = 2.539454 g / cm^3
# Si number density = 25.452474 Si / 1000 Ang^3
#
#
#
# Elastic Constant Matrix: (Units=GPa)
#
#
# Indices 1 2 3 4 5 6 
#
# 1 137.3040 26.8324 43.4326 0.0000 -32.6227 0.0000
# 2 26.8324 72.4256 24.6473 0.0000 -14.5949 0.0000
# 3 43.4326 24.6473 82.5915 0.0000 -24.9823 0.0000
# 4 0.0000 0.0000 0.0000 33.2391 0.0000 0.1339
# 5 -32.6227 -14.5949 -24.9823 0.0000 48.9847 0.0000
# 6 0.0000 0.0000 0.0000 0.1339 0.0000 38.4234
#
#
#
# Elastic Compliance Matrix: (Units=1/GPa)
#
#
# Indices 1 2 3 4 5 6 
#
# 1 0.009655 -0.001590 -0.003312 0.000000 0.004267 0.000000
# 2 -0.001590 0.015926 -0.003313 0.000000 0.001997 0.000000
# 3 -0.003312 -0.003313 0.016403 0.000000 0.005173 0.000000
# 4 0.000000 0.000000 0.000000 0.030085 0.000000 -0.000105
# 5 0.004267 0.001997 0.005173 0.000000 0.026489 0.000000
# 6 0.000000 0.000000 0.000000 -0.000105 0.000000 0.026026
#
#
# Mechanical properties :
#
#
# Convention : Reuss Voigt Hill
#
# Bulk Modulus (GPa) = 39.13202 53.57178 46.35190
# Shear Modulus (GPa) = 33.43737 37.29004 35.36371
#
# Velocity S-wave (km/s) = 3.62846 3.83180 3.73151
# Velocity P-wave (km/s) = 5.74127 6.37733 6.06764
#
# Compressibility (1/GPa) = 0.02555452
#
# Stress axis : x y z
#
# Youngs Moduli (GPa) = 103.56813 62.79024 60.96530
#
# Poissons Ratio (x) = 0.09984 0.20193
# Poissons Ratio (y) = 0.16468 0.20195
# Poissons Ratio (z) = 0.34305 0.20800
#
# Static dielectric constant tensor:
#      x y z
#    x 2.019750 0.000000 0.048780 
#    y 0.000000 2.102090 0.000000 
#    z 0.048780 0.000000 2.000110 
# 
# From -- ./inp_files/7295.got.cif
#   From: 2010.05.17/outbox.cif.g08.bks.cpg/sg4_4_cif.got.tgz:7295.got - 2010.06.03 18:43:04.
