data_PCOD9119748
_publ_section_title
;
Structure prediction by ZEFSAII (Michael W. Deem and Ramdas Pophale) SiO2 
 PCOD9119748
Probable space group: P 21
;
_chemical_formula_sum "Si O2"
_cell_formula_units_Z 16
_cell_length_a 10.534138
_cell_length_b 13.094319
_cell_length_c 10.543598
_cell_angle_alpha 90.000000
_cell_angle_beta 153.757713
_cell_angle_gamma 90.000000
_cell_volume 643.069661
_symmetry_space_group_name_H-M "P 21"
_symmetry_group_IT_number 4
_symmetry_cell_setting 'monoclinic'
loop_
_space_group_symop_operation_xyz
x,y,z
-x,1/2+y,-z
loop_
_atom_site_type_symbol
_atom_site_label
_atom_site_fract_x
_atom_site_fract_y
_atom_site_fract_z
Si Si1 0.360487 0.234220 0.859812
Si Si2 0.861101 0.273747 0.862730
Si Si3 0.141022 0.969412 0.961932
Si Si4 0.709236 0.923593 0.362295
Si Si5 0.924378 0.101639 0.388173
Si Si6 0.682796 0.635876 0.683841
Si Si7 0.158759 0.368964 0.898014
Si Si8 0.641111 0.505283 0.405260
O O1 0.280609 0.305408 0.667681
O O2 0.090190 0.162237 0.646629
O O3 0.353015 0.310592 0.971388
O O4 0.649978 0.169267 0.105633
O O5 0.807737 0.377283 0.892346
O O6 0.585730 0.214526 0.559837
O O7 0.095511 0.302663 0.965706
O O8 0.034735 0.196622 0.108354
O O9 0.377736 0.953508 0.066641
O O10 0.211142 0.075315 0.095441
O O11 0.844297 0.953555 0.619814
O O12 0.844779 0.992417 0.373885
O O13 0.178436 0.085609 0.514841
O O14 0.610335 0.548094 0.518161
O O15 0.838038 0.404097 0.574707
O O16 0.328355 0.473740 0.078299
#
# Coordination Sequence:
#
# PCOD9119748 Si02
#       8
#     2   2   2   2   2   2   2   2
#     4  12  28  48  77 109 151 196 254 310 380 449
#     4  12  28  48  76 112 147 201 253 310 379 452
#     4  12  28  49  74 109 155 197 248 312 382 451
#     4  12  28  49  74 109 155 197 248 312 382 451
#     4  12  28  48  76 112 147 201 253 310 379 452
#     4  12  28  48  77 109 151 196 254 310 380 449
#     4  12  26  50  77 104 148 198 256 312 370 446
#     4  12  26  50  77 104 148 198 256 312 370 446
#
# _framework density 24.880665
#
# number of rings (size 3 to 8) (size 9 to 14) (size 15 to 20)
#    0.000    0.000    2.500    6.000   14.000    0.000 
#    0.000    0.000    0.000    0.000    0.000    0.000 
#    0.000    0.000    0.000    0.000    0.000    0.000 
#
# Total GULP energy -89521.000411 kJ/mol
# GULP energy per Si atom -5595.062526 kJ/mol
# Density = 2.482404 g / cm^3
# Si number density = 24.880665 Si / 1000 Ang^3
#
#
#
# Elastic Constant Matrix: (Units=GPa)
#
#
# Indices 1 2 3 4 5 6 
#
# 1 63.1543 23.4802 11.9462 0.0000 -3.9386 0.0000
# 2 23.4802 118.4779 50.2753 0.0000 -1.9843 0.0000
# 3 11.9462 50.2753 139.3968 0.0000 4.9812 0.0000
# 4 0.0000 0.0000 0.0000 58.6394 0.0000 5.6768
# 5 -3.9386 -1.9843 4.9812 0.0000 29.8970 0.0000
# 6 0.0000 0.0000 0.0000 5.6768 0.0000 31.9572
#
#
#
# Elastic Compliance Matrix: (Units=1/GPa)
#
#
# Indices 1 2 3 4 5 6 
#
# 1 0.017236 -0.003213 -0.000394 0.000000 0.002123 0.000000
# 2 -0.003213 0.010613 -0.003584 0.000000 0.000878 0.000000
# 3 -0.000394 -0.003584 0.008561 0.000000 -0.001716 0.000000
# 4 0.000000 0.000000 0.000000 0.017352 0.000000 -0.003082
# 5 0.002123 0.000878 -0.001716 0.000000 0.034072 0.000000
# 6 0.000000 0.000000 0.000000 -0.003082 0.000000 0.031839
#
#
# Mechanical properties :
#
#
# Convention : Reuss Voigt Hill
#
# Bulk Modulus (GPa) = 45.39644 54.71473 50.05558
# Shear Modulus (GPa) = 35.36141 39.78720 37.57431
#
# Velocity S-wave (km/s) = 3.77402 4.00324 3.89032
# Velocity P-wave (km/s) = 6.10543 6.58836 6.35149
#
# Compressibility (1/GPa) = 0.02202816
#
# Stress axis : x y z
#
# Youngs Moduli (GPa) = 58.01887 94.22824 116.80417
#
# Poissons Ratio (x) = 0.30276 0.04604
# Poissons Ratio (y) = 0.18642 0.41858
# Poissons Ratio (z) = 0.02287 0.33767
#
# Static dielectric constant tensor:
#      x y z
#    x 1.969830 0.000000 -0.071390 
#    y 0.000000 2.182850 0.000000 
#    z -0.071390 0.000000 1.952040 
# 
# From -- ./inp_files/12255.got.cif
#   From: 2010.05.17/outbox.cif.g08.bks.cpg/sg4_7_cif.got.tgz:12255.got - 2010.06.03 18:43:04.
