data_PCOD9119213
_publ_section_title
;
Structure prediction by ZEFSAII (Michael W. Deem and Ramdas Pophale) SiO2 
 PCOD9119213
Probable space group: P 21
;
_chemical_formula_sum "Si O2"
_cell_formula_units_Z 12
_cell_length_a 5.594509
_cell_length_b 9.357267
_cell_length_c 9.489013
_cell_angle_alpha 90.000000
_cell_angle_beta 69.017663
_cell_angle_gamma 90.000000
_cell_volume 463.804702
_symmetry_space_group_name_H-M "P 21"
_symmetry_group_IT_number 4
_symmetry_cell_setting 'monoclinic'
loop_
_space_group_symop_operation_xyz
x,y,z
-x,1/2+y,-z
loop_
_atom_site_type_symbol
_atom_site_label
_atom_site_fract_x
_atom_site_fract_y
_atom_site_fract_z
Si Si1 0.467120 0.885400 0.082852
Si Si2 0.529376 0.813725 0.388684
Si Si3 0.039777 0.548914 0.125720
Si Si4 0.177722 0.061760 0.543193
Si Si5 0.210971 0.763335 0.897958
Si Si6 0.966434 0.044424 0.289660
O O1 0.489432 0.809939 0.229032
O O2 0.207099 0.978708 0.153120
O O3 0.449237 0.779651 0.953185
O O4 0.705118 0.985641 0.997915
O O5 0.599072 0.664157 0.444112
O O6 0.291915 0.903261 0.499960
O O7 0.776799 0.914168 0.362838
O O8 0.041270 0.570337 0.292210
O O9 0.837378 0.423618 0.143147
O O10 0.000572 0.696824 0.051080
O O11 0.077969 0.106847 0.411109
O O12 0.188873 0.657856 0.771489
#
# Coordination Sequence:
#
# PCOD9119213 Si02
#       6
#     2   2   2   2   2   2
#     4  11  24  47  79 106 153 194 255 316 369 447
#     4  11  26  53  75 113 153 201 251 311 379 449
#     4  12  27  46  78 116 147 197 257 308 381 445
#     4  11  29  48  82 110 155 201 250 312 378 453
#     4  12  26  48  76 111 150 199 251 314 373 447
#     4  11  26  50  72 108 156 198 246 315 376 449
#
# _framework density 25.872955999999999
#
# number of rings (size 3 to 8) (size 9 to 14) (size 15 to 20)
#    0.000    0.667    3.333    2.000    7.000    5.333 
#    0.000    0.000    0.000    0.000    0.000    0.000 
#    0.000    0.000    0.000    0.000    0.000    0.000 
#
# Total GULP energy -67224.264074 kJ/mol
# GULP energy per Si atom -5602.022006 kJ/mol
# Density = 2.581407 g / cm^3
# Si number density = 25.872956 Si / 1000 Ang^3
#
#
#
# Elastic Constant Matrix: (Units=GPa)
#
#
# Indices 1 2 3 4 5 6 
#
# 1 67.2436 23.7019 39.0328 0.0000 27.1662 0.0000
# 2 23.7019 101.3157 32.0769 0.0000 29.2780 0.0000
# 3 39.0328 32.0769 168.2080 0.0000 30.7972 0.0000
# 4 0.0000 0.0000 0.0000 31.3407 0.0000 1.8341
# 5 27.1662 29.2780 30.7972 0.0000 54.2029 0.0000
# 6 0.0000 0.0000 0.0000 1.8341 0.0000 47.0034
#
#
#
# Elastic Compliance Matrix: (Units=1/GPa)
#
#
# Indices 1 2 3 4 5 6 
#
# 1 0.020238 -0.001594 -0.003005 0.000000 -0.007574 0.000000
# 2 -0.001594 0.012042 -0.000984 0.000000 -0.005146 0.000000
# 3 -0.003005 -0.000984 0.007207 0.000000 -0.002057 0.000000
# 4 0.000000 0.000000 0.000000 0.031980 0.000000 -0.001248
# 5 -0.007574 -0.005146 -0.002057 0.000000 0.026194 0.000000
# 6 0.000000 0.000000 0.000000 -0.001248 0.000000 0.021324
#
#
# Mechanical properties :
#
#
# Convention : Reuss Voigt Hill
#
# Bulk Modulus (GPa) = 35.31218 58.48784 46.90001
# Shear Modulus (GPa) = 35.81884 42.63978 39.22931
#
# Velocity S-wave (km/s) = 3.72481 4.06402 3.89810
# Velocity P-wave (km/s) = 5.67246 6.68405 6.19892
#
# Compressibility (1/GPa) = 0.02831884
#
# Stress axis : x y z
#
# Youngs Moduli (GPa) = 49.41266 83.04390 138.75980
#
# Poissons Ratio (x) = 0.13238 0.41703
# Poissons Ratio (y) = 0.07877 0.13657
# Poissons Ratio (z) = 0.14851 0.08173
#
# Static dielectric constant tensor:
#      x y z
#    x 2.045660 0.000000 -0.001290 
#    y 0.000000 2.089730 0.000000 
#    z -0.001290 0.000000 2.017090 
# 
# From -- ./inp_files/1034.got.cif
#   From: 2010.05.17/outbox.cif.g08.bks.cpg/sg4_1_cif.got.tgz:1034.got - 2010.06.03 18:43:04.
