data_PCOD9119083
_publ_section_title
;
Structure prediction by ZEFSAII (Michael W. Deem and Ramdas Pophale) SiO2 
 PCOD9119083
Probable space group: P 21
;
_chemical_formula_sum "Si O2"
_cell_formula_units_Z 16
_cell_length_a 28.799154
_cell_length_b 5.546636
_cell_length_c 23.407221
_cell_angle_alpha 90.000000
_cell_angle_beta 10.604517
_cell_angle_gamma 90.000000
_cell_volume 688.089837
_symmetry_space_group_name_H-M "P 21"
_symmetry_group_IT_number 4
_symmetry_cell_setting 'monoclinic'
loop_
_space_group_symop_operation_xyz
x,y,z
-x,1/2+y,-z
loop_
_atom_site_type_symbol
_atom_site_label
_atom_site_fract_x
_atom_site_fract_y
_atom_site_fract_z
Si Si1 0.247763 0.060140 0.275260
Si Si2 0.395326 0.118824 0.682335
Si Si3 0.392013 0.293798 0.484307
Si Si4 0.736744 0.232960 0.847247
Si Si5 0.351833 0.371430 0.406228
Si Si6 0.926488 0.366175 0.285100
Si Si7 0.356247 0.868773 0.262160
Si Si8 0.177873 0.937181 0.828291
O O1 0.005663 0.216588 0.551769
O O2 0.214461 0.825855 0.275808
O O3 0.260774 0.038666 0.327021
O O4 0.513761 0.156978 0.930320
O O5 0.688754 0.183308 0.321471
O O6 0.405823 0.907874 0.716653
O O7 0.282790 0.079025 0.756019
O O8 0.220800 0.331549 0.917622
O O9 0.478230 0.310759 0.314541
O O10 0.294301 0.042834 0.629229
O O11 0.121437 0.433779 0.810332
O O12 0.550130 0.383858 0.114017
O O13 0.582640 0.985609 0.025368
O O14 0.210092 0.630907 0.578806
O O15 0.175152 0.132631 0.609155
O O16 0.864276 0.323552 0.426898
#
# Coordination Sequence:
#
# PCOD9119083 Si02
#       8
#     2   2   2   2   2   2   2   2
#     4  12  22  42  72 104 132 192 234 296 348 430
#     4  12  27  46  72 103 145 189 242 296 364 431
#     4  12  27  46  72 103 145 189 242 296 364 431
#     4  11  24  44  70 102 144 182 241 295 357 420
#     4  11  27  49  74 103 150 192 237 302 363 426
#     4  11  27  49  74 103 150 192 237 302 363 426
#     4  11  24  44  70 102 144 182 241 295 357 420
#     4  12  26  44  72 106 136 190 242 300 350 430
#
# _framework density 23.252777999999999
#
# number of rings (size 3 to 8) (size 9 to 14) (size 15 to 20)
#    0.000    0.500    7.500    0.000    7.000    1.000 
#    9.000    0.000    0.000    0.000    0.000    0.000 
#    0.000    0.000    0.000    0.000    0.000    0.000 
#
# Total GULP energy -89300.033803 kJ/mol
# GULP energy per Si atom -5581.252113 kJ/mol
# Density = 2.319985 g / cm^3
# Si number density = 23.252778 Si / 1000 Ang^3
#
#
#
# Elastic Constant Matrix: (Units=GPa)
#
#
# Indices 1 2 3 4 5 6 
#
# 1 100.2723 6.4034 18.8442 0.0000 0.8426 0.0000
# 2 6.4034 57.7041 4.2587 0.0000 -11.3079 0.0000
# 3 18.8442 4.2587 60.3903 0.0000 -6.3491 0.0000
# 4 0.0000 0.0000 0.0000 28.5589 0.0000 -1.4780
# 5 0.8426 -11.3079 -6.3491 0.0000 33.8366 0.0000
# 6 0.0000 0.0000 0.0000 -1.4780 0.0000 31.7362
#
#
#
# Elastic Compliance Matrix: (Units=1/GPa)
#
#
# Indices 1 2 3 4 5 6 
#
# 1 0.010697 -0.001192 -0.003391 0.000000 -0.001301 0.000000
# 2 -0.001192 0.018704 -0.000293 0.000000 0.006225 0.000000
# 3 -0.003391 -0.000293 0.017991 0.000000 0.003363 0.000000
# 4 0.000000 0.000000 0.000000 0.035100 0.000000 0.001635
# 5 -0.001301 0.006225 0.003363 0.000000 0.032298 0.000000
# 6 0.000000 0.000000 0.000000 0.001635 0.000000 0.031586
#
#
# Mechanical properties :
#
#
# Convention : Reuss Voigt Hill
#
# Bulk Modulus (GPa) = 26.56620 30.81991 28.69305
# Shear Modulus (GPa) = 29.64328 31.41706 30.53017
#
# Velocity S-wave (km/s) = 3.57435 3.67973 3.62742
# Velocity P-wave (km/s) = 5.33707 5.59794 5.46906
#
# Compressibility (1/GPa) = 0.03764182
#
# Stress axis : x y z
#
# Youngs Moduli (GPa) = 93.48344 53.46577 55.58299
#
# Poissons Ratio (x) = 0.06372 0.18846
# Poissons Ratio (y) = 0.11141 0.01626
# Poissons Ratio (z) = 0.31697 0.01564
#
# Static dielectric constant tensor:
#      x y z
#    x 1.895010 0.000000 0.008310 
#    y 0.000000 2.007000 0.000000 
#    z 0.008310 0.000000 1.877970 
# 
# From -- ./inp_files/3961.got.cif
#   From: 2010.05.17/outbox.cif.g08.bks.cpg/sg4_2_cif.got.tgz:3961.got - 2010.06.03 18:43:04.
