data_PCOD9119769
_publ_section_title
;
Structure prediction by ZEFSAII (Michael W. Deem and Ramdas Pophale) SiO2 
 PCOD9119769
Probable space group: P 21
;
_chemical_formula_sum "Si O2"
_cell_formula_units_Z 16
_cell_length_a 10.611995
_cell_length_b 9.532119
_cell_length_c 8.287431
_cell_angle_alpha 90.000000
_cell_angle_beta 130.017036
_cell_angle_gamma 90.000000
_cell_volume 642.025087
_symmetry_space_group_name_H-M "P 21"
_symmetry_group_IT_number 4
_symmetry_cell_setting 'monoclinic'
loop_
_space_group_symop_operation_xyz
x,y,z
-x,1/2+y,-z
loop_
_atom_site_type_symbol
_atom_site_label
_atom_site_fract_x
_atom_site_fract_y
_atom_site_fract_z
Si Si1 0.270462 0.370240 0.917568
Si Si2 0.126624 0.918962 0.792075
Si Si3 0.368103 0.414059 0.659004
Si Si4 0.347279 0.869834 0.668282
Si Si5 0.343607 0.102359 0.118761
Si Si6 0.837947 0.113991 0.663957
Si Si7 0.337295 0.136775 0.465652
Si Si8 0.059380 0.627116 0.884813
O O1 0.247732 0.392329 0.710085
O O2 0.164585 0.489053 0.920202
O O3 0.469421 0.348374 0.107852
O O4 0.226862 0.214042 0.935535
O O5 0.231800 0.933056 0.715120
O O6 0.101529 0.755085 0.800651
O O7 0.974672 0.024825 0.678561
O O8 0.230746 0.964975 0.036677
O O9 0.497674 0.530029 0.829280
O O10 0.296705 0.488391 0.441233
O O11 0.411793 0.257225 0.641129
O O12 0.244912 0.741575 0.503848
O O13 0.386105 0.985369 0.566614
O O14 0.391173 0.165245 0.328417
O O15 0.896275 0.154575 0.890607
O O16 0.138420 0.125685 0.295657
#
# Coordination Sequence:
#
# PCOD9119769 Si02
#       8
#     2   2   2   2   2   2   2   2
#     4  12  29  50  77 110 154 199 254 318 379 453
#     4  12  27  48  78 109 155 201 250 316 379 450
#     4  12  27  50  76 112 155 201 255 311 384 456
#     4  12  29  48  77 113 151 202 256 311 382 453
#     4  12  27  48  78 109 155 201 250 316 379 450
#     4  12  27  50  76 112 155 201 255 311 384 456
#     4  12  29  48  77 113 151 202 256 311 382 453
#     4  12  29  50  77 110 154 199 254 318 379 453
#
# _framework density 24.921147000000001
#
# number of rings (size 3 to 8) (size 9 to 14) (size 15 to 20)
#    0.000    0.000    5.000    3.000   10.500    0.000 
#    0.000    0.000    0.000    0.000    0.000    0.000 
#    0.000    0.000    0.000    0.000    0.000    0.000 
#
# Total GULP energy -89277.086059 kJ/mol
# GULP energy per Si atom -5579.817879 kJ/mol
# Density = 2.486443 g / cm^3
# Si number density = 24.921147 Si / 1000 Ang^3
#
#
#
# Elastic Constant Matrix: (Units=GPa)
#
#
# Indices 1 2 3 4 5 6 
#
# 1 90.0412 42.6912 8.3769 0.0000 -12.5737 0.0000
# 2 42.6912 148.2878 32.7052 0.0000 3.2769 0.0000
# 3 8.3769 32.7052 83.0314 0.0000 -11.7294 0.0000
# 4 0.0000 0.0000 0.0000 45.0462 0.0000 -2.9339
# 5 -12.5737 3.2769 -11.7294 0.0000 33.9211 0.0000
# 6 0.0000 0.0000 0.0000 -2.9339 0.0000 42.1963
#
#
#
# Elastic Compliance Matrix: (Units=1/GPa)
#
#
# Indices 1 2 3 4 5 6 
#
# 1 0.013919 -0.004399 0.001175 0.000000 0.005990 0.000000
# 2 -0.004399 0.008882 -0.003581 0.000000 -0.003727 0.000000
# 3 0.001175 -0.003581 0.014137 0.000000 0.005670 0.000000
# 4 0.000000 0.000000 0.000000 0.022300 0.000000 0.001551
# 5 0.005990 -0.003727 0.005670 0.000000 0.034021 0.000000
# 6 0.000000 0.000000 0.000000 0.001551 0.000000 0.023807
#
#
# Mechanical properties :
#
#
# Convention : Reuss Voigt Hill
#
# Bulk Modulus (GPa) = 42.86883 54.32300 48.59592
# Shear Modulus (GPa) = 36.11358 40.07186 38.09272
#
# Velocity S-wave (km/s) = 3.81085 4.01427 3.91388
# Velocity P-wave (km/s) = 6.05001 6.58264 6.32193
#
# Compressibility (1/GPa) = 0.02332697
#
# Stress axis : x y z
#
# Youngs Moduli (GPa) = 71.84547 112.58494 70.73797
#
# Poissons Ratio (x) = 0.49521 -0.08308
# Poissons Ratio (y) = 0.31602 0.25333
# Poissons Ratio (z) = -0.08438 0.40320
#
# Static dielectric constant tensor:
#      x y z
#    x 2.063170 0.000000 0.114890 
#    y 0.000000 1.963590 0.000000 
#    z 0.114890 0.000000 2.052860 
# 
# From -- ./inp_files/5737.got.cif
#   From: 2010.05.17/outbox.cif.g08.bks.cpg/sg4_3_cif.got.tgz:5737.got - 2010.06.03 18:43:04.
