data_PCOD9119936
_publ_section_title
;
Structure prediction by ZEFSAII (Michael W. Deem and Ramdas Pophale) SiO2 
 PCOD9119936
Probable space group: C 2
;
_chemical_formula_sum "Si O2"
_cell_formula_units_Z 26
_cell_length_a 17.678706
_cell_length_b 7.888438
_cell_length_c 8.246870
_cell_angle_alpha 90.000000
_cell_angle_beta 55.576184
_cell_angle_gamma 90.000000
_cell_volume 948.682019
_symmetry_space_group_name_H-M "C 2"
_symmetry_group_IT_number 5
_symmetry_cell_setting 'monoclinic'
loop_
_space_group_symop_operation_xyz
x,y,z
-x,y,-z
1/2+x,1/2+y,z
1/2-x,1/2+y,-z
loop_
_atom_site_type_symbol
_atom_site_label
_atom_site_fract_x
_atom_site_fract_y
_atom_site_fract_z
Si Si1 0.594107 0.623310 0.741441
Si Si2 0.000000 0.794945 0.500000
Si Si3 0.038556 0.811727 0.119586
Si Si4 0.683763 0.900806 0.785245
Si Si5 0.169659 0.988274 0.160144
Si Si6 0.392018 0.811659 0.616373
Si Si7 0.785953 0.576374 0.567648
O O1 0.510633 0.497501 0.818216
O O2 0.598039 0.773125 0.872181
O O3 0.681413 0.508503 0.681617
O O4 0.620096 0.715472 0.542034
O O5 0.910546 0.914024 0.623283
O O6 0.002614 0.708824 0.320633
O O7 0.826659 0.540973 0.341201
O O8 0.142228 0.869807 0.040033
O O9 0.000000 0.735956 0.000000
O O10 0.727652 0.971894 0.895408
O O11 0.763744 0.769363 0.633202
O O12 0.145810 0.188153 0.196999
O O13 0.500000 0.837247 0.500000
O O14 0.339666 0.986667 0.647234
#
# Coordination Sequence:
#
# PCOD9119936 Si02
#       7
#     4   2   4   4   4   4   4
#     4   9  16  29  44  70  98 134 165 214 244 302
#     4   8  16  28  48  74 100 126 162 220 230 296
#     4  10  17  29  54  78  95 135 179 204 251 307
#     4   9  16  28  45  70 102 139 160 212 256 297
#     4  10  15  30  51  69 101 130 168 209 253 294
#     4  11  15  29  47  71 103 137 167 216 251 300
#     4   9  18  25  47  71 105 135 171 206 264 297
#
# _framework density 27.406445000000001
#
# number of rings (size 3 to 8) (size 9 to 14) (size 15 to 20)
#    1.846    0.615    5.385    0.000    0.000    0.000 
#    1.385    0.000    3.385    0.000    0.000    1.077 
#    0.000    0.000    0.000    0.000    0.000    0.000 
#
# Total GULP energy -72446.974759 kJ/mol
# GULP energy per Si atom -5572.844212 kJ/mol
# Density = 2.734407 g / cm^3
# Si number density = 27.406445 Si / 1000 Ang^3
#
#
#
# Elastic Constant Matrix: (Units=GPa)
#
#
# Indices 1 2 3 4 5 6 
#
# 1 169.4360 33.1381 31.1403 0.0000 18.3789 0.0000
# 2 33.1381 76.7782 22.7199 0.0000 -4.9093 0.0000
# 3 31.1403 22.7199 86.2113 0.0000 40.5670 0.0000
# 4 0.0000 0.0000 0.0000 21.6451 0.0000 1.3128
# 5 18.3789 -4.9093 40.5670 0.0000 46.8481 0.0000
# 6 0.0000 0.0000 0.0000 1.3128 0.0000 46.9810
#
#
#
# Elastic Compliance Matrix: (Units=1/GPa)
#
#
# Indices 1 2 3 4 5 6 
#
# 1 0.006853 -0.002986 -0.000466 0.000000 -0.002598 0.000000
# 2 -0.002986 0.017424 -0.008310 0.000000 0.010193 0.000000
# 3 -0.000466 -0.008310 0.024102 0.000000 -0.021559 0.000000
# 4 0.000000 0.000000 0.000000 0.046278 0.000000 -0.001293
# 5 -0.002598 0.010193 -0.021559 0.000000 0.042101 0.000000
# 6 0.000000 0.000000 0.000000 -0.001293 0.000000 0.021321
#
#
# Mechanical properties :
#
#
# Convention : Reuss Voigt Hill
#
# Bulk Modulus (GPa) = 40.23169 56.26913 48.25041
# Shear Modulus (GPa) = 26.33114 39.45666 32.89390
#
# Velocity S-wave (km/s) = 3.10298 3.79844 3.46818
# Velocity P-wave (km/s) = 5.24876 6.30979 5.80357
#
# Compressibility (1/GPa) = 0.02485603
#
# Stress axis : x y z
#
# Youngs Moduli (GPa) = 145.91219 57.39181 41.49021
#
# Poissons Ratio (x) = 0.17138 0.01933
# Poissons Ratio (y) = 0.43573 0.34476
# Poissons Ratio (z) = 0.06800 0.47690
#
# Static dielectric constant tensor:
#      x y z
#    x 2.164520 0.000000 0.072590 
#    y 0.000000 2.090430 0.000000 
#    z 0.072590 0.000000 2.286790 
# 
# From -- ./inp_files/45796.got.cif
#   From: 2010.05.17/outbox.cif.g08.bks.cpg/sg5_23_cif.got.tgz:45796.got - 2010.06.03 18:56:24.
