data_PCOD9119834
_publ_section_title
;
Structure prediction by ZEFSAII (Michael W. Deem and Ramdas Pophale) SiO2 
 PCOD9119834
Probable space group: P 21
;
_chemical_formula_sum "Si O2"
_cell_formula_units_Z 16
_cell_length_a 12.000000
_cell_length_b 9.000000
_cell_length_c 6.000000
_cell_angle_alpha 90.000000
_cell_angle_beta 80.000000
_cell_angle_gamma 90.000000
_cell_volume 638.155424
_symmetry_space_group_name_H-M "P 21"
_symmetry_group_IT_number 4
_symmetry_cell_setting 'monoclinic'
loop_
_space_group_symop_operation_xyz
x,y,z
-x,1/2+y,-z
loop_
_atom_site_type_symbol
_atom_site_label
_atom_site_fract_x
_atom_site_fract_y
_atom_site_fract_z
Si Si1 0.286293 0.485740 0.993278
Si Si2 0.931559 0.022520 0.744805
Si Si3 0.780366 0.781235 0.342311
Si Si4 0.958333 0.330750 0.607801
Si Si5 0.673952 0.316103 0.112900
Si Si6 0.518307 0.394017 0.809292
Si Si7 0.869779 0.514605 0.052678
Si Si8 0.536050 0.687132 0.537349
O O1 0.182585 0.435338 0.179068
O O2 0.259659 0.434230 0.752528
O O3 0.281320 0.661429 0.997612
O O4 0.409728 0.427681 0.000044
O O5 0.910430 0.166432 0.605187
O O6 0.033945 0.926031 0.615243
O O7 0.998145 0.066312 0.945525
O O8 0.802192 0.666409 0.129293
O O9 0.669844 0.725979 0.515832
O O10 0.906993 0.803662 0.390257
O O11 0.893686 0.427634 0.813221
O O12 0.775744 0.401311 0.193268
O O13 0.561401 0.272066 0.288497
O O14 0.628901 0.407642 0.917598
O O15 0.520403 0.517889 0.616605
O O16 0.496283 0.234647 0.703519
#
# Coordination Sequence:
#
# PCOD9119834 Si02
#       8
#     2   2   2   2   2   2   2   2
#     4  10  22  44  66  96 136 177 224 279 336 402
#     4  11  25  44  67 102 134 181 231 277 343 404
#     4  10  23  43  70  95 135 183 222 286 339 399
#     4  11  25  41  68 103 132 181 225 277 344 407
#     4  11  24  43  71 100 140 179 224 281 346 411
#     4  10  24  43  69 104 133 184 221 281 348 403
#     4  11  24  45  68  99 143 175 224 285 344 402
#     4  10  23  45  67 101 137 174 233 276 340 402
#
# _framework density 25.072261999999998
#
# number of rings (size 3 to 8) (size 9 to 14) (size 15 to 20)
#    0.000    1.500    2.500    0.750    3.500   10.000 
#    4.500    0.000    0.000    0.000    0.000    0.000 
#    0.000    0.000    0.000    0.000    0.000    0.000 
#
# Total GULP energy -89114.697630 kJ/mol
# GULP energy per Si atom -5569.668602 kJ/mol
# Density = 2.501520 g / cm^3
# Si number density = 25.072262 Si / 1000 Ang^3
#
#
#
# Elastic Constant Matrix: (Units=GPa)
#
#
# Indices 1 2 3 4 5 6 
#
# 1 91.4722 15.6878 4.8931 0.0000 -39.1476 0.0000
# 2 15.6878 59.3416 29.1985 0.0000 -12.8293 0.0000
# 3 4.8931 29.1985 -3.0302 0.0000 -36.4767 0.0000
# 4 0.0000 0.0000 0.0000 18.6244 0.0000 -13.1369
# 5 -39.1476 -12.8293 -36.4767 0.0000 32.3224 0.0000
# 6 0.0000 0.0000 0.0000 -13.1369 0.0000 24.8320
#
#
#
# Elastic Compliance Matrix: (Units=1/GPa)
#
#
# Indices 1 2 3 4 5 6 
#
# 1 0.013132 0.002872 -0.010717 0.000000 0.004950 0.000000
# 2 0.002872 0.017533 0.003287 0.000000 0.014147 0.000000
# 3 -0.010717 0.003287 -0.012006 0.000000 -0.025224 0.000000
# 4 0.000000 0.000000 0.000000 0.085656 0.000000 0.045315
# 5 0.004950 0.014147 -0.025224 0.000000 0.014084 0.000000
# 6 0.000000 0.000000 0.000000 0.045315 0.000000 0.064244
#
#
# Mechanical properties :
#
#
# Convention : Reuss Voigt Hill
#
# Bulk Modulus (GPa) = 104.77592 27.48249 66.12920
# Shear Modulus (GPa) = 25.64900 21.68937 23.66918
#
# Velocity S-wave (km/s) = 3.20191 2.94441 3.07585
# Velocity P-wave (km/s) = 7.45318 4.74810 6.24878
#
# Compressibility (1/GPa) = 0.00954418
#
# Stress axis : x y z
#
# Youngs Moduli (GPa) = 76.15163 57.03374 -83.29318
#
# Poissons Ratio (x) = -0.16378 -0.89262
# Poissons Ratio (y) = -0.21868 0.27381
# Poissons Ratio (z) = 0.81608 -0.18748
#
# Static dielectric constant tensor:
#      x y z
#    x 1.942480 0.000000 0.031380 
#    y 0.000000 2.033930 0.000000 
#    z 0.031380 0.000000 2.111730 
# 
# From -- ./inp_files/2634.got.cif
#   From: 2010.05.17/outbox.ucp.g08.bks.cvg/sg4_2_cif.got.tgz:2634.got - 2010.06.11 12:51:24.
