data_PCOD9119904
_publ_section_title
;
Structure prediction by ZEFSAII (Michael W. Deem and Ramdas Pophale) SiO2 
 PCOD9119904
Probable space group: P 21
;
_chemical_formula_sum "Si O2"
_cell_formula_units_Z 16
_cell_length_a 6.000000
_cell_length_b 15.000000
_cell_length_c 9.000000
_cell_angle_alpha 90.000000
_cell_angle_beta 120.000000
_cell_angle_gamma 90.000000
_cell_volume 701.480577
_symmetry_space_group_name_H-M "P 21"
_symmetry_group_IT_number 4
_symmetry_cell_setting 'monoclinic'
loop_
_space_group_symop_operation_xyz
x,y,z
-x,1/2+y,-z
loop_
_atom_site_type_symbol
_atom_site_label
_atom_site_fract_x
_atom_site_fract_y
_atom_site_fract_z
Si Si1 0.354690 0.918760 0.750513
Si Si2 0.813309 0.984672 0.443885
Si Si3 0.917401 0.341031 0.849644
Si Si4 0.488356 0.127343 0.502136
Si Si5 0.586348 0.100870 0.884931
Si Si6 0.511045 0.283010 0.975748
Si Si7 0.507215 0.834416 0.508830
Si Si8 0.006376 0.031729 0.196729
O O1 0.526285 0.887713 0.668372
O O2 0.092368 0.958338 0.598541
O O3 0.484691 0.000951 0.878942
O O4 0.324045 0.831160 0.840562
O O5 0.646458 0.898155 0.435827
O O6 0.716023 0.076233 0.489342
O O7 0.820476 0.000623 0.269911
O O8 0.706969 0.300662 0.897396
O O9 0.786686 0.327818 0.644785
O O10 0.218567 0.315765 0.923706
O O11 0.915724 0.446792 0.873924
O O12 0.544549 0.117653 0.696323
O O13 0.422637 0.231014 0.451157
O O14 0.243701 0.072327 0.364541
O O15 0.461220 0.177990 0.940922
O O16 0.877542 0.100127 0.040983
#
# Coordination Sequence:
#
# PCOD9119904 Si02
#       8
#     2   2   2   2   2   2   2   2
#     4  12  28  49  76 112 160 211 266 336 409 474
#     4  12  25  49  77 110 158 216 263 339 396 487
#     4  12  25  53  77 109 159 208 264 331 399 474
#     4  12  28  49  75 113 158 209 270 332 405 482
#     4  12  27  52  75 119 158 213 265 339 400 486
#     4  12  31  49  80 118 156 210 270 331 402 480
#     4  12  27  48  77 110 154 211 269 329 408 478
#     4  12  27  49  77 113 155 210 271 325 409 475
#
# _framework density 22.808900000000001
#
# number of rings (size 3 to 8) (size 9 to 14) (size 15 to 20)
#    0.000    0.000    7.500    0.750    8.750    0.000 
#    0.000    0.000    0.000    0.000    0.000    0.000 
#    0.000    0.000    0.000    0.000    0.000    0.000 
#
# Total GULP energy -89272.479544 kJ/mol
# GULP energy per Si atom -5579.529971 kJ/mol
# Density = 2.275699 g / cm^3
# Si number density = 22.808900 Si / 1000 Ang^3
#
#
#
# Elastic Constant Matrix: (Units=GPa)
#
#
# Indices 1 2 3 4 5 6 
#
# 1 75.3305 30.7153 18.8624 0.0000 8.0640 0.0000
# 2 30.7153 97.5137 17.4873 0.0000 -1.7969 0.0000
# 3 18.8624 17.4873 100.0540 0.0000 13.8410 0.0000
# 4 0.0000 0.0000 0.0000 33.1225 0.0000 0.0717
# 5 8.0640 -1.7969 13.8410 0.0000 15.5549 0.0000
# 6 0.0000 0.0000 0.0000 0.0717 0.0000 34.8562
#
#
#
# Elastic Compliance Matrix: (Units=1/GPa)
#
#
# Indices 1 2 3 4 5 6 
#
# 1 0.016529 -0.005164 -0.001078 0.000000 -0.008206 0.000000
# 2 -0.005164 0.012348 -0.001998 0.000000 0.005882 0.000000
# 3 -0.001078 -0.001998 0.011976 0.000000 -0.010328 0.000000
# 4 0.000000 0.000000 0.000000 0.030191 0.000000 -0.000062
# 5 -0.008206 0.005882 -0.010328 0.000000 0.078412 0.000000
# 6 0.000000 0.000000 0.000000 -0.000062 0.000000 0.028689
#
#
# Mechanical properties :
#
#
# Convention : Reuss Voigt Hill
#
# Bulk Modulus (GPa) = 41.03149 45.22536 43.12842
# Shear Modulus (GPa) = 24.66076 30.42893 27.54485
#
# Velocity S-wave (km/s) = 3.29171 3.65647 3.47888
# Velocity P-wave (km/s) = 5.69872 6.13982 5.92338
#
# Compressibility (1/GPa) = 0.02437153
#
# Stress axis : x y z
#
# Youngs Moduli (GPa) = 60.49998 80.98232 83.50105
#
# Poissons Ratio (x) = 0.41821 0.09004
# Poissons Ratio (y) = 0.31243 0.16686
# Poissons Ratio (z) = 0.06524 0.16183
#
# Static dielectric constant tensor:
#      x y z
#    x 1.911130 0.000000 0.036210 
#    y 0.000000 1.932630 0.000000 
#    z 0.036210 0.000000 1.869340 
# 
# From -- ./inp_files/1838.got.cif
#   From: 2010.05.17/outbox.ucp.g08.bks.cvg/sg4_1_cif.got.tgz:1838.got - 2010.06.11 12:51:24.
