data_PCOD9119440
_publ_section_title
;
Structure prediction by ZEFSAII (Michael W. Deem and Ramdas Pophale) SiO2 
 PCOD9119440
Probable space group: P 21
;
_chemical_formula_sum "Si O2"
_cell_formula_units_Z 16
_cell_length_a 12.786863
_cell_length_b 5.080981
_cell_length_c 10.462405
_cell_angle_alpha 90.000000
_cell_angle_beta 66.987609
_cell_angle_gamma 90.000000
_cell_volume 625.646924
_symmetry_space_group_name_H-M "P 21"
_symmetry_group_IT_number 4
_symmetry_cell_setting 'monoclinic'
loop_
_space_group_symop_operation_xyz
x,y,z
-x,1/2+y,-z
loop_
_atom_site_type_symbol
_atom_site_label
_atom_site_fract_x
_atom_site_fract_y
_atom_site_fract_z
Si Si1 0.222355 0.755790 0.563364
Si Si2 0.480303 0.747226 0.821050
Si Si3 0.665286 0.974844 0.896468
Si Si4 0.931069 0.499342 0.572164
Si Si5 0.143487 0.254125 0.750196
Si Si6 0.718455 0.602842 0.099388
Si Si7 0.472745 0.913849 0.439470
Si Si8 0.118979 0.802093 0.144978
O O1 0.171789 0.876368 0.458081
O O2 0.172043 0.481413 0.635135
O O3 0.355852 0.756044 0.488225
O O4 0.187894 0.972599 0.683830
O O5 0.600757 0.877650 0.800536
O O6 0.490543 0.502715 0.719998
O O7 0.390533 0.945345 0.799136
O O8 0.420222 0.665783 0.983643
O O9 0.790180 0.105113 0.831721
O O10 0.679776 0.733068 0.985833
O O11 0.901928 0.519589 0.734720
O O12 0.973832 0.774006 0.496313
O O13 0.219728 0.310271 0.838715
O O14 0.008312 0.219533 0.830761
O O15 0.817786 0.404642 0.009790
O O16 0.546188 0.697588 0.481458
#
# Coordination Sequence:
#
# PCOD9119440 Si02
#       8
#     2   2   2   2   2   2   2   2
#     4  12  27  49  78 113 152 215 254 319 396 468
#     4  11  26  51  77 114 156 201 272 331 399 471
#     4  11  26  47  78 110 147 210 259 336 397 457
#     4  12  25  49  75 110 155 203 255 321 383 463
#     4  12  28  50  76 113 162 202 261 321 395 479
#     4  11  28  47  79 107 155 206 257 333 401 466
#     4  12  30  49  80 118 161 210 266 325 396 483
#     4  11  28  46  77 115 152 205 266 322 399 479
#
# _framework density 25.573529000000001
#
# number of rings (size 3 to 8) (size 9 to 14) (size 15 to 20)
#    0.000    0.500    3.750    1.500   15.750    2.000 
#    0.000    0.000    0.000    0.000    0.000    0.000 
#    0.000    0.000    0.000    0.000    0.000    0.000 
#
# Total GULP energy -89627.619758 kJ/mol
# GULP energy per Si atom -5601.726235 kJ/mol
# Density = 2.551532 g / cm^3
# Si number density = 25.573529 Si / 1000 Ang^3
#
#
#
# Elastic Constant Matrix: (Units=GPa)
#
#
# Indices 1 2 3 4 5 6 
#
# 1 165.3003 30.7273 27.5599 0.0000 -12.7862 0.0000
# 2 30.7273 104.9288 35.6000 0.0000 -10.1209 0.0000
# 3 27.5599 35.6000 64.7787 0.0000 5.8066 0.0000
# 4 0.0000 0.0000 0.0000 -294.0868 0.0000 -181.7165
# 5 -12.7862 -10.1209 5.8066 0.0000 39.0349 0.0000
# 6 0.0000 0.0000 0.0000 -181.7165 0.0000 -69.0328
#
#
#
# Elastic Compliance Matrix: (Units=1/GPa)
#
#
# Indices 1 2 3 4 5 6 
#
# 1 0.006839 -0.000873 -0.002646 0.000000 0.002407 0.000000
# 2 -0.000873 0.012493 -0.006851 0.000000 0.003972 0.000000
# 3 -0.002646 -0.006851 0.020842 0.000000 -0.005743 0.000000
# 4 0.000000 0.000000 0.000000 0.005427 0.000000 -0.014287
# 5 0.002407 0.003972 -0.005743 0.000000 0.028291 0.000000
# 6 0.000000 0.000000 0.000000 -0.014287 0.000000 0.023121
#
#
# Mechanical properties :
#
#
# Convention : Reuss Voigt Hill
#
# Bulk Modulus (GPa) = 51.44984 58.08692 54.76838
# Shear Modulus (GPa) = 40.24729 -48.74223 -4.24747
#
# Velocity S-wave (km/s) = 3.97140 -4.37047 -1.29015
# Velocity P-wave (km/s) = 6.41806 1.64470 4.38671
#
# Compressibility (1/GPa) = 0.01943641
#
# Stress axis : x y z
#
# Youngs Moduli (GPa) = 146.21589 80.04297 47.97909
#
# Poissons Ratio (x) = 0.06987 0.12694
# Poissons Ratio (y) = 0.12763 0.32868
# Poissons Ratio (z) = 0.38686 0.54834
#
# Static dielectric constant tensor:
#      x y z
#    x 3.246520 0.000000 0.076630 
#    y 0.000000 2.006180 0.000000 
#    z 0.076630 0.000000 2.024660 
# 
# From -- ./inp_files/11607.got.cif
#   From: 2010.05.17/outbox.cif.g08.bks.cpg/sg4_6_cif.got.tgz:11607.got - 2010.06.03 18:43:04.
