data_PCOD9119858
_publ_section_title
;
Structure prediction by ZEFSAII (Michael W. Deem and Ramdas Pophale) SiO2 
 PCOD9119858
Probable space group: P 21
;
_chemical_formula_sum "Si O2"
_cell_formula_units_Z 16
_cell_length_a 15.000000
_cell_length_b 6.000000
_cell_length_c 15.000000
_cell_angle_alpha 90.000000
_cell_angle_beta 30.000000
_cell_angle_gamma 90.000000
_cell_volume 675.000000
_symmetry_space_group_name_H-M "P 21"
_symmetry_group_IT_number 4
_symmetry_cell_setting 'monoclinic'
loop_
_space_group_symop_operation_xyz
x,y,z
-x,1/2+y,-z
loop_
_atom_site_type_symbol
_atom_site_label
_atom_site_fract_x
_atom_site_fract_y
_atom_site_fract_z
Si Si1 0.878719 0.847460 0.509318
Si Si2 0.297137 0.453999 0.635169
Si Si3 0.069259 0.820246 0.094208
Si Si4 0.041520 0.955318 0.697298
Si Si5 0.644980 0.246156 0.659689
Si Si6 0.301403 0.949339 0.726221
Si Si7 0.743404 0.518112 0.751765
Si Si8 0.281152 0.111711 0.035328
O O1 0.951042 0.649518 0.383942
O O2 0.757472 0.756187 0.693734
O O3 0.053597 0.956266 0.399339
O O4 0.749859 0.014864 0.570630
O O5 0.290221 0.704821 0.684826
O O6 0.491276 0.445268 0.422200
O O7 0.119096 0.442560 0.731518
O O8 0.282283 0.207574 0.702194
O O9 0.020151 0.562992 0.155699
O O10 0.208090 0.895298 0.048810
O O11 0.155049 0.907371 0.928990
O O12 0.247764 0.876884 0.510551
O O13 0.889519 0.775431 0.805345
O O14 0.680334 0.359601 0.726364
O O15 0.433417 0.220618 0.842050
O O16 0.646973 0.539255 0.929927
#
# Coordination Sequence:
#
# PCOD9119858 Si02
#       8
#     2   2   2   2   2   2   2   2
#     4  11  20  42  67  86 127 178 232 297 364 428
#     4  10  24  48  78 113 154 200 244 299 365 458
#     4  12  26  43  76 104 149 186 236 303 368 442
#     4  11  25  45  64  97 139 183 229 298 369 435
#     4  11  26  43  68  94 136 186 241 307 365 441
#     4  10  24  47  78 117 151 197 252 292 368 458
#     4  11  21  39  66  92 127 180 244 299 364 429
#     4  12  28  43  65 105 139 184 246 305 373 437
#
# _framework density 23.703703999999998
#
# number of rings (size 3 to 8) (size 9 to 14) (size 15 to 20)
#    0.000    1.000    3.750    1.500    5.250    5.000 
#    2.250    0.000    0.000    0.000    0.000    0.000 
#    0.000    0.000    0.000    0.000    0.000    0.000 
#
# Total GULP energy -89251.576457 kJ/mol
# GULP energy per Si atom -5578.223529 kJ/mol
# Density = 2.364975 g / cm^3
# Si number density = 23.703704 Si / 1000 Ang^3
#
#
#
# Elastic Constant Matrix: (Units=GPa)
#
#
# Indices 1 2 3 4 5 6 
#
# 1 32.4649 7.0959 33.0374 0.0000 1.9672 0.0000
# 2 7.0959 87.9365 33.7827 0.0000 6.2797 0.0000
# 3 33.0374 33.7827 141.6213 0.0000 -6.8464 0.0000
# 4 0.0000 0.0000 0.0000 43.1509 0.0000 3.6381
# 5 1.9672 6.2797 -6.8464 0.0000 28.5085 0.0000
# 6 0.0000 0.0000 0.0000 3.6381 0.0000 31.5723
#
#
#
# Elastic Compliance Matrix: (Units=1/GPa)
#
#
# Indices 1 2 3 4 5 6 
#
# 1 0.041210 0.000948 -0.010104 0.000000 -0.005479 0.000000
# 2 0.000948 0.012899 -0.003479 0.000000 -0.003742 0.000000
# 3 -0.010104 -0.003479 0.010440 0.000000 0.003971 0.000000
# 4 0.000000 0.000000 0.000000 0.023402 0.000000 -0.002697
# 5 -0.005479 -0.003742 0.003971 0.000000 0.037233 0.000000
# 6 0.000000 0.000000 0.000000 -0.002697 0.000000 0.031984
#
#
# Mechanical properties :
#
#
# Convention : Reuss Voigt Hill
#
# Bulk Modulus (GPa) = 25.45966 45.53942 35.49954
# Shear Modulus (GPa) = 25.57124 33.18679 29.37901
#
# Velocity S-wave (km/s) = 3.28805 3.74581 3.52437
# Velocity P-wave (km/s) = 5.01788 6.16131 5.61876
#
# Compressibility (1/GPa) = 0.03927782
#
# Stress axis : x y z
#
# Youngs Moduli (GPa) = 24.26601 77.52459 95.78470
#
# Poissons Ratio (x) = -0.07347 0.96784
# Poissons Ratio (y) = -0.02300 0.33323
# Poissons Ratio (z) = 0.24519 0.26971
#
# Static dielectric constant tensor:
#      x y z
#    x 1.951540 0.000000 0.046060 
#    y 0.000000 1.949220 0.000000 
#    z 0.046060 0.000000 1.875500 
# 
# From -- ./inp_files/14069.got.cif
#   From: 2010.05.17/outbox.ucp.g08.bks.cvg/sg4_8_cif.got.tgz:14069.got - 2010.06.11 12:51:24.
