data_PCOD9119473
_publ_section_title
;
Structure prediction by ZEFSAII (Michael W. Deem and Ramdas Pophale) SiO2 
 PCOD9119473
Probable space group: P 21
;
_chemical_formula_sum "Si O2"
_cell_formula_units_Z 16
_cell_length_a 13.267152
_cell_length_b 8.926352
_cell_length_c 9.954048
_cell_angle_alpha 90.000000
_cell_angle_beta 32.072871
_cell_angle_gamma 90.000000
_cell_volume 625.956065
_symmetry_space_group_name_H-M "P 21"
_symmetry_group_IT_number 4
_symmetry_cell_setting 'monoclinic'
loop_
_space_group_symop_operation_xyz
x,y,z
-x,1/2+y,-z
loop_
_atom_site_type_symbol
_atom_site_label
_atom_site_fract_x
_atom_site_fract_y
_atom_site_fract_z
Si Si1 0.979607 0.474580 0.299885
Si Si2 0.879403 0.122346 0.593785
Si Si3 0.376289 0.891945 0.140298
Si Si4 0.807200 0.033150 0.363204
Si Si5 0.575165 0.462969 0.335574
Si Si6 0.917804 0.254527 0.993977
Si Si7 0.311227 0.286733 0.822585
Si Si8 0.696769 0.721788 0.876115
O O1 0.766175 0.419616 0.570804
O O2 0.991291 0.628105 0.203899
O O3 0.086566 0.509210 0.321113
O O4 0.104568 0.355523 0.077922
O O5 0.855115 0.068418 0.465974
O O6 0.079004 0.209995 0.372771
O O7 0.720084 0.243309 0.811583
O O8 0.613960 0.760708 0.113261
O O9 0.361592 0.052878 0.091209
O O10 0.594621 0.844587 0.901979
O O11 0.586806 0.987140 0.593316
O O12 0.850224 0.167781 0.206659
O O13 0.931797 0.890767 0.172777
O O14 0.445852 0.405864 0.602635
O O15 0.732599 0.335133 0.137519
O O16 0.321752 0.120786 0.748240
#
# Coordination Sequence:
#
# PCOD9119473 Si02
#       8
#     2   2   2   2   2   2   2   2
#     4  11  27  53  82 119 161 218 271 349 414 488
#     4  11  27  51  81 116 169 207 272 342 423 490
#     4  11  27  50  78 116 160 212 272 332 413 501
#     4  12  29  52  82 120 160 222 272 340 423 493
#     4  12  27  53  79 117 163 214 277 340 403 491
#     4  12  30  50  85 118 162 220 281 336 414 500
#     4  12  24  52  81 112 164 211 266 348 410 471
#     4  11  27  49  80 116 161 216 267 339 416 490
#
# _framework density 25.5609
#
# number of rings (size 3 to 8) (size 9 to 14) (size 15 to 20)
#    0.000    0.500    3.750    1.500   12.250    0.000 
#    6.750    0.000    0.000    0.000    0.000    0.000 
#    0.000    0.000    0.000    0.000    0.000    0.000 
#
# Total GULP energy -89520.764335 kJ/mol
# GULP energy per Si atom -5595.047771 kJ/mol
# Density = 2.550272 g / cm^3
# Si number density = 25.560900 Si / 1000 Ang^3
#
#
#
# Elastic Constant Matrix: (Units=GPa)
#
#
# Indices 1 2 3 4 5 6 
#
# 1 105.2983 49.2675 39.8947 0.0000 -4.9799 0.0000
# 2 49.2675 141.4652 38.2416 0.0000 -0.8068 0.0000
# 3 39.8947 38.2416 132.9406 0.0000 -16.7541 0.0000
# 4 0.0000 0.0000 0.0000 70.8382 0.0000 7.8545
# 5 -4.9799 -0.8068 -16.7541 0.0000 44.2466 0.0000
# 6 0.0000 0.0000 0.0000 7.8545 0.0000 42.8007
#
#
#
# Elastic Compliance Matrix: (Units=1/GPa)
#
#
# Indices 1 2 3 4 5 6 
#
# 1 0.012143 -0.003527 -0.002589 0.000000 0.000322 0.000000
# 2 -0.003527 0.008712 -0.001552 0.000000 -0.000826 0.000000
# 3 -0.002589 -0.001552 0.009141 0.000000 0.003142 0.000000
# 4 0.000000 0.000000 0.000000 0.014410 0.000000 -0.002644
# 5 0.000322 -0.000826 0.003142 0.000000 0.023811 0.000000
# 6 0.000000 0.000000 0.000000 -0.002644 0.000000 0.023849
#
#
# Mechanical properties :
#
#
# Convention : Reuss Voigt Hill
#
# Bulk Modulus (GPa) = 68.20830 70.50130 69.35480
# Shear Modulus (GPa) = 44.52744 48.39712 46.46228
#
# Velocity S-wave (km/s) = 4.17827 4.35605 4.26809
# Velocity P-wave (km/s) = 7.07247 7.27611 7.17501
#
# Compressibility (1/GPa) = 0.01466097
#
# Stress axis : x y z
#
# Youngs Moduli (GPa) = 82.34957 114.78297 109.39325
#
# Poissons Ratio (x) = 0.40489 0.28320
# Poissons Ratio (y) = 0.29048 0.16973
# Poissons Ratio (z) = 0.21319 0.17810
#
# Static dielectric constant tensor:
#      x y z
#    x 2.109830 0.000000 -0.026830 
#    y 0.000000 2.044800 0.000000 
#    z -0.026830 0.000000 1.998090 
# 
# From -- ./inp_files/12305.got.cif
#   From: 2010.05.17/outbox.cif.g08.bks.cpg/sg4_7_cif.got.tgz:12305.got - 2010.06.03 18:43:04.
