data_PCOD9119462
_publ_section_title
;
Structure prediction by ZEFSAII (Michael W. Deem and Ramdas Pophale) SiO2 
 PCOD9119462
Probable space group: P 21
;
_chemical_formula_sum "Si O2"
_cell_formula_units_Z 10
_cell_length_a 7.899861
_cell_length_b 8.928603
_cell_length_c 8.932864
_cell_angle_alpha 90.000000
_cell_angle_beta 32.073401
_cell_angle_gamma 90.000000
_cell_volume 334.574242
_symmetry_space_group_name_H-M "P 21"
_symmetry_group_IT_number 4
_symmetry_cell_setting 'monoclinic'
loop_
_space_group_symop_operation_xyz
x,y,z
-x,1/2+y,-z
loop_
_atom_site_type_symbol
_atom_site_label
_atom_site_fract_x
_atom_site_fract_y
_atom_site_fract_z
Si Si1 0.688888 0.533060 0.307849
Si Si2 0.635918 0.293364 0.599106
Si Si3 0.353183 0.172694 0.093256
Si Si4 0.143104 0.430103 0.421008
Si Si5 0.114859 0.799552 0.094641
O O1 0.599752 0.433292 0.517364
O O2 0.400777 0.643118 0.472264
O O3 0.969302 0.649157 0.137083
O O4 0.633302 0.771852 0.073794
O O5 0.983049 0.311693 0.420589
O O6 0.609669 0.047250 0.832437
O O7 0.554253 0.265844 0.067555
O O8 0.146780 0.047125 0.333309
O O9 0.134546 0.353781 0.592203
O O10 0.814767 0.423495 0.083084
#
# Coordination Sequence:
#
# PCOD9119462 Si02
#       5
#     2   2   2   2   2
#     4  12  29  53  83 120 168 216 271 341 414 479
#     4  11  29  51  79 120 166 215 273 334 411 480
#     4  11  27  54  83 118 165 218 276 334 404 498
#     4  11  26  50  84 118 158 219 275 328 405 494
#     4  11  29  52  81 118 167 216 273 337 410 483
#
# _framework density 29.888729999999999
#
# number of rings (size 3 to 8) (size 9 to 14) (size 15 to 20)
#    0.000    0.800    2.000    1.200   14.000    3.200 
#    0.000    0.000    0.000    0.000    0.000    0.000 
#    0.000    0.000    0.000    0.000    0.000    0.000 
#
# Total GULP energy -56145.526847 kJ/mol
# GULP energy per Si atom -5614.552685 kJ/mol
# Density = 2.982070 g / cm^3
# Si number density = 29.888730 Si / 1000 Ang^3
#
#
#
# Elastic Constant Matrix: (Units=GPa)
#
#
# Indices 1 2 3 4 5 6 
#
# 1 124.7414 10.7165 -66.0473 0.0000 40.6874 0.0000
# 2 10.7165 134.1141 -42.1563 0.0000 73.2766 0.0000
# 3 -66.0473 -42.1563 47.3599 0.0000 55.9825 0.0000
# 4 0.0000 0.0000 0.0000 27.6627 0.0000 14.3132
# 5 40.6874 73.2766 55.9825 0.0000 47.5073 0.0000
# 6 0.0000 0.0000 0.0000 14.3132 0.0000 88.8530
#
#
#
# Elastic Compliance Matrix: (Units=1/GPa)
#
#
# Indices 1 2 3 4 5 6 
#
# 1 0.005173 -0.004186 -0.002782 0.000000 0.005304 0.000000
# 2 -0.004186 0.004488 -0.005350 0.000000 0.002967 0.000000
# 3 -0.002782 -0.005350 0.000249 0.000000 0.010342 0.000000
# 4 0.000000 0.000000 0.000000 0.039437 0.000000 -0.006353
# 5 0.005304 0.002967 0.010342 0.000000 -0.000257 0.000000
# 6 0.000000 0.000000 0.000000 -0.006353 0.000000 0.012278
#
#
# Mechanical properties :
#
#
# Convention : Reuss Voigt Hill
#
# Bulk Modulus (GPa) = -67.90605 12.36014 -27.77295
# Shear Modulus (GPa) = 61.65599 59.71811 60.68705
#
# Velocity S-wave (km/s) = 4.54679 4.47476 4.51092
# Velocity P-wave (km/s) = 2.18985 5.55359 4.22125
#
# Compressibility (1/GPa) = -0.01472623
#
# Stress axis : x y z
#
# Youngs Moduli (GPa) = 193.30877 222.81390 4023.13096
#
# Poissons Ratio (x) = 0.93270 11.19217
# Poissons Ratio (y) = 0.80919 21.52372
# Poissons Ratio (z) = 0.53778 1.19205
#
# Static dielectric constant tensor:
#      x y z
#    x 2.539430 0.000000 -0.240930 
#    y 0.000000 2.520390 0.000000 
#    z -0.240930 0.000000 2.765150 
# 
# From -- ./inp_files/5175.got.cif
#   From: 2010.05.17/outbox.cif.g08.bks.cpg/sg4_3_cif.got.tgz:5175.got - 2010.06.03 18:43:04.
