data_PCOD9119328
_publ_section_title
;
Structure prediction by ZEFSAII (Michael W. Deem and Ramdas Pophale) SiO2 
 PCOD9119328
Probable space group: P 21
;
_chemical_formula_sum "Si O2"
_cell_formula_units_Z 16
_cell_length_a 11.831806
_cell_length_b 8.102927
_cell_length_c 17.194653
_cell_angle_alpha 90.000000
_cell_angle_beta 21.748867
_cell_angle_gamma 90.000000
_cell_volume 610.830044
_symmetry_space_group_name_H-M "P 21"
_symmetry_group_IT_number 4
_symmetry_cell_setting 'monoclinic'
loop_
_space_group_symop_operation_xyz
x,y,z
-x,1/2+y,-z
loop_
_atom_site_type_symbol
_atom_site_label
_atom_site_fract_x
_atom_site_fract_y
_atom_site_fract_z
Si Si1 0.235765 0.332760 0.713233
Si Si2 0.273900 0.063558 0.151981
Si Si3 0.532020 0.297633 0.361266
Si Si4 0.380450 0.661595 0.405020
Si Si5 0.358406 0.809532 0.233931
Si Si6 0.886091 0.677010 0.957722
Si Si7 0.775089 0.621887 0.585042
Si Si8 0.363905 0.778519 0.975956
O O1 0.450791 0.286897 0.503776
O O2 0.424685 0.285939 0.667652
O O3 0.097620 0.517798 0.807989
O O4 0.933033 0.230996 0.884389
O O5 0.567395 0.162846 0.994258
O O6 0.981241 0.182216 0.352783
O O7 0.239082 0.926003 0.240866
O O8 0.313476 0.957813 0.047763
O O9 0.421195 0.479050 0.413115
O O10 0.363008 0.174866 0.409941
O O11 0.896828 0.283888 0.125281
O O12 0.565784 0.641161 0.205956
O O13 0.723599 0.776948 0.991771
O O14 0.131427 0.655564 0.369228
O O15 0.308019 0.933907 0.339767
O O16 0.625435 0.744857 0.745491
#
# Coordination Sequence:
#
# PCOD9119328 Si02
#       8
#     2   2   2   2   2   2   2   2
#     4  12  28  49  76 108 155 203 258 324 387 468
#     4  11  26  48  73 112 160 200 257 325 386 479
#     4  12  27  49  73 114 153 200 261 321 391 461
#     4  12  25  52  72 113 153 198 265 317 393 467
#     4  11  26  48  76 115 150 204 263 318 398 463
#     4  12  28  48  79 110 150 207 254 329 390 468
#     4  11  25  48  76 113 157 202 262 328 388 474
#     4  11  25  46  73 113 146 206 250 318 397 454
#
# _framework density 26.193864999999999
#
# number of rings (size 3 to 8) (size 9 to 14) (size 15 to 20)
#    0.000    0.500    2.500    4.500   10.500    1.000 
#    2.250    0.000    0.000    0.000    0.000    0.000 
#    0.000    0.000    0.000    0.000    0.000    0.000 
#
# Total GULP energy -89446.244475 kJ/mol
# GULP energy per Si atom -5590.390280 kJ/mol
# Density = 2.613425 g / cm^3
# Si number density = 26.193865 Si / 1000 Ang^3
#
#
#
# Elastic Constant Matrix: (Units=GPa)
#
#
# Indices 1 2 3 4 5 6 
#
# 1 102.8148 9.4089 36.5384 0.0000 -16.0987 0.0000
# 2 9.4089 86.2407 20.7422 0.0000 -12.4115 0.0000
# 3 36.5384 20.7422 95.2185 0.0000 -11.5215 0.0000
# 4 0.0000 0.0000 0.0000 47.6566 0.0000 -5.2575
# 5 -16.0987 -12.4115 -11.5215 0.0000 63.3328 0.0000
# 6 0.0000 0.0000 0.0000 -5.2575 0.0000 38.9766
#
#
#
# Elastic Compliance Matrix: (Units=1/GPa)
#
#
# Indices 1 2 3 4 5 6 
#
# 1 0.011549 0.000060 -0.004180 0.000000 0.002187 0.000000
# 2 0.000060 0.012479 -0.002499 0.000000 0.002006 0.000000
# 3 -0.004180 -0.002499 0.012743 0.000000 0.000766 0.000000
# 4 0.000000 0.000000 0.000000 0.021300 0.000000 0.002873
# 5 0.002187 0.002006 0.000766 0.000000 0.016878 0.000000
# 6 0.000000 0.000000 0.000000 0.002873 0.000000 0.026044
#
#
# Mechanical properties :
#
#
# Convention : Reuss Voigt Hill
#
# Bulk Modulus (GPa) = 42.49299 46.40588 44.44943
# Shear Modulus (GPa) = 40.95861 44.49883 42.72872
#
# Velocity S-wave (km/s) = 3.95862 4.12615 4.04325
# Velocity P-wave (km/s) = 6.09524 6.36042 6.22924
#
# Compressibility (1/GPa) = 0.02353330
#
# Stress axis : x y z
#
# Youngs Moduli (GPa) = 86.59000 80.13730 78.47331
#
# Poissons Ratio (x) = -0.00482 0.32802
# Poissons Ratio (y) = -0.00521 0.19608
# Poissons Ratio (z) = 0.36195 0.20023
#
# Static dielectric constant tensor:
#      x y z
#    x 3.619650 0.000000 0.111930 
#    y 0.000000 2.149270 0.000000 
#    z 0.111930 0.000000 2.153350 
# 
# From -- ./inp_files/15149.got.cif
#   From: 2010.05.17/outbox.cif.g08.bks.cpg/sg4_8_cif.got.tgz:15149.got - 2010.06.03 18:43:04.
