data_PCOD9119000
_publ_section_title
;
Structure prediction by ZEFSAII (Michael W. Deem and Ramdas Pophale) SiO2 
 PCOD9119000
Probable space group: P 21
;
_chemical_formula_sum "Si O2"
_cell_formula_units_Z 10
_cell_length_a 5.504280
_cell_length_b 12.445832
_cell_length_c 5.219563
_cell_angle_alpha 90.000000
_cell_angle_beta 99.309723
_cell_angle_gamma 90.000000
_cell_volume 352.858174
_symmetry_space_group_name_H-M "P 21"
_symmetry_group_IT_number 4
_symmetry_cell_setting 'monoclinic'
loop_
_space_group_symop_operation_xyz
x,y,z
-x,1/2+y,-z
loop_
_atom_site_type_symbol
_atom_site_label
_atom_site_fract_x
_atom_site_fract_y
_atom_site_fract_z
Si Si1 0.302980 0.721860 0.847184
Si Si2 0.854189 0.943478 0.901165
Si Si3 0.216953 0.203735 0.299929
Si Si4 0.217847 0.862371 0.322998
Si Si5 0.337689 0.041621 0.707044
O O1 0.563842 0.668016 0.848730
O O2 0.249496 0.780725 0.564324
O O3 0.047470 0.659281 0.833102
O O4 0.317310 0.805081 0.083892
O O5 0.793984 0.832266 0.738196
O O6 0.610069 0.015069 0.855897
O O7 0.096950 0.996580 0.812942
O O8 0.944154 0.898861 0.191589
O O9 0.280405 0.159739 0.589667
O O10 0.341439 0.970256 0.443813
#
# Coordination Sequence:
#
# PCOD9119000 Si02
#       5
#     2   2   2   2   2
#     4  11  25  46  77  97 151 189 242 294 373 413
#     4  11  24  46  72 105 151 190 238 305 361 423
#     4  11  23  48  71 113 140 199 237 303 356 439
#     4  11  23  50  72 105 140 199 229 305 357 424
#     4  12  25  46  76 108 146 191 250 289 367 431
#
# _framework density 28.339998000000001
#
# number of rings (size 3 to 8) (size 9 to 14) (size 15 to 20)
#    0.000    0.800    6.000    1.200    0.000    9.600 
#   18.000    0.000    0.000    0.000    0.000    0.000 
#    0.000    0.000    0.000    0.000    0.000    0.000 
#
# Total GULP energy -56051.450374 kJ/mol
# GULP energy per Si atom -5605.145037 kJ/mol
# Density = 2.827549 g / cm^3
# Si number density = 28.339998 Si / 1000 Ang^3
#
#
#
# Elastic Constant Matrix: (Units=GPa)
#
#
# Indices 1 2 3 4 5 6 
#
# 1 287.9594 76.5416 72.7375 0.0000 20.4367 0.0000
# 2 76.5416 85.2541 52.9628 0.0000 5.8614 0.0000
# 3 72.7375 52.9628 181.6672 0.0000 6.3817 0.0000
# 4 0.0000 0.0000 0.0000 60.4603 0.0000 -9.9867
# 5 20.4367 5.8614 6.3817 0.0000 55.3764 0.0000
# 6 0.0000 0.0000 0.0000 -9.9867 0.0000 49.6270
#
#
#
# Elastic Compliance Matrix: (Units=1/GPa)
#
#
# Indices 1 2 3 4 5 6 
#
# 1 0.004739 -0.003683 -0.000779 0.000000 -0.001269 0.000000
# 2 -0.003683 0.017246 -0.003551 0.000000 -0.000057 0.000000
# 3 -0.000779 -0.003551 0.006856 0.000000 -0.000127 0.000000
# 4 0.000000 0.000000 0.000000 0.017108 0.000000 0.003443
# 5 -0.001269 -0.000057 -0.000127 0.000000 0.018547 0.000000
# 6 0.000000 0.000000 0.000000 0.003443 0.000000 0.020843
#
#
# Mechanical properties :
#
#
# Convention : Reuss Voigt Hill
#
# Bulk Modulus (GPa) = 78.03626 106.59603 92.31615
# Shear Modulus (GPa) = 47.33132 56.60201 51.96667
#
# Velocity S-wave (km/s) = 4.09115 4.47391 4.28680
# Velocity P-wave (km/s) = 7.06486 8.02388 7.55959
#
# Compressibility (1/GPa) = 0.01281456
#
# Stress axis : x y z
#
# Youngs Moduli (GPa) = 211.03561 57.98280 145.85286
#
# Poissons Ratio (x) = 0.21356 0.11360
# Poissons Ratio (y) = 0.77728 0.51797
# Poissons Ratio (z) = 0.16438 0.20591
#
# Static dielectric constant tensor:
#      x y z
#    x 2.259420 0.000000 0.016080 
#    y 0.000000 2.233510 0.000000 
#    z 0.016080 0.000000 2.219830 
# 
# From -- ./inp_files/318.got.cif
#   From: 2010.05.17/outbox.cif.g08.bks.cpg/sg4_1_cif.got.tgz:318.got - 2010.06.03 18:43:04.
