data_PCOD9119965
_publ_section_title
;
Structure prediction by ZEFSAII (Michael W. Deem and Ramdas Pophale) SiO2 
 PCOD9119965
Probable space group: C 2
;
_chemical_formula_sum "Si O2"
_cell_formula_units_Z 30
_cell_length_a 16.896153
_cell_length_b 9.030276
_cell_length_c 11.090656
_cell_angle_alpha 90.000000
_cell_angle_beta 130.559716
_cell_angle_gamma 90.000000
_cell_volume 1285.596287
_symmetry_space_group_name_H-M "C 2"
_symmetry_group_IT_number 5
_symmetry_cell_setting 'monoclinic'
loop_
_space_group_symop_operation_xyz
x,y,z
-x,y,-z
1/2+x,1/2+y,z
1/2-x,1/2+y,-z
loop_
_atom_site_type_symbol
_atom_site_label
_atom_site_fract_x
_atom_site_fract_y
_atom_site_fract_z
Si Si1 0.099397 0.398160 0.373529
Si Si2 0.500000 0.554944 0.500000
Si Si3 0.180200 0.117393 0.069392
Si Si4 0.684042 0.789740 0.696714
Si Si5 0.136572 0.492778 0.870677
Si Si6 0.873171 0.415122 0.866228
Si Si7 0.528680 0.559649 0.276513
Si Si8 0.608381 0.340916 0.155034
O O1 0.151067 0.407400 0.557495
O O2 0.151666 0.449170 0.299287
O O3 0.988033 0.482783 0.267588
O O4 0.160376 0.483809 0.036827
O O5 0.599332 0.661029 0.613160
O O6 0.515047 0.476402 0.389558
O O7 0.165730 0.247508 0.149826
O O8 0.291922 0.121407 0.115293
O O9 0.154691 0.964702 0.111830
O O10 0.083160 0.114255 0.882297
O O11 0.674967 0.858626 0.821620
O O12 0.795073 0.731373 0.757113
O O13 0.914462 0.218774 0.655038
O O14 0.000000 0.414414 0.000000
O O15 0.581199 0.438822 0.243195
O O16 0.500000 0.275319 0.000000
#
# Coordination Sequence:
#
# PCOD9119965 Si02
#       8
#     4   2   4   4   4   4   4   4
#     4  10  17  30  51  74 102 129 166 219 253 296
#     4  10  18  30  54  74 102 128 166 216 266 288
#     4  10  16  27  49  75  99 129 172 211 251 294
#     4  10  17  30  48  77 102 127 165 212 258 296
#     4  10  18  27  48  78 102 131 169 214 252 298
#     4  10  16  30  50  72 101 130 172 217 246 299
#     4  10  16  31  48  74  96 131 172 213 243 304
#     4   9  18  29  49  77  97 130 171 212 243 307
#
# _framework density 23.335474000000001
#
# number of rings (size 3 to 8) (size 9 to 14) (size 15 to 20)
#    0.000    2.133    6.667    0.400    0.000    0.000 
#    2.400    0.000    0.000    0.000   27.733    9.333 
#    0.000    0.000    0.000    0.000    0.000    0.000 
#
# Total GULP energy -83522.781387 kJ/mol
# GULP energy per Si atom -5568.185426 kJ/mol
# Density = 2.328236 g / cm^3
# Si number density = 23.335474 Si / 1000 Ang^3
#
#
#
# Elastic Constant Matrix: (Units=GPa)
#
#
# Indices 1 2 3 4 5 6 
#
# 1 161.6242 25.7279 56.8292 0.0000 -25.5607 0.0000
# 2 25.7279 34.2438 12.5443 0.0000 -9.1365 0.0000
# 3 56.8292 12.5443 91.3833 0.0000 -32.8237 0.0000
# 4 0.0000 0.0000 0.0000 8.7049 0.0000 -18.5286
# 5 -25.5607 -9.1365 -32.8237 0.0000 40.5914 0.0000
# 6 0.0000 0.0000 0.0000 -18.5286 0.0000 15.6532
#
#
#
# Elastic Compliance Matrix: (Units=1/GPa)
#
#
# Indices 1 2 3 4 5 6 
#
# 1 0.008609 -0.004632 -0.004432 0.000000 0.000794 0.000000
# 2 -0.004632 0.033962 -0.000117 0.000000 0.004632 0.000000
# 3 -0.004432 -0.000117 0.017904 0.000000 0.011660 0.000000
# 4 0.000000 0.000000 0.000000 -0.075602 0.000000 -0.089489
# 5 0.000794 0.004632 0.011660 0.000000 0.035607 0.000000
# 6 0.000000 0.000000 0.000000 -0.089489 0.000000 -0.042043
#
#
# Mechanical properties :
#
#
# Convention : Reuss Voigt Hill
#
# Bulk Modulus (GPa) = 23.74744 53.05044 38.39894
# Shear Modulus (GPa) = 461.39237 25.79989 243.59613
#
# Velocity S-wave (km/s) = 14.07660 3.32868 10.22817
# Velocity P-wave (km/s) = 16.56501 6.12835 12.48912
#
# Compressibility (1/GPa) = 0.04210980
#
# Stress axis : x y z
#
# Youngs Moduli (GPa) = 116.16210 29.44496 55.85473
#
# Poissons Ratio (x) = 0.13640 0.24757
# Poissons Ratio (y) = 0.53809 0.00655
# Poissons Ratio (z) = 0.51488 0.00345
#
# Static dielectric constant tensor:
#      x y z
#    x 1.937100 0.000000 0.074020 
#    y 0.000000 2.077640 0.000000 
#    z 0.074020 0.000000 2.004120 
# 
# From -- ./inp_files/24435.got.cif
#   From: 2010.05.17/outbox.cif.g08.bks.cpg/sg5_13_cif.got.tgz:24435.got - 2010.06.03 18:56:24.
