data_PCOD9119253
_publ_section_title
;
Structure prediction by ZEFSAII (Michael W. Deem and Ramdas Pophale) SiO2 
 PCOD9119253
Probable space group: P 21
;
_chemical_formula_sum "Si O2"
_cell_formula_units_Z 16
_cell_length_a 13.517684
_cell_length_b 5.012259
_cell_length_c 21.530777
_cell_angle_alpha 90.000000
_cell_angle_beta 26.940645
_cell_angle_gamma 90.000000
_cell_volume 660.934078
_symmetry_space_group_name_H-M "P 21"
_symmetry_group_IT_number 4
_symmetry_cell_setting 'monoclinic'
loop_
_space_group_symop_operation_xyz
x,y,z
-x,1/2+y,-z
loop_
_atom_site_type_symbol
_atom_site_label
_atom_site_fract_x
_atom_site_fract_y
_atom_site_fract_z
Si Si1 0.478922 0.794640 0.888089
Si Si2 0.074684 0.651572 0.179010
Si Si3 0.921959 0.505374 0.506828
Si Si4 0.865431 0.461768 0.082886
Si Si5 0.515535 0.787653 0.198815
Si Si6 0.899271 0.842324 0.720742
Si Si7 0.272709 0.526189 0.583671
Si Si8 0.259834 0.863716 0.713012
O O1 0.423746 0.557328 0.871339
O O2 0.689844 0.695007 0.808708
O O3 0.550509 0.068309 0.815466
O O4 0.256828 0.849591 0.050832
O O5 0.192381 0.491517 0.167542
O O6 0.966571 0.493301 0.183049
O O7 0.853987 0.749983 0.336689
O O8 0.680659 0.382210 0.647248
O O9 0.937843 0.790891 0.531348
O O10 0.000455 0.512033 0.392167
O O11 0.694493 0.623491 0.136822
O O12 0.765565 0.321580 0.199854
O O13 0.978886 0.211545 0.985479
O O14 0.102228 0.679672 0.635391
O O15 0.514506 0.524471 0.421639
O O16 0.285541 0.632130 0.647419
#
# Coordination Sequence:
#
# PCOD9119253 Si02
#       8
#     2   2   2   2   2   2   2   2
#     4  12  28  47  77 107 157 193 248 310 375 454
#     4  11  27  45  74 104 145 194 248 310 376 442
#     4  12  24  47  73 106 147 193 242 303 363 441
#     4  12  28  47  77 112 151 198 252 307 376 450
#     4  12  25  50  73 112 146 205 244 303 379 442
#     4  11  27  45  72 109 142 195 247 306 376 448
#     4  11  25  46  75 105 142 198 251 313 382 430
#     4  11  24  49  73 107 146 192 254 314 369 447
#
# _framework density 24.208162000000002
#
# number of rings (size 3 to 8) (size 9 to 14) (size 15 to 20)
#    0.000    0.500    3.750    3.000   12.250    0.000 
#    4.500    0.000    0.000    0.000    0.000    0.000 
#    0.000    0.000    0.000    0.000    0.000    0.000 
#
# Total GULP energy -89379.561547 kJ/mol
# GULP energy per Si atom -5586.222597 kJ/mol
# Density = 2.415306 g / cm^3
# Si number density = 24.208162 Si / 1000 Ang^3
#
#
#
# Elastic Constant Matrix: (Units=GPa)
#
#
# Indices 1 2 3 4 5 6 
#
# 1 100.4943 7.3171 23.2245 0.0000 -6.6319 0.0000
# 2 7.3171 53.8510 1.3446 0.0000 -2.3584 0.0000
# 3 23.2245 1.3446 103.4626 0.0000 -12.5240 0.0000
# 4 0.0000 0.0000 0.0000 21.7519 0.0000 -3.3654
# 5 -6.6319 -2.3584 -12.5240 0.0000 28.2244 0.0000
# 6 0.0000 0.0000 0.0000 -3.3654 0.0000 25.5503
#
#
#
# Elastic Compliance Matrix: (Units=1/GPa)
#
#
# Indices 1 2 3 4 5 6 
#
# 1 0.010650 -0.001330 -0.002202 0.000000 0.001414 0.000000
# 2 -0.001330 0.018804 0.000218 0.000000 0.001356 0.000000
# 3 -0.002202 0.000218 0.010669 0.000000 0.004235 0.000000
# 4 0.000000 0.000000 0.000000 0.046929 0.000000 0.006181
# 5 0.001414 0.001356 0.004235 0.000000 0.037755 0.000000
# 6 0.000000 0.000000 0.000000 0.006181 0.000000 0.039953
#
#
# Mechanical properties :
#
#
# Convention : Reuss Voigt Hill
#
# Bulk Modulus (GPa) = 29.85449 35.73113 32.79281
# Shear Modulus (GPa) = 27.38911 30.16677 28.77794
#
# Velocity S-wave (km/s) = 3.36728 3.53390 3.45160
# Velocity P-wave (km/s) = 5.24188 5.60743 5.42773
#
# Compressibility (1/GPa) = 0.03349580
#
# Stress axis : x y z
#
# Youngs Moduli (GPa) = 93.89758 53.17898 93.72533
#
# Poissons Ratio (x) = 0.07074 0.20640
# Poissons Ratio (y) = 0.12490 -0.02046
# Poissons Ratio (z) = 0.20678 -0.01161
#
# Static dielectric constant tensor:
#      x y z
#    x 1.961910 0.000000 -0.028720 
#    y 0.000000 1.960950 0.000000 
#    z -0.028720 0.000000 1.946480 
# 
# From -- ./inp_files/11575.got.cif
#   From: 2010.05.17/outbox.cif.g08.bks.cpg/sg4_6_cif.got.tgz:11575.got - 2010.06.03 18:43:04.
