data_PCOD9119450
_publ_section_title
;
Structure prediction by ZEFSAII (Michael W. Deem and Ramdas Pophale) SiO2 
 PCOD9119450
Probable space group: P 21
;
_chemical_formula_sum "Si O2"
_cell_formula_units_Z 10
_cell_length_a 7.200203
_cell_length_b 7.245529
_cell_length_c 14.378973
_cell_angle_alpha 90.000000
_cell_angle_beta 27.947010
_cell_angle_gamma 90.000000
_cell_volume 351.556999
_symmetry_space_group_name_H-M "P 21"
_symmetry_group_IT_number 4
_symmetry_cell_setting 'monoclinic'
loop_
_space_group_symop_operation_xyz
x,y,z
-x,1/2+y,-z
loop_
_atom_site_type_symbol
_atom_site_label
_atom_site_fract_x
_atom_site_fract_y
_atom_site_fract_z
Si Si1 0.403144 0.891210 0.948975
Si Si2 0.500000 0.672976 0.250000
Si Si3 0.474198 0.466003 0.896629
Si Si4 0.596859 0.891210 0.551023
Si Si5 0.474202 0.966003 0.396627
O O1 0.399379 0.681129 0.917085
O O2 0.603355 0.031039 0.787799
O O3 0.593260 0.906103 0.967324
O O4 0.944433 0.942971 0.168859
O O5 0.603350 0.531039 0.287801
O O6 0.730969 0.823882 0.083643
O O7 0.269035 0.823883 0.416355
O O8 0.944430 0.442971 0.668861
O O9 0.600618 0.681129 0.582916
O O10 0.406742 0.906103 0.532675
#
# Coordination Sequence:
#
# PCOD9119450 Si02
#       5
#     2   2   2   2   2
#     4  11  26  49  73 108 151 194 247 308 369 440
#     4  12  26  44  78 104 148 200 242 310 364 452
#     4  11  26  49  73 108 151 194 247 308 369 440
#     4  11  26  49  73 108 151 194 247 308 369 440
#     4  11  26  49  73 108 151 194 247 308 369 440
#
# _framework density 28.444890999999998
#
# number of rings (size 3 to 8) (size 9 to 14) (size 15 to 20)
#    0.000    0.800    4.000    1.200   11.200    0.000 
#    0.000    0.000    0.000    0.000    0.000    0.000 
#    0.000    0.000    0.000    0.000    0.000    0.000 
#
# Total GULP energy -56029.399289 kJ/mol
# GULP energy per Si atom -5602.939929 kJ/mol
# Density = 2.838015 g / cm^3
# Si number density = 28.444891 Si / 1000 Ang^3
#
#
#
# Elastic Constant Matrix: (Units=GPa)
#
#
# Indices 1 2 3 4 5 6 
#
# 1 178.9812 71.4729 74.9478 0.0000 77.3792 0.0000
# 2 71.4729 330.4714 109.7829 0.0000 41.2786 0.0000
# 3 74.9478 109.7829 169.0071 0.0000 16.7008 0.0000
# 4 0.0000 0.0000 0.0000 55.7031 0.0000 6.8490
# 5 77.3792 41.2786 16.7008 0.0000 81.6509 0.0000
# 6 0.0000 0.0000 0.0000 6.8490 0.0000 60.0583
#
#
#
# Elastic Compliance Matrix: (Units=1/GPa)
#
#
# Indices 1 2 3 4 5 6 
#
# 1 0.011837 0.000183 -0.004338 0.000000 -0.010423 0.000000
# 2 0.000183 0.004042 -0.002539 0.000000 -0.001697 0.000000
# 3 -0.004338 -0.002539 0.009142 0.000000 0.003525 0.000000
# 4 0.000000 0.000000 0.000000 0.018208 0.000000 -0.002076
# 5 -0.010423 -0.001697 0.003525 0.000000 0.022262 0.000000
# 6 0.000000 0.000000 0.000000 -0.002076 0.000000 0.016887
#
#
# Mechanical properties :
#
#
# Convention : Reuss Voigt Hill
#
# Bulk Modulus (GPa) = 85.96823 132.31852 109.14337
# Shear Modulus (GPa) = 50.17966 67.63286 58.90626
#
# Velocity S-wave (km/s) = 4.20468 4.88144 4.55564
# Velocity P-wave (km/s) = 7.33899 8.85380 8.13174
#
# Compressibility (1/GPa) = 0.01163220
#
# Stress axis : x y z
#
# Youngs Moduli (GPa) = 84.48337 247.41100 109.39081
#
# Poissons Ratio (x) = -0.04527 0.47454
# Poissons Ratio (y) = -0.01546 0.27773
# Poissons Ratio (z) = 0.36649 0.62815
#
# Static dielectric constant tensor:
#      x y z
#    x 2.324380 0.000000 -0.130780 
#    y 0.000000 2.070630 0.000000 
#    z -0.130780 0.000000 2.232750 
# 
# From -- ./inp_files/222.got.cif
#   From: 2010.05.17/outbox.cif.g08.bks.cpg/sg4_1_cif.got.tgz:222.got - 2010.06.03 18:43:04.
