data_PCOD9119876
_publ_section_title
;
Structure prediction by ZEFSAII (Michael W. Deem and Ramdas Pophale) SiO2 
 PCOD9119876
Probable space group: P 21
;
_chemical_formula_sum "Si O2"
_cell_formula_units_Z 16
_cell_length_a 9.000000
_cell_length_b 15.000000
_cell_length_c 6.000000
_cell_angle_alpha 90.000000
_cell_angle_beta 70.000000
_cell_angle_gamma 90.000000
_cell_volume 761.151023
_symmetry_space_group_name_H-M "P 21"
_symmetry_group_IT_number 4
_symmetry_cell_setting 'monoclinic'
loop_
_space_group_symop_operation_xyz
x,y,z
-x,1/2+y,-z
loop_
_atom_site_type_symbol
_atom_site_label
_atom_site_fract_x
_atom_site_fract_y
_atom_site_fract_z
Si Si1 0.261223 0.380470 0.686566
Si Si2 0.062843 0.881908 0.348239
Si Si3 0.541936 0.148333 0.983394
Si Si4 0.593966 0.844499 0.873188
Si Si5 0.871072 0.178137 0.563524
Si Si6 0.231085 0.573512 0.783741
Si Si7 0.957682 0.526657 0.270846
Si Si8 0.680342 0.491476 0.063097
O O1 0.317952 0.335916 0.418265
O O2 0.285416 0.485681 0.626329
O O3 0.072927 0.365641 0.766360
O O4 0.327024 0.363987 0.912161
O O5 0.112488 0.783444 0.403615
O O6 0.196793 0.944326 0.169784
O O7 0.008100 0.942705 0.585068
O O8 0.699274 0.149166 0.748574
O O9 0.483599 0.248598 0.043639
O O10 0.615401 0.112033 0.175216
O O11 0.402449 0.083918 0.968976
O O12 0.464399 0.920330 0.877156
O O13 0.856266 0.148364 0.315877
O O14 0.011310 0.118125 0.602328
O O15 0.098447 0.536673 0.020505
O O16 0.789530 0.510780 0.228821
#
# Coordination Sequence:
#
# PCOD9119876 Si02
#       8
#     2   2   2   2   2   2   2   2
#     4  12  26  51  74 107 156 201 256 315 393 459
#     4  12  27  46  76 108 154 201 261 320 389 467
#     4  11  27  46  74 110 152 199 257 321 395 461
#     4  12  29  49  77 115 151 204 254 324 389 465
#     4  11  25  47  75 108 149 208 253 321 392 471
#     4  11  23  48  74 101 152 202 252 312 392 461
#     4  11  25  44  73 112 147 201 260 318 381 467
#     4  12  26  45  75 111 153 198 259 323 385 461
#
# _framework density 21.020796000000001
#
# number of rings (size 3 to 8) (size 9 to 14) (size 15 to 20)
#    0.000    0.500    5.000    1.500    7.000    3.000 
#    0.000    0.000    0.000    0.000    0.000    0.000 
#    0.000    0.000    0.000    0.000    0.000    0.000 
#
# Total GULP energy -89189.014291 kJ/mol
# GULP energy per Si atom -5574.313393 kJ/mol
# Density = 2.097295 g / cm^3
# Si number density = 21.020796 Si / 1000 Ang^3
#
#
#
# Elastic Constant Matrix: (Units=GPa)
#
#
# Indices 1 2 3 4 5 6 
#
# 1 141.5767 45.0025 32.4623 0.0000 31.5063 0.0000
# 2 45.0025 129.9810 13.5061 0.0000 10.1285 0.0000
# 3 32.4623 13.5061 77.7025 0.0000 9.3748 0.0000
# 4 0.0000 0.0000 0.0000 33.8557 0.0000 2.5405
# 5 31.5063 10.1285 9.3748 0.0000 37.8597 0.0000
# 6 0.0000 0.0000 0.0000 2.5405 0.0000 48.6018
#
#
#
# Elastic Compliance Matrix: (Units=1/GPa)
#
#
# Indices 1 2 3 4 5 6 
#
# 1 0.010138 -0.002660 -0.002929 0.000000 -0.007000 0.000000
# 2 -0.002660 0.008656 -0.000393 0.000000 -0.000005 0.000000
# 3 -0.002929 -0.000393 0.014281 0.000000 -0.000994 0.000000
# 4 0.000000 0.000000 0.000000 0.029653 0.000000 -0.001550
# 5 -0.007000 -0.000005 -0.000994 0.000000 0.032486 0.000000
# 6 0.000000 0.000000 0.000000 -0.001550 0.000000 0.020656
#
#
# Mechanical properties :
#
#
# Convention : Reuss Voigt Hill
#
# Bulk Modulus (GPa) = 47.36581 59.02246 53.19414
# Shear Modulus (GPa) = 37.07244 41.28274 39.17759
#
# Velocity S-wave (km/s) = 4.20409 4.43640 4.32181
# Velocity P-wave (km/s) = 6.79320 7.37437 7.08974
#
# Compressibility (1/GPa) = 0.02111228
#
# Stress axis : x y z
#
# Youngs Moduli (GPa) = 98.63700 115.53163 70.02186
#
# Poissons Ratio (x) = 0.30735 0.20506
# Poissons Ratio (y) = 0.26241 0.02749
# Poissons Ratio (z) = 0.28886 0.04535
#
# Static dielectric constant tensor:
#      x y z
#    x 1.784800 0.000000 -0.007960 
#    y 0.000000 1.739950 0.000000 
#    z -0.007960 0.000000 1.853950 
# 
# From -- ./inp_files/1835.got.cif
#   From: 2010.05.17/outbox.ucp.g08.bks.cvg/sg4_1_cif.got.tgz:1835.got - 2010.06.11 12:51:24.
