data_PCOD9119590
_publ_section_title
;
Structure prediction by ZEFSAII (Michael W. Deem and Ramdas Pophale) SiO2 
 PCOD9119590
Probable space group: P 21
;
_chemical_formula_sum "Si O2"
_cell_formula_units_Z 14
_cell_length_a 20.568865
_cell_length_b 6.081567
_cell_length_c 6.834716
_cell_angle_alpha 90.000000
_cell_angle_beta 132.456286
_cell_angle_gamma 90.000000
_cell_volume 630.783859
_symmetry_space_group_name_H-M "P 21"
_symmetry_group_IT_number 4
_symmetry_cell_setting 'monoclinic'
loop_
_space_group_symop_operation_xyz
x,y,z
-x,1/2+y,-z
loop_
_atom_site_type_symbol
_atom_site_label
_atom_site_fract_x
_atom_site_fract_y
_atom_site_fract_z
Si Si1 0.295629 0.052490 0.665099
Si Si2 0.407408 0.938731 0.546324
Si Si3 0.288931 0.572332 0.166944
Si Si4 0.174319 0.855413 0.718825
Si Si5 0.179926 0.196723 0.091140
Si Si6 0.000095 0.348044 0.895023
Si Si7 0.406081 0.288336 0.184686
O O1 0.383293 0.025425 0.712280
O O2 0.259225 0.879118 0.748887
O O3 0.326225 0.243500 0.873519
O O4 0.211265 0.078524 0.353564
O O5 0.322767 0.781632 0.349738
O O6 0.500222 0.815072 0.726819
O O7 0.409505 0.107140 0.366318
O O8 0.374972 0.513754 0.218097
O O9 0.198386 0.629958 0.874604
O O10 0.261826 0.362328 0.234102
O O11 0.085263 0.854383 0.416760
O O12 0.171958 0.043816 0.882724
O O13 0.089602 0.319833 0.953883
O O14 0.004816 0.599160 0.005052
#
# Coordination Sequence:
#
# PCOD9119590 Si02
#       7
#     2   2   2   2   2   2   2
#     4  12  24  50  70 110 146 194 258 306 376 462
#     4  12  26  46  72 107 149 193 252 318 383 454
#     4  12  24  46  78 100 150 206 240 310 386 462
#     4  12  28  50  77 110 156 200 254 311 392 461
#     4  12  28  50  77 110 156 200 254 311 392 461
#     4  12  32  52  82 122 160 202 266 326 386 474
#     4  12  26  46  72 107 149 193 252 318 383 454
#
# _framework density 22.194606
#
# number of rings (size 3 to 8) (size 9 to 14) (size 15 to 20)
#    0.000    0.000    8.571    0.000   10.000    3.429 
#    0.000    0.000    0.000    0.000    0.000    0.000 
#    0.000    0.000    0.000    0.000    0.000    0.000 
#
# Total GULP energy -77937.921849 kJ/mol
# GULP energy per Si atom -5566.994418 kJ/mol
# Density = 2.214409 g / cm^3
# Si number density = 22.194606 Si / 1000 Ang^3
#
#
#
# Elastic Constant Matrix: (Units=GPa)
#
#
# Indices 1 2 3 4 5 6 
#
# 1 121.1964 14.2971 7.7244 0.0000 8.7440 0.0000
# 2 14.2971 71.1586 30.6011 0.0000 -2.4677 0.0000
# 3 7.7244 30.6011 82.2742 0.0000 8.3727 0.0000
# 4 0.0000 0.0000 0.0000 25.4879 0.0000 10.2799
# 5 8.7440 -2.4677 8.3727 0.0000 37.4637 0.0000
# 6 0.0000 0.0000 0.0000 10.2799 0.0000 37.6812
#
#
#
# Elastic Compliance Matrix: (Units=1/GPa)
#
#
# Indices 1 2 3 4 5 6 
#
# 1 0.008618 -0.001848 0.000098 0.000000 -0.002155 0.000000
# 2 -0.001848 0.017367 -0.006596 0.000000 0.003050 0.000000
# 3 0.000098 -0.006596 0.014986 0.000000 -0.003806 0.000000
# 4 0.000000 0.000000 0.000000 0.044085 0.000000 -0.012027
# 5 -0.002155 0.003050 -0.003806 0.000000 0.028247 0.000000
# 6 0.000000 0.000000 0.000000 -0.012027 0.000000 0.029820
#
#
# Mechanical properties :
#
#
# Convention : Reuss Voigt Hill
#
# Bulk Modulus (GPa) = 41.19041 42.20824 41.69932
# Shear Modulus (GPa) = 29.77796 34.92699 32.35247
#
# Velocity S-wave (km/s) = 3.66686 3.97125 3.82209
# Velocity P-wave (km/s) = 6.04375 6.33139 6.18924
#
# Compressibility (1/GPa) = 0.02427750
#
# Stress axis : x y z
#
# Youngs Moduli (GPa) = 116.03119 57.58086 66.72854
#
# Poissons Ratio (x) = 0.10643 -0.00651
# Poissons Ratio (y) = 0.21446 0.44016
# Poissons Ratio (z) = -0.01133 0.37982
#
# Static dielectric constant tensor:
#      x y z
#    x 1.811240 0.000000 -0.010190 
#    y 0.000000 1.837680 0.000000 
#    z -0.010190 0.000000 1.795690 
# 
# From -- ./inp_files/3299.got.cif
#   From: 2010.05.17/outbox.cif.g08.bks.cpg/sg4_2_cif.got.tgz:3299.got - 2010.06.03 18:43:04.
