data_PCOD9119710
_publ_section_title
;
Structure prediction by ZEFSAII (Michael W. Deem and Ramdas Pophale) SiO2 
 PCOD9119710
Probable space group: P 21
;
_chemical_formula_sum "Si O2"
_cell_formula_units_Z 16
_cell_length_a 30.335543
_cell_length_b 5.255510
_cell_length_c 21.329440
_cell_angle_alpha 90.000000
_cell_angle_beta 169.161792
_cell_angle_gamma 90.000000
_cell_volume 639.422373
_symmetry_space_group_name_H-M "P 21"
_symmetry_group_IT_number 4
_symmetry_cell_setting 'monoclinic'
loop_
_space_group_symop_operation_xyz
x,y,z
-x,1/2+y,-z
loop_
_atom_site_type_symbol
_atom_site_label
_atom_site_fract_x
_atom_site_fract_y
_atom_site_fract_z
Si Si1 0.887342 0.985150 0.168876
Si Si2 0.645488 0.182329 0.715048
Si Si3 0.992974 0.462479 0.448832
Si Si4 0.846865 0.044258 0.690702
Si Si5 0.116594 0.548204 0.078393
Si Si6 0.693799 0.820285 0.215053
Si Si7 0.555050 0.628356 0.780429
Si Si8 0.186139 0.628689 0.499855
O O1 0.979344 0.772225 0.247647
O O2 0.703220 0.864454 0.960055
O O3 0.123912 0.084272 0.532849
O O4 0.758365 0.183408 0.941869
O O5 0.550517 0.458523 0.561670
O O6 0.825202 0.086847 0.913360
O O7 0.037859 0.214558 0.552977
O O8 0.202007 0.505477 0.691869
O O9 0.759115 0.427104 0.080423
O O10 0.594559 0.131620 0.364300
O O11 0.863644 0.037137 0.639227
O O12 0.018109 0.268932 0.951090
O O13 0.932051 0.772589 0.835813
O O14 0.356592 0.576468 0.451770
O O15 0.730363 0.909387 0.336862
O O16 0.420958 0.795149 0.822209
#
# Coordination Sequence:
#
# PCOD9119710 Si02
#       8
#     2   2   2   2   2   2   2   2
#     4  12  26  47  76 113 152 200 257 321 380 454
#     4  12  26  46  77 116 158 197 257 323 384 450
#     4  12  29  52  78 113 157 199 257 321 386 458
#     4  12  29  50  76 111 158 203 257 314 387 457
#     4  12  27  50  76 111 155 206 254 315 382 463
#     4  12  27  47  80 110 154 201 263 312 392 459
#     4  12  28  50  80 111 152 205 258 315 385 456
#     4  12  26  48  75 111 150 205 249 323 382 459
#
# _framework density 25.022586
#
# number of rings (size 3 to 8) (size 9 to 14) (size 15 to 20)
#    0.000    0.000    5.000    3.750    3.500    5.000 
#    0.000    0.000    0.000    0.000    0.000    0.000 
#    0.000    0.000    0.000    0.000    0.000    0.000 
#
# Total GULP energy -89636.149770 kJ/mol
# GULP energy per Si atom -5602.259361 kJ/mol
# Density = 2.496563 g / cm^3
# Si number density = 25.022586 Si / 1000 Ang^3
#
#
#
# Elastic Constant Matrix: (Units=GPa)
#
#
# Indices 1 2 3 4 5 6 
#
# 1 114.9428 3.9194 -4.4422 0.0000 -4.3628 0.0000
# 2 3.9194 33.6143 5.4358 0.0000 -21.7951 0.0000
# 3 -4.4422 5.4358 67.0848 0.0000 -2.4412 0.0000
# 4 0.0000 0.0000 0.0000 50.1521 0.0000 0.1081
# 5 -4.3628 -21.7951 -2.4412 0.0000 50.7783 0.0000
# 6 0.0000 0.0000 0.0000 0.1081 0.0000 17.0365
#
#
#
# Elastic Compliance Matrix: (Units=1/GPa)
#
#
# Indices 1 2 3 4 5 6 
#
# 1 0.008771 -0.000860 0.000666 0.000000 0.000416 0.000000
# 2 -0.000860 0.041800 -0.002799 0.000000 0.017733 0.000000
# 3 0.000666 -0.002799 0.015162 0.000000 -0.000415 0.000000
# 4 0.000000 0.000000 0.000000 0.019940 0.000000 -0.000126
# 5 0.000416 0.017733 -0.000415 0.000000 0.027321 0.000000
# 6 0.000000 0.000000 0.000000 -0.000126 0.000000 0.058698
#
#
# Mechanical properties :
#
#
# Convention : Reuss Voigt Hill
#
# Bulk Modulus (GPa) = 16.73747 25.05199 20.89473
# Shear Modulus (GPa) = 25.30443 37.64197 31.47320
#
# Velocity S-wave (km/s) = 3.18349 3.88276 3.55038
# Velocity P-wave (km/s) = 4.49625 5.48950 5.01751
#
# Compressibility (1/GPa) = 0.05974619
#
# Stress axis : x y z
#
# Youngs Moduli (GPa) = 114.01414 23.92344 65.95330
#
# Poissons Ratio (x) = 0.02058 -0.04390
# Poissons Ratio (y) = 0.09810 0.18458
# Poissons Ratio (z) = -0.07589 0.06695
#
# Static dielectric constant tensor:
#      x y z
#    x 2.006710 0.000000 0.031800 
#    y 0.000000 2.029670 0.000000 
#    z 0.031800 0.000000 1.995730 
# 
# From -- ./inp_files/15977.got.cif
#   From: 2010.05.17/outbox.cif.g08.bks.cpg/sg4_8_cif.got.tgz:15977.got - 2010.06.03 18:43:04.
