data_PCOD9119827
_publ_section_title
;
Structure prediction by ZEFSAII (Michael W. Deem and Ramdas Pophale) SiO2 
 PCOD9119827
Probable space group: P 21
;
_chemical_formula_sum "Si O2"
_cell_formula_units_Z 16
_cell_length_a 18.000000
_cell_length_b 9.000000
_cell_length_c 9.000000
_cell_angle_alpha 90.000000
_cell_angle_beta 30.000000
_cell_angle_gamma 90.000000
_cell_volume 729.000000
_symmetry_space_group_name_H-M "P 21"
_symmetry_group_IT_number 4
_symmetry_cell_setting 'monoclinic'
loop_
_space_group_symop_operation_xyz
x,y,z
-x,1/2+y,-z
loop_
_atom_site_type_symbol
_atom_site_label
_atom_site_fract_x
_atom_site_fract_y
_atom_site_fract_z
Si Si1 0.634411 0.708950 0.805387
Si Si2 0.893726 0.475682 0.299048
Si Si3 0.407748 0.490892 0.328320
Si Si4 0.117026 0.928270 0.150049
Si Si5 0.863446 0.204986 0.149307
Si Si6 0.654190 0.838214 0.096577
Si Si7 0.978614 0.772139 0.662991
Si Si8 0.448947 0.033084 0.615564
O O1 0.767451 0.588377 0.573556
O O2 0.633814 0.833194 0.675868
O O3 0.489868 0.602488 0.070272
O O4 0.647879 0.802881 0.933959
O O5 0.823247 0.342752 0.325405
O O6 0.987263 0.377234 0.254900
O O7 0.005908 0.592266 0.025242
O O8 0.273234 0.590908 0.627203
O O9 0.514436 0.465820 0.285137
O O10 0.093113 0.837256 0.343550
O O11 0.028915 0.090226 0.301584
O O12 0.082245 0.801295 0.087259
O O13 0.289009 0.976271 0.837187
O O14 0.576526 0.988946 0.279934
O O15 0.560956 0.708289 0.339155
O O16 0.819327 0.818098 0.871525
#
# Coordination Sequence:
#
# PCOD9119827 Si02
#       8
#     2   2   2   2   2   2   2   2
#     4  11  24  44  65  94 130 168 215 268 321 388
#     4  12  25  44  64  93 130 170 219 269 321 385
#     4  11  24  43  66  95 129 169 213 267 323 387
#     4  11  23  41  66  96 130 169 213 266 324 383
#     4  12  25  43  65  94 129 171 217 268 323 384
#     4  10  22  40  62  90 124 162 206 258 314 377
#     4  11  23  41  66  94 129 170 214 267 323 383
#     4  10  22  40  62  92 125 159 205 259 315 379
#
# _framework density 21.947873999999999
#
# number of rings (size 3 to 8) (size 9 to 14) (size 15 to 20)
#    0.000    1.000    0.000    8.250    0.000    5.000 
#    0.000    0.000    0.000    0.000    0.000    0.000 
#    0.000    0.000    0.000    0.000    0.000    0.000 
#
# Total GULP energy -89348.321033 kJ/mol
# GULP energy per Si atom -5584.270065 kJ/mol
# Density = 2.189792 g / cm^3
# Si number density = 21.947874 Si / 1000 Ang^3
#
#
#
# Elastic Constant Matrix: (Units=GPa)
#
#
# Indices 1 2 3 4 5 6 
#
# 1 39.2657 20.0623 -19.1099 0.0000 6.0127 0.0000
# 2 20.0623 113.7487 9.9587 0.0000 3.9641 0.0000
# 3 -19.1099 9.9587 42.3616 0.0000 -5.1353 0.0000
# 4 0.0000 0.0000 0.0000 48.7546 0.0000 3.0571
# 5 6.0127 3.9641 -5.1353 0.0000 22.6434 0.0000
# 6 0.0000 0.0000 0.0000 3.0571 0.0000 41.0290
#
#
#
# Elastic Compliance Matrix: (Units=1/GPa)
#
#
# Indices 1 2 3 4 5 6 
#
# 1 0.040108 -0.008621 0.019549 0.000000 -0.004707 0.000000
# 2 -0.008621 0.010928 -0.006594 0.000000 -0.001119 0.000000
# 3 0.019549 -0.006594 0.034433 0.000000 0.003772 0.000000
# 4 0.000000 0.000000 0.000000 0.020607 0.000000 -0.001535
# 5 -0.004707 -0.001119 0.003772 0.000000 0.046464 0.000000
# 6 0.000000 0.000000 0.000000 -0.001535 0.000000 0.024487
#
#
# Mechanical properties :
#
#
# Convention : Reuss Voigt Hill
#
# Bulk Modulus (GPa) = 10.62289 24.13312 17.37801
# Shear Modulus (GPa) = 25.03270 34.78307 29.90788
#
# Velocity S-wave (km/s) = 3.38087 3.98528 3.69545
# Velocity P-wave (km/s) = 4.48229 5.67416 5.11307
#
# Compressibility (1/GPa) = 0.09413631
#
# Stress axis : x y z
#
# Youngs Moduli (GPa) = 24.93289 91.50626 29.04213
#
# Poissons Ratio (x) = 0.78891 -0.56775
# Poissons Ratio (y) = 0.21496 0.19150
# Poissons Ratio (z) = -0.48742 0.60339
#
# Static dielectric constant tensor:
#      x y z
#    x 1.840970 0.000000 0.013740 
#    y 0.000000 1.739720 0.000000 
#    z 0.013740 0.000000 1.857800 
# 
# From -- ./inp_files/9633.got.cif
#   From: 2010.05.17/outbox.ucp.g08.bks.cvg/sg4_5_cif.got.tgz:9633.got - 2010.06.11 12:51:24.
