data_PCOD9119118
_publ_section_title
;
Structure prediction by ZEFSAII (Michael W. Deem and Ramdas Pophale) SiO2 
 PCOD9119118
Probable space group: P 21
;
_chemical_formula_sum "Si O2"
_cell_formula_units_Z 14
_cell_length_a 7.226684
_cell_length_b 6.802529
_cell_length_c 16.583425
_cell_angle_alpha 90.000000
_cell_angle_beta 114.317671
_cell_angle_gamma 90.000000
_cell_volume 742.905854
_symmetry_space_group_name_H-M "P 21"
_symmetry_group_IT_number 4
_symmetry_cell_setting 'monoclinic'
loop_
_space_group_symop_operation_xyz
x,y,z
-x,1/2+y,-z
loop_
_atom_site_type_symbol
_atom_site_label
_atom_site_fract_x
_atom_site_fract_y
_atom_site_fract_z
Si Si1 0.000888 0.954560 0.101181
Si Si2 0.811171 0.632633 0.705276
Si Si3 0.708197 0.240316 0.588735
Si Si4 0.434887 0.902591 0.608321
Si Si5 0.088550 0.956556 0.677982
Si Si6 0.708632 0.284456 0.981372
Si Si7 0.271798 0.110480 0.877442
O O1 0.171399 0.894445 0.067862
O O2 0.895956 0.758940 0.117163
O O3 0.096427 0.075054 0.192218
O O4 0.833449 0.089944 0.027963
O O5 0.751655 0.435780 0.647312
O O6 0.613863 0.770412 0.678434
O O7 0.975379 0.756012 0.683474
O O8 0.636487 0.298859 0.486852
O O9 0.536173 0.109447 0.601317
O O10 0.911147 0.108621 0.622119
O O11 0.249158 0.927320 0.635799
O O12 0.201727 0.038131 0.777515
O O13 0.484527 0.224957 0.913609
O O14 0.702514 0.427377 0.057475
#
# Coordination Sequence:
#
# PCOD9119118 Si02
#       7
#     2   2   2   2   2   2   2
#     4  12  25  44  68  98 137 175 220 274 335 384
#     4  11  25  45  67  98 138 171 218 280 324 393
#     4  11  24  45  66  99 137 174 215 275 327 397
#     4  11  26  44  68 101 134 173 225 267 333 395
#     4  11  27  42  70  99 134 173 221 275 330 393
#     4  12  26  42  71  95 134 180 217 274 332 390
#     4  12  25  44  64 104 134 168 228 273 325 398
#
# _framework density 18.844919000000001
#
# number of rings (size 3 to 8) (size 9 to 14) (size 15 to 20)
#    0.000    0.571    7.143    0.000    4.000    4.571 
#    0.000    0.000    0.000    0.000    0.000    0.000 
#    0.000    0.000    0.000    0.000    0.000    0.000 
#
# Total GULP energy -78332.044613 kJ/mol
# GULP energy per Si atom -5595.146044 kJ/mol
# Density = 1.880203 g / cm^3
# Si number density = 18.844919 Si / 1000 Ang^3
#
#
#
# Elastic Constant Matrix: (Units=GPa)
#
#
# Indices 1 2 3 4 5 6 
#
# 1 81.3173 20.0955 24.6804 0.0000 -5.8495 0.0000
# 2 20.0955 87.4338 25.1835 0.0000 -1.0456 0.0000
# 3 24.6804 25.1835 63.3366 0.0000 12.3302 0.0000
# 4 0.0000 0.0000 0.0000 46.3576 0.0000 7.2791
# 5 -5.8495 -1.0456 12.3302 0.0000 28.1153 0.0000
# 6 0.0000 0.0000 0.0000 7.2791 0.0000 28.0708
#
#
#
# Elastic Compliance Matrix: (Units=1/GPa)
#
#
# Indices 1 2 3 4 5 6 
#
# 1 0.015042 -0.001546 -0.006390 0.000000 0.005874 0.000000
# 2 -0.001546 0.013309 -0.005164 0.000000 0.002438 0.000000
# 3 -0.006390 -0.005164 0.022554 0.000000 -0.011413 0.000000
# 4 0.000000 0.000000 0.000000 0.022487 0.000000 -0.005831
# 5 0.005874 0.002438 -0.011413 0.000000 0.041886 0.000000
# 6 0.000000 0.000000 0.000000 -0.005831 0.000000 0.037136
#
#
# Mechanical properties :
#
#
# Convention : Reuss Voigt Hill
#
# Bulk Modulus (GPa) = 40.47956 41.33406 40.90681
# Shear Modulus (GPa) = 26.75956 31.31729 29.03842
#
# Velocity S-wave (km/s) = 3.77236 4.08099 3.92971
# Velocity P-wave (km/s) = 6.36406 6.64736 6.50725
#
# Compressibility (1/GPa) = 0.02470383
#
# Stress axis : x y z
#
# Youngs Moduli (GPa) = 66.48209 75.13621 44.33856
#
# Poissons Ratio (x) = 0.11619 0.28333
# Poissons Ratio (y) = 0.10280 0.22896
# Poissons Ratio (z) = 0.42482 0.38800
#
# Static dielectric constant tensor:
#      x y z
#    x 1.619080 0.000000 0.014840 
#    y 0.000000 1.638520 0.000000 
#    z 0.014840 0.000000 1.618050 
# 
# From -- ./inp_files/3306.got.cif
#   From: 2010.05.17/outbox.cif.g08.bks.cpg/sg4_2_cif.got.tgz:3306.got - 2010.06.03 18:43:04.
