data_PCOD9119225
_publ_section_title
;
Structure prediction by ZEFSAII (Michael W. Deem and Ramdas Pophale) SiO2 
 PCOD9119225
Probable space group: P 21
;
_chemical_formula_sum "Si O2"
_cell_formula_units_Z 16
_cell_length_a 11.402214
_cell_length_b 5.312014
_cell_length_c 11.421657
_cell_angle_alpha 90.000000
_cell_angle_beta 123.673973
_cell_angle_gamma 90.000000
_cell_volume 575.716128
_symmetry_space_group_name_H-M "P 21"
_symmetry_group_IT_number 4
_symmetry_cell_setting 'monoclinic'
loop_
_space_group_symop_operation_xyz
x,y,z
-x,1/2+y,-z
loop_
_atom_site_type_symbol
_atom_site_label
_atom_site_fract_x
_atom_site_fract_y
_atom_site_fract_z
Si Si1 0.159549 0.918450 0.089434
Si Si2 0.889329 0.062022 0.309839
Si Si3 0.061203 0.305111 0.222592
Si Si4 0.423148 0.134837 0.099312
Si Si5 0.347537 0.240891 0.808016
Si Si6 0.401070 0.528675 0.266733
Si Si7 0.197829 0.879537 0.537768
Si Si8 0.651544 0.700599 0.546968
O O1 0.249609 0.662377 0.164232
O O2 0.114014 0.047860 0.186249
O O3 0.275736 0.067268 0.078186
O O4 0.020055 0.927842 0.931397
O O5 0.815728 0.135943 0.390242
O O6 0.938635 0.281750 0.251163
O O7 0.036185 0.927842 0.415072
O O8 0.770236 0.900507 0.184022
O O9 0.202970 0.369998 0.375383
O O10 0.457214 0.406068 0.176953
O O11 0.542965 0.929845 0.192384
O O12 0.415664 0.103397 0.955946
O O13 0.257651 0.083424 0.664525
O O14 0.506803 0.717411 0.393125
O O15 0.392128 0.285889 0.347753
O O16 0.292449 0.935666 0.476823
#
# Coordination Sequence:
#
# PCOD9119225 Si02
#       8
#     2   2   2   2   2   2   2   2
#     4  12  26  51  77 114 157 202 264 322 395 468
#     4  11  24  48  72 110 151 196 255 319 387 458
#     4  11  25  45  75 109 152 199 252 315 392 457
#     4  12  30  48  80 112 158 212 258 324 382 468
#     4  12  28  46  76 108 152 206 264 316 386 458
#     4  12  26  51  77 114 157 202 264 322 395 468
#     4  11  24  48  72 110 151 196 255 319 387 458
#     4  11  25  45  75 109 152 199 252 315 392 457
#
# _framework density 27.791473
#
# number of rings (size 3 to 8) (size 9 to 14) (size 15 to 20)
#    0.000    0.500    2.500    4.500   10.500    0.000 
#    9.000    0.000    0.000    0.000    0.000    0.000 
#    0.000    0.000    0.000    0.000    0.000    0.000 
#
# Total GULP energy -89355.193437 kJ/mol
# GULP energy per Si atom -5584.699590 kJ/mol
# Density = 2.772822 g / cm^3
# Si number density = 27.791473 Si / 1000 Ang^3
#
#
#
# Elastic Constant Matrix: (Units=GPa)
#
#
# Indices 1 2 3 4 5 6 
#
# 1 129.4794 32.8742 64.2446 0.0000 -9.3894 0.0000
# 2 32.8742 53.4934 24.5116 0.0000 0.6028 0.0000
# 3 64.2446 24.5116 157.6364 0.0000 -4.3875 0.0000
# 4 0.0000 0.0000 0.0000 46.7333 0.0000 1.1907
# 5 -9.3894 0.6028 -4.3875 0.0000 65.5062 0.0000
# 6 0.0000 0.0000 0.0000 1.1907 0.0000 46.7429
#
#
#
# Elastic Compliance Matrix: (Units=1/GPa)
#
#
# Indices 1 2 3 4 5 6 
#
# 1 0.010902 -0.005057 -0.003619 0.000000 0.001367 0.000000
# 2 -0.005057 0.022484 -0.001464 0.000000 -0.001030 0.000000
# 3 -0.003619 -0.001464 0.008047 0.000000 0.000034 0.000000
# 4 0.000000 0.000000 0.000000 0.021412 0.000000 -0.000545
# 5 0.001367 -0.001030 0.000034 0.000000 0.015473 0.000000
# 6 0.000000 0.000000 0.000000 -0.000545 0.000000 0.021407
#
#
# Mechanical properties :
#
#
# Convention : Reuss Voigt Hill
#
# Bulk Modulus (GPa) = 47.27248 64.87442 56.07345
# Shear Modulus (GPa) = 39.35284 46.39510 42.87397
#
# Velocity S-wave (km/s) = 3.76707 4.09026 3.93199
# Velocity P-wave (km/s) = 5.99731 6.76025 6.39017
#
# Compressibility (1/GPa) = 0.02115396
#
# Stress axis : x y z
#
# Youngs Moduli (GPa) = 91.72832 44.47617 124.26920
#
# Poissons Ratio (x) = 0.22491 0.44969
# Poissons Ratio (y) = 0.46386 0.18191
# Poissons Ratio (z) = 0.33193 0.06511
#
# Static dielectric constant tensor:
#      x y z
#    x 2.148680 0.000000 -0.002290 
#    y 0.000000 2.319470 0.000000 
#    z -0.002290 0.000000 2.204660 
# 
# From -- ./inp_files/11665.got.cif
#   From: 2010.05.17/outbox.cif.g08.bks.cpg/sg4_6_cif.got.tgz:11665.got - 2010.06.03 18:43:04.
