data_PCOD9119659
_publ_section_title
;
Structure prediction by ZEFSAII (Michael W. Deem and Ramdas Pophale) SiO2 
 PCOD9119659
Probable space group: P 21
;
_chemical_formula_sum "Si O2"
_cell_formula_units_Z 16
_cell_length_a 9.706589
_cell_length_b 13.302786
_cell_length_c 6.865782
_cell_angle_alpha 90.000000
_cell_angle_beta 57.806728
_cell_angle_gamma 90.000000
_cell_volume 750.241147
_symmetry_space_group_name_H-M "P 21"
_symmetry_group_IT_number 4
_symmetry_cell_setting 'monoclinic'
loop_
_space_group_symop_operation_xyz
x,y,z
-x,1/2+y,-z
loop_
_atom_site_type_symbol
_atom_site_label
_atom_site_fract_x
_atom_site_fract_y
_atom_site_fract_z
Si Si1 0.810209 0.437270 0.742410
Si Si2 0.783375 0.047733 0.955035
Si Si3 0.546680 0.128467 0.469038
Si Si4 0.454989 0.460011 0.196614
Si Si5 0.814028 0.265332 0.413883
Si Si6 0.283740 0.268427 0.506462
Si Si7 0.970675 0.641979 0.499748
Si Si8 0.026753 0.380555 0.947814
O O1 0.813018 0.344378 0.591159
O O2 0.875015 0.538121 0.591529
O O3 0.933638 0.419297 0.827387
O O4 0.628089 0.450893 0.960018
O O5 0.900436 0.131481 0.772741
O O6 0.681029 0.997734 0.855370
O O7 0.659221 0.091257 0.206871
O O8 0.898817 0.967928 0.974987
O O9 0.637063 0.222956 0.500353
O O10 0.380476 0.171574 0.508619
O O11 0.530307 0.040650 0.639749
O O12 0.399046 0.353859 0.329583
O O13 0.923357 0.169772 0.392401
O O14 0.897592 0.317826 0.168726
O O15 0.155885 0.230686 0.442355
O O16 0.179056 0.315312 0.759688
#
# Coordination Sequence:
#
# PCOD9119659 Si02
#       8
#     2   2   2   2   2   2   2   2
#     4  12  28  47  73 107 145 187 240 301 358 430
#     4  12  25  49  74 104 148 188 237 303 359 423
#     4  12  28  46  73 106 146 193 236 293 366 433
#     4  12  28  49  71 107 153 185 236 304 364 427
#     4  12  26  47  72 102 144 188 238 296 357 427
#     4  12  27  46  73 108 142 191 243 291 365 429
#     4  12  25  47  75 105 140 190 244 292 359 424
#     4  12  25  47  75 103 142 188 242 298 354 427
#
# _framework density 21.326474999999999
#
# number of rings (size 3 to 8) (size 9 to 14) (size 15 to 20)
#    0.000    0.000    5.000    4.500    7.000    3.000 
#    0.000    0.000    0.000    0.000    0.000    0.000 
#    0.000    0.000    0.000    0.000    0.000    0.000 
#
# Total GULP energy -89633.392915 kJ/mol
# GULP energy per Si atom -5602.087057 kJ/mol
# Density = 2.127794 g / cm^3
# Si number density = 21.326475 Si / 1000 Ang^3
#
#
#
# Elastic Constant Matrix: (Units=GPa)
#
#
# Indices 1 2 3 4 5 6 
#
# 1 65.9260 5.0260 14.6955 0.0000 2.0341 0.0000
# 2 5.0260 66.0085 37.0733 0.0000 -1.1216 0.0000
# 3 14.6955 37.0733 96.4520 0.0000 -3.0525 0.0000
# 4 0.0000 0.0000 0.0000 29.3761 0.0000 0.4674
# 5 2.0341 -1.1216 -3.0525 0.0000 33.1379 0.0000
# 6 0.0000 0.0000 0.0000 0.4674 0.0000 39.9259
#
#
#
# Elastic Compliance Matrix: (Units=1/GPa)
#
#
# Indices 1 2 3 4 5 6 
#
# 1 0.015750 0.000191 -0.002511 0.000000 -0.001192 0.000000
# 2 0.000191 0.019323 -0.007458 0.000000 -0.000045 0.000000
# 3 -0.002511 -0.007458 0.013654 0.000000 0.001159 0.000000
# 4 0.000000 0.000000 0.000000 0.034048 0.000000 -0.000399
# 5 -0.001192 -0.000045 0.001159 0.000000 0.030355 0.000000
# 6 0.000000 0.000000 0.000000 -0.000399 0.000000 0.025051
#
#
# Mechanical properties :
#
#
# Convention : Reuss Voigt Hill
#
# Bulk Modulus (GPa) = 34.28015 37.99736 36.13876
# Shear Modulus (GPa) = 29.85789 31.92742 30.89265
#
# Velocity S-wave (km/s) = 3.74577 3.87341 3.81012
# Velocity P-wave (km/s) = 5.90056 6.15305 6.02813
#
# Compressibility (1/GPa) = 0.02917140
#
# Stress axis : x y z
#
# Youngs Moduli (GPa) = 63.49036 51.75237 73.24104
#
# Poissons Ratio (x) = -0.00986 0.18389
# Poissons Ratio (y) = -0.01210 0.54620
# Poissons Ratio (z) = 0.15941 0.38595
#
# Static dielectric constant tensor:
#      x y z
#    x 1.732270 0.000000 0.005950 
#    y 0.000000 1.756160 0.000000 
#    z 0.005950 0.000000 1.731290 
# 
# From -- ./inp_files/1384.got.cif
#   From: 2010.05.17/outbox.cif.g08.bks.cpg/sg4_1_cif.got.tgz:1384.got - 2010.06.03 18:43:04.
