data_PCOD9119685
_publ_section_title
;
Structure prediction by ZEFSAII (Michael W. Deem and Ramdas Pophale) SiO2 
 PCOD9119685
Probable space group: P 21
;
_chemical_formula_sum "Si O2"
_cell_formula_units_Z 16
_cell_length_a 12.263204
_cell_length_b 8.853060
_cell_length_c 9.298012
_cell_angle_alpha 90.000000
_cell_angle_beta 138.488917
_cell_angle_gamma 90.000000
_cell_volume 669.032121
_symmetry_space_group_name_H-M "P 21"
_symmetry_group_IT_number 4
_symmetry_cell_setting 'monoclinic'
loop_
_space_group_symop_operation_xyz
x,y,z
-x,1/2+y,-z
loop_
_atom_site_type_symbol
_atom_site_label
_atom_site_fract_x
_atom_site_fract_y
_atom_site_fract_z
Si Si1 0.796870 0.875000 0.044588
Si Si2 0.841254 0.400523 0.644585
Si Si3 0.657856 0.115900 0.761066
Si Si4 0.315358 0.352640 0.752317
Si Si5 0.649646 0.502293 0.187620
Si Si6 0.147437 0.536333 0.323621
Si Si7 0.212416 0.913846 0.971651
Si Si8 0.673542 0.618795 0.713553
O O1 0.793093 0.836000 0.209028
O O2 0.972259 0.953922 0.195689
O O3 0.772375 0.744148 0.901464
O O4 0.642739 0.985142 0.863651
O O5 0.720303 0.415447 0.392401
O O6 0.857982 0.219194 0.674554
O O7 0.768067 0.509444 0.695425
O O8 0.753697 0.027586 0.728161
O O9 0.489578 0.175727 0.526152
O O10 0.757293 0.246060 0.941192
O O11 0.357775 0.176820 0.769008
O O12 0.232522 0.443712 0.538727
O O13 0.478360 0.442276 0.957672
O O14 0.776695 0.459647 0.183552
O O15 0.963468 0.469273 0.142155
O O16 0.364657 0.004490 0.194229
#
# Coordination Sequence:
#
# PCOD9119685 Si02
#       8
#     2   2   2   2   2   2   2   2
#     4  12  28  48  77 112 158 205 258 323 395 472
#     4  12  27  47  80 113 154 203 261 323 392 471
#     4  12  29  44  81 114 156 208 259 328 384 474
#     4  12  28  50  77 111 156 207 263 324 396 475
#     4  12  28  48  79 112 156 206 264 324 395 477
#     4  12  27  49  78 112 155 204 262 321 393 468
#     4  12  26  51  78 111 159 207 263 322 397 466
#     4  12  25  51  76 113 158 204 260 319 398 459
#
# _framework density 23.915144999999999
#
# number of rings (size 3 to 8) (size 9 to 14) (size 15 to 20)
#    0.000    0.000    3.750    4.500   10.500    0.000 
#    0.000    0.000    0.000    0.000    0.000    0.000 
#    0.000    0.000    0.000    0.000    0.000    0.000 
#
# Total GULP energy -89339.670187 kJ/mol
# GULP energy per Si atom -5583.729387 kJ/mol
# Density = 2.386071 g / cm^3
# Si number density = 23.915145 Si / 1000 Ang^3
#
#
#
# Elastic Constant Matrix: (Units=GPa)
#
#
# Indices 1 2 3 4 5 6 
#
# 1 90.3122 30.6570 32.9555 0.0000 -1.8122 0.0000
# 2 30.6570 131.0153 35.9031 0.0000 -3.4950 0.0000
# 3 32.9555 35.9031 94.0288 0.0000 -0.7237 0.0000
# 4 0.0000 0.0000 0.0000 55.7594 0.0000 -7.8113
# 5 -1.8122 -3.4950 -0.7237 0.0000 33.9244 0.0000
# 6 0.0000 0.0000 0.0000 -7.8113 0.0000 23.3889
#
#
#
# Elastic Compliance Matrix: (Units=1/GPa)
#
#
# Indices 1 2 3 4 5 6 
#
# 1 0.013168 -0.002017 -0.003842 0.000000 0.000414 0.000000
# 2 -0.002017 0.008856 -0.002669 0.000000 0.000748 0.000000
# 3 -0.003842 -0.002669 0.012999 0.000000 -0.000203 0.000000
# 4 0.000000 0.000000 0.000000 0.018814 0.000000 0.006284
# 5 0.000414 0.000748 -0.000203 0.000000 0.029572 0.000000
# 6 0.000000 0.000000 0.000000 0.006284 0.000000 0.044854
#
#
# Mechanical properties :
#
#
# Convention : Reuss Voigt Hill
#
# Bulk Modulus (GPa) = 55.65682 57.15418 56.40550
# Shear Modulus (GPa) = 33.04533 37.00392 35.02462
#
# Velocity S-wave (km/s) = 3.72125 3.93784 3.83108
# Velocity P-wave (km/s) = 6.46427 6.68028 6.57316
#
# Compressibility (1/GPa) = 0.01796725
#
# Stress axis : x y z
#
# Youngs Moduli (GPa) = 75.94378 112.91753 76.92985
#
# Poissons Ratio (x) = 0.22780 0.29553
# Poissons Ratio (y) = 0.15321 0.20530
# Poissons Ratio (z) = 0.29174 0.30134
#
# Static dielectric constant tensor:
#      x y z
#    x 1.990340 0.000000 -0.012630 
#    y 0.000000 2.116820 0.000000 
#    z -0.012630 0.000000 1.867070 
# 
# From -- ./inp_files/8098.got.cif
#   From: 2010.05.17/outbox.cif.g08.bks.cpg/sg4_5_cif.got.tgz:8098.got - 2010.06.03 18:43:04.
