data_PCOD9119060
_publ_section_title
;
Structure prediction by ZEFSAII (Michael W. Deem and Ramdas Pophale) SiO2 
 PCOD9119060
Probable space group: P 21
;
_chemical_formula_sum "Si O2"
_cell_formula_units_Z 16
_cell_length_a 10.877986
_cell_length_b 4.743564
_cell_length_c 11.615029
_cell_angle_alpha 90.000000
_cell_angle_beta 78.617916
_cell_angle_gamma 90.000000
_cell_volume 587.553139
_symmetry_space_group_name_H-M "P 21"
_symmetry_group_IT_number 4
_symmetry_cell_setting 'monoclinic'
loop_
_space_group_symop_operation_xyz
x,y,z
-x,1/2+y,-z
loop_
_atom_site_type_symbol
_atom_site_label
_atom_site_fract_x
_atom_site_fract_y
_atom_site_fract_z
Si Si1 0.520310 0.995080 0.089550
Si Si2 0.496553 0.561536 0.425988
Si Si3 0.307289 0.254419 0.289842
Si Si4 0.297997 0.799019 0.765867
Si Si5 0.858647 0.761945 0.260407
Si Si6 0.294250 0.600162 0.071860
Si Si7 0.085295 0.175326 0.495152
Si Si8 0.054087 0.943919 0.053282
O O1 0.444909 0.713596 0.039858
O O2 0.395020 0.041883 0.198581
O O3 0.602711 0.213306 0.157393
O O4 0.660204 0.851700 0.022043
O O5 0.495808 0.889656 0.455437
O O6 0.384873 0.440681 0.368520
O O7 0.621884 0.479005 0.338326
O O8 0.260339 0.467088 0.199139
O O9 0.192892 0.120515 0.381546
O O10 0.238632 0.518136 0.725416
O O11 0.185717 0.010898 0.815150
O O12 0.869887 0.627742 0.383665
O O13 0.986786 0.890754 0.188792
O O14 0.189738 0.805404 0.045838
O O15 0.040536 0.498098 0.500577
O O16 0.968336 0.764618 0.979032
#
# Coordination Sequence:
#
# PCOD9119060 Si02
#       8
#     2   2   2   2   2   2   2   2
#     4  11  26  44  75 108 150 196 245 317 381 445
#     4  11  24  43  69 103 143 189 243 303 368 438
#     4  11  27  44  74 106 145 198 248 307 380 444
#     4  11  25  44  74 104 148 191 247 302 378 445
#     4  12  25  49  73 108 152 199 249 312 370 445
#     4  12  26  48  74 111 154 195 257 311 382 451
#     4  12  28  48  74 107 148 201 258 311 371 444
#     4  12  29  50  79 111 150 205 253 309 376 450
#
# _framework density 27.231579
#
# number of rings (size 3 to 8) (size 9 to 14) (size 15 to 20)
#    0.000    0.500    1.250    6.000   12.250    1.000 
#    0.000    0.000    0.000    0.000    0.000    0.000 
#    0.000    0.000    0.000    0.000    0.000    0.000 
#
# Total GULP energy -89405.843478 kJ/mol
# GULP energy per Si atom -5587.865217 kJ/mol
# Density = 2.716960 g / cm^3
# Si number density = 27.231579 Si / 1000 Ang^3
#
#
#
# Elastic Constant Matrix: (Units=GPa)
#
#
# Indices 1 2 3 4 5 6 
#
# 1 96.6098 18.5763 32.1530 0.0000 -18.7495 0.0000
# 2 18.5763 88.3604 9.1452 0.0000 2.9962 0.0000
# 3 32.1530 9.1452 134.3723 0.0000 -12.1651 0.0000
# 4 0.0000 0.0000 0.0000 45.0408 0.0000 0.1068
# 5 -18.7495 2.9962 -12.1651 0.0000 59.6277 0.0000
# 6 0.0000 0.0000 0.0000 0.1068 0.0000 -14.0360
#
#
#
# Elastic Compliance Matrix: (Units=1/GPa)
#
#
# Indices 1 2 3 4 5 6 
#
# 1 0.012321 -0.002454 -0.002465 0.000000 0.003495 0.000000
# 2 -0.002454 0.011919 -0.000355 0.000000 -0.001443 0.000000
# 3 -0.002465 -0.000355 0.008138 0.000000 0.000903 0.000000
# 4 0.000000 0.000000 0.000000 0.022202 0.000000 0.000169
# 5 0.003495 -0.001443 0.000903 0.000000 0.018126 0.000000
# 6 0.000000 0.000000 0.000000 0.000169 0.000000 -0.071244
#
#
# Mechanical properties :
#
#
# Convention : Reuss Voigt Hill
#
# Bulk Modulus (GPa) = 45.80598 48.78794 47.29696
# Shear Modulus (GPa) = 259.26283 35.42437 147.34360
#
# Velocity S-wave (km/s) = 9.76798 3.61065 7.36377
# Velocity P-wave (km/s) = 12.00313 5.94451 9.47134
#
# Compressibility (1/GPa) = 0.02183121
#
# Stress axis : x y z
#
# Youngs Moduli (GPa) = 81.16015 83.90126 122.88478
#
# Poissons Ratio (x) = 0.20587 0.30290
# Poissons Ratio (y) = 0.19915 0.04358
# Poissons Ratio (z) = 0.20005 0.02976
#
# Static dielectric constant tensor:
#      x y z
#    x 2.149370 0.000000 0.007730 
#    y 0.000000 2.060450 0.000000 
#    z 0.007730 0.000000 2.304190 
# 
# From -- ./inp_files/10734.got.cif
#   From: 2010.05.17/outbox.cif.g08.bks.cpg/sg4_6_cif.got.tgz:10734.got - 2010.06.03 18:43:04.
