data_PCOD9119580
_publ_section_title
;
Structure prediction by ZEFSAII (Michael W. Deem and Ramdas Pophale) SiO2 
 PCOD9119580
Probable space group: P 21
;
_chemical_formula_sum "Si O2"
_cell_formula_units_Z 16
_cell_length_a 10.440967
_cell_length_b 5.863679
_cell_length_c 14.920344
_cell_angle_alpha 90.000000
_cell_angle_beta 134.550851
_cell_angle_gamma 90.000000
_cell_volume 650.957582
_symmetry_space_group_name_H-M "P 21"
_symmetry_group_IT_number 4
_symmetry_cell_setting 'monoclinic'
loop_
_space_group_symop_operation_xyz
x,y,z
-x,1/2+y,-z
loop_
_atom_site_type_symbol
_atom_site_label
_atom_site_fract_x
_atom_site_fract_y
_atom_site_fract_z
Si Si1 0.612440 0.699710 0.986042
Si Si2 0.195048 0.760192 0.515425
Si Si3 0.605330 0.400458 0.561572
Si Si4 0.801100 0.909661 0.350946
Si Si5 0.092341 0.880965 0.932734
Si Si6 0.528936 0.542768 0.231198
Si Si7 0.799419 0.230748 0.821243
Si Si8 0.780938 0.070027 0.157991
O O1 0.428270 0.646444 0.946165
O O2 0.558873 0.883851 0.885767
O O3 0.714506 0.499615 0.985824
O O4 0.764551 0.804818 0.125086
O O5 0.249306 0.842905 0.444348
O O6 0.241124 0.505559 0.571114
O O7 0.986381 0.776583 0.437013
O O8 0.314990 0.914440 0.639187
O O9 0.513021 0.654797 0.499465
O O10 0.712458 0.407383 0.708638
O O11 0.628444 0.762499 0.240921
O O12 0.830577 0.096644 0.286336
O O13 0.100855 0.688517 0.859999
O O14 0.090280 0.814249 0.036809
O O15 0.929246 0.052342 0.836084
O O16 0.371611 0.604476 0.221375
#
# Coordination Sequence:
#
# PCOD9119580 Si02
#       8
#     2   2   2   2   2   2   2   2
#     4  12  24  45  73 110 148 191 248 306 391 458
#     4  12  27  47  76 111 151 199 259 324 392 463
#     4  12  30  53  83 115 158 215 272 325 395 480
#     4  12  27  46  77 111 148 192 253 322 391 462
#     4  12  29  48  74 113 153 200 256 319 383 470
#     4  12  24  49  74 106 148 201 249 312 386 465
#     4  12  28  51  75 110 157 209 266 321 392 472
#     4  12  25  43  76 112 147 193 243 317 392 464
#
# _framework density 24.579173000000001
#
# number of rings (size 3 to 8) (size 9 to 14) (size 15 to 20)
#    0.000    0.000    6.250    3.000    3.500    3.000 
#    0.000    0.000    0.000    0.000    0.000    0.000 
#    0.000    0.000    0.000    0.000    0.000    0.000 
#
# Total GULP energy -89425.585085 kJ/mol
# GULP energy per Si atom -5589.099068 kJ/mol
# Density = 2.452323 g / cm^3
# Si number density = 24.579173 Si / 1000 Ang^3
#
#
#
# Elastic Constant Matrix: (Units=GPa)
#
#
# Indices 1 2 3 4 5 6 
#
# 1 91.1936 14.9165 11.3096 0.0000 4.8437 0.0000
# 2 14.9165 47.8784 -3.4419 0.0000 12.8961 0.0000
# 3 11.3096 -3.4419 53.0836 0.0000 8.2651 0.0000
# 4 0.0000 0.0000 0.0000 41.3796 0.0000 4.0295
# 5 4.8437 12.8961 8.2651 0.0000 46.7983 0.0000
# 6 0.0000 0.0000 0.0000 4.0295 0.0000 39.2462
#
#
#
# Elastic Compliance Matrix: (Units=1/GPa)
#
#
# Indices 1 2 3 4 5 6 
#
# 1 0.011961 -0.004035 -0.002869 0.000000 0.000381 0.000000
# 2 -0.004035 0.024249 0.003504 0.000000 -0.006884 0.000000
# 3 -0.002869 0.003504 0.020340 0.000000 -0.004261 0.000000
# 4 0.000000 0.000000 0.000000 0.024411 0.000000 -0.002506
# 5 0.000381 -0.006884 -0.004261 0.000000 0.023978 0.000000
# 6 0.000000 0.000000 0.000000 -0.002506 0.000000 0.025738
#
#
# Mechanical properties :
#
#
# Convention : Reuss Voigt Hill
#
# Bulk Modulus (GPa) = 20.10085 26.41377 23.25731
# Shear Modulus (GPa) = 32.45444 36.77624 34.61534
#
# Velocity S-wave (km/s) = 3.63768 3.87232 3.75683
# Velocity P-wave (km/s) = 5.08324 5.54643 5.31988
#
# Compressibility (1/GPa) = 0.04974913
#
# Stress axis : x y z
#
# Youngs Moduli (GPa) = 83.60247 41.23805 49.16393
#
# Poissons Ratio (x) = 0.16641 0.14107
# Poissons Ratio (y) = 0.33737 -0.17226
# Poissons Ratio (z) = 0.23988 -0.14449
#
# Static dielectric constant tensor:
#      x y z
#    x 1.913190 0.000000 -0.057550 
#    y 0.000000 2.094870 0.000000 
#    z -0.057550 0.000000 1.981760 
# 
# From -- ./inp_files/9077.got.cif
#   From: 2010.05.17/outbox.cif.g08.bks.cpg/sg4_5_cif.got.tgz:9077.got - 2010.06.03 18:43:04.
