data_PCOD9119534
_publ_section_title
;
Structure prediction by ZEFSAII (Michael W. Deem and Ramdas Pophale) SiO2 
 PCOD9119534
Probable space group: P 21
;
_chemical_formula_sum "Si O2"
_cell_formula_units_Z 14
_cell_length_a 15.440022
_cell_length_b 6.817313
_cell_length_c 10.044886
_cell_angle_alpha 90.000000
_cell_angle_beta 143.738319
_cell_angle_gamma 90.000000
_cell_volume 625.376928
_symmetry_space_group_name_H-M "P 21"
_symmetry_group_IT_number 4
_symmetry_cell_setting 'monoclinic'
loop_
_space_group_symop_operation_xyz
x,y,z
-x,1/2+y,-z
loop_
_atom_site_type_symbol
_atom_site_label
_atom_site_fract_x
_atom_site_fract_y
_atom_site_fract_z
Si Si1 0.227591 0.091750 0.894390
Si Si2 0.710461 0.308919 0.273497
Si Si3 0.589515 0.961798 0.974439
Si Si4 0.838845 0.978626 0.806546
Si Si5 0.581582 0.699758 0.454489
Si Si6 0.313139 0.848961 0.262598
Si Si7 0.019670 0.712483 0.232934
O O1 0.066869 0.160417 0.740051
O O2 0.237735 0.959288 0.775966
O O3 0.327029 0.285270 0.996119
O O4 0.278861 0.958126 0.081997
O O5 0.548655 0.371538 0.119411
O O6 0.827693 0.311041 0.537121
O O7 0.696443 0.086753 0.201333
O O8 0.521463 0.124370 0.790867
O O9 0.691184 0.878293 0.567650
O O10 0.794210 0.178579 0.825315
O O11 0.942759 0.025560 0.811497
O O12 0.916672 0.845427 0.012981
O O13 0.474212 0.755931 0.442541
O O14 0.678784 0.515734 0.617209
#
# Coordination Sequence:
#
# PCOD9119534 Si02
#       7
#     2   2   2   2   2   2   2
#     4  12  27  50  74 111 152 199 257 305 379 457
#     4  12  29  49  76 106 153 199 250 316 377 453
#     4  12  27  50  75 111 143 198 260 311 375 443
#     4  12  28  50  73 113 156 196 254 311 381 457
#     4  12  24  42  79 112 149 192 248 319 376 440
#     4  12  23  45  75 115 149 193 254 315 377 437
#     4  12  30  50  76 110 154 205 245 309 385 457
#
# _framework density 22.386500999999999
#
# number of rings (size 3 to 8) (size 9 to 14) (size 15 to 20)
#    0.000    0.000    5.714    3.429    8.000    0.000 
#    0.000    0.000    0.000    0.000    0.000    0.000 
#    0.000    0.000    0.000    0.000    0.000    0.000 
#
# Total GULP energy -78402.016124 kJ/mol
# GULP energy per Si atom -5600.144009 kJ/mol
# Density = 2.233555 g / cm^3
# Si number density = 22.386501 Si / 1000 Ang^3
#
#
#
# Elastic Constant Matrix: (Units=GPa)
#
#
# Indices 1 2 3 4 5 6 
#
# 1 131.9440 44.2051 5.3501 0.0000 11.4625 0.0000
# 2 44.2051 90.8634 17.0173 0.0000 10.9728 0.0000
# 3 5.3501 17.0173 62.1634 0.0000 4.1293 0.0000
# 4 0.0000 0.0000 0.0000 26.4747 0.0000 7.1059
# 5 11.4625 10.9728 4.1293 0.0000 24.3750 0.0000
# 6 0.0000 0.0000 0.0000 7.1059 0.0000 50.0054
#
#
#
# Elastic Compliance Matrix: (Units=1/GPa)
#
#
# Indices 1 2 3 4 5 6 
#
# 1 0.009208 -0.004280 0.000545 0.000000 -0.002495 0.000000
# 2 -0.004280 0.014157 -0.003254 0.000000 -0.003809 0.000000
# 3 0.000545 -0.003254 0.017042 0.000000 -0.001678 0.000000
# 4 0.000000 0.000000 0.000000 0.039270 0.000000 -0.005580
# 5 -0.002495 -0.003809 -0.001678 0.000000 0.044198 0.000000
# 6 0.000000 0.000000 0.000000 -0.005580 0.000000 0.020791
#
#
# Mechanical properties :
#
#
# Convention : Reuss Voigt Hill
#
# Bulk Modulus (GPa) = 37.83832 46.45734 42.14783
# Shear Modulus (GPa) = 29.85895 34.73090 32.29492
#
# Velocity S-wave (km/s) = 3.65607 3.94308 3.80229
# Velocity P-wave (km/s) = 5.89589 6.44422 6.17614
#
# Compressibility (1/GPa) = 0.02642823
#
# Stress axis : x y z
#
# Youngs Moduli (GPa) = 108.60501 70.63477 58.67839
#
# Poissons Ratio (x) = 0.30234 -0.03198
# Poissons Ratio (y) = 0.46486 0.19095
# Poissons Ratio (z) = -0.05919 0.22986
#
# Static dielectric constant tensor:
#      x y z
#    x 1.832430 0.000000 0.018530 
#    y 0.000000 1.826240 0.000000 
#    z 0.018530 0.000000 1.832750 
# 
# From -- ./inp_files/8789.got.cif
#   From: 2010.05.17/outbox.cif.g08.bks.cpg/sg4_5_cif.got.tgz:8789.got - 2010.06.03 18:43:04.
