data_PCOD9119595
_publ_section_title
;
Structure prediction by ZEFSAII (Michael W. Deem and Ramdas Pophale) SiO2 
 PCOD9119595
Probable space group: P 21
;
_chemical_formula_sum "Si O2"
_cell_formula_units_Z 10
_cell_length_a 10.112059
_cell_length_b 9.161126
_cell_length_c 5.158021
_cell_angle_alpha 90.000000
_cell_angle_beta 129.195681
_cell_angle_gamma 90.000000
_cell_volume 370.312907
_symmetry_space_group_name_H-M "P 21"
_symmetry_group_IT_number 4
_symmetry_cell_setting 'monoclinic'
loop_
_space_group_symop_operation_xyz
x,y,z
-x,1/2+y,-z
loop_
_atom_site_type_symbol
_atom_site_label
_atom_site_fract_x
_atom_site_fract_y
_atom_site_fract_z
Si Si1 0.125910 0.317710 0.090627
Si Si2 0.655011 0.331453 0.745297
Si Si3 0.895086 0.509336 0.420103
Si Si4 0.399570 0.119946 0.568176
Si Si5 0.854600 0.121079 0.662132
O O1 0.006935 0.402497 0.739422
O O2 0.999699 0.189762 0.033396
O O3 0.291755 0.222145 0.234897
O O4 0.186208 0.451185 0.344609
O O5 0.559948 0.222212 0.823615
O O6 0.550908 0.468500 0.503069
O O7 0.704518 0.227914 0.563039
O O8 0.810906 0.412852 0.083075
O O9 0.730749 0.578081 0.363193
O O10 0.034919 0.615111 0.462725
#
# Coordination Sequence:
#
# PCOD9119595 Si02
#       5
#     2   2   2   2   2
#     4  12  24  47  79 110 148 193 255 314 365 452
#     4  12  28  52  73 111 158 197 250 318 379 441
#     4  12  26  48  82 110 148 202 262 296 384 452
#     4  12  28  52  73 111 158 197 250 318 379 441
#     4  12  24  47  79 110 148 193 255 314 365 452
#
# _framework density 27.004193000000001
#
# number of rings (size 3 to 8) (size 9 to 14) (size 15 to 20)
#    0.000    0.000    8.000    1.200    5.600    1.600 
#    7.200    0.000    0.000    0.000    0.000    0.000 
#    0.000    0.000    0.000    0.000    0.000    0.000 
#
# Total GULP energy -55809.817457 kJ/mol
# GULP energy per Si atom -5580.981746 kJ/mol
# Density = 2.694273 g / cm^3
# Si number density = 27.004193 Si / 1000 Ang^3
#
#
#
# Elastic Constant Matrix: (Units=GPa)
#
#
# Indices 1 2 3 4 5 6 
#
# 1 160.3801 81.1262 36.0571 0.0000 -16.1627 0.0000
# 2 81.1262 212.8633 16.2118 0.0000 -1.3938 0.0000
# 3 36.0571 16.2118 44.4263 0.0000 -15.8224 0.0000
# 4 0.0000 0.0000 0.0000 32.2534 0.0000 11.5666
# 5 -16.1627 -1.3938 -15.8224 0.0000 32.2701 0.0000
# 6 0.0000 0.0000 0.0000 11.5666 0.0000 72.1019
#
#
#
# Elastic Compliance Matrix: (Units=1/GPa)
#
#
# Indices 1 2 3 4 5 6 
#
# 1 0.009264 -0.003078 -0.005804 0.000000 0.001661 0.000000
# 2 -0.003078 0.005872 -0.000125 0.000000 -0.001349 0.000000
# 3 -0.005804 -0.000125 0.031778 0.000000 0.012668 0.000000
# 4 0.000000 0.000000 0.000000 0.032897 0.000000 -0.005277
# 5 0.001661 -0.001349 0.012668 0.000000 0.037974 0.000000
# 6 0.000000 0.000000 0.000000 -0.005277 0.000000 0.014716
#
#
# Mechanical properties :
#
#
# Convention : Reuss Voigt Hill
#
# Bulk Modulus (GPa) = 34.60345 76.05111 55.32728
# Shear Modulus (GPa) = 31.22115 46.27672 38.74894
#
# Velocity S-wave (km/s) = 3.40392 4.14416 3.79215
# Velocity P-wave (km/s) = 5.31891 7.15001 6.30133
#
# Compressibility (1/GPa) = 0.02889885
#
# Stress axis : x y z
#
# Youngs Moduli (GPa) = 107.93900 170.31135 31.46878
#
# Poissons Ratio (x) = 0.52421 0.18266
# Poissons Ratio (y) = 0.33223 0.00394
# Poissons Ratio (z) = 0.62651 0.02131
#
# Static dielectric constant tensor:
#      x y z
#    x 2.140630 0.000000 0.002140 
#    y 0.000000 2.160050 0.000000 
#    z 0.002140 0.000000 2.213970 
# 
# From -- ./inp_files/968.got.cif
#   From: 2010.05.17/outbox.cif.g08.bks.cpg/sg4_1_cif.got.tgz:968.got - 2010.06.03 18:43:04.
