data_PCOD9119173
_publ_section_title
;
Structure prediction by ZEFSAII (Michael W. Deem and Ramdas Pophale) SiO2 
 PCOD9119173
Probable space group: P 21
;
_chemical_formula_sum "Si O2"
_cell_formula_units_Z 16
_cell_length_a 15.421003
_cell_length_b 9.026329
_cell_length_c 5.710508
_cell_angle_alpha 90.000000
_cell_angle_beta 52.755877
_cell_angle_gamma 90.000000
_cell_volume 632.770984
_symmetry_space_group_name_H-M "P 21"
_symmetry_group_IT_number 4
_symmetry_cell_setting 'monoclinic'
loop_
_space_group_symop_operation_xyz
x,y,z
-x,1/2+y,-z
loop_
_atom_site_type_symbol
_atom_site_label
_atom_site_fract_x
_atom_site_fract_y
_atom_site_fract_z
Si Si1 0.251729 0.550510 0.328832
Si Si2 0.177331 0.255925 0.238960
Si Si3 0.271239 0.000481 0.368645
Si Si4 0.431058 0.915496 0.736238
Si Si5 0.369593 0.210523 0.586856
Si Si6 0.091792 0.850104 0.988091
Si Si7 0.292822 0.671428 0.769289
Si Si8 0.990130 0.164634 0.262149
O O1 0.216418 0.379958 0.354907
O O2 0.299958 0.588362 0.506675
O O3 0.137474 0.637520 0.507403
O O4 0.315196 0.588069 0.981350
O O5 0.202021 0.094953 0.298063
O O6 0.053347 0.259551 0.354109
O O7 0.257487 0.266649 0.884576
O O8 0.339483 0.117555 0.408028
O O9 0.183207 0.915028 0.661870
O O10 0.355585 0.901271 0.088364
O O11 0.547299 0.843323 0.586183
O O12 0.371442 0.813986 0.640277
O O13 0.424665 0.086514 0.668439
O O14 0.168626 0.733437 0.996638
O O15 0.001199 0.756719 0.994617
O O16 0.043599 0.001785 0.168909
#
# Coordination Sequence:
#
# PCOD9119173 Si02
#       8
#     2   2   2   2   2   2   2   2
#     4  11  29  44  78 113 154 200 258 316 379 462
#     4  11  27  45  71 109 154 200 251 323 381 459
#     4  11  24  49  74 107 152 203 248 328 384 458
#     4  11  25  47  78 104 147 202 257 317 395 461
#     4  11  26  49  73 109 151 193 261 316 393 459
#     4  11  24  46  76 106 153 197 255 316 378 458
#     4  11  25  51  73 111 151 201 255 323 384 453
#     4  11  26  41  75 109 150 206 255 307 382 460
#
# _framework density 25.285608
#
# number of rings (size 3 to 8) (size 9 to 14) (size 15 to 20)
#    0.000    1.000    2.500    2.250   12.250    2.000 
#    0.000    0.000    0.000    0.000    0.000    0.000 
#    0.000    0.000    0.000    0.000    0.000    0.000 
#
# Total GULP energy -89552.000447 kJ/mol
# GULP energy per Si atom -5597.000028 kJ/mol
# Density = 2.522806 g / cm^3
# Si number density = 25.285608 Si / 1000 Ang^3
#
#
#
# Elastic Constant Matrix: (Units=GPa)
#
#
# Indices 1 2 3 4 5 6 
#
# 1 86.7348 33.4778 37.0676 0.0000 8.1411 0.0000
# 2 33.4778 88.3871 22.4421 0.0000 17.2745 0.0000
# 3 37.0676 22.4421 83.0373 0.0000 20.6165 0.0000
# 4 0.0000 0.0000 0.0000 47.0994 0.0000 2.0147
# 5 8.1411 17.2745 20.6165 0.0000 34.6833 0.0000
# 6 0.0000 0.0000 0.0000 2.0147 0.0000 44.9590
#
#
#
# Elastic Compliance Matrix: (Units=1/GPa)
#
#
# Indices 1 2 3 4 5 6 
#
# 1 0.015921 -0.004894 -0.006407 0.000000 0.002509 0.000000
# 2 -0.004894 0.014376 -0.000244 0.000000 -0.005866 0.000000
# 3 -0.006407 -0.000244 0.017087 0.000000 -0.008531 0.000000
# 4 0.000000 0.000000 0.000000 0.021272 0.000000 -0.000953
# 5 0.002509 -0.005866 -0.008531 0.000000 0.036236 0.000000
# 6 0.000000 0.000000 0.000000 -0.000953 0.000000 0.022285
#
#
# Mechanical properties :
#
#
# Convention : Reuss Voigt Hill
#
# Bulk Modulus (GPa) = 41.16367 49.34824 45.25595
# Shear Modulus (GPa) = 31.57215 36.35979 33.96597
#
# Velocity S-wave (km/s) = 3.53742 3.79616 3.66907
# Velocity P-wave (km/s) = 5.74450 6.22681 5.99051
#
# Compressibility (1/GPa) = 0.02429327
#
# Stress axis : x y z
#
# Youngs Moduli (GPa) = 62.80946 69.56034 58.52313
#
# Poissons Ratio (x) = 0.34042 0.37499
# Poissons Ratio (y) = 0.30738 0.01429
# Poissons Ratio (z) = 0.40245 0.01699
#
# Static dielectric constant tensor:
#      x y z
#    x 1.982790 0.000000 0.048040 
#    y 0.000000 2.044820 0.000000 
#    z 0.048040 0.000000 2.034420 
# 
# From -- ./inp_files/3624.got.cif
#   From: 2010.05.17/outbox.cif.g08.bks.cpg/sg4_2_cif.got.tgz:3624.got - 2010.06.03 18:43:04.
