data_PCOD9119850
_publ_section_title
;
Structure prediction by ZEFSAII (Michael W. Deem and Ramdas Pophale) SiO2 
 PCOD9119850
Probable space group: P 21
;
_chemical_formula_sum "Si O2"
_cell_formula_units_Z 14
_cell_length_a 12.000000
_cell_length_b 9.000000
_cell_length_c 6.000000
_cell_angle_alpha 90.000000
_cell_angle_beta 80.000000
_cell_angle_gamma 90.000000
_cell_volume 638.155424
_symmetry_space_group_name_H-M "P 21"
_symmetry_group_IT_number 4
_symmetry_cell_setting 'monoclinic'
loop_
_space_group_symop_operation_xyz
x,y,z
-x,1/2+y,-z
loop_
_atom_site_type_symbol
_atom_site_label
_atom_site_fract_x
_atom_site_fract_y
_atom_site_fract_z
Si Si1 0.039440 0.034110 0.732944
Si Si2 0.898340 0.853806 0.435353
Si Si3 0.732112 0.376323 0.174448
Si Si4 0.507636 0.465431 0.469119
Si Si5 0.194000 0.539374 0.928999
Si Si6 0.434017 0.060097 0.042611
Si Si7 0.317898 0.346993 0.246662
O O1 0.932501 0.017174 0.931829
O O2 0.051155 0.210152 0.697875
O O3 0.994837 0.949622 0.525773
O O4 0.157981 0.968387 0.781746
O O5 0.805158 0.788649 0.638701
O O6 0.822106 0.955550 0.299961
O O7 0.628668 0.383454 0.389917
O O8 0.772004 0.209212 0.121299
O O9 0.670804 0.448320 0.977580
O O10 0.510885 0.521498 0.728519
O O11 0.394941 0.374968 0.441574
O O12 0.507168 0.560329 0.228054
O O13 0.281809 0.474107 0.081664
O O14 0.388612 0.225203 0.090083
#
# Coordination Sequence:
#
# PCOD9119850 Si02
#       7
#     2   2   2   2   2   2   2
#     4  11  23  44  64 103 134 188 231 294 349 422
#     4  11  25  41  71  98 143 180 239 289 357 414
#     4  10  24  41  68  98 143 181 238 283 363 407
#     4  10  26  43  73 103 142 183 232 292 350 423
#     4  11  25  42  66 103 134 187 229 300 343 427
#     4  10  25  46  70 104 137 190 229 288 353 415
#     4  11  26  43  72 101 141 179 242 286 355 420
#
# _framework density 21.938229
#
# number of rings (size 3 to 8) (size 9 to 14) (size 15 to 20)
#    0.857    0.571    0.000    3.429    6.000   10.286 
#    0.000    0.000    0.000    0.000    0.000    0.000 
#    0.000    0.000    0.000    0.000    0.000    0.000 
#
# Total GULP energy -77991.489799 kJ/mol
# GULP energy per Si atom -5570.820700 kJ/mol
# Density = 2.188830 g / cm^3
# Si number density = 21.938229 Si / 1000 Ang^3
#
#
#
# Elastic Constant Matrix: (Units=GPa)
#
#
# Indices 1 2 3 4 5 6 
#
# 1 106.2031 5.5729 22.1623 0.0000 11.2375 0.0000
# 2 5.5729 63.5197 5.1873 0.0000 6.0479 0.0000
# 3 22.1623 5.1873 84.6341 0.0000 15.7644 0.0000
# 4 0.0000 0.0000 0.0000 24.9422 0.0000 14.5363
# 5 11.2375 6.0479 15.7644 0.0000 39.4455 0.0000
# 6 0.0000 0.0000 0.0000 14.5363 0.0000 23.9066
#
#
#
# Elastic Compliance Matrix: (Units=1/GPa)
#
#
# Indices 1 2 3 4 5 6 
#
# 1 0.010116 -0.000522 -0.002264 0.000000 -0.001897 0.000000
# 2 -0.000522 0.016028 -0.000449 0.000000 -0.002129 0.000000
# 3 -0.002264 -0.000449 0.013292 0.000000 -0.004599 0.000000
# 4 0.000000 0.000000 0.000000 0.062098 0.000000 -0.037759
# 5 -0.001897 -0.002129 -0.004599 0.000000 0.028056 0.000000
# 6 0.000000 0.000000 0.000000 -0.037759 0.000000 0.064788
#
#
# Mechanical properties :
#
#
# Convention : Reuss Voigt Hill
#
# Bulk Modulus (GPa) = 30.33282 35.57798 32.95540
# Shear Modulus (GPa) = 23.60285 32.42118 28.01201
#
# Velocity S-wave (km/s) = 3.28362 3.84844 3.57719
# Velocity P-wave (km/s) = 5.31344 5.99999 5.66712
#
# Compressibility (1/GPa) = 0.03296759
#
# Stress axis : x y z
#
# Youngs Moduli (GPa) = 98.84885 62.38944 75.23087
#
# Poissons Ratio (x) = 0.03257 0.17030
# Poissons Ratio (y) = 0.05160 0.03378
# Poissons Ratio (z) = 0.22376 0.02802
#
# Static dielectric constant tensor:
#      x y z
#    x 1.785520 0.000000 -0.029630 
#    y 0.000000 1.816510 0.000000 
#    z -0.029630 0.000000 1.874890 
# 
# From -- ./inp_files/2552.got.cif
#   From: 2010.05.17/outbox.ucp.g08.bks.cvg/sg4_2_cif.got.tgz:2552.got - 2010.06.11 12:51:24.
