data_PCOD9119259
_publ_section_title
;
Structure prediction by ZEFSAII (Michael W. Deem and Ramdas Pophale) SiO2 
 PCOD9119259
Probable space group: P 21
;
_chemical_formula_sum "Si O2"
_cell_formula_units_Z 14
_cell_length_a 21.782576
_cell_length_b 5.218971
_cell_length_c 27.212599
_cell_angle_alpha 90.000000
_cell_angle_beta 169.118321
_cell_angle_gamma 90.000000
_cell_volume 584.014243
_symmetry_space_group_name_H-M "P 21"
_symmetry_group_IT_number 4
_symmetry_cell_setting 'monoclinic'
loop_
_space_group_symop_operation_xyz
x,y,z
-x,1/2+y,-z
loop_
_atom_site_type_symbol
_atom_site_label
_atom_site_fract_x
_atom_site_fract_y
_atom_site_fract_z
Si Si1 0.384037 0.143400 0.435726
Si Si2 0.169180 0.541479 0.841843
Si Si3 0.724149 0.098945 0.961834
Si Si4 0.948795 0.858554 0.590036
Si Si5 0.158051 0.884087 0.647333
Si Si6 0.523230 0.262261 0.308366
Si Si7 0.187476 0.416553 0.141125
O O1 0.563664 0.405280 0.560767
O O2 0.532971 0.019034 0.602609
O O3 0.009750 0.217037 0.152893
O O4 0.798503 0.467796 0.539741
O O5 0.179884 0.624192 0.906452
O O6 0.461221 0.340031 0.065412
O O7 0.227302 0.732823 0.842204
O O8 0.356388 0.194622 0.669574
O O9 0.683424 0.822995 0.903129
O O10 0.757458 0.034576 0.478015
O O11 0.101481 0.959104 0.659723
O O12 0.032067 0.125878 0.516669
O O13 0.301414 0.266514 0.181749
O O14 0.009978 0.684885 0.987844
#
# Coordination Sequence:
#
# PCOD9119259 Si02
#       7
#     2   2   2   2   2   2   2
#     4  12  27  47  74 109 147 199 248 309 370 437
#     4  11  26  47  76 107 149 196 246 303 372 442
#     4  11  24  50  70 107 150 192 249 302 373 439
#     4  11  28  45  79 107 149 198 246 308 368 447
#     4  12  28  51  78 114 153 195 248 306 375 440
#     4  11  26  46  74 107 149 198 247 307 371 442
#     4  12  27  48  73 109 151 194 250 309 367 441
#
# _framework density 23.972016
#
# number of rings (size 3 to 8) (size 9 to 14) (size 15 to 20)
#    0.000    0.571    2.857    3.429   14.000    2.286 
#    0.000    0.000    0.000    0.000    0.000    0.000 
#    0.000    0.000    0.000    0.000    0.000    0.000 
#
# Total GULP energy -78078.643183 kJ/mol
# GULP energy per Si atom -5577.045942 kJ/mol
# Density = 2.391745 g / cm^3
# Si number density = 23.972016 Si / 1000 Ang^3
#
#
#
# Elastic Constant Matrix: (Units=GPa)
#
#
# Indices 1 2 3 4 5 6 
#
# 1 149.6909 20.8637 30.6640 0.0000 -3.2018 0.0000
# 2 20.8637 90.5350 10.3472 0.0000 -4.6500 0.0000
# 3 30.6640 10.3472 73.8804 0.0000 8.3428 0.0000
# 4 0.0000 0.0000 0.0000 30.7521 0.0000 5.4619
# 5 -3.2018 -4.6500 8.3428 0.0000 49.9450 0.0000
# 6 0.0000 0.0000 0.0000 5.4619 0.0000 27.6541
#
#
#
# Elastic Compliance Matrix: (Units=1/GPa)
#
#
# Indices 1 2 3 4 5 6 
#
# 1 0.007505 -0.001340 -0.003025 0.000000 0.000862 0.000000
# 2 -0.001340 0.011552 -0.001196 0.000000 0.001189 0.000000
# 3 -0.003025 -0.001196 0.015281 0.000000 -0.002858 0.000000
# 4 0.000000 0.000000 0.000000 0.033700 0.000000 -0.006656
# 5 0.000862 0.001189 -0.002858 0.000000 0.020665 0.000000
# 6 0.000000 0.000000 0.000000 -0.006656 0.000000 0.037476
#
#
# Mechanical properties :
#
#
# Convention : Reuss Voigt Hill
#
# Bulk Modulus (GPa) = 43.07162 48.65069 45.86115
# Shear Modulus (GPa) = 34.47335 38.48567 36.47951
#
# Velocity S-wave (km/s) = 3.79630 4.01114 3.90520
# Velocity P-wave (km/s) = 6.10101 6.46461 6.28544
#
# Compressibility (1/GPa) = 0.02321714
#
# Stress axis : x y z
#
# Youngs Moduli (GPa) = 133.24127 86.56536 65.44054
#
# Poissons Ratio (x) = 0.11596 0.19794
# Poissons Ratio (y) = 0.17849 0.07828
# Poissons Ratio (z) = 0.40302 0.10355
#
# Static dielectric constant tensor:
#      x y z
#    x 1.879310 0.000000 0.063990 
#    y 0.000000 2.014310 0.000000 
#    z 0.063990 0.000000 1.920170 
# 
# From -- ./inp_files/15962.got.cif
#   From: 2010.05.17/outbox.cif.g08.bks.cpg/sg4_8_cif.got.tgz:15962.got - 2010.06.03 18:43:04.
