data_PCOD9119661
_publ_section_title
;
Structure prediction by ZEFSAII (Michael W. Deem and Ramdas Pophale) SiO2 
 PCOD9119661
Probable space group: P 21
;
_chemical_formula_sum "Si O2"
_cell_formula_units_Z 14
_cell_length_a 8.574772
_cell_length_b 8.596121
_cell_length_c 10.612789
_cell_angle_alpha 90.000000
_cell_angle_beta 45.924489
_cell_angle_gamma 90.000000
_cell_volume 561.998643
_symmetry_space_group_name_H-M "P 21"
_symmetry_group_IT_number 4
_symmetry_cell_setting 'monoclinic'
loop_
_space_group_symop_operation_xyz
x,y,z
-x,1/2+y,-z
loop_
_atom_site_type_symbol
_atom_site_label
_atom_site_fract_x
_atom_site_fract_y
_atom_site_fract_z
Si Si1 0.907419 0.176880 0.207688
Si Si2 0.060230 0.011395 0.676906
Si Si3 0.230197 0.348775 0.630611
Si Si4 0.550786 0.293886 0.241235
Si Si5 0.427597 0.570091 0.990143
Si Si6 0.434904 0.882041 0.328361
Si Si7 0.349411 0.111887 0.880485
O O1 0.906349 0.336297 0.286955
O O2 0.688743 0.176232 0.248144
O O3 0.911088 0.006352 0.272319
O O4 0.120308 0.197080 0.002131
O O5 0.220765 0.986010 0.467575
O O6 0.135448 0.173517 0.702235
O O7 0.803339 0.038449 0.814637
O O8 0.327406 0.334713 0.435194
O O9 0.425823 0.375398 0.620570
O O10 0.549578 0.230155 0.101134
O O11 0.684175 0.451639 0.170600
O O12 0.459241 0.446094 0.860474
O O13 0.602643 0.576964 0.001040
O O14 0.440241 0.699033 0.292880
#
# Coordination Sequence:
#
# PCOD9119661 Si02
#       7
#     2   2   2   2   2   2   2
#     4  12  26  45  80 113 147 205 261 313 393 452
#     4  12  26  48  78 114 151 202 259 316 393 461
#     4  12  25  47  76 120 151 196 260 330 387 440
#     4  12  26  47  78 113 155 197 264 326 377 470
#     4  12  27  52  72 111 160 206 255 316 390 476
#     4  12  25  48  77 111 159 193 259 326 377 466
#     4  12  29  49  75 112 161 207 254 321 399 461
#
# _framework density 24.911092
#
# number of rings (size 3 to 8) (size 9 to 14) (size 15 to 20)
#    0.000    0.000    5.714    3.429    6.000    0.000 
#    7.714    0.000    0.000    0.000    0.000    0.000 
#    0.000    0.000    0.000    0.000    0.000    0.000 
#
# Total GULP energy -78117.486694 kJ/mol
# GULP energy per Si atom -5579.820478 kJ/mol
# Density = 2.485439 g / cm^3
# Si number density = 24.911092 Si / 1000 Ang^3
#
#
#
# Elastic Constant Matrix: (Units=GPa)
#
#
# Indices 1 2 3 4 5 6 
#
# 1 28.8836 20.2696 28.1255 0.0000 -8.5785 0.0000
# 2 20.2696 166.2909 41.1057 0.0000 10.8877 0.0000
# 3 28.1255 41.1057 116.6198 0.0000 -17.5984 0.0000
# 4 0.0000 0.0000 0.0000 51.7720 0.0000 4.3488
# 5 -8.5785 10.8877 -17.5984 0.0000 15.2744 0.0000
# 6 0.0000 0.0000 0.0000 4.3488 0.0000 21.6005
#
#
#
# Elastic Compliance Matrix: (Units=1/GPa)
#
#
# Indices 1 2 3 4 5 6 
#
# 1 0.053864 -0.006793 -0.006416 0.000000 0.027702 0.000000
# 2 -0.006793 0.008630 -0.003519 0.000000 -0.014021 0.000000
# 3 -0.006416 -0.003519 0.013554 0.000000 0.014521 0.000000
# 4 0.000000 0.000000 0.000000 0.019648 0.000000 -0.003956
# 5 0.027702 -0.014021 0.014521 0.000000 0.107752 0.000000
# 6 0.000000 0.000000 0.000000 -0.003956 0.000000 0.047092
#
#
# Mechanical properties :
#
#
# Convention : Reuss Voigt Hill
#
# Bulk Modulus (GPa) = 23.47922 54.53288 39.00605
# Shear Modulus (GPa) = 16.76773 32.54896 24.65834
#
# Velocity S-wave (km/s) = 2.59724 3.61862 3.14961
# Velocity P-wave (km/s) = 4.29417 6.27676 5.37762
#
# Compressibility (1/GPa) = 0.04259085
#
# Stress axis : x y z
#
# Youngs Moduli (GPa) = 18.56530 115.88090 73.77966
#
# Poissons Ratio (x) = 0.78723 0.47334
# Poissons Ratio (y) = 0.12612 0.25964
# Poissons Ratio (z) = 0.11911 0.40780
#
# Static dielectric constant tensor:
#      x y z
#    x 1.892880 0.000000 0.010720 
#    y 0.000000 2.070970 0.000000 
#    z 0.010720 0.000000 2.033400 
# 
# From -- ./inp_files/11004.got.cif
#   From: 2010.05.17/outbox.cif.g08.bks.cpg/sg4_6_cif.got.tgz:11004.got - 2010.06.03 18:43:04.
