data_PCOD9119275
_publ_section_title
;
Structure prediction by ZEFSAII (Michael W. Deem and Ramdas Pophale) SiO2 
 PCOD9119275
Probable space group: P 21
;
_chemical_formula_sum "Si O2"
_cell_formula_units_Z 16
_cell_length_a 23.529263
_cell_length_b 4.939650
_cell_length_c 10.483653
_cell_angle_alpha 90.000000
_cell_angle_beta 34.822423
_cell_angle_gamma 90.000000
_cell_volume 695.792559
_symmetry_space_group_name_H-M "P 21"
_symmetry_group_IT_number 4
_symmetry_cell_setting 'monoclinic'
loop_
_space_group_symop_operation_xyz
x,y,z
-x,1/2+y,-z
loop_
_atom_site_type_symbol
_atom_site_label
_atom_site_fract_x
_atom_site_fract_y
_atom_site_fract_z
Si Si1 0.301036 0.065980 0.588654
Si Si2 0.751098 0.039187 0.169460
Si Si3 0.975278 0.928932 0.462844
Si Si4 0.252500 0.384893 0.109104
Si Si5 0.502134 0.590080 0.914779
Si Si6 0.313334 0.879108 0.147422
Si Si7 0.952944 0.152875 0.908584
Si Si8 0.149556 0.909408 0.663503
O O1 0.315067 0.366436 0.612900
O O2 0.404078 0.979290 0.336032
O O3 0.269100 0.852457 0.757651
O O4 0.212707 0.086706 0.647697
O O5 0.867752 0.992533 0.988043
O O6 0.728428 0.905410 0.075956
O O7 0.863100 0.823346 0.656858
O O8 0.025721 0.723787 0.471386
O O9 0.024121 0.899132 0.232742
O O10 0.271358 0.690340 0.115010
O O11 0.312352 0.179194 0.089530
O O12 0.457078 0.325050 0.065723
O O13 0.419215 0.756372 0.990969
O O14 0.236271 0.829723 0.405699
O O15 0.903596 0.208932 0.137810
O O16 0.059463 0.027672 0.746553
#
# Coordination Sequence:
#
# PCOD9119275 Si02
#       8
#     2   2   2   2   2   2   2   2
#     4  11  25  46  73 104 140 183 239 295 364 431
#     4  11  25  45  71 102 142 194 236 284 353 432
#     4  12  26  43  68  99 137 194 249 285 338 425
#     4  12  26  46  71 102 149 188 243 300 354 421
#     4  12  25  47  78 108 145 186 242 302 377 446
#     4  12  27  46  73 109 142 184 245 306 363 429
#     4  11  25  39  68 101 149 189 236 286 355 430
#     4  11  25  42  66 109 146 186 232 296 362 422
#
# _framework density 22.995360000000002
#
# number of rings (size 3 to 8) (size 9 to 14) (size 15 to 20)
#    0.000    0.500    3.750    3.750    7.000    0.000 
#    0.000    2.500    0.000    0.000    0.000    0.000 
#    0.000    0.000    0.000    0.000    0.000    0.000 
#
# Total GULP energy -89353.353590 kJ/mol
# GULP energy per Si atom -5584.584599 kJ/mol
# Density = 2.294302 g / cm^3
# Si number density = 22.995360 Si / 1000 Ang^3
#
#
#
# Elastic Constant Matrix: (Units=GPa)
#
#
# Indices 1 2 3 4 5 6 
#
# 1 78.7197 5.4765 24.4421 0.0000 -0.1305 0.0000
# 2 5.4765 68.3280 9.0102 0.0000 -4.9125 0.0000
# 3 24.4421 9.0102 78.1078 0.0000 1.5111 0.0000
# 4 0.0000 0.0000 0.0000 37.4991 0.0000 -0.4414
# 5 -0.1305 -4.9125 1.5111 0.0000 7.1394 0.0000
# 6 0.0000 0.0000 0.0000 -0.4414 0.0000 40.2779
#
#
#
# Elastic Compliance Matrix: (Units=1/GPa)
#
#
# Indices 1 2 3 4 5 6 
#
# 1 0.014096 -0.000493 -0.004370 0.000000 0.000844 0.000000
# 2 -0.000493 0.015728 -0.001877 0.000000 0.011211 0.000000
# 3 -0.004370 -0.001877 0.014473 0.000000 -0.004435 0.000000
# 4 0.000000 0.000000 0.000000 0.026671 0.000000 0.000292
# 5 0.000844 0.011211 -0.004435 0.000000 0.148735 0.000000
# 6 0.000000 0.000000 0.000000 0.000292 0.000000 0.024831
#
#
# Mechanical properties :
#
#
# Convention : Reuss Voigt Hill
#
# Bulk Modulus (GPa) = 32.45025 33.66813 33.05919
# Shear Modulus (GPa) = 18.63682 29.39842 24.01762
#
# Velocity S-wave (km/s) = 2.84995 3.57942 3.23531
# Velocity P-wave (km/s) = 4.99719 5.63525 5.32578
#
# Compressibility (1/GPa) = 0.03081640
#
# Stress axis : x y z
#
# Youngs Moduli (GPa) = 70.94208 63.57970 69.09519
#
# Poissons Ratio (x) = 0.03133 0.30198
# Poissons Ratio (y) = 0.03496 0.12969
# Poissons Ratio (z) = 0.31005 0.11934
#
# Static dielectric constant tensor:
#      x y z
#    x 1.877880 0.000000 0.055280 
#    y 0.000000 1.865660 0.000000 
#    z 0.055280 0.000000 1.805370 
# 
# From -- ./inp_files/9850.got.cif
#   From: 2010.05.17/outbox.cif.g08.bks.cpg/sg4_5_cif.got.tgz:9850.got - 2010.06.03 18:43:04.
