data_PCOD9119898
_publ_section_title
;
Structure prediction by ZEFSAII (Michael W. Deem and Ramdas Pophale) SiO2 
 PCOD9119898
Probable space group: P 21
;
_chemical_formula_sum "Si O2"
_cell_formula_units_Z 16
_cell_length_a 15.000000
_cell_length_b 9.000000
_cell_length_c 15.000000
_cell_angle_alpha 90.000000
_cell_angle_beta 20.000000
_cell_angle_gamma 90.000000
_cell_volume 692.590790
_symmetry_space_group_name_H-M "P 21"
_symmetry_group_IT_number 4
_symmetry_cell_setting 'monoclinic'
loop_
_space_group_symop_operation_xyz
x,y,z
-x,1/2+y,-z
loop_
_atom_site_type_symbol
_atom_site_label
_atom_site_fract_x
_atom_site_fract_y
_atom_site_fract_z
Si Si1 0.277403 0.584050 0.274337
Si Si2 0.140390 0.724605 0.148488
Si Si3 0.643091 0.172838 0.609551
Si Si4 0.236283 0.397274 0.812761
Si Si5 0.694821 0.228322 0.304134
Si Si6 0.219079 0.901178 0.255963
Si Si7 0.857004 0.885276 0.897728
Si Si8 0.406999 0.348416 0.400946
O O1 0.269491 0.574459 0.387797
O O2 0.286560 0.760905 0.253064
O O3 0.016067 0.502314 0.487287
O O4 0.531421 0.504003 0.996816
O O5 0.133231 0.812359 0.248132
O O6 0.145157 0.543426 0.152990
O O7 0.883823 0.782696 0.337729
O O8 0.403421 0.783504 0.854070
O O9 0.883623 0.284061 0.360054
O O10 0.582053 0.029290 0.604144
O O11 0.390133 0.271497 0.875215
O O12 0.505513 0.301862 0.557262
O O13 0.272049 0.550620 0.725687
O O14 0.167326 0.442155 0.978168
O O15 0.982629 0.300119 0.025494
O O16 0.529041 0.276627 0.374323
#
# Coordination Sequence:
#
# PCOD9119898 Si02
#       8
#     2   2   2   2   2   2   2   2
#     4  12  27  48  72 109 146 187 236 286 354 423
#     4  12  24  48  73  99 141 190 236 286 350 415
#     4  12  26  46  73 105 144 182 244 289 346 413
#     4  12  28  49  67 107 140 187 235 293 356 428
#     4  12  28  47  74 100 146 184 238 291 362 423
#     4  12  26  47  73 105 147 189 232 292 351 426
#     4  12  28  45  73 104 144 183 240 298 344 416
#     4  12  25  48  73 101 136 194 233 291 345 422
#
# _framework density 23.101664
#
# number of rings (size 3 to 8) (size 9 to 14) (size 15 to 20)
#    0.000    0.000    3.750    5.250   10.500    0.000 
#    0.000    0.000    0.000    0.000    0.000    0.000 
#    0.000    0.000    0.000    0.000    0.000    0.000 
#
# Total GULP energy -89514.740391 kJ/mol
# GULP energy per Si atom -5594.671274 kJ/mol
# Density = 2.304908 g / cm^3
# Si number density = 23.101664 Si / 1000 Ang^3
#
#
#
# Elastic Constant Matrix: (Units=GPa)
#
#
# Indices 1 2 3 4 5 6 
#
# 1 52.5951 -14.6680 19.5903 0.0000 6.6844 0.0000
# 2 -14.6680 161.4525 95.7394 0.0000 -18.0428 0.0000
# 3 19.5903 95.7394 178.0505 0.0000 -30.4302 0.0000
# 4 0.0000 0.0000 0.0000 57.2148 0.0000 -4.6698
# 5 6.6844 -18.0428 -30.4302 0.0000 23.3400 0.0000
# 6 0.0000 0.0000 0.0000 -4.6698 0.0000 36.3146
#
#
#
# Elastic Compliance Matrix: (Units=1/GPa)
#
#
# Indices 1 2 3 4 5 6 
#
# 1 0.025300 0.005592 -0.008093 0.000000 -0.013475 0.000000
# 2 0.005592 0.010342 -0.006541 0.000000 -0.002135 0.000000
# 3 -0.008093 -0.006541 0.012296 0.000000 0.013292 0.000000
# 4 0.000000 0.000000 0.000000 0.017663 0.000000 0.002271
# 5 -0.013475 -0.002135 0.013292 0.000000 0.062384 0.000000
# 6 0.000000 0.000000 0.000000 0.002271 0.000000 0.027829
#
#
# Mechanical properties :
#
#
# Convention : Reuss Voigt Hill
#
# Bulk Modulus (GPa) = 33.49805 65.93570 49.71688
# Shear Modulus (GPa) = 27.19600 42.80297 34.99949
#
# Velocity S-wave (km/s) = 3.43480 4.30910 3.89655
# Velocity P-wave (km/s) = 5.50111 7.30488 6.46620
#
# Compressibility (1/GPa) = 0.02985248
#
# Stress axis : x y z
#
# Youngs Moduli (GPa) = 39.52594 96.69266 81.32795
#
# Poissons Ratio (x) = -0.54070 0.65823
# Poissons Ratio (y) = -0.22103 0.53198
# Poissons Ratio (z) = 0.31990 0.63248
#
# Static dielectric constant tensor:
#      x y z
#    x 2.090790 0.000000 0.067850 
#    y 0.000000 1.847440 0.000000 
#    z 0.067850 0.000000 1.816140 
# 
# From -- ./inp_files/14178.got.cif
#   From: 2010.05.17/outbox.ucp.g08.bks.cvg/sg4_8_cif.got.tgz:14178.got - 2010.06.11 12:51:24.
