data_PCOD9119036
_publ_section_title
;
Structure prediction by ZEFSAII (Michael W. Deem and Ramdas Pophale) SiO2 
 PCOD9119036
Probable space group: P 21
;
_chemical_formula_sum "Si O2"
_cell_formula_units_Z 16
_cell_length_a 19.395326
_cell_length_b 8.284053
_cell_length_c 5.202831
_cell_angle_alpha 90.000000
_cell_angle_beta 51.568603
_cell_angle_gamma 90.000000
_cell_volume 654.842958
_symmetry_space_group_name_H-M "P 21"
_symmetry_group_IT_number 4
_symmetry_cell_setting 'monoclinic'
loop_
_space_group_symop_operation_xyz
x,y,z
-x,1/2+y,-z
loop_
_atom_site_type_symbol
_atom_site_label
_atom_site_fract_x
_atom_site_fract_y
_atom_site_fract_z
Si Si1 0.940363 0.577860 0.802304
Si Si2 0.393796 0.582015 0.009916
Si Si3 0.496077 0.386235 0.131651
Si Si4 0.324577 0.368960 0.809949
Si Si5 0.030401 0.443968 0.083783
Si Si6 0.214400 0.564729 0.740113
Si Si7 0.654598 0.555397 0.938006
Si Si8 0.752815 0.430303 0.199401
O O1 0.958039 0.758604 0.859788
O O2 0.993155 0.537015 0.420133
O O3 0.838996 0.541018 0.974534
O O4 0.969873 0.465083 0.973593
O O5 0.466996 0.452244 0.924327
O O6 0.301460 0.556589 0.365686
O O7 0.432292 0.748934 0.007123
O O8 0.367326 0.543070 0.783855
O O9 0.404939 0.309347 0.447110
O O10 0.549644 0.532120 0.145928
O O11 0.232887 0.420784 0.901203
O O12 0.319290 0.238560 0.047194
O O13 0.125129 0.522757 0.802867
O O14 0.214827 0.745634 0.849859
O O15 0.702309 0.493852 0.569720
O O16 0.691069 0.452982 0.094877
#
# Coordination Sequence:
#
# PCOD9119036 Si02
#       8
#     2   2   2   2   2   2   2   2
#     4  12  27  50  79 112 148 196 240 306 369 445
#     4  11  24  43  68 100 143 190 246 301 365 427
#     4  11  24  42  67 100 142 194 246 304 363 436
#     4  11  26  41  70 100 146 191 249 301 370 424
#     4  12  27  49  80 110 151 190 247 298 373 443
#     4  11  26  45  72 106 145 193 242 304 362 440
#     4  12  27  44  73 103 147 189 247 304 361 437
#     4  12  27  48  73 107 146 189 245 298 369 432
#
# _framework density 24.433340999999999
#
# number of rings (size 3 to 8) (size 9 to 14) (size 15 to 20)
#    0.000    0.500    1.250    6.000   10.500    2.000 
#    0.000    0.000    0.000    0.000    0.000    0.000 
#    0.000    0.000    0.000    0.000    0.000    0.000 
#
# Total GULP energy -89522.021356 kJ/mol
# GULP energy per Si atom -5595.126335 kJ/mol
# Density = 2.437773 g / cm^3
# Si number density = 24.433341 Si / 1000 Ang^3
#
#
#
# Elastic Constant Matrix: (Units=GPa)
#
#
# Indices 1 2 3 4 5 6 
#
# 1 95.9529 -9.1436 15.3242 0.0000 -2.2708 0.0000
# 2 -9.1436 91.9596 9.3980 0.0000 -10.8387 0.0000
# 3 15.3242 9.3980 69.7316 0.0000 6.4561 0.0000
# 4 0.0000 0.0000 0.0000 23.9276 0.0000 -5.4646
# 5 -2.2708 -10.8387 6.4561 0.0000 23.4533 0.0000
# 6 0.0000 0.0000 0.0000 -5.4646 0.0000 46.5206
#
#
#
# Elastic Compliance Matrix: (Units=1/GPa)
#
#
# Indices 1 2 3 4 5 6 
#
# 1 0.011116 0.001719 -0.002922 0.000000 0.002675 0.000000
# 2 0.001719 0.012073 -0.002603 0.000000 0.006462 0.000000
# 3 -0.002922 -0.002603 0.015876 0.000000 -0.005856 0.000000
# 4 0.000000 0.000000 0.000000 0.042945 0.000000 0.005045
# 5 0.002675 0.006462 -0.005856 0.000000 0.047496 0.000000
# 6 0.000000 0.000000 0.000000 0.005045 0.000000 0.022088
#
#
# Mechanical properties :
#
#
# Convention : Reuss Voigt Hill
#
# Bulk Modulus (GPa) = 31.79442 32.08904 31.94173
# Shear Modulus (GPa) = 29.46550 34.91798 32.19174
#
# Velocity S-wave (km/s) = 3.47645 3.78446 3.63372
# Velocity P-wave (km/s) = 5.39956 5.67961 5.54136
#
# Compressibility (1/GPa) = 0.03145206
#
# Stress axis : x y z
#
# Youngs Moduli (GPa) = 89.96370 82.82939 62.98844
#
# Poissons Ratio (x) = -0.14240 0.18406
# Poissons Ratio (y) = -0.15466 0.16397
# Poissons Ratio (z) = 0.26289 0.21563
#
# Static dielectric constant tensor:
#      x y z
#    x 1.897030 0.000000 0.051970 
#    y 0.000000 2.019920 0.000000 
#    z 0.051970 0.000000 2.013900 
# 
# From -- ./inp_files/3417.got.cif
#   From: 2010.05.17/outbox.cif.g08.bks.cpg/sg4_2_cif.got.tgz:3417.got - 2010.06.03 18:43:04.
