data_PCOD9119644
_publ_section_title
;
Structure prediction by ZEFSAII (Michael W. Deem and Ramdas Pophale) SiO2 
 PCOD9119644
Probable space group: P 21
;
_chemical_formula_sum "Si O2"
_cell_formula_units_Z 16
_cell_length_a 24.683359
_cell_length_b 4.987908
_cell_length_c 8.751865
_cell_angle_alpha 90.000000
_cell_angle_beta 33.657435
_cell_angle_gamma 90.000000
_cell_volume 597.187033
_symmetry_space_group_name_H-M "P 21"
_symmetry_group_IT_number 4
_symmetry_cell_setting 'monoclinic'
loop_
_space_group_symop_operation_xyz
x,y,z
-x,1/2+y,-z
loop_
_atom_site_type_symbol
_atom_site_label
_atom_site_fract_x
_atom_site_fract_y
_atom_site_fract_z
Si Si1 0.961536 0.850340 0.502065
Si Si2 0.441752 0.815951 0.466861
Si Si3 0.621581 0.532489 0.101902
Si Si4 0.221658 0.818053 0.470868
Si Si5 0.973107 0.549301 0.160550
Si Si6 0.741391 0.835103 0.425207
Si Si7 0.264217 0.407432 0.917804
Si Si8 0.471403 0.558418 0.984831
O O1 0.996277 0.707858 0.262831
O O2 0.977633 0.613051 0.589720
O O3 0.847463 0.943647 0.760084
O O4 0.546848 0.694654 0.171763
O O5 0.340198 0.654573 0.705875
O O6 0.452386 0.875425 0.618092
O O7 0.455637 0.080682 0.333352
O O8 0.684728 0.716687 0.071882
O O9 0.685299 0.319999 0.859486
O O10 0.136649 0.936141 0.565010
O O11 0.241331 0.045154 0.548152
O O12 0.195200 0.553357 0.626870
O O13 0.021741 0.274497 0.984365
O O14 0.753210 0.816521 0.216356
O O15 0.636230 0.944904 0.725147
O O16 0.535839 0.352102 0.930649
#
# Coordination Sequence:
#
# PCOD9119644 Si02
#       8
#     2   2   2   2   2   2   2   2
#     4  12  31  55  86 125 163 211 273 341 416 494
#     4  12  27  43  78 110 158 216 270 322 394 482
#     4  12  27  47  75 114 161 214 269 326 400 486
#     4  12  29  51  78 116 157 209 267 330 400 483
#     4  12  28  54  86 121 161 206 270 343 417 486
#     4  12  28  46  79 113 156 211 266 325 390 478
#     4  12  29  52  78 113 164 213 263 335 406 475
#     4  12  25  46  70 110 156 204 264 322 389 458
#
# _framework density 26.792275
#
# number of rings (size 3 to 8) (size 9 to 14) (size 15 to 20)
#    0.000    0.000    5.000    3.000   12.250    1.000 
#    0.000    0.000    0.000    0.000    0.000    0.000 
#    0.000    0.000    0.000    0.000    0.000    0.000 
#
# Total GULP energy -89373.467355 kJ/mol
# GULP energy per Si atom -5585.841710 kJ/mol
# Density = 2.673129 g / cm^3
# Si number density = 26.792275 Si / 1000 Ang^3
#
#
#
# Elastic Constant Matrix: (Units=GPa)
#
#
# Indices 1 2 3 4 5 6 
#
# 1 28.9076 4.3834 9.1936 0.0000 -8.5402 0.0000
# 2 4.3834 91.7059 11.5479 0.0000 -7.8731 0.0000
# 3 9.1936 11.5479 111.7443 0.0000 4.1675 0.0000
# 4 0.0000 0.0000 0.0000 35.2103 0.0000 -3.7989
# 5 -8.5402 -7.8731 4.1675 0.0000 44.9913 0.0000
# 6 0.0000 0.0000 0.0000 -3.7989 0.0000 43.8401
#
#
#
# Elastic Compliance Matrix: (Units=1/GPa)
#
#
# Indices 1 2 3 4 5 6 
#
# 1 0.037943 -0.000763 -0.003318 0.000000 0.007376 0.000000
# 2 -0.000763 0.011254 -0.001172 0.000000 0.001933 0.000000
# 3 -0.003318 -0.001172 0.009407 0.000000 -0.001706 0.000000
# 4 0.000000 0.000000 0.000000 0.028669 0.000000 0.002484
# 5 0.007376 0.001933 -0.001706 0.000000 0.024123 0.000000
# 6 0.000000 0.000000 0.000000 0.002484 0.000000 0.023025
#
#
# Mechanical properties :
#
#
# Convention : Reuss Voigt Hill
#
# Bulk Modulus (GPa) = 20.79071 31.40085 26.09578
# Shear Modulus (GPa) = 31.06354 38.62386 34.84370
#
# Velocity S-wave (km/s) = 3.40872 3.80097 3.61017
# Velocity P-wave (km/s) = 4.82383 5.56854 5.20951
#
# Compressibility (1/GPa) = 0.04809841
#
# Stress axis : x y z
#
# Youngs Moduli (GPa) = 26.35526 88.85346 106.30624
#
# Poissons Ratio (x) = 0.06775 0.35273
# Poissons Ratio (y) = 0.02010 0.12464
# Poissons Ratio (z) = 0.08745 0.10417
#
# Static dielectric constant tensor:
#      x y z
#    x 2.223640 0.000000 -0.066660 
#    y 0.000000 2.326320 0.000000 
#    z -0.066660 0.000000 2.211620 
# 
# From -- ./inp_files/10159.got.cif
#   From: 2010.05.17/outbox.cif.g08.bks.cpg/sg4_6_cif.got.tgz:10159.got - 2010.06.03 18:43:04.
