data_PCOD9119452
_publ_section_title
;
Structure prediction by ZEFSAII (Michael W. Deem and Ramdas Pophale) SiO2 
 PCOD9119452
Probable space group: P 21
;
_chemical_formula_sum "Si O2"
_cell_formula_units_Z 16
_cell_length_a 8.092362
_cell_length_b 9.768371
_cell_length_c 11.522830
_cell_angle_alpha 90.000000
_cell_angle_beta 133.721063
_cell_angle_gamma 90.000000
_cell_volume 658.298005
_symmetry_space_group_name_H-M "P 21"
_symmetry_group_IT_number 4
_symmetry_cell_setting 'monoclinic'
loop_
_space_group_symop_operation_xyz
x,y,z
-x,1/2+y,-z
loop_
_atom_site_type_symbol
_atom_site_label
_atom_site_fract_x
_atom_site_fract_y
_atom_site_fract_z
Si Si1 0.249143 0.379250 0.185953
Si Si2 0.074107 0.642645 0.998584
Si Si3 0.289342 0.704100 0.856012
Si Si4 0.573859 0.001223 0.496463
Si Si5 0.246007 0.222933 0.814105
Si Si6 0.804430 0.970764 0.358964
Si Si7 0.264962 0.946683 0.693036
Si Si8 0.750809 0.265523 0.685956
O O1 0.073411 0.485853 0.039825
O O2 0.275645 0.423767 0.332352
O O3 0.493836 0.408080 0.246119
O O4 0.161021 0.226363 0.124103
O O5 0.228872 0.719561 0.170521
O O6 0.187672 0.656048 0.928180
O O7 0.191412 0.613518 0.705103
O O8 0.237920 0.859524 0.797099
O O9 0.561662 0.687728 0.998865
O O10 0.686154 0.987060 0.425353
O O11 0.336640 0.918963 0.375422
O O12 0.577697 0.158475 0.539552
O O13 0.314686 0.363103 0.784020
O O14 0.000072 0.240057 0.753036
O O15 0.245955 0.104324 0.718548
O O16 0.058828 0.915579 0.506351
#
# Coordination Sequence:
#
# PCOD9119452 Si02
#       8
#     2   2   2   2   2   2   2   2
#     4  11  26  50  73 110 151 197 250 308 370 447
#     4  11  26  49  74 109 148 198 245 308 375 443
#     4  12  27  49  77 112 150 198 249 311 380 447
#     4  11  26  49  74 109 148 198 245 308 375 443
#     4  12  25  49  75 110 151 195 253 306 376 443
#     4  12  27  49  77 112 150 198 249 311 380 447
#     4  12  25  49  75 110 151 195 253 306 376 443
#     4  11  26  50  73 110 151 197 250 308 370 447
#
# _framework density 24.305099999999999
#
# number of rings (size 3 to 8) (size 9 to 14) (size 15 to 20)
#    0.000    0.500    2.500    4.500    7.000    1.000 
#    4.500    0.000    0.000    0.000    0.000    0.000 
#    0.000    0.000    0.000    0.000    0.000    0.000 
#
# Total GULP energy -89734.462466 kJ/mol
# GULP energy per Si atom -5608.403904 kJ/mol
# Density = 2.424978 g / cm^3
# Si number density = 24.305100 Si / 1000 Ang^3
#
#
#
# Elastic Constant Matrix: (Units=GPa)
#
#
# Indices 1 2 3 4 5 6 
#
# 1 134.5950 26.4223 46.4426 0.0000 -4.3786 0.0000
# 2 26.4223 58.1474 15.6404 0.0000 7.6225 0.0000
# 3 46.4426 15.6404 94.3112 0.0000 -2.5967 0.0000
# 4 0.0000 0.0000 0.0000 52.4068 0.0000 3.6846
# 5 -4.3786 7.6225 -2.5967 0.0000 34.9225 0.0000
# 6 0.0000 0.0000 0.0000 3.6846 0.0000 24.9101
#
#
#
# Elastic Compliance Matrix: (Units=1/GPa)
#
#
# Indices 1 2 3 4 5 6 
#
# 1 0.009577 -0.003467 -0.004096 0.000000 0.001653 0.000000
# 2 -0.003467 0.019880 -0.001724 0.000000 -0.004902 0.000000
# 3 -0.004096 -0.001724 0.012929 0.000000 0.000824 0.000000
# 4 0.000000 0.000000 0.000000 0.019282 0.000000 -0.002852
# 5 0.001653 -0.004902 0.000824 0.000000 0.029973 0.000000
# 6 0.000000 0.000000 0.000000 -0.002852 0.000000 0.040566
#
#
# Mechanical properties :
#
#
# Convention : Reuss Voigt Hill
#
# Bulk Modulus (GPa) = 41.99709 51.56269 46.77989
# Shear Modulus (GPa) = 31.50225 35.68442 33.59333
#
# Velocity S-wave (km/s) = 3.60407 3.83585 3.72176
# Velocity P-wave (km/s) = 5.88521 6.39368 6.14471
#
# Compressibility (1/GPa) = 0.02381117
#
# Stress axis : x y z
#
# Youngs Moduli (GPa) = 104.41305 50.30305 77.34664
#
# Poissons Ratio (x) = 0.17440 0.31680
# Poissons Ratio (y) = 0.36200 0.13338
# Poissons Ratio (z) = 0.42765 0.08675
#
# Static dielectric constant tensor:
#      x y z
#    x 1.901290 0.000000 0.020750 
#    y 0.000000 1.899670 0.000000 
#    z 0.020750 0.000000 1.927570 
# 
# From -- ./inp_files/11113.got.cif
#   From: 2010.05.17/outbox.cif.g08.bks.cpg/sg4_6_cif.got.tgz:11113.got - 2010.06.03 18:43:04.
