data_PCOD9119968
_publ_section_title
;
Structure prediction by ZEFSAII (Michael W. Deem and Ramdas Pophale) SiO2 
 PCOD9119968
Probable space group: C 2
;
_chemical_formula_sum "Si O2"
_cell_formula_units_Z 26
_cell_length_a 22.222907
_cell_length_b 7.765033
_cell_length_c 11.484775
_cell_angle_alpha 90.000000
_cell_angle_beta 31.759854
_cell_angle_gamma 90.000000
_cell_volume 1043.157005
_symmetry_space_group_name_H-M "C 2"
_symmetry_group_IT_number 5
_symmetry_cell_setting 'monoclinic'
loop_
_space_group_symop_operation_xyz
x,y,z
-x,y,-z
1/2+x,1/2+y,z
1/2-x,1/2+y,-z
loop_
_atom_site_type_symbol
_atom_site_label
_atom_site_fract_x
_atom_site_fract_y
_atom_site_fract_z
Si Si1 0.376120 0.778720 0.420446
Si Si2 0.136633 0.480729 0.240191
Si Si3 0.000000 0.707646 0.000000
Si Si4 0.332798 0.255586 0.629939
Si Si5 0.365388 0.619900 0.688278
Si Si6 0.046330 0.563357 0.163776
Si Si7 0.199084 0.922687 0.553051
O O1 0.340868 0.713647 0.604856
O O2 0.302968 0.923583 0.473378
O O3 0.355754 0.608427 0.379228
O O4 0.497150 0.869145 0.240601
O O5 0.199461 0.589499 0.238260
O O6 0.171257 0.282726 0.171298
O O7 0.000000 0.488794 0.500000
O O8 0.145216 0.564161 0.097445
O O9 0.938223 0.609311 0.995713
O O10 0.100174 0.815317 0.777356
O O11 0.344745 0.417691 0.696203
O O12 0.452650 0.194352 0.373124
O O13 0.266795 0.330107 0.625199
O O14 0.500000 0.612642 0.500000
#
# Coordination Sequence:
#
# PCOD9119968 Si02
#       7
#     4   4   2   4   4   4   4
#     4  11  20  35  58  88 113 146 202 247 279 334
#     4   9  15  28  49  80 108 135 188 236 283 321
#     4  10  22  38  54  82 120 164 186 228 302 358
#     4   9  17  29  50  82 110 143 182 244 278 328
#     4  10  16  27  51  86 110 135 183 247 284 324
#     4  10  18  34  54  81 114 153 185 238 286 342
#     4  10  22  35  56  87 118 151 194 237 291 347
#
# _framework density 24.924340000000001
#
# number of rings (size 3 to 8) (size 9 to 14) (size 15 to 20)
#    0.000    2.154    4.615    3.231    0.000    0.615 
#    0.000    0.000    0.000    0.000   24.000    0.000 
#    0.000    0.000    0.000    0.000    0.000    0.000 
#
# Total GULP energy -72492.639613 kJ/mol
# GULP energy per Si atom -5576.356893 kJ/mol
# Density = 2.486761 g / cm^3
# Si number density = 24.924340 Si / 1000 Ang^3
#
#
#
# Elastic Constant Matrix: (Units=GPa)
#
#
# Indices 1 2 3 4 5 6 
#
# 1 126.9152 38.9877 24.2773 0.0000 21.5822 0.0000
# 2 38.9877 148.3514 37.7761 0.0000 10.9461 0.0000
# 3 24.2773 37.7761 51.1668 0.0000 22.4817 0.0000
# 4 0.0000 0.0000 0.0000 6.0126 0.0000 -7.7574
# 5 21.5822 10.9461 22.4817 0.0000 22.3567 0.0000
# 6 0.0000 0.0000 0.0000 -7.7574 0.0000 51.4656
#
#
#
# Elastic Compliance Matrix: (Units=1/GPa)
#
#
# Indices 1 2 3 4 5 6 
#
# 1 0.009989 -0.002203 0.001165 0.000000 -0.009735 0.000000
# 2 -0.002203 0.008968 -0.008207 0.000000 0.005989 0.000000
# 3 0.001165 -0.008207 0.042602 0.000000 -0.039947 0.000000
# 4 0.000000 0.000000 0.000000 0.206468 0.000000 0.031121
# 5 -0.009735 0.005989 -0.039947 0.000000 0.091365 0.000000
# 6 0.000000 0.000000 0.000000 0.031121 0.000000 0.024121
#
#
# Mechanical properties :
#
#
# Convention : Reuss Voigt Hill
#
# Bulk Modulus (GPa) = 23.21919 58.72397 40.97158
# Shear Modulus (GPa) = 12.00886 30.99313 21.50099
#
# Velocity S-wave (km/s) = 2.19740 3.53014 2.94028
# Velocity P-wave (km/s) = 3.97168 6.34255 5.29160
#
# Compressibility (1/GPa) = 0.04306783
#
# Stress axis : x y z
#
# Youngs Moduli (GPa) = 100.11160 111.51116 23.47298
#
# Poissons Ratio (x) = 0.24571 -0.02734
# Poissons Ratio (y) = 0.22059 0.19264
# Poissons Ratio (z) = -0.11661 0.91516
#
# Static dielectric constant tensor:
#      x y z
#    x 2.144400 0.000000 -0.177160 
#    y 0.000000 1.996990 0.000000 
#    z -0.177160 0.000000 2.290670 
# 
# From -- ./inp_files/47167.got.cif
#   From: 2010.05.17/outbox.cif.g08.bks.cpg/sg5_24_cif.got.tgz:47167.got - 2010.06.03 18:56:24.
