data_PCOD9119739
_publ_section_title
;
Structure prediction by ZEFSAII (Michael W. Deem and Ramdas Pophale) SiO2 
 PCOD9119739
Probable space group: P 21
;
_chemical_formula_sum "Si O2"
_cell_formula_units_Z 16
_cell_length_a 8.103513
_cell_length_b 9.546462
_cell_length_c 15.866120
_cell_angle_alpha 90.000000
_cell_angle_beta 146.818096
_cell_angle_gamma 90.000000
_cell_volume 671.755305
_symmetry_space_group_name_H-M "P 21"
_symmetry_group_IT_number 4
_symmetry_cell_setting 'monoclinic'
loop_
_space_group_symop_operation_xyz
x,y,z
-x,1/2+y,-z
loop_
_atom_site_type_symbol
_atom_site_label
_atom_site_fract_x
_atom_site_fract_y
_atom_site_fract_z
Si Si1 0.961734 0.779530 0.152565
Si Si2 0.477122 0.087114 0.775690
Si Si3 0.635047 0.300427 0.198225
Si Si4 0.488077 0.972850 0.402335
Si Si5 0.374709 0.375602 0.823669
Si Si6 0.796766 0.764567 0.667890
Si Si7 0.032586 0.488876 0.133705
Si Si8 0.100090 0.577118 0.572161
O O1 0.802120 0.839641 0.167110
O O2 0.228486 0.884763 0.243701
O O3 0.072807 0.621098 0.213490
O O4 0.707278 0.769124 0.972398
O O5 0.475721 0.232900 0.822263
O O6 0.248060 0.097886 0.598985
O O7 0.352004 0.966150 0.782894
O O8 0.797734 0.036980 0.877934
O O9 0.749875 0.219851 0.329894
O O10 0.862361 0.253203 0.221849
O O11 0.621338 0.863690 0.526926
O O12 0.347397 0.112507 0.383124
O O13 0.733236 0.023902 0.440116
O O14 0.160549 0.463504 0.670363
O O15 0.679703 0.459910 0.972086
O O16 0.816382 0.850308 0.763301
#
# Coordination Sequence:
#
# PCOD9119739 Si02
#       8
#     2   2   2   2   2   2   2   2
#     4  12  28  49  77 109 146 200 250 313 368 445
#     4  12  29  46  78 107 155 198 244 311 378 446
#     4  12  26  49  77 105 154 195 249 305 374 441
#     4  12  29  48  80 111 154 195 252 306 378 445
#     4  12  28  49  77 109 154 194 250 312 378 444
#     4  12  27  50  76 112 147 201 249 307 368 449
#     4  12  28  49  76 112 148 199 252 306 377 446
#     4  12  27  52  73 115 148 200 246 314 375 448
#
# _framework density 23.818194999999999
#
# number of rings (size 3 to 8) (size 9 to 14) (size 15 to 20)
#    0.000    0.000    3.750    4.500   12.250    0.000 
#    0.000    0.000    0.000    0.000    0.000    0.000 
#    0.000    0.000    0.000    0.000    0.000    0.000 
#
# Total GULP energy -89751.290320 kJ/mol
# GULP energy per Si atom -5609.455645 kJ/mol
# Density = 2.376398 g / cm^3
# Si number density = 23.818195 Si / 1000 Ang^3
#
#
#
# Elastic Constant Matrix: (Units=GPa)
#
#
# Indices 1 2 3 4 5 6 
#
# 1 63.3034 10.5955 -7.8589 0.0000 20.1761 0.0000
# 2 10.5955 140.9815 16.3464 0.0000 1.7014 0.0000
# 3 -7.8589 16.3464 50.3616 0.0000 7.8218 0.0000
# 4 0.0000 0.0000 0.0000 41.1455 0.0000 -6.8003
# 5 20.1761 1.7014 7.8218 0.0000 30.5246 0.0000
# 6 0.0000 0.0000 0.0000 -6.8003 0.0000 39.1054
#
#
#
# Elastic Compliance Matrix: (Units=1/GPa)
#
#
# Indices 1 2 3 4 5 6 
#
# 1 0.022192 -0.002251 0.006720 0.000000 -0.016265 0.000000
# 2 -0.002251 0.007600 -0.003107 0.000000 0.001860 0.000000
# 3 0.006720 -0.003107 0.023512 0.000000 -0.010293 0.000000
# 4 0.000000 0.000000 0.000000 0.025023 0.000000 0.004351
# 5 -0.016265 0.001860 -0.010293 0.000000 0.046045 0.000000
# 6 0.000000 0.000000 0.000000 0.004351 0.000000 0.026329
#
#
# Mechanical properties :
#
#
# Convention : Reuss Voigt Hill
#
# Bulk Modulus (GPa) = 17.84821 32.53472 25.19146
# Shear Modulus (GPa) = 30.00252 37.85932 33.93092
#
# Velocity S-wave (km/s) = 3.55300 3.99119 3.77846
# Velocity P-wave (km/s) = 4.93371 5.91006 5.44382
#
# Compressibility (1/GPa) = 0.05602804
#
# Stress axis : x y z
#
# Youngs Moduli (GPa) = 45.06182 131.57767 42.53118
#
# Poissons Ratio (x) = 0.29614 -0.28580
# Poissons Ratio (y) = 0.10142 0.13214
# Poissons Ratio (z) = -0.30280 0.40881
#
# Static dielectric constant tensor:
#      x y z
#    x 1.875740 0.000000 -0.005090 
#    y 0.000000 1.876170 0.000000 
#    z -0.005090 0.000000 1.915390 
# 
# From -- ./inp_files/5401.got.cif
#   From: 2010.05.17/outbox.cif.g08.bks.cpg/sg4_3_cif.got.tgz:5401.got - 2010.06.03 18:43:04.
