data_PCOD9119323
_publ_section_title
;
Structure prediction by ZEFSAII (Michael W. Deem and Ramdas Pophale) SiO2 
 PCOD9119323
Probable space group: P 21
;
_chemical_formula_sum "Si O2"
_cell_formula_units_Z 16
_cell_length_a 6.657051
_cell_length_b 8.547509
_cell_length_c 13.162976
_cell_angle_alpha 90.000000
_cell_angle_beta 73.118571
_cell_angle_gamma 90.000000
_cell_volume 716.713551
_symmetry_space_group_name_H-M "P 21"
_symmetry_group_IT_number 4
_symmetry_cell_setting 'monoclinic'
loop_
_space_group_symop_operation_xyz
x,y,z
-x,1/2+y,-z
loop_
_atom_site_type_symbol
_atom_site_label
_atom_site_fract_x
_atom_site_fract_y
_atom_site_fract_z
Si Si1 0.326822 0.961220 0.179811
Si Si2 0.252522 0.310250 0.175451
Si Si3 0.061268 0.748435 0.619916
Si Si4 0.616348 0.049604 0.321757
Si Si5 0.071517 0.263189 0.706095
Si Si6 0.693553 0.344715 0.032605
Si Si7 0.185706 0.050365 0.497637
Si Si8 0.020496 0.570031 0.079929
O O1 0.508160 0.013748 0.229793
O O2 0.156047 0.848801 0.258333
O O3 0.220676 0.125150 0.161749
O O4 0.397062 0.874319 0.067320
O O5 0.500396 0.337153 0.137382
O O6 0.151772 0.428544 0.110568
O O7 0.135955 0.334762 0.299074
O O8 0.221883 0.691671 0.683160
O O9 0.968480 0.604314 0.569958
O O10 0.165955 0.869234 0.528166
O O11 0.751538 0.895611 0.324162
O O12 0.422654 0.079612 0.426345
O O13 0.116722 0.148588 0.606228
O O14 0.075469 0.169854 0.812494
O O15 0.843184 0.487091 0.040273
O O16 0.829845 0.186833 0.004604
#
# Coordination Sequence:
#
# PCOD9119323 Si02
#       8
#     2   2   2   2   2   2   2   2
#     4  11  25  46  73 102 145 187 239 297 364 432
#     4  12  24  46  70 106 142 191 235 300 363 426
#     4  12  26  46  74 104 149 187 242 299 364 433
#     4  12  24  45  73 104 140 197 238 297 357 434
#     4  11  25  46  72 106 148 180 243 305 361 431
#     4  11  27  47  76 109 143 195 236 303 366 434
#     4  12  25  48  71 106 142 193 239 300 366 428
#     4  11  26  48  75 107 145 190 244 301 357 446
#
# _framework density 22.324121999999999
#
# number of rings (size 3 to 8) (size 9 to 14) (size 15 to 20)
#    0.000    0.500    3.750    3.750    1.750    7.000 
#    6.750    0.000    0.000    0.000    0.000    0.000 
#    0.000    0.000    0.000    0.000    0.000    0.000 
#
# Total GULP energy -89514.197376 kJ/mol
# GULP energy per Si atom -5594.637336 kJ/mol
# Density = 2.227331 g / cm^3
# Si number density = 22.324122 Si / 1000 Ang^3
#
#
#
# Elastic Constant Matrix: (Units=GPa)
#
#
# Indices 1 2 3 4 5 6 
#
# 1 111.5413 45.4999 66.5286 0.0000 0.4890 0.0000
# 2 45.4999 74.3312 37.1006 0.0000 2.7932 0.0000
# 3 66.5286 37.1006 69.3320 0.0000 5.3750 0.0000
# 4 0.0000 0.0000 0.0000 47.9358 0.0000 8.2362
# 5 0.4890 2.7932 5.3750 0.0000 32.4016 0.0000
# 6 0.0000 0.0000 0.0000 8.2362 0.0000 25.9487
#
#
#
# Elastic Compliance Matrix: (Units=1/GPa)
#
#
# Indices 1 2 3 4 5 6 
#
# 1 0.022111 -0.004013 -0.019319 0.000000 0.003217 0.000000
# 2 -0.004013 0.019084 -0.006320 0.000000 -0.000536 0.000000
# 3 -0.019319 -0.006320 0.036751 0.000000 -0.005260 0.000000
# 4 0.000000 0.000000 0.000000 0.022065 0.000000 -0.007003
# 5 0.003217 -0.000536 -0.005260 0.000000 0.031733 0.000000
# 6 0.000000 0.000000 0.000000 -0.007003 0.000000 0.040760
#
#
# Mechanical properties :
#
#
# Convention : Reuss Voigt Hill
#
# Bulk Modulus (GPa) = 53.64141 61.49586 57.56864
# Shear Modulus (GPa) = 21.00650 28.32891 24.66770
#
# Velocity S-wave (km/s) = 3.07086 3.56614 3.32773
# Velocity P-wave (km/s) = 6.05427 6.67556 6.37249
#
# Compressibility (1/GPa) = 0.01864231
#
# Stress axis : x y z
#
# Youngs Moduli (GPa) = 45.22682 52.39879 27.21032
#
# Poissons Ratio (x) = 0.21027 0.52567
# Poissons Ratio (y) = 0.18149 0.17197
# Poissons Ratio (z) = 0.87373 0.33117
#
# Static dielectric constant tensor:
#      x y z
#    x 1.795360 0.000000 0.007690 
#    y 0.000000 1.819190 0.000000 
#    z 0.007690 0.000000 1.842600 
# 
# From -- ./inp_files/10325.got.cif
#   From: 2010.05.17/outbox.cif.g08.bks.cpg/sg4_6_cif.got.tgz:10325.got - 2010.06.03 18:43:04.
