data_PCOD9119101
_publ_section_title
;
Structure prediction by ZEFSAII (Michael W. Deem and Ramdas Pophale) SiO2 
 PCOD9119101
Probable space group: P 21
;
_chemical_formula_sum "Si O2"
_cell_formula_units_Z 16
_cell_length_a 11.669477
_cell_length_b 6.021795
_cell_length_c 11.715813
_cell_angle_alpha 90.000000
_cell_angle_beta 126.316772
_cell_angle_gamma 90.000000
_cell_volume 663.365334
_symmetry_space_group_name_H-M "P 21"
_symmetry_group_IT_number 4
_symmetry_cell_setting 'monoclinic'
loop_
_space_group_symop_operation_xyz
x,y,z
-x,1/2+y,-z
loop_
_atom_site_type_symbol
_atom_site_label
_atom_site_fract_x
_atom_site_fract_y
_atom_site_fract_z
Si Si1 0.957425 0.462210 0.018660
Si Si2 0.157907 0.539849 0.737857
Si Si3 0.556301 0.967036 0.234573
Si Si4 0.703814 0.217061 0.955410
Si Si5 0.421393 0.370510 0.300287
Si Si6 0.169096 0.413987 0.334192
Si Si7 0.085242 0.751130 0.477089
Si Si8 0.699818 0.579228 0.465212
O O1 0.033670 0.481929 0.183973
O O2 0.794889 0.389588 0.933271
O O3 0.974407 0.718516 0.982868
O O4 0.311826 0.532513 0.767433
O O5 0.062868 0.317866 0.670544
O O6 0.061606 0.685180 0.594121
O O7 0.193479 0.623330 0.885232
O O8 0.434400 0.851310 0.085535
O O9 0.477831 0.150502 0.267188
O O10 0.622537 0.781240 0.357268
O O11 0.644039 0.021308 0.840353
O O12 0.305715 0.410263 0.331389
O O13 0.569311 0.452558 0.444057
O O14 0.178022 0.158865 0.377380
O O15 0.160297 0.568138 0.440455
O O16 0.211638 0.928906 0.566387
#
# Coordination Sequence:
#
# PCOD9119101 Si02
#       8
#     2   2   2   2   2   2   2   2
#     4  12  28  53  78 115 162 212 274 333 407 492
#     4  12  27  49  77 108 159 211 266 332 397 496
#     4  11  25  50  71 112 152 203 265 324 407 480
#     4  11  28  45  76 113 150 212 255 337 402 482
#     4  11  25  48  76 112 157 194 266 332 406 490
#     4  12  27  45  80 113 156 210 255 342 406 487
#     4  12  28  50  73 117 157 207 269 330 408 484
#     4  11  24  44  73 112 151 199 260 320 413 473
#
# _framework density 24.119440000000001
#
# number of rings (size 3 to 8) (size 9 to 14) (size 15 to 20)
#    0.000    0.500    3.750    2.250   10.500    1.000 
#    0.000    0.000    0.000    0.000    0.000    0.000 
#    0.000    0.000    0.000    0.000    0.000    0.000 
#
# Total GULP energy -89146.536032 kJ/mol
# GULP energy per Si atom -5571.658502 kJ/mol
# Density = 2.406454 g / cm^3
# Si number density = 24.119440 Si / 1000 Ang^3
#
#
#
# Elastic Constant Matrix: (Units=GPa)
#
#
# Indices 1 2 3 4 5 6 
#
# 1 124.5966 42.3602 14.3150 0.0000 17.7145 0.0000
# 2 42.3602 79.2778 23.6365 0.0000 2.9089 0.0000
# 3 14.3150 23.6365 86.2667 0.0000 4.8558 0.0000
# 4 0.0000 0.0000 0.0000 44.7270 0.0000 16.2879
# 5 17.7145 2.9089 4.8558 0.0000 37.5271 0.0000
# 6 0.0000 0.0000 0.0000 16.2879 0.0000 51.1569
#
#
#
# Elastic Compliance Matrix: (Units=1/GPa)
#
#
# Indices 1 2 3 4 5 6 
#
# 1 0.010528 -0.005460 0.000005 0.000000 -0.004547 0.000000
# 2 -0.005460 0.016580 -0.003737 0.000000 0.001776 0.000000
# 3 0.000005 -0.003737 0.012691 0.000000 -0.001355 0.000000
# 4 0.000000 0.000000 0.000000 0.025290 0.000000 -0.008052
# 5 -0.004547 0.001776 -0.001355 0.000000 0.028832 0.000000
# 6 0.000000 0.000000 0.000000 -0.008052 0.000000 0.022111
#
#
# Mechanical properties :
#
#
# Convention : Reuss Voigt Hill
#
# Bulk Modulus (GPa) = 46.69444 50.08494 48.38969
# Shear Modulus (GPa) = 35.32191 40.67084 37.99637
#
# Velocity S-wave (km/s) = 3.83098 4.11082 3.97336
# Velocity P-wave (km/s) = 6.24261 6.58349 6.41531
#
# Compressibility (1/GPa) = 0.02141582
#
# Stress axis : x y z
#
# Youngs Moduli (GPa) = 94.98357 60.31256 78.79442
#
# Poissons Ratio (x) = 0.32931 -0.00039
# Poissons Ratio (y) = 0.51862 0.29444
# Poissons Ratio (z) = -0.00047 0.22538
#
# Static dielectric constant tensor:
#      x y z
#    x 1.968730 0.000000 0.003120 
#    y 0.000000 2.073510 0.000000 
#    z 0.003120 0.000000 1.892060 
# 
# From -- ./inp_files/11661.got.cif
#   From: 2010.05.17/outbox.cif.g08.bks.cpg/sg4_6_cif.got.tgz:11661.got - 2010.06.03 18:43:04.
