data_PCOD9119717
_publ_section_title
;
Structure prediction by ZEFSAII (Michael W. Deem and Ramdas Pophale) SiO2 
 PCOD9119717
Probable space group: P 21
;
_chemical_formula_sum "Si O2"
_cell_formula_units_Z 16
_cell_length_a 5.418418
_cell_length_b 8.290162
_cell_length_c 16.290666
_cell_angle_alpha 90.000000
_cell_angle_beta 61.083831
_cell_angle_gamma 90.000000
_cell_volume 640.538498
_symmetry_space_group_name_H-M "P 21"
_symmetry_group_IT_number 4
_symmetry_cell_setting 'monoclinic'
loop_
_space_group_symop_operation_xyz
x,y,z
-x,1/2+y,-z
loop_
_atom_site_type_symbol
_atom_site_label
_atom_site_fract_x
_atom_site_fract_y
_atom_site_fract_z
Si Si1 0.191568 0.523510 0.888573
Si Si2 0.850576 0.247829 0.849862
Si Si3 0.315433 0.192089 0.298821
Si Si4 0.286604 0.274099 0.015193
Si Si5 0.531112 0.351630 0.402208
Si Si6 0.429873 0.729828 0.428396
Si Si7 0.074727 0.859898 0.331615
Si Si8 0.061095 0.406154 0.216869
O O1 0.424753 0.612892 0.795115
O O2 0.287710 0.421921 0.951789
O O3 0.029198 0.393851 0.857369
O O4 0.964385 0.649988 0.960656
O O5 0.593452 0.203760 0.950204
O O6 0.749967 0.296878 0.774951
O O7 0.006692 0.082284 0.806114
O O8 0.322056 0.221748 0.395898
O O9 0.243805 0.364472 0.268192
O O10 0.079693 0.052983 0.324608
O O11 0.229548 0.320451 0.117630
O O12 0.424524 0.535049 0.426612
O O13 0.652552 0.297967 0.469397
O O14 0.761940 0.342045 0.293218
O O15 0.237891 0.802342 0.386805
O O16 0.759576 0.789147 0.371776
#
# Coordination Sequence:
#
# PCOD9119717 Si02
#       8
#     2   2   2   2   2   2   2   2
#     4  12  27  46  75 114 156 213 266 331 400 487
#     4  12  26  47  77 110 159 210 268 330 407 482
#     4  12  28  49  80 113 161 210 268 340 406 483
#     4  12  27  43  75 110 160 206 271 323 407 482
#     4  12  29  52  82 118 164 208 275 336 415 488
#     4  12  30  51  86 123 157 219 268 347 409 498
#     4  12  27  51  84 117 161 207 273 329 419 478
#     4  12  28  47  77 113 156 211 267 336 399 488
#
# _framework density 24.978981000000001
#
# number of rings (size 3 to 8) (size 9 to 14) (size 15 to 20)
#    0.000    0.000    3.750    4.500   10.500    2.000 
#    0.000    0.000    0.000    0.000    0.000    0.000 
#    0.000    0.000    0.000    0.000    0.000    0.000 
#
# Total GULP energy -89520.605331 kJ/mol
# GULP energy per Si atom -5595.037833 kJ/mol
# Density = 2.492213 g / cm^3
# Si number density = 24.978981 Si / 1000 Ang^3
#
#
#
# Elastic Constant Matrix: (Units=GPa)
#
#
# Indices 1 2 3 4 5 6 
#
# 1 70.3007 10.2326 22.4335 0.0000 6.7592 0.0000
# 2 10.2326 94.8105 26.5390 0.0000 -7.5875 0.0000
# 3 22.4335 26.5390 132.3305 0.0000 14.4488 0.0000
# 4 0.0000 0.0000 0.0000 44.8606 0.0000 10.3421
# 5 6.7592 -7.5875 14.4488 0.0000 42.9157 0.0000
# 6 0.0000 0.0000 0.0000 10.3421 0.0000 51.3926
#
#
#
# Elastic Compliance Matrix: (Units=1/GPa)
#
#
# Indices 1 2 3 4 5 6 
#
# 1 0.015264 -0.001200 -0.002140 0.000000 -0.001896 0.000000
# 2 -0.001200 0.011611 -0.002460 0.000000 0.003070 0.000000
# 3 -0.002140 -0.002460 0.008745 0.000000 -0.003042 0.000000
# 4 0.000000 0.000000 0.000000 0.023376 0.000000 -0.004704
# 5 -0.001896 0.003070 -0.003042 0.000000 0.025167 0.000000
# 6 0.000000 0.000000 0.000000 -0.004704 0.000000 0.020405
#
#
# Mechanical properties :
#
#
# Convention : Reuss Voigt Hill
#
# Bulk Modulus (GPa) = 41.63231 46.20576 43.91903
# Shear Modulus (GPa) = 40.26526 43.71621 41.99074
#
# Velocity S-wave (km/s) = 4.01928 4.18798 4.10450
# Velocity P-wave (km/s) = 6.18406 6.47484 6.33112
#
# Compressibility (1/GPa) = 0.02401981
#
# Stress axis : x y z
#
# Youngs Moduli (GPa) = 65.51155 86.12299 114.34777
#
# Poissons Ratio (x) = 0.10336 0.24471
# Poissons Ratio (y) = 0.07862 0.28135
# Poissons Ratio (z) = 0.14020 0.21190
#
# Static dielectric constant tensor:
#      x y z
#    x 2.189180 0.000000 0.014970 
#    y 0.000000 1.975490 0.000000 
#    z 0.014970 0.000000 1.982410 
# 
# From -- ./inp_files/3583.got.cif
#   From: 2010.05.17/outbox.cif.g08.bks.cpg/sg4_2_cif.got.tgz:3583.got - 2010.06.03 18:43:04.
