data_PCOD9119448
_publ_section_title
;
Structure prediction by ZEFSAII (Michael W. Deem and Ramdas Pophale) SiO2 
 PCOD9119448
Probable space group: P 21
;
_chemical_formula_sum "Si O2"
_cell_formula_units_Z 12
_cell_length_a 8.102320
_cell_length_b 5.541597
_cell_length_c 14.413217
_cell_angle_alpha 90.000000
_cell_angle_beta 42.070787
_cell_angle_gamma 90.000000
_cell_volume 433.622010
_symmetry_space_group_name_H-M "P 21"
_symmetry_group_IT_number 4
_symmetry_cell_setting 'monoclinic'
loop_
_space_group_symop_operation_xyz
x,y,z
-x,1/2+y,-z
loop_
_atom_site_type_symbol
_atom_site_label
_atom_site_fract_x
_atom_site_fract_y
_atom_site_fract_z
Si Si1 0.353834 0.477320 0.576773
Si Si2 0.834055 0.817774 0.964310
Si Si3 0.398693 0.529409 0.110813
Si Si4 0.268758 0.167053 0.789119
Si Si5 0.890127 0.409552 0.648546
Si Si6 0.309842 0.301520 0.333563
O O1 0.507402 0.729464 0.519439
O O2 0.275594 0.369744 0.708035
O O3 0.115305 0.530047 0.613204
O O4 0.664296 0.985066 0.968853
O O5 0.092211 0.941575 0.833969
O O6 0.692021 0.568371 0.998420
O O7 0.829715 0.793884 0.076763
O O8 0.303908 0.331270 0.223798
O O9 0.239149 0.744092 0.221607
O O10 0.516957 0.012335 0.704490
O O11 0.055171 0.298282 0.496347
O O12 0.656209 0.515980 0.687043
#
# Coordination Sequence:
#
# PCOD9119448 Si02
#       6
#     2   2   2   2   2   2
#     4  12  29  53  90 131 175 222 284 364 441 507
#     4  11  28  50  75 112 166 217 279 339 416 512
#     4  11  27  49  75 117 159 221 275 342 427 504
#     4  11  27  53  81 125 164 225 289 354 422 514
#     4  12  25  47  85 118 170 210 278 356 431 508
#     4  11  26  48  80 121 158 213 279 353 429 499
#
# _framework density 27.673874000000001
#
# number of rings (size 3 to 8) (size 9 to 14) (size 15 to 20)
#    0.000    0.667    5.000    0.000    7.000    6.667 
#    0.000    0.000    0.000    0.000    0.000    0.000 
#    0.000    0.000    0.000    0.000    0.000    0.000 
#
# Total GULP energy -66849.001575 kJ/mol
# GULP energy per Si atom -5570.750131 kJ/mol
# Density = 2.761089 g / cm^3
# Si number density = 27.673874 Si / 1000 Ang^3
#
#
#
# Elastic Constant Matrix: (Units=GPa)
#
#
# Indices 1 2 3 4 5 6 
#
# 1 118.2077 60.3515 45.1652 0.0000 1.0609 0.0000
# 2 60.3515 69.2511 58.4254 0.0000 -1.7639 0.0000
# 3 45.1652 58.4254 112.0501 0.0000 2.9496 0.0000
# 4 0.0000 0.0000 0.0000 66.0328 0.0000 1.1242
# 5 1.0609 -1.7639 2.9496 0.0000 38.2512 0.0000
# 6 0.0000 0.0000 0.0000 1.1242 0.0000 45.6807
#
#
#
# Elastic Compliance Matrix: (Units=1/GPa)
#
#
# Indices 1 2 3 4 5 6 
#
# 1 0.015421 -0.014736 0.001500 0.000000 -0.001223 0.000000
# 2 -0.014736 0.040054 -0.015035 0.000000 0.003415 0.000000
# 3 0.001500 -0.015035 0.016212 0.000000 -0.001985 0.000000
# 4 0.000000 0.000000 0.000000 0.015150 0.000000 -0.000373
# 5 -0.001223 0.003415 -0.001985 0.000000 0.026487 0.000000
# 6 0.000000 0.000000 0.000000 -0.000373 0.000000 0.021900
#
#
# Mechanical properties :
#
#
# Convention : Reuss Voigt Hill
#
# Bulk Modulus (GPa) = 66.02969 69.71034 67.87001
# Shear Modulus (GPa) = 25.40445 39.03074 32.21760
#
# Velocity S-wave (km/s) = 3.03313 3.75958 3.41572
# Velocity P-wave (km/s) = 6.01483 6.64007 6.33517
#
# Compressibility (1/GPa) = 0.01514470
#
# Stress axis : x y z
#
# Youngs Moduli (GPa) = 64.84657 24.96621 61.68259
#
# Poissons Ratio (x) = 0.36790 -0.09251
# Poissons Ratio (y) = 0.95556 0.92742
# Poissons Ratio (z) = -0.09726 0.37537
#
# Static dielectric constant tensor:
#      x y z
#    x 2.188640 0.000000 0.028580 
#    y 0.000000 2.403400 0.000000 
#    z 0.028580 0.000000 2.183870 
# 
# From -- ./inp_files/13500.got.cif
#   From: 2010.05.17/outbox.cif.g08.bks.cpg/sg4_7_cif.got.tgz:13500.got - 2010.06.03 18:43:04.
