data_PCOD9119907
_publ_section_title
;
Structure prediction by ZEFSAII (Michael W. Deem and Ramdas Pophale) SiO2 
 PCOD9119907
Probable space group: C 2
;
_chemical_formula_sum "Si O2"
_cell_formula_units_Z 30
_cell_length_a 25.563715
_cell_length_b 6.851619
_cell_length_c 7.779719
_cell_angle_alpha 90.000000
_cell_angle_beta 62.047189
_cell_angle_gamma 90.000000
_cell_volume 1203.666036
_symmetry_space_group_name_H-M "C 2"
_symmetry_group_IT_number 5
_symmetry_cell_setting 'monoclinic'
loop_
_space_group_symop_operation_xyz
x,y,z
-x,y,-z
1/2+x,1/2+y,z
1/2-x,1/2+y,-z
loop_
_atom_site_type_symbol
_atom_site_label
_atom_site_fract_x
_atom_site_fract_y
_atom_site_fract_z
Si Si1 0.851941 0.721560 0.101082
Si Si2 0.378330 0.637460 0.740912
Si Si3 0.689065 0.243799 0.186549
Si Si4 0.000000 0.196136 0.000000
Si Si5 0.385791 0.728842 0.362822
Si Si6 0.686219 0.667241 0.834918
Si Si7 0.031743 0.880077 0.233851
Si Si8 0.401972 0.257583 0.384399
O O1 0.872833 0.659861 0.259448
O O2 0.822667 0.935243 0.174734
O O3 0.812048 0.646010 0.001897
O O4 0.914438 0.745468 0.907663
O O5 0.326077 0.475270 0.809288
O O6 0.378929 0.772502 0.574126
O O7 0.439215 0.510173 0.657272
O O8 0.362837 0.732668 0.947623
O O9 0.749719 0.212899 0.192307
O O10 0.636102 0.187510 0.396238
O O11 0.053644 0.302606 0.820051
O O12 0.973910 0.047101 0.901006
O O13 0.330580 0.760123 0.322053
O O14 0.393543 0.491097 0.363834
O O15 0.972016 0.752982 0.320159
#
# Coordination Sequence:
#
# PCOD9119907 Si02
#       8
#     4   4   4   2   4   4   4   4
#     4   9  16  27  40  57  81 117 137 166 211 246
#     4   9  18  28  41  63  81 120 142 165 209 251
#     4   9  18  25  39  57  79 115 146 170 199 243
#     4  10  12  22  40  60  78 112 128 156 210 254
#     4   9  16  25  39  56  81 109 139 163 207 246
#     4   9  16  30  37  53  85 115 144 174 198 243
#     4   9  13  25  38  59  86 108 132 163 203 264
#     4   9  15  25  38  60  82 108 135 162 209 252
#
# _framework density 24.923856000000001
#
# number of rings (size 3 to 8) (size 9 to 14) (size 15 to 20)
#    0.000    3.200    5.333    0.000    0.000    9.600 
#    0.000    0.000    0.000    0.000    0.000    0.000 
#    0.000    0.000  217.600    2.133    4.800    4.533 
#
# Total GULP energy -83570.322962 kJ/mol
# GULP energy per Si atom -5571.354864 kJ/mol
# Density = 2.486713 g / cm^3
# Si number density = 24.923856 Si / 1000 Ang^3
#
#
#
# Elastic Constant Matrix: (Units=GPa)
#
#
# Indices 1 2 3 4 5 6 
#
# 1 190.1728 18.5348 52.7883 0.0000 20.1730 0.0000
# 2 18.5348 76.4138 7.8570 0.0000 -3.9536 0.0000
# 3 52.7883 7.8570 90.8198 0.0000 36.6476 0.0000
# 4 0.0000 0.0000 0.0000 -23.4051 0.0000 -14.7358
# 5 20.1730 -3.9536 36.6476 0.0000 52.3091 0.0000
# 6 0.0000 0.0000 0.0000 -14.7358 0.0000 18.3220
#
#
#
# Elastic Compliance Matrix: (Units=1/GPa)
#
#
# Indices 1 2 3 4 5 6 
#
# 1 0.006373 -0.001178 -0.003589 0.000000 -0.000032 0.000000
# 2 -0.001178 0.013662 -0.001529 0.000000 0.002559 0.000000
# 3 -0.003589 -0.001529 0.017730 0.000000 -0.011153 0.000000
# 4 0.000000 0.000000 0.000000 -0.028363 0.000000 -0.022812
# 5 -0.000032 0.002559 -0.011153 0.000000 0.027136 0.000000
# 6 0.000000 0.000000 0.000000 -0.022812 0.000000 0.036232
#
#
# Mechanical properties :
#
#
# Convention : Reuss Voigt Hill
#
# Bulk Modulus (GPa) = 39.72903 57.30740 48.51821
# Shear Modulus (GPa) = 53.33062 27.99362 40.66212
#
# Velocity S-wave (km/s) = 4.63075 3.35500 4.04351
# Velocity P-wave (km/s) = 6.67582 6.16855 6.42719
#
# Compressibility (1/GPa) = 0.02517051
#
# Stress axis : x y z
#
# Youngs Moduli (GPa) = 156.91290 73.19508 56.40240
#
# Poissons Ratio (x) = 0.08625 0.20245
# Poissons Ratio (y) = 0.18491 0.08626
# Poissons Ratio (z) = 0.56321 0.11195
#
# Static dielectric constant tensor:
#      x y z
#    x 2.001320 0.000000 0.058850 
#    y 0.000000 2.053390 0.000000 
#    z 0.058850 0.000000 2.089950 
# 
# From -- ./inp_files/30721.got.cif
#   From: 2010.05.17/outbox.cif.g08.bks.cpg/sg5_16_cif.got.tgz:30721.got - 2010.06.03 18:56:24.
