data_PCOD9119514
_publ_section_title
;
Structure prediction by ZEFSAII (Michael W. Deem and Ramdas Pophale) SiO2 
 PCOD9119514
Probable space group: P 21
;
_chemical_formula_sum "Si O2"
_cell_formula_units_Z 16
_cell_length_a 7.243708
_cell_length_b 5.948909
_cell_length_c 14.495926
_cell_angle_alpha 90.000000
_cell_angle_beta 85.141235
_cell_angle_gamma 90.000000
_cell_volume 622.416047
_symmetry_space_group_name_H-M "P 21"
_symmetry_group_IT_number 4
_symmetry_cell_setting 'monoclinic'
loop_
_space_group_symop_operation_xyz
x,y,z
-x,1/2+y,-z
loop_
_atom_site_type_symbol
_atom_site_label
_atom_site_fract_x
_atom_site_fract_y
_atom_site_fract_z
Si Si1 0.368959 0.625000 0.623839
Si Si2 0.742400 0.238695 0.023085
Si Si3 0.031818 0.338591 0.691936
Si Si4 0.962878 0.553477 0.123044
Si Si5 0.693832 0.300581 0.572266
Si Si6 0.204661 0.199874 0.191960
Si Si7 0.506516 0.007813 0.724608
Si Si8 0.469647 0.367835 0.883633
O O1 0.229906 0.420105 0.647862
O O2 0.577353 0.528041 0.599703
O O3 0.299536 0.753185 0.535901
O O4 0.371007 0.801022 0.708240
O O5 0.778710 0.463020 0.080695
O O6 0.710535 0.016871 0.086767
O O7 0.555201 0.249849 0.970167
O O8 0.911824 0.213882 0.945050
O O9 0.892126 0.280370 0.614253
O O10 0.931290 0.554115 0.740635
O O11 0.049984 0.157308 0.773844
O O12 0.546089 0.706373 0.203717
O O13 0.082562 0.324040 0.121940
O O14 0.567622 0.109585 0.624709
O O15 0.310875 0.397580 0.239702
O O16 0.365793 0.039979 0.149431
#
# Coordination Sequence:
#
# PCOD9119514 Si02
#       8
#     2   2   2   2   2   2   2   2
#     4  12  29  49  91 125 163 226 276 339 421 507
#     4  12  27  51  81 113 161 216 284 346 416 489
#     4  12  28  53  82 124 169 222 274 343 434 492
#     4  12  27  54  77 115 169 214 279 352 409 501
#     4  12  25  53  83 121 176 209 282 343 408 509
#     4  12  22  49  79 115 157 216 265 346 414 490
#     4  12  24  52  83 114 166 218 271 339 420 497
#     4  12  26  51  82 115 159 221 277 344 426 487
#
# _framework density 25.706278000000001
#
# number of rings (size 3 to 8) (size 9 to 14) (size 15 to 20)
#    0.000    0.000    7.500    1.500    0.000    6.000 
#    6.750    0.000    0.000    0.000    0.000    0.000 
#    0.000    0.000    0.000    0.000    0.000    0.000 
#
# Total GULP energy -89745.589331 kJ/mol
# GULP energy per Si atom -5609.099333 kJ/mol
# Density = 2.564777 g / cm^3
# Si number density = 25.706278 Si / 1000 Ang^3
#
#
#
# Elastic Constant Matrix: (Units=GPa)
#
#
# Indices 1 2 3 4 5 6 
#
# 1 148.2413 42.2344 55.2354 0.0000 22.6849 0.0000
# 2 42.2344 85.0398 42.2070 0.0000 11.1218 0.0000
# 3 55.2354 42.2070 115.8651 0.0000 23.4359 0.0000
# 4 0.0000 0.0000 0.0000 56.8810 0.0000 -1.0412
# 5 22.6849 11.1218 23.4359 0.0000 43.1321 0.0000
# 6 0.0000 0.0000 0.0000 -1.0412 0.0000 62.7280
#
#
#
# Elastic Compliance Matrix: (Units=1/GPa)
#
#
# Indices 1 2 3 4 5 6 
#
# 1 0.008936 -0.002744 -0.002756 0.000000 -0.002495 0.000000
# 2 -0.002744 0.015233 -0.004200 0.000000 -0.000203 0.000000
# 3 -0.002756 -0.004200 0.012316 0.000000 -0.004159 0.000000
# 4 0.000000 0.000000 0.000000 0.017586 0.000000 0.000292
# 5 -0.002495 -0.000203 -0.004159 0.000000 0.026809 0.000000
# 6 0.000000 0.000000 0.000000 0.000292 0.000000 0.015947
#
#
# Mechanical properties :
#
#
# Convention : Reuss Voigt Hill
#
# Bulk Modulus (GPa) = 58.52949 69.83331 64.18140
# Shear Modulus (GPa) = 41.01010 46.51284 43.76147
#
# Velocity S-wave (km/s) = 3.99850 4.25831 4.13045
# Velocity P-wave (km/s) = 6.64344 7.16955 6.91150
#
# Compressibility (1/GPa) = 0.01708540
#
# Stress axis : x y z
#
# Youngs Moduli (GPa) = 111.90478 65.64695 81.19696
#
# Poissons Ratio (x) = 0.18014 0.22377
# Poissons Ratio (y) = 0.30707 0.34102
# Poissons Ratio (z) = 0.30839 0.27571
#
# Static dielectric constant tensor:
#      x y z
#    x 2.040480 0.000000 0.011880 
#    y 0.000000 2.043320 0.000000 
#    z 0.011880 0.000000 1.969570 
# 
# From -- ./inp_files/14667.got.cif
#   From: 2010.05.17/outbox.cif.g08.bks.cpg/sg4_8_cif.got.tgz:14667.got - 2010.06.03 18:43:04.
