data_PCOD9119757
_publ_section_title
;
Structure prediction by ZEFSAII (Michael W. Deem and Ramdas Pophale) SiO2 
 PCOD9119757
Probable space group: P 21
;
_chemical_formula_sum "Si O2"
_cell_formula_units_Z 10
_cell_length_a 8.695466
_cell_length_b 4.951942
_cell_length_c 10.457941
_cell_angle_alpha 90.000000
_cell_angle_beta 117.285882
_cell_angle_gamma 90.000000
_cell_volume 400.206876
_symmetry_space_group_name_H-M "P 21"
_symmetry_group_IT_number 4
_symmetry_cell_setting 'monoclinic'
loop_
_space_group_symop_operation_xyz
x,y,z
-x,1/2+y,-z
loop_
_atom_site_type_symbol
_atom_site_label
_atom_site_fract_x
_atom_site_fract_y
_atom_site_fract_z
Si Si1 0.528291 0.364280 0.425807
Si Si2 0.891457 0.449771 0.425169
Si Si3 0.102347 0.672938 0.993985
Si Si4 0.246156 0.316013 0.840541
Si Si5 0.417592 0.035680 0.150350
O O1 0.452747 0.633912 0.459216
O O2 0.712739 0.432680 0.434063
O O3 0.414031 0.226046 0.271654
O O4 0.852915 0.585612 0.273952
O O5 0.979412 0.158679 0.456540
O O6 0.127994 0.534562 0.866363
O O7 0.019677 0.435487 0.047553
O O8 0.287161 0.785183 0.111011
O O9 0.386165 0.444636 0.798471
O O10 0.356390 0.188189 0.999058
#
# Coordination Sequence:
#
# PCOD9119757 Si02
#       5
#     2   2   2   2   2
#     4  12  29  54  83 120 165 218 271 333 405 487
#     4  12  29  54  83 120 165 218 271 333 405 487
#     4  12  28  48  76 126 168 196 258 348 416 460
#     4  12  26  51  89 117 158 217 278 331 400 495
#     4  12  26  51  89 117 158 217 278 331 400 495
#
# _framework density 24.987075999999998
#
# number of rings (size 3 to 8) (size 9 to 14) (size 15 to 20)
#    0.000    0.000    4.000    4.800    5.600    1.600 
#    7.200    2.000    0.000    0.000    0.000    0.000 
#    0.000    0.000    0.000    0.000    0.000    0.000 
#
# Total GULP energy -56152.132509 kJ/mol
# GULP energy per Si atom -5615.213251 kJ/mol
# Density = 2.493020 g / cm^3
# Si number density = 24.987076 Si / 1000 Ang^3
#
#
#
# Elastic Constant Matrix: (Units=GPa)
#
#
# Indices 1 2 3 4 5 6 
#
# 1 119.2219 66.9657 39.7030 0.0000 -28.3138 0.0000
# 2 66.9657 149.4380 22.6113 0.0000 -24.5360 0.0000
# 3 39.7030 22.6113 100.0850 0.0000 -4.0509 0.0000
# 4 0.0000 0.0000 0.0000 65.9823 0.0000 -3.3461
# 5 -28.3138 -24.5360 -4.0509 0.0000 17.2236 0.0000
# 6 0.0000 0.0000 0.0000 -3.3461 0.0000 69.3443
#
#
#
# Elastic Compliance Matrix: (Units=1/GPa)
#
#
# Indices 1 2 3 4 5 6 
#
# 1 0.017330 -0.003263 -0.005222 0.000000 0.022611 0.000000
# 2 -0.003263 0.009573 -0.000539 0.000000 0.008147 0.000000
# 3 -0.005222 -0.000539 0.011920 0.000000 -0.006549 0.000000
# 4 0.000000 0.000000 0.000000 0.015193 0.000000 0.000733
# 5 0.022611 0.008147 -0.006549 0.000000 0.105296 0.000000
# 6 0.000000 0.000000 0.000000 0.000733 0.000000 0.014456
#
#
# Mechanical properties :
#
#
# Convention : Reuss Voigt Hill
#
# Bulk Modulus (GPa) = 48.13517 69.70057 58.91787
# Shear Modulus (GPa) = 25.15853 46.47437 35.81645
#
# Velocity S-wave (km/s) = 3.17655 4.31738 3.79013
# Velocity P-wave (km/s) = 5.72362 7.26692 6.54095
#
# Compressibility (1/GPa) = 0.02077483
#
# Stress axis : x y z
#
# Youngs Moduli (GPa) = 57.70501 104.46033 83.89449
#
# Poissons Ratio (x) = 0.34085 0.43811
# Poissons Ratio (y) = 0.18829 0.04519
# Poissons Ratio (z) = 0.30134 0.05627
#
# Static dielectric constant tensor:
#      x y z
#    x 1.928170 0.000000 0.009640 
#    y 0.000000 1.964210 0.000000 
#    z 0.009640 0.000000 1.993280 
# 
# From -- ./inp_files/5130.got.cif
#   From: 2010.05.17/outbox.cif.g08.bks.cpg/sg4_3_cif.got.tgz:5130.got - 2010.06.03 18:43:04.
