data_PCOD9119449
_publ_section_title
;
Structure prediction by ZEFSAII (Michael W. Deem and Ramdas Pophale) SiO2 
 PCOD9119449
Probable space group: P 21
;
_chemical_formula_sum "Si O2"
_cell_formula_units_Z 12
_cell_length_a 5.328087
_cell_length_b 17.883867
_cell_length_c 4.849550
_cell_angle_alpha 90.000000
_cell_angle_beta 89.481601
_cell_angle_gamma 90.000000
_cell_volume 462.079183
_symmetry_space_group_name_H-M "P 21"
_symmetry_group_IT_number 4
_symmetry_cell_setting 'monoclinic'
loop_
_space_group_symop_operation_xyz
x,y,z
-x,1/2+y,-z
loop_
_atom_site_type_symbol
_atom_site_label
_atom_site_fract_x
_atom_site_fract_y
_atom_site_fract_z
Si Si1 0.854627 0.338070 0.831536
Si Si2 0.781601 0.021344 0.861549
Si Si3 0.167657 0.359540 0.337553
Si Si4 0.463465 0.129148 0.563828
Si Si5 0.720071 0.501400 0.778327
Si Si6 0.469101 0.230152 0.031297
O O1 0.726641 0.412920 0.714758
O O2 0.102098 0.332416 0.642212
O O3 0.693530 0.263985 0.845453
O O4 0.921679 0.353628 0.147389
O O5 0.718753 0.094049 0.684451
O O6 0.768166 0.946674 0.673801
O O7 0.538612 0.014744 0.059707
O O8 0.032394 0.018515 0.042202
O O9 0.349374 0.302732 0.178446
O O10 0.521037 0.176622 0.289948
O O11 0.293340 0.058331 0.475767
O O12 0.333936 0.177941 0.806051
#
# Coordination Sequence:
#
# PCOD9119449 Si02
#       6
#     2   2   2   2   2   2
#     4  11  26  48  81 114 153 213 273 331 390 478
#     4  11  27  53  84 121 157 213 277 332 395 479
#     4  11  26  48  81 114 153 213 273 331 390 478
#     4  12  28  48  80 120 164 212 258 336 408 484
#     4  11  27  53  84 121 157 213 277 332 395 479
#     4  12  26  52  76 116 168 206 264 332 410 482
#
# _framework density 25.969576
#
# number of rings (size 3 to 8) (size 9 to 14) (size 15 to 20)
#    0.000    0.667    3.333    2.000    9.333    2.667 
#   12.000    0.000    0.000    0.000    0.000    0.000 
#    0.000    0.000    0.000    0.000    0.000    0.000 
#
# Total GULP energy -67225.613730 kJ/mol
# GULP energy per Si atom -5602.134477 kJ/mol
# Density = 2.591047 g / cm^3
# Si number density = 25.969576 Si / 1000 Ang^3
#
#
#
# Elastic Constant Matrix: (Units=GPa)
#
#
# Indices 1 2 3 4 5 6 
#
# 1 95.9234 23.0849 37.0345 0.0000 -0.0925 0.0000
# 2 23.0849 166.6318 55.2997 0.0000 1.0693 0.0000
# 3 37.0345 55.2997 151.6213 0.0000 -8.2017 0.0000
# 4 0.0000 0.0000 0.0000 41.6806 0.0000 13.9841
# 5 -0.0925 1.0693 -8.2017 0.0000 38.4551 0.0000
# 6 0.0000 0.0000 0.0000 13.9841 0.0000 33.2142
#
#
#
# Elastic Compliance Matrix: (Units=1/GPa)
#
#
# Indices 1 2 3 4 5 6 
#
# 1 0.011604 -0.000745 -0.002590 0.000000 -0.000504 0.000000
# 2 -0.000745 0.006896 -0.002371 0.000000 -0.000699 0.000000
# 3 -0.002590 -0.002371 0.008190 0.000000 0.001807 0.000000
# 4 0.000000 0.000000 0.000000 0.027939 0.000000 -0.011763
# 5 -0.000504 -0.000699 0.001807 0.000000 0.026408 0.000000
# 6 0.000000 0.000000 0.000000 -0.011763 0.000000 0.035060
#
#
# Mechanical properties :
#
#
# Convention : Reuss Voigt Hill
#
# Bulk Modulus (GPa) = 65.45104 71.66830 68.55967
# Shear Modulus (GPa) = 37.70724 42.58713 40.14718
#
# Velocity S-wave (km/s) = 3.81462 4.05394 3.93610
# Velocity P-wave (km/s) = 6.68277 7.04056 6.86400
#
# Compressibility (1/GPa) = 0.01527860
#
# Stress axis : x y z
#
# Youngs Moduli (GPa) = 86.17972 145.01648 122.09380
#
# Poissons Ratio (x) = 0.10801 0.31621
# Poissons Ratio (y) = 0.06419 0.28948
# Poissons Ratio (z) = 0.22319 0.34382
#
# Static dielectric constant tensor:
#      x y z
#    x 2.070120 0.000000 -0.005580 
#    y 0.000000 2.096080 0.000000 
#    z -0.005580 0.000000 2.005610 
# 
# From -- ./inp_files/393.got.cif
#   From: 2010.05.17/outbox.cif.g08.bks.cpg/sg4_1_cif.got.tgz:393.got - 2010.06.03 18:43:04.
