data_PCOD9119359
_publ_section_title
;
Structure prediction by ZEFSAII (Michael W. Deem and Ramdas Pophale) SiO2 
 PCOD9119359
Probable space group: P 21
;
_chemical_formula_sum "Si O2"
_cell_formula_units_Z 14
_cell_length_a 5.403639
_cell_length_b 8.235246
_cell_length_c 12.166111
_cell_angle_alpha 90.000000
_cell_angle_beta 87.572502
_cell_angle_gamma 90.000000
_cell_volume 540.909707
_symmetry_space_group_name_H-M "P 21"
_symmetry_group_IT_number 4
_symmetry_cell_setting 'monoclinic'
loop_
_space_group_symop_operation_xyz
x,y,z
-x,1/2+y,-z
loop_
_atom_site_type_symbol
_atom_site_label
_atom_site_fract_x
_atom_site_fract_y
_atom_site_fract_z
Si Si1 0.691806 0.455270 0.507132
Si Si2 0.537663 0.175080 0.653656
Si Si3 0.975393 0.189015 0.364470
Si Si4 0.781802 0.934202 0.804136
Si Si5 0.045169 0.514819 0.854847
Si Si6 0.467422 0.176673 0.057374
Si Si7 0.181088 0.157311 0.849652
O O1 0.602778 0.353945 0.613926
O O2 0.481289 0.558259 0.451303
O O3 0.790959 0.320128 0.420412
O O4 0.893653 0.585370 0.543200
O O5 0.279983 0.163132 0.723360
O O6 0.719565 0.094003 0.736500
O O7 0.886518 0.064578 0.272139
O O8 0.161960 0.301388 0.290545
O O9 0.574430 0.852269 0.884516
O O10 0.023605 0.992475 0.866679
O O11 0.270444 0.598410 0.917729
O O12 0.035600 0.323399 0.872528
O O13 0.774681 0.581604 0.891312
O O14 0.409601 0.179249 0.929584
#
# Coordination Sequence:
#
# PCOD9119359 Si02
#       7
#     2   2   2   2   2   2   2
#     4  12  26  46  75 108 147 205 251 327 381 458
#     4  12  28  45  77 107 151 196 262 311 387 449
#     4  11  25  47  75 105 151 192 261 314 389 450
#     4  11  25  50  72 112 150 202 250 323 378 467
#     4  11  28  49  77 116 151 204 252 322 377 471
#     4  11  28  49  81 111 160 198 256 312 396 452
#     4  12  28  46  77 111 154 199 258 313 384 467
#
# _framework density 25.882323
#
# number of rings (size 3 to 8) (size 9 to 14) (size 15 to 20)
#    0.000    0.571    1.429    4.286   16.000    0.000 
#    0.000    0.000    0.000    0.000    0.000    0.000 
#    0.000    0.000    0.000    0.000    0.000    0.000 
#
# Total GULP energy -78442.961481 kJ/mol
# GULP energy per Si atom -5603.068677 kJ/mol
# Density = 2.582341 g / cm^3
# Si number density = 25.882323 Si / 1000 Ang^3
#
#
#
# Elastic Constant Matrix: (Units=GPa)
#
#
# Indices 1 2 3 4 5 6 
#
# 1 81.3940 31.7927 6.0661 0.0000 3.1353 0.0000
# 2 31.7927 101.3526 19.2998 0.0000 -0.7860 0.0000
# 3 6.0661 19.2998 88.0218 0.0000 11.1855 0.0000
# 4 0.0000 0.0000 0.0000 45.1744 0.0000 1.5469
# 5 3.1353 -0.7860 11.1855 0.0000 43.9976 0.0000
# 6 0.0000 0.0000 0.0000 1.5469 0.0000 49.5021
#
#
#
# Elastic Compliance Matrix: (Units=1/GPa)
#
#
# Indices 1 2 3 4 5 6 
#
# 1 0.014054 -0.004446 0.000148 0.000000 -0.001119 0.000000
# 2 -0.004446 0.011729 -0.002410 0.000000 0.001139 0.000000
# 3 0.000148 -0.002410 0.012283 0.000000 -0.003176 0.000000
# 4 0.000000 0.000000 0.000000 0.022160 0.000000 -0.000692
# 5 -0.001119 0.001139 -0.003176 0.000000 0.023636 0.000000
# 6 0.000000 0.000000 0.000000 -0.000692 0.000000 0.020223
#
#
# Mechanical properties :
#
#
# Convention : Reuss Voigt Hill
#
# Bulk Modulus (GPa) = 40.56581 42.78727 41.67654
# Shear Modulus (GPa) = 39.77201 41.97548 40.87374
#
# Velocity S-wave (km/s) = 3.92426 4.03150 3.97824
# Velocity P-wave (km/s) = 6.01999 6.18369 6.10239
#
# Compressibility (1/GPa) = 0.02465130
#
# Stress axis : x y z
#
# Youngs Moduli (GPa) = 71.15211 85.26012 81.41561
#
# Poissons Ratio (x) = 0.37903 -0.01208
# Poissons Ratio (y) = 0.31631 0.19622
# Poissons Ratio (z) = -0.01055 0.20548
#
# Static dielectric constant tensor:
#      x y z
#    x 2.065010 0.000000 -0.001480 
#    y 0.000000 2.074640 0.000000 
#    z -0.001480 0.000000 2.035450 
# 
# From -- ./inp_files/2467.got.cif
#   From: 2010.05.17/outbox.cif.g08.bks.cpg/sg4_2_cif.got.tgz:2467.got - 2010.06.03 18:43:04.
