data_PCOD9119279
_publ_section_title
;
Structure prediction by ZEFSAII (Michael W. Deem and Ramdas Pophale) SiO2 
 PCOD9119279
Probable space group: P 21
;
_chemical_formula_sum "Si O2"
_cell_formula_units_Z 16
_cell_length_a 9.887652
_cell_length_b 8.374005
_cell_length_c 7.871861
_cell_angle_alpha 90.000000
_cell_angle_beta 103.491493
_cell_angle_gamma 90.000000
_cell_volume 633.797902
_symmetry_space_group_name_H-M "P 21"
_symmetry_group_IT_number 4
_symmetry_cell_setting 'monoclinic'
loop_
_space_group_symop_operation_xyz
x,y,z
-x,1/2+y,-z
loop_
_atom_site_type_symbol
_atom_site_label
_atom_site_fract_x
_atom_site_fract_y
_atom_site_fract_z
Si Si1 0.688087 0.517030 0.954561
Si Si2 0.163903 0.459501 0.900369
Si Si3 0.549328 0.822902 0.999670
Si Si4 0.435623 0.814595 0.591130
Si Si5 0.924261 0.847201 0.494794
Si Si6 0.164027 0.675818 0.395183
Si Si7 0.922780 0.290791 0.003035
Si Si8 0.305327 0.139118 0.423683
O O1 0.628946 0.656934 0.057444
O O2 0.829133 0.432229 0.051525
O O3 0.713749 0.592021 0.778359
O O4 0.564892 0.386784 0.904375
O O5 0.141458 0.394656 0.705584
O O6 0.076914 0.349186 0.004953
O O7 0.327055 0.451408 0.988034
O O8 0.096457 0.633448 0.892935
O O9 0.466915 0.799476 0.799709
O O10 0.323656 0.684259 0.496739
O O11 0.580952 0.780275 0.540392
O O12 0.370128 0.985131 0.531769
O O13 0.837508 0.699723 0.541741
O O14 0.079083 0.791384 0.497420
O O15 0.901589 0.000528 0.606559
O O16 0.143055 0.743582 0.199939
#
# Coordination Sequence:
#
# PCOD9119279 Si02
#       8
#     2   2   2   2   2   2   2   2
#     4  11  25  46  71 105 142 189 237 295 361 426
#     4  11  27  46  73 106 147 186 243 296 366 433
#     4  11  27  44  69 107 143 190 233 296 362 429
#     4  11  25  43  72 105 141 192 232 298 354 434
#     4  11  27  46  75 104 142 189 242 306 356 433
#     4  11  25  46  72 105 141 189 242 296 364 427
#     4  11  25  48  74 105 143 191 238 302 359 434
#     4  11  25  45  72 105 145 186 241 293 360 432
#
# _framework density 25.24464
#
# number of rings (size 3 to 8) (size 9 to 14) (size 15 to 20)
#    0.000    1.000    1.250    3.000   15.750    1.000 
#    0.000    0.000    0.000    0.000    0.000    0.000 
#    0.000    0.000    0.000    0.000    0.000    0.000 
#
# Total GULP energy -89785.222999 kJ/mol
# GULP energy per Si atom -5611.576437 kJ/mol
# Density = 2.518718 g / cm^3
# Si number density = 25.244640 Si / 1000 Ang^3
#
#
#
# Elastic Constant Matrix: (Units=GPa)
#
#
# Indices 1 2 3 4 5 6 
#
# 1 115.3051 7.6886 33.7260 0.0000 -7.0879 0.0000
# 2 7.6886 100.0963 18.9375 0.0000 -14.4914 0.0000
# 3 33.7260 18.9375 67.2889 0.0000 1.4926 0.0000
# 4 0.0000 0.0000 0.0000 35.4614 0.0000 -12.1516
# 5 -7.0879 -14.4914 1.4926 0.0000 30.9198 0.0000
# 6 0.0000 0.0000 0.0000 -12.1516 0.0000 59.9779
#
#
#
# Elastic Compliance Matrix: (Units=1/GPa)
#
#
# Indices 1 2 3 4 5 6 
#
# 1 0.010410 0.000664 -0.005470 0.000000 0.002962 0.000000
# 2 0.000664 0.011462 -0.003685 0.000000 0.005702 0.000000
# 3 -0.005470 -0.003685 0.018727 0.000000 -0.003885 0.000000
# 4 0.000000 0.000000 0.000000 0.030303 0.000000 0.006139
# 5 0.002962 0.005702 -0.003885 0.000000 0.035881 0.000000
# 6 0.000000 0.000000 0.000000 0.006139 0.000000 0.017917
#
#
# Mechanical properties :
#
#
# Convention : Reuss Voigt Hill
#
# Bulk Modulus (GPa) = 42.34420 44.82162 43.58291
# Shear Modulus (GPa) = 33.43249 40.09436 36.76343
#
# Velocity S-wave (km/s) = 3.64310 3.98959 3.82027
# Velocity P-wave (km/s) = 5.87419 6.24627 6.06309
#
# Compressibility (1/GPa) = 0.02361599
#
# Stress axis : x y z
#
# Youngs Moduli (GPa) = 96.05687 87.24399 53.40026
#
# Poissons Ratio (x) = -0.05794 0.29212
# Poissons Ratio (y) = -0.06379 0.19679
# Poissons Ratio (z) = 0.52548 0.32151
#
# Static dielectric constant tensor:
#      x y z
#    x 1.925140 0.000000 0.002890 
#    y 0.000000 2.014360 0.000000 
#    z 0.002890 0.000000 1.960770 
# 
# From -- ./inp_files/5754.got.cif
#   From: 2010.05.17/outbox.cif.g08.bks.cpg/sg4_3_cif.got.tgz:5754.got - 2010.06.03 18:43:04.
