data_PCOD9119458
_publ_section_title
;
Structure prediction by ZEFSAII (Michael W. Deem and Ramdas Pophale) SiO2 
 PCOD9119458
Probable space group: P 21
;
_chemical_formula_sum "Si O2"
_cell_formula_units_Z 10
_cell_length_a 7.494664
_cell_length_b 10.631450
_cell_length_c 5.459732
_cell_angle_alpha 90.000000
_cell_angle_beta 124.630605
_cell_angle_gamma 90.000000
_cell_volume 357.954362
_symmetry_space_group_name_H-M "P 21"
_symmetry_group_IT_number 4
_symmetry_cell_setting 'monoclinic'
loop_
_space_group_symop_operation_xyz
x,y,z
-x,1/2+y,-z
loop_
_atom_site_type_symbol
_atom_site_label
_atom_site_fract_x
_atom_site_fract_y
_atom_site_fract_z
Si Si1 0.007395 0.051210 0.359848
Si Si2 0.713037 0.716120 0.150512
Si Si3 0.263009 0.557267 0.351521
Si Si4 0.863270 0.316131 0.762230
Si Si5 0.587967 0.435737 0.898845
O O1 0.148090 0.176935 0.498928
O O2 0.871032 0.040236 0.501180
O O3 0.150529 0.926283 0.446771
O O4 0.389407 0.079041 0.987741
O O5 0.549509 0.829831 0.068601
O O6 0.139042 0.546390 0.997355
O O7 0.899467 0.755695 0.101480
O O8 0.312388 0.705917 0.399054
O O9 0.458994 0.463393 0.541895
O O10 0.814546 0.378310 0.984627
#
# Coordination Sequence:
#
# PCOD9119458 Si02
#       5
#     2   2   2   2   2
#     4  11  26  52  82 120 178 229 283 369 444 527
#     4  11  29  53  84 134 182 238 302 373 462 539
#     4  11  28  49  83 126 167 230 295 362 439 534
#     4  11  26  49  85 118 181 225 297 357 463 511
#     4  12  29  51  90 132 180 238 307 375 448 555
#
# _framework density 27.936522
#
# number of rings (size 3 to 8) (size 9 to 14) (size 15 to 20)
#    0.000    0.800    2.000    2.400   11.200    4.800 
#    0.000    0.000    0.000    0.000    0.000    0.000 
#    0.000    0.000    0.000    0.000    0.000    0.000 
#
# Total GULP energy -55995.684241 kJ/mol
# GULP energy per Si atom -5599.568424 kJ/mol
# Density = 2.787294 g / cm^3
# Si number density = 27.936522 Si / 1000 Ang^3
#
#
#
# Elastic Constant Matrix: (Units=GPa)
#
#
# Indices 1 2 3 4 5 6 
#
# 1 157.0492 90.4787 59.1918 0.0000 -18.2989 0.0000
# 2 90.4787 226.5599 69.0641 0.0000 1.2711 0.0000
# 3 59.1918 69.0641 168.7645 0.0000 -12.1340 0.0000
# 4 0.0000 0.0000 0.0000 55.1930 0.0000 6.4855
# 5 -18.2989 1.2711 -12.1340 0.0000 34.4988 0.0000
# 6 0.0000 0.0000 0.0000 6.4855 0.0000 68.2286
#
#
#
# Elastic Compliance Matrix: (Units=1/GPa)
#
#
# Indices 1 2 3 4 5 6 
#
# 1 0.009401 -0.003284 -0.001627 0.000000 0.004535 0.000000
# 2 -0.003284 0.006220 -0.001575 0.000000 -0.002525 0.000000
# 3 -0.001627 -0.001575 0.007267 0.000000 0.001751 0.000000
# 4 0.000000 0.000000 0.000000 0.018323 0.000000 -0.001742
# 5 0.004535 -0.002525 0.001751 0.000000 0.032101 0.000000
# 6 0.000000 0.000000 0.000000 -0.001742 0.000000 0.014822
#
#
# Mechanical properties :
#
#
# Convention : Reuss Voigt Hill
#
# Bulk Modulus (GPa) = 100.85900 109.98253 105.42077
# Shear Modulus (GPa) = 47.88794 53.82667 50.85731
#
# Velocity S-wave (km/s) = 4.14474 4.39424 4.27131
# Velocity P-wave (km/s) = 7.68678 8.07465 7.88310
#
# Compressibility (1/GPa) = 0.00991483
#
# Stress axis : x y z
#
# Youngs Moduli (GPa) = 106.37133 160.78367 137.61514
#
# Poissons Ratio (x) = 0.52797 0.22395
# Poissons Ratio (y) = 0.34930 0.21675
# Poissons Ratio (z) = 0.17311 0.25324
#
# Static dielectric constant tensor:
#      x y z
#    x 2.197170 0.000000 0.087920 
#    y 0.000000 2.202420 0.000000 
#    z 0.087920 0.000000 2.316720 
# 
# From -- ./inp_files/215.got.cif
#   From: 2010.05.17/outbox.cif.g08.bks.cpg/sg4_1_cif.got.tgz:215.got - 2010.06.03 18:43:04.
