data_PCOD9119348
_publ_section_title
;
Structure prediction by ZEFSAII (Michael W. Deem and Ramdas Pophale) SiO2 
 PCOD9119348
Probable space group: P 21
;
_chemical_formula_sum "Si O2"
_cell_formula_units_Z 14
_cell_length_a 14.089297
_cell_length_b 7.616123
_cell_length_c 14.472307
_cell_angle_alpha 90.000000
_cell_angle_beta 159.999994
_cell_angle_gamma 90.000000
_cell_volume 531.144697
_symmetry_space_group_name_H-M "P 21"
_symmetry_group_IT_number 4
_symmetry_cell_setting 'monoclinic'
loop_
_space_group_symop_operation_xyz
x,y,z
-x,1/2+y,-z
loop_
_atom_site_type_symbol
_atom_site_label
_atom_site_fract_x
_atom_site_fract_y
_atom_site_fract_z
Si Si1 0.574640 0.965510 0.658708
Si Si2 0.858195 0.782967 0.174849
Si Si3 0.512364 0.810695 0.114978
Si Si4 0.058334 0.932945 0.845866
Si Si5 0.231759 0.107181 0.503307
Si Si6 0.115194 0.818872 0.107457
Si Si7 0.733190 0.186502 0.297061
O O1 0.305909 0.927608 0.351833
O O2 0.473063 0.010789 0.667664
O O3 0.740171 0.131924 0.771251
O O4 0.801494 0.812910 0.858188
O O5 0.986605 0.635878 0.223110
O O6 0.989510 0.731839 0.394624
O O7 0.529472 0.757892 0.883157
O O8 0.970014 0.977179 0.257729
O O9 0.688619 0.651748 0.318863
O O10 0.698833 0.977454 0.261387
O O11 0.316892 0.873595 0.019838
O O12 0.320663 0.760930 0.853728
O O13 0.826482 0.792825 0.600999
O O14 0.107888 0.900653 0.998365
#
# Coordination Sequence:
#
# PCOD9119348 Si02
#       7
#     2   2   2   2   2   2   2
#     4  12  28  50  80 116 153 206 255 325 396 468
#     4  11  28  47  76 115 158 201 267 313 389 460
#     4  11  25  46  81 108 164 199 264 319 396 456
#     4  11  26  52  76 111 162 207 255 331 389 460
#     4  12  26  50  79 113 156 211 260 322 394 470
#     4  12  27  52  78 115 157 199 261 322 394 468
#     4  11  26  47  74 120 150 211 254 324 384 466
#
# _framework density 26.358165
#
# number of rings (size 3 to 8) (size 9 to 14) (size 15 to 20)
#    0.000    0.571    2.857    3.429    8.000    0.000 
#    7.714    0.000    0.000    0.000    0.000    0.000 
#    0.000    0.000    0.000    0.000    0.000    0.000 
#
# Total GULP energy -78652.956281 kJ/mol
# GULP energy per Si atom -5618.068306 kJ/mol
# Density = 2.629817 g / cm^3
# Si number density = 26.358165 Si / 1000 Ang^3
#
#
#
# Elastic Constant Matrix: (Units=GPa)
#
#
# Indices 1 2 3 4 5 6 
#
# 1 89.4750 25.0093 20.3680 0.0000 -15.9957 0.0000
# 2 25.0093 97.6076 7.5572 0.0000 -13.1678 0.0000
# 3 20.3680 7.5572 93.5260 0.0000 -18.5056 0.0000
# 4 0.0000 0.0000 0.0000 47.5581 0.0000 2.4473
# 5 -15.9957 -13.1678 -18.5056 0.0000 53.6235 0.0000
# 6 0.0000 0.0000 0.0000 2.4473 0.0000 47.8974
#
#
#
# Elastic Compliance Matrix: (Units=1/GPa)
#
#
# Indices 1 2 3 4 5 6 
#
# 1 0.012872 -0.002809 -0.002096 0.000000 0.002427 0.000000
# 2 -0.002809 0.011221 0.000091 0.000000 0.001949 0.000000
# 3 -0.002096 0.000091 0.011830 0.000000 0.003479 0.000000
# 4 0.000000 0.000000 0.000000 0.021082 0.000000 -0.001077
# 5 0.002427 0.001949 0.003479 0.000000 0.021052 0.000000
# 6 0.000000 0.000000 0.000000 -0.001077 0.000000 0.020933
#
#
# Mechanical properties :
#
#
# Convention : Reuss Voigt Hill
#
# Bulk Modulus (GPa) = 38.03077 42.94195 40.48636
# Shear Modulus (GPa) = 42.59560 44.99408 43.79484
#
# Velocity S-wave (km/s) = 4.02435 4.13610 4.08061
# Velocity P-wave (km/s) = 6.00447 6.25594 6.13150
#
# Compressibility (1/GPa) = 0.02629450
#
# Stress axis : x y z
#
# Youngs Moduli (GPa) = 77.68603 89.12185 84.53179
#
# Poissons Ratio (x) = 0.25030 0.17720
# Poissons Ratio (y) = 0.21818 -0.00766
# Poissons Ratio (z) = 0.16285 -0.00807
#
# Static dielectric constant tensor:
#      x y z
#    x 2.036990 0.000000 0.032070 
#    y 0.000000 2.078820 0.000000 
#    z 0.032070 0.000000 2.020450 
# 
# From -- ./inp_files/14203.got.cif
#   From: 2010.05.17/outbox.cif.g08.bks.cpg/sg4_8_cif.got.tgz:14203.got - 2010.06.03 18:43:04.
