data_PCOD9119617
_publ_section_title
;
Structure prediction by ZEFSAII (Michael W. Deem and Ramdas Pophale) SiO2 
 PCOD9119617
Probable space group: P 21
;
_chemical_formula_sum "Si O2"
_cell_formula_units_Z 14
_cell_length_a 11.366530
_cell_length_b 8.956563
_cell_length_c 8.935497
_cell_angle_alpha 90.000000
_cell_angle_beta 139.639564
_cell_angle_gamma 90.000000
_cell_volume 589.102332
_symmetry_space_group_name_H-M "P 21"
_symmetry_group_IT_number 4
_symmetry_cell_setting 'monoclinic'
loop_
_space_group_symop_operation_xyz
x,y,z
-x,1/2+y,-z
loop_
_atom_site_type_symbol
_atom_site_label
_atom_site_fract_x
_atom_site_fract_y
_atom_site_fract_z
Si Si1 0.699811 0.513650 0.488054
Si Si2 0.171797 0.402775 0.675400
Si Si3 0.798838 0.842442 0.707101
Si Si4 0.172830 0.062071 0.720821
Si Si5 0.497994 0.944412 0.217080
Si Si6 0.730346 0.996487 0.910955
Si Si7 0.200679 0.805892 0.138838
O O1 0.760062 0.678364 0.602557
O O2 0.767111 0.496407 0.383264
O O3 0.483058 0.514742 0.277230
O O4 0.758509 0.384802 0.662629
O O5 0.120680 0.233270 0.654097
O O6 0.371639 0.397655 0.793856
O O7 0.013261 0.475936 0.423779
O O8 0.182708 0.491026 0.841844
O O9 0.658054 0.960388 0.495978
O O10 0.760407 0.845220 0.847099
O O11 0.011035 0.872261 0.900631
O O12 0.348460 0.053996 0.999754
O O13 0.361539 0.838406 0.176805
O O14 0.815093 0.127620 0.891586
#
# Coordination Sequence:
#
# PCOD9119617 Si02
#       7
#     2   2   2   2   2   2   2
#     4  12  24  51  73 106 148 192 251 308 377 442
#     4  12  28  50  76 110 155 199 253 309 380 453
#     4  12  25  47  74 107 142 192 249 309 371 445
#     4  12  28  49  75 112 151 203 248 311 377 456
#     4  12  26  46  76 104 151 195 250 309 371 451
#     4  12  25  49  74 107 149 192 248 309 376 447
#     4  12  26  48  76 104 148 193 245 315 370 444
#
# _framework density 23.764970999999999
#
# number of rings (size 3 to 8) (size 9 to 14) (size 15 to 20)
#    0.000    0.000    5.714    3.429    4.000    1.143 
#    7.714    0.000    0.000    0.000    0.000    0.000 
#    0.000    0.000    0.000    0.000    0.000    0.000 
#
# Total GULP energy -78177.399342 kJ/mol
# GULP energy per Si atom -5584.099953 kJ/mol
# Density = 2.371088 g / cm^3
# Si number density = 23.764971 Si / 1000 Ang^3
#
#
#
# Elastic Constant Matrix: (Units=GPa)
#
#
# Indices 1 2 3 4 5 6 
#
# 1 71.2764 14.1777 59.5191 0.0000 3.6064 0.0000
# 2 14.1777 64.3402 34.3633 0.0000 4.3393 0.0000
# 3 59.5191 34.3633 147.2041 0.0000 45.0182 0.0000
# 4 0.0000 0.0000 0.0000 32.2782 0.0000 1.6323
# 5 3.6064 4.3393 45.0182 0.0000 46.2902 0.0000
# 6 0.0000 0.0000 0.0000 1.6323 0.0000 11.3048
#
#
#
# Elastic Compliance Matrix: (Units=1/GPa)
#
#
# Indices 1 2 3 4 5 6 
#
# 1 0.024662 0.001111 -0.013680 0.000000 0.011279 0.000000
# 2 0.001111 0.018183 -0.005901 0.000000 0.003948 0.000000
# 3 -0.013680 -0.005901 0.018798 0.000000 -0.016662 0.000000
# 4 0.000000 0.000000 0.000000 0.031209 0.000000 -0.004506
# 5 0.011279 0.003948 -0.016662 0.000000 0.036559 0.000000
# 6 0.000000 0.000000 0.000000 -0.004506 0.000000 0.089108
#
#
# Mechanical properties :
#
#
# Convention : Reuss Voigt Hill
#
# Bulk Modulus (GPa) = 40.48216 55.43788 47.96002
# Shear Modulus (GPa) = 18.96142 29.62535 24.29338
#
# Velocity S-wave (km/s) = 2.82773 3.53455 3.20071
# Velocity P-wave (km/s) = 5.26619 6.32737 5.82101
#
# Compressibility (1/GPa) = 0.02470224
#
# Stress axis : x y z
#
# Youngs Moduli (GPa) = 40.54852 54.99613 53.19705
#
# Poissons Ratio (x) = -0.06112 0.72775
# Poissons Ratio (y) = -0.04507 0.31394
# Poissons Ratio (z) = 0.55472 0.32456
#
# Static dielectric constant tensor:
#      x y z
#    x 1.918110 0.000000 -0.034340 
#    y 0.000000 1.905230 0.000000 
#    z -0.034340 0.000000 1.899090 
# 
# From -- ./inp_files/7466.got.cif
#   From: 2010.05.17/outbox.cif.g08.bks.cpg/sg4_4_cif.got.tgz:7466.got - 2010.06.03 18:43:04.
