data_PCOD9119586
_publ_section_title
;
Structure prediction by ZEFSAII (Michael W. Deem and Ramdas Pophale) SiO2 
 PCOD9119586
Probable space group: P 21
;
_chemical_formula_sum "Si O2"
_cell_formula_units_Z 14
_cell_length_a 12.185210
_cell_length_b 10.365120
_cell_length_c 11.440992
_cell_angle_alpha 90.000000
_cell_angle_beta 156.698729
_cell_angle_gamma 90.000000
_cell_volume 571.596887
_symmetry_space_group_name_H-M "P 21"
_symmetry_group_IT_number 4
_symmetry_cell_setting 'monoclinic'
loop_
_space_group_symop_operation_xyz
x,y,z
-x,1/2+y,-z
loop_
_atom_site_type_symbol
_atom_site_label
_atom_site_fract_x
_atom_site_fract_y
_atom_site_fract_z
Si Si1 0.566996 0.349450 0.300954
Si Si2 0.802604 0.007334 0.555026
Si Si3 0.375495 0.761113 0.393852
Si Si4 0.258238 0.615411 0.045623
Si Si5 0.283364 0.036379 0.189568
Si Si6 0.049909 0.238606 0.656803
Si Si7 0.781351 0.723045 0.445608
O O1 0.709870 0.282729 0.554271
O O2 0.410293 0.477715 0.192380
O O3 0.813229 0.348142 0.446200
O O4 0.314295 0.272729 0.994390
O O5 0.480795 0.026453 0.269196
O O6 0.857601 0.862636 0.569765
O O7 0.908895 0.107213 0.563465
O O8 0.970491 0.027529 0.840055
O O9 0.239002 0.681115 0.153949
O O10 0.373390 0.908463 0.347399
O O11 0.649895 0.671946 0.682154
O O12 0.460650 0.700325 0.161719
O O13 0.959985 0.619363 0.693504
O O14 0.147687 0.221994 0.620438
#
# Coordination Sequence:
#
# PCOD9119586 Si02
#       7
#     2   2   2   2   2   2   2
#     4  12  27  46  72 105 142 184 230 290 351 412
#     4  12  24  46  70 102 136 190 230 282 346 418
#     4  12  24  48  68 106 140 184 230 290 346 422
#     4  12  27  46  72 105 142 184 230 290 351 412
#     4  12  26  44  70 102 146 182 234 282 354 420
#     4  12  27  48  71 103 141 184 236 287 346 415
#     4  12  27  48  71 103 141 184 236 287 346 415
#
# _framework density 24.492785000000001
#
# number of rings (size 3 to 8) (size 9 to 14) (size 15 to 20)
#    0.000    0.000    7.143    1.714    4.000    4.571 
#    0.000    0.000    0.000    0.000    0.000    0.000 
#    0.000    0.000    0.000    0.000    0.000    0.000 
#
# Total GULP energy -78326.023281 kJ/mol
# GULP energy per Si atom -5594.715949 kJ/mol
# Density = 2.443704 g / cm^3
# Si number density = 24.492785 Si / 1000 Ang^3
#
#
#
# Elastic Constant Matrix: (Units=GPa)
#
#
# Indices 1 2 3 4 5 6 
#
# 1 118.3098 -9.3326 14.4211 0.0000 3.8630 0.0000
# 2 -9.3326 88.4854 -1.1358 0.0000 -12.8740 0.0000
# 3 14.4211 -1.1358 76.9565 0.0000 12.1567 0.0000
# 4 0.0000 0.0000 0.0000 30.1045 0.0000 -1.5536
# 5 3.8630 -12.8740 12.1567 0.0000 32.1674 0.0000
# 6 0.0000 0.0000 0.0000 -1.5536 0.0000 32.4237
#
#
#
# Elastic Compliance Matrix: (Units=1/GPa)
#
#
# Indices 1 2 3 4 5 6 
#
# 1 0.008721 0.000887 -0.001608 0.000000 -0.000085 0.000000
# 2 0.000887 0.012118 -0.000783 0.000000 0.005039 0.000000
# 3 -0.001608 -0.000783 0.014148 0.000000 -0.005467 0.000000
# 4 0.000000 0.000000 0.000000 0.033300 0.000000 0.001596
# 5 -0.000085 0.005039 -0.005467 0.000000 0.035181 0.000000
# 6 0.000000 0.000000 0.000000 0.001596 0.000000 0.030918
#
#
# Mechanical properties :
#
#
# Convention : Reuss Voigt Hill
#
# Bulk Modulus (GPa) = 31.27142 32.40635 31.83888
# Shear Modulus (GPa) = 33.77159 37.59239 35.68199
#
# Velocity S-wave (km/s) = 3.71730 3.92195 3.82099
# Velocity P-wave (km/s) = 5.58746 5.81108 5.70037
#
# Compressibility (1/GPa) = 0.03197808
#
# Stress axis : x y z
#
# Youngs Moduli (GPa) = 114.66461 82.52201 70.68281
#
# Poissons Ratio (x) = -0.07318 0.11364
# Poissons Ratio (y) = -0.10169 0.05537
# Poissons Ratio (z) = 0.18436 0.06465
#
# Static dielectric constant tensor:
#      x y z
#    x 1.909360 0.000000 -0.003740 
#    y 0.000000 1.994320 0.000000 
#    z -0.003740 0.000000 1.893280 
# 
# From -- ./inp_files/12284.got.cif
#   From: 2010.05.17/outbox.cif.g08.bks.cpg/sg4_7_cif.got.tgz:12284.got - 2010.06.03 18:43:04.
