data_PCOD9119920
_publ_section_title
;
Structure prediction by ZEFSAII (Michael W. Deem and Ramdas Pophale) SiO2 
 PCOD9119920
Probable space group: C 2
;
_chemical_formula_sum "Si O2"
_cell_formula_units_Z 24
_cell_length_a 20.282685
_cell_length_b 6.466815
_cell_length_c 19.250325
_cell_angle_alpha 90.000000
_cell_angle_beta 160.050183
_cell_angle_gamma 90.000000
_cell_volume 861.507614
_symmetry_space_group_name_H-M "C 2"
_symmetry_group_IT_number 5
_symmetry_cell_setting 'monoclinic'
loop_
_space_group_symop_operation_xyz
x,y,z
-x,y,-z
1/2+x,1/2+y,z
1/2-x,1/2+y,-z
loop_
_atom_site_type_symbol
_atom_site_label
_atom_site_fract_x
_atom_site_fract_y
_atom_site_fract_z
Si Si1 0.868244 0.163310 0.682583
Si Si2 0.179506 0.059587 0.085959
Si Si3 0.045991 0.609224 0.774022
Si Si4 0.827670 0.969789 0.416274
Si Si5 0.000000 0.428688 0.000000
Si Si6 0.886842 0.087332 0.198338
Si Si7 0.000000 0.593754 0.500000
O O1 0.677290 0.063806 0.462158
O O2 0.805475 0.375913 0.655800
O O3 0.016688 0.218180 0.767871
O O4 0.973116 0.017885 0.844000
O O5 0.318996 0.032580 0.156814
O O6 0.114278 0.279061 0.058111
O O7 0.317425 0.977994 0.284785
O O8 0.057504 0.856236 0.769660
O O9 0.159551 0.597685 0.960153
O O10 0.672524 0.051884 0.207497
O O11 0.922570 0.758000 0.480415
O O12 0.997858 0.109795 0.615659
#
# Coordination Sequence:
#
# PCOD9119920 Si02
#       7
#     4   4   4   4   2   4   2
#     4   9  18  31  46  72 114 142 173 217 260 331
#     4   9  16  28  46  74 108 136 170 214 277 312
#     4  10  20  35  51  77 114 148 178 222 268 328
#     4   9  17  31  48  82 108 139 176 221 283 310
#     4   8  16  26  50  74 112 136 162 236 272 316
#     4  10  20  33  52  78 116 144 182 220 268 328
#     4  10  14  28  54  72 114 128 174 234 272 308
#
# _framework density 27.858141
#
# number of rings (size 3 to 8) (size 9 to 14) (size 15 to 20)
#    0.000    2.667    3.333    0.000    0.000    6.667 
#    0.000    0.000    0.000    0.000    0.000    4.667 
#   50.000    0.000    0.000    0.000    0.000    0.000 
#
# Total GULP energy -66887.060372 kJ/mol
# GULP energy per Si atom -5573.921698 kJ/mol
# Density = 2.779473 g / cm^3
# Si number density = 27.858141 Si / 1000 Ang^3
#
#
#
# Elastic Constant Matrix: (Units=GPa)
#
#
# Indices 1 2 3 4 5 6 
#
# 1 119.9354 20.3737 32.6224 0.0001 9.0695 0.0001
# 2 20.3737 31.9193 46.5172 0.0001 -4.0167 0.0001
# 3 32.6224 46.5172 364.9257 0.0001 -36.2027 0.0001
# 4 0.0001 0.0001 0.0001 22.2459 0.0001 -3.0084
# 5 9.0695 -4.0167 -36.2027 0.0001 51.4529 0.0001
# 6 0.0001 0.0001 0.0001 -3.0084 0.0001 34.6836
#
#
#
# Elastic Compliance Matrix: (Units=1/GPa)
#
#
# Indices 1 2 3 4 5 6 
#
# 1 0.009622 -0.005948 -0.000340 0.000000 -0.002400 0.000000
# 2 -0.005948 0.042165 -0.004744 0.000000 0.001003 0.000000
# 3 -0.000340 -0.004744 0.003596 0.000000 0.002219 0.000000
# 4 0.000000 0.000000 0.000000 0.045486 0.000000 0.003945
# 5 -0.002400 0.001003 0.002219 0.000000 0.021498 0.000000
# 6 0.000000 0.000000 0.000000 0.003945 0.000000 0.029174
#
#
# Mechanical properties :
#
#
# Convention : Reuss Voigt Hill
#
# Bulk Modulus (GPa) = 30.01291 79.53411 54.77351
# Shear Modulus (GPa) = 27.06937 49.49428 38.28183
#
# Velocity S-wave (km/s) = 3.12057 4.21961 3.71100
# Velocity P-wave (km/s) = 4.87656 7.23546 6.16979
#
# Compressibility (1/GPa) = 0.03331900
#
# Stress axis : x y z
#
# Youngs Moduli (GPa) = 103.92631 23.71645 278.12329
#
# Poissons Ratio (x) = 0.14107 0.09457
# Poissons Ratio (y) = 0.61817 1.31930
# Poissons Ratio (z) = 0.03534 0.11250
#
# Static dielectric constant tensor:
#      x y z
#    x 2.293310 0.000000 -0.022890 
#    y 0.000000 2.691070 0.000000 
#    z -0.022890 0.000000 2.164640 
# 
# From -- ./inp_files/67096.got.cif
#   From: 2010.05.17/outbox.cif.g08.bks.cpg/sg5_34_cif.got.tgz:67096.got - 2010.06.03 18:56:24.
