data_PCOD9119516
_publ_section_title
;
Structure prediction by ZEFSAII (Michael W. Deem and Ramdas Pophale) SiO2 
 PCOD9119516
Probable space group: P 21
;
_chemical_formula_sum "Si O2"
_cell_formula_units_Z 16
_cell_length_a 6.621728
_cell_length_b 9.236063
_cell_length_c 11.328248
_cell_angle_alpha 90.000000
_cell_angle_beta 89.992639
_cell_angle_gamma 90.000000
_cell_volume 692.820881
_symmetry_space_group_name_H-M "P 21"
_symmetry_group_IT_number 4
_symmetry_cell_setting 'monoclinic'
loop_
_space_group_symop_operation_xyz
x,y,z
-x,1/2+y,-z
loop_
_atom_site_type_symbol
_atom_site_label
_atom_site_fract_x
_atom_site_fract_y
_atom_site_fract_z
Si Si1 0.619629 0.070610 0.319084
Si Si2 0.922455 0.699159 0.393007
Si Si3 0.176540 0.442670 0.448578
Si Si4 0.077450 0.542894 0.892950
Si Si5 0.619699 0.671389 0.181001
Si Si6 0.823472 0.799402 0.948667
Si Si7 0.482021 0.370986 0.249932
Si Si8 0.740407 0.370991 0.750021
O O1 0.599830 0.243531 0.315277
O O2 0.743299 0.029559 0.201123
O O3 0.737916 0.018978 0.434187
O O4 0.406091 0.987396 0.312648
O O5 0.866047 0.778058 0.514400
O O6 0.743103 0.712443 0.299031
O O7 0.982026 0.533098 0.410041
O O8 0.114346 0.785383 0.339800
O O9 0.339900 0.447866 0.345891
O O10 0.017909 0.708971 0.909956
O O11 0.885514 0.456646 0.839862
O O12 0.133957 0.464029 0.014342
O O13 0.600027 0.498461 0.184720
O O14 0.406119 0.754563 0.187338
O O15 0.738195 0.723098 0.065981
O O16 0.659861 0.794139 0.846138
#
# Coordination Sequence:
#
# PCOD9119516 Si02
#       8
#     2   2   2   2   2   2   2   2
#     4  12  28  53  75 110 152 203 256 313 382 451
#     4  12  28  50  78 110 149 207 250 314 385 450
#     4  12  29  49  78 111 153 200 256 318 376 454
#     4  12  28  50  78 110 149 207 250 314 385 450
#     4  12  28  53  75 110 152 203 256 313 382 451
#     4  12  29  49  78 111 153 200 256 318 376 454
#     4  12  32  46  80 116 150 202 262 310 384 458
#     4  12  22  54  74 104 146 200 256 298 386 450
#
# _framework density 23.093993999999999
#
# number of rings (size 3 to 8) (size 9 to 14) (size 15 to 20)
#    0.000    0.000    7.500    0.000   17.500    0.000 
#    0.000    0.000    0.000    0.000    0.000    0.000 
#    0.000    0.000    0.000    0.000    0.000    0.000 
#
# Total GULP energy -89676.491489 kJ/mol
# GULP energy per Si atom -5604.780718 kJ/mol
# Density = 2.304143 g / cm^3
# Si number density = 23.093994 Si / 1000 Ang^3
#
#
#
# Elastic Constant Matrix: (Units=GPa)
#
#
# Indices 1 2 3 4 5 6 
#
# 1 56.5462 -0.0841 -3.0059 0.0000 -3.4930 0.0000
# 2 -0.0841 93.4724 -7.5212 0.0000 -0.7116 0.0000
# 3 -3.0059 -7.5212 53.8214 0.0000 3.3257 0.0000
# 4 0.0000 0.0000 0.0000 30.9283 0.0000 -2.2235
# 5 -3.4930 -0.7116 3.3257 0.0000 11.8712 0.0000
# 6 0.0000 0.0000 0.0000 -2.2235 0.0000 54.2775
#
#
#
# Elastic Compliance Matrix: (Units=1/GPa)
#
#
# Indices 1 2 3 4 5 6 
#
# 1 0.018038 0.000112 0.000707 0.000000 0.005116 0.000000
# 2 0.000112 0.010821 0.001502 0.000000 0.000261 0.000000
# 3 0.000707 0.001502 0.019142 0.000000 -0.005065 0.000000
# 4 0.000000 0.000000 0.000000 0.032428 0.000000 0.001328
# 5 0.005116 0.000261 -0.005065 0.000000 0.087178 0.000000
# 6 0.000000 0.000000 0.000000 0.001328 0.000000 0.018478
#
#
# Mechanical properties :
#
#
# Convention : Reuss Voigt Hill
#
# Bulk Modulus (GPa) = 18.99521 20.29084 19.64303
# Shear Modulus (GPa) = 25.12665 33.71214 29.41940
#
# Velocity S-wave (km/s) = 3.30209 3.82485 3.57304
# Velocity P-wave (km/s) = 4.77299 5.32083 5.05434
#
# Compressibility (1/GPa) = 0.05264486
#
# Stress axis : x y z
#
# Youngs Moduli (GPa) = 55.43711 92.41014 52.24024
#
# Poissons Ratio (x) = -0.01036 -0.03693
# Poissons Ratio (y) = -0.00621 -0.07848
# Poissons Ratio (z) = -0.03919 -0.13883
#
# Static dielectric constant tensor:
#      x y z
#    x 1.826290 0.000000 0.002350 
#    y 0.000000 1.918590 0.000000 
#    z 0.002350 0.000000 1.852610 
# 
# From -- ./inp_files/1343.got.cif
#   From: 2010.05.17/outbox.cif.g08.bks.cpg/sg4_1_cif.got.tgz:1343.got - 2010.06.03 18:43:04.
