data_PCOD9119072
_publ_section_title
;
Structure prediction by ZEFSAII (Michael W. Deem and Ramdas Pophale) SiO2 
 PCOD9119072
Probable space group: P 21
;
_chemical_formula_sum "Si O2"
_cell_formula_units_Z 16
_cell_length_a 27.166216
_cell_length_b 5.219584
_cell_length_c 27.595851
_cell_angle_alpha 90.000000
_cell_angle_beta 10.290201
_cell_angle_gamma 90.000000
_cell_volume 698.992987
_symmetry_space_group_name_H-M "P 21"
_symmetry_group_IT_number 4
_symmetry_cell_setting 'monoclinic'
loop_
_space_group_symop_operation_xyz
x,y,z
-x,1/2+y,-z
loop_
_atom_site_type_symbol
_atom_site_label
_atom_site_fract_x
_atom_site_fract_y
_atom_site_fract_z
Si Si1 0.968510 0.390330 0.501331
Si Si2 0.403557 0.394284 0.001224
Si Si3 0.435923 0.581862 0.246864
Si Si4 0.929004 0.209471 0.753373
Si Si5 0.661530 0.389323 0.501790
Si Si6 0.635565 0.895731 0.464699
Si Si7 0.067336 0.914206 0.964706
Si Si8 0.227452 0.392623 0.002647
O O1 0.676060 0.498599 0.764034
O O2 0.097622 0.640078 0.402278
O O3 0.199097 0.283126 0.240111
O O4 0.559546 0.241092 0.806992
O O5 0.173634 0.553059 0.193658
O O6 0.536347 0.742916 0.195541
O O7 0.182542 0.395421 0.499849
O O8 0.683617 0.395980 0.999803
O O9 0.926670 0.046572 0.804691
O O10 0.713637 0.637708 0.418042
O O11 0.426058 0.490221 0.767316
O O12 0.558097 0.138351 0.573482
O O13 0.952863 0.290138 0.242267
O O14 0.888922 0.971700 0.185234
O O15 0.374082 0.843088 0.683945
O O16 0.939737 0.667842 0.061311
#
# Coordination Sequence:
#
# PCOD9119072 Si02
#       8
#     2   2   2   2   2   2   2   2
#     4  12  28  47  74 105 144 187 236 291 370 452
#     4  11  26  46  70 107 138 185 238 304 360 429
#     4  11  24  43  73 100 140 182 246 297 356 424
#     4  11  24  43  73 100 140 182 246 297 356 424
#     4  12  26  44  70  98 152 188 236 292 352 444
#     4  12  26  45  68 107 138 189 236 289 370 428
#     4  12  24  45  74 101 138 179 238 305 358 426
#     4  11  26  43  66 106 136 198 240 293 354 425
#
# _framework density 22.890073999999998
#
# number of rings (size 3 to 8) (size 9 to 14) (size 15 to 20)
#    0.000    0.500    0.000    7.500   10.500    4.000 
#    0.000    0.000    0.000    0.000    0.000    0.000 
#    0.000    0.000    0.000    0.000    0.000    0.000 
#
# Total GULP energy -89241.297394 kJ/mol
# GULP energy per Si atom -5577.581087 kJ/mol
# Density = 2.283797 g / cm^3
# Si number density = 22.890074 Si / 1000 Ang^3
#
#
#
# Elastic Constant Matrix: (Units=GPa)
#
#
# Indices 1 2 3 4 5 6 
#
# 1 86.7312 40.7452 29.0761 0.0000 -6.3252 0.0000
# 2 40.7452 92.3491 19.2008 0.0000 3.2123 0.0000
# 3 29.0761 19.2008 165.7048 0.0000 -5.3617 0.0000
# 4 0.0000 0.0000 0.0000 50.4929 0.0000 6.0678
# 5 -6.3252 3.2123 -5.3617 0.0000 49.9616 0.0000
# 6 0.0000 0.0000 0.0000 6.0678 0.0000 118.3974
#
#
#
# Elastic Compliance Matrix: (Units=1/GPa)
#
#
# Indices 1 2 3 4 5 6 
#
# 1 0.015350 -0.006457 -0.001875 0.000000 0.002157 0.000000
# 2 -0.006457 0.013849 -0.000529 0.000000 -0.001765 0.000000
# 3 -0.001875 -0.000529 0.006441 0.000000 0.000488 0.000000
# 4 0.000000 0.000000 0.000000 0.019927 0.000000 -0.001021
# 5 0.002157 -0.001765 0.000488 0.000000 0.020454 0.000000
# 6 0.000000 0.000000 0.000000 -0.001021 0.000000 0.008498
#
#
# Mechanical properties :
#
#
# Convention : Reuss Voigt Hill
#
# Bulk Modulus (GPa) = 55.81508 58.09215 56.95361
# Shear Modulus (GPa) = 46.20445 60.82125 53.51285
#
# Velocity S-wave (km/s) = 4.49769 5.16030 4.84035
# Velocity P-wave (km/s) = 7.17002 7.80633 7.49493
#
# Compressibility (1/GPa) = 0.01791630
#
# Stress axis : x y z
#
# Youngs Moduli (GPa) = 65.14864 72.20808 155.25690
#
# Poissons Ratio (x) = 0.46628 0.29116
# Poissons Ratio (y) = 0.42069 0.08209
# Poissons Ratio (z) = 0.12217 0.03818
#
# Static dielectric constant tensor:
#      x y z
#    x 1.684490 0.000000 -0.003660 
#    y 0.000000 1.874370 0.000000 
#    z -0.003660 0.000000 1.813680 
# 
# From -- ./inp_files/16452.got.cif
#   From: 2010.05.17/outbox.cif.g08.bks.cpg/sg4_9_cif.got.tgz:16452.got - 2010.06.03 18:43:04.
