data_PCOD9119139
_publ_section_title
;
Structure prediction by ZEFSAII (Michael W. Deem and Ramdas Pophale) SiO2 
 PCOD9119139
Probable space group: P 21
;
_chemical_formula_sum "Si O2"
_cell_formula_units_Z 12
_cell_length_a 9.187479
_cell_length_b 8.642645
_cell_length_c 10.776664
_cell_angle_alpha 90.000000
_cell_angle_beta 142.295786
_cell_angle_gamma 90.000000
_cell_volume 523.340525
_symmetry_space_group_name_H-M "P 21"
_symmetry_group_IT_number 4
_symmetry_cell_setting 'monoclinic'
loop_
_space_group_symop_operation_xyz
x,y,z
-x,1/2+y,-z
loop_
_atom_site_type_symbol
_atom_site_label
_atom_site_fract_x
_atom_site_fract_y
_atom_site_fract_z
Si Si1 0.303161 0.939540 0.121469
Si Si2 0.299442 0.465156 0.805275
Si Si3 0.309818 0.268901 0.503136
Si Si4 0.076138 0.775013 0.563687
Si Si5 0.472676 0.488550 0.192069
Si Si6 0.845685 0.752998 0.872527
O O1 0.511591 0.912363 0.363300
O O2 0.449235 0.932540 0.091758
O O3 0.178169 0.104012 0.056587
O O4 0.109519 0.808324 0.016960
O O5 0.166720 0.600003 0.638533
O O6 0.125566 0.316784 0.675019
O O7 0.343277 0.520553 0.974174
O O8 0.276082 0.217432 0.340968
O O9 0.059979 0.310388 0.399262
O O10 0.422026 0.134481 0.664332
O O11 0.304761 0.878074 0.690234
O O12 0.291181 0.393758 0.154782
#
# Coordination Sequence:
#
# PCOD9119139 Si02
#       6
#     2   2   2   2   2   2
#     4  11  26  45  70 103 142 193 234 298 351 429
#     4  11  26  47  72 108 141 186 247 293 360 415
#     4  11  26  45  71 102 146 187 239 298 352 419
#     4  11  24  45  73 103 144 185 236 305 351 422
#     4  12  26  45  77 104 143 192 240 298 350 433
#     4  12  26  47  69 104 146 193 236 290 364 418
#
# _framework density 22.92962
#
# number of rings (size 3 to 8) (size 9 to 14) (size 15 to 20)
#    0.000    0.667    3.333    3.000    9.333    1.333 
#    6.000    0.000    0.000    0.000    0.000    0.000 
#    0.000    0.000    0.000    0.000    0.000    0.000 
#
# Total GULP energy -67166.819721 kJ/mol
# GULP energy per Si atom -5597.234977 kJ/mol
# Density = 2.287743 g / cm^3
# Si number density = 22.929620 Si / 1000 Ang^3
#
#
#
# Elastic Constant Matrix: (Units=GPa)
#
#
# Indices 1 2 3 4 5 6 
#
# 1 117.3691 42.8758 64.6622 0.0000 15.0797 0.0000
# 2 42.8758 63.4202 24.0945 0.0000 19.2106 0.0000
# 3 64.6622 24.0945 89.4272 0.0000 7.5958 0.0000
# 4 0.0000 0.0000 0.0000 41.3351 0.0000 11.9855
# 5 15.0797 19.2106 7.5958 0.0000 43.7151 0.0000
# 6 0.0000 0.0000 0.0000 11.9855 0.0000 37.9192
#
#
#
# Elastic Compliance Matrix: (Units=1/GPa)
#
#
# Indices 1 2 3 4 5 6 
#
# 1 0.016910 -0.007303 -0.010187 0.000000 -0.000854 0.000000
# 2 -0.007303 0.023119 -0.000304 0.000000 -0.007588 0.000000
# 3 -0.010187 -0.000304 0.018595 0.000000 0.000417 0.000000
# 4 0.000000 0.000000 0.000000 0.026634 0.000000 -0.008418
# 5 -0.000854 -0.007588 0.000417 0.000000 0.026432 0.000000
# 6 0.000000 0.000000 0.000000 -0.008418 0.000000 0.029033
#
#
# Mechanical properties :
#
#
# Convention : Reuss Voigt Hill
#
# Bulk Modulus (GPa) = 43.41066 59.27573 51.34320
# Shear Modulus (GPa) = 27.17560 33.83280 30.50420
#
# Velocity S-wave (km/s) = 3.44637 3.84540 3.65134
# Velocity P-wave (km/s) = 5.89999 6.75451 6.34166
#
# Compressibility (1/GPa) = 0.02303582
#
# Stress axis : x y z
#
# Youngs Moduli (GPa) = 59.13622 43.25417 53.77914
#
# Poissons Ratio (x) = 0.31590 0.54784
# Poissons Ratio (y) = 0.43190 0.01633
# Poissons Ratio (z) = 0.60242 0.01313
#
# Static dielectric constant tensor:
#      x y z
#    x 1.810940 0.000000 0.013780 
#    y 0.000000 1.891070 0.000000 
#    z 0.013780 0.000000 1.855230 
# 
# From -- ./inp_files/10275.got.cif
#   From: 2010.05.17/outbox.cif.g08.bks.cpg/sg4_6_cif.got.tgz:10275.got - 2010.06.03 18:43:04.
