data_PCOD9119679
_publ_section_title
;
Structure prediction by ZEFSAII (Michael W. Deem and Ramdas Pophale) SiO2 
 PCOD9119679
Probable space group: P 21
;
_chemical_formula_sum "Si O2"
_cell_formula_units_Z 16
_cell_length_a 9.802471
_cell_length_b 9.599757
_cell_length_c 12.774594
_cell_angle_alpha 90.000000
_cell_angle_beta 146.208854
_cell_angle_gamma 90.000000
_cell_volume 668.572150
_symmetry_space_group_name_H-M "P 21"
_symmetry_group_IT_number 4
_symmetry_cell_setting 'monoclinic'
loop_
_space_group_symop_operation_xyz
x,y,z
-x,1/2+y,-z
loop_
_atom_site_type_symbol
_atom_site_label
_atom_site_fract_x
_atom_site_fract_y
_atom_site_fract_z
Si Si1 0.536567 0.786160 0.959002
Si Si2 0.842268 0.344083 0.451738
Si Si3 0.868553 0.024523 0.069672
Si Si4 0.011047 0.638334 0.284032
Si Si5 0.714961 0.327850 0.983626
Si Si6 0.857548 0.997197 0.823906
Si Si7 0.688416 0.579603 0.491398
Si Si8 0.720473 0.884275 0.426219
O O1 0.350484 0.764177 0.744670
O O2 0.376690 0.834871 0.955794
O O3 0.717158 0.659651 0.105906
O O4 0.713544 0.907965 0.030535
O O5 0.871505 0.266423 0.579896
O O6 0.766541 0.500585 0.433979
O O7 0.095506 0.345842 0.550895
O O8 0.103149 0.057217 0.289438
O O9 0.708551 0.164527 0.954761
O O10 0.933093 0.985921 0.992491
O O11 0.061323 0.631568 0.192228
O O12 0.144325 0.506565 0.423895
O O13 0.536635 0.416038 0.794795
O O14 0.990420 0.377543 0.137796
O O15 0.564277 0.005997 0.635372
O O16 0.671576 0.744494 0.461199
#
# Coordination Sequence:
#
# PCOD9119679 Si02
#       8
#     2   2   2   2   2   2   2   2
#     4  12  27  51  82 118 165 213 282 342 406 497
#     4  12  25  49  83 115 162 215 272 342 413 483
#     4  12  27  52  82 111 168 215 274 341 421 489
#     4  12  29  47  76 122 157 216 277 336 413 494
#     4  12  28  51  83 119 161 221 279 345 417 502
#     4  12  30  49  79 115 160 211 271 338 421 490
#     4  12  26  52  79 113 162 213 269 341 407 500
#     4  12  26  51  80 119 163 212 280 341 412 485
#
# _framework density 23.931597
#
# number of rings (size 3 to 8) (size 9 to 14) (size 15 to 20)
#    0.000    0.000    5.000    3.000    8.750    2.000 
#    0.000    0.000    0.000    0.000    0.000    0.000 
#    0.000    0.000    0.000    0.000    0.000    0.000 
#
# Total GULP energy -89557.444859 kJ/mol
# GULP energy per Si atom -5597.340304 kJ/mol
# Density = 2.387713 g / cm^3
# Si number density = 23.931597 Si / 1000 Ang^3
#
#
#
# Elastic Constant Matrix: (Units=GPa)
#
#
# Indices 1 2 3 4 5 6 
#
# 1 139.8061 26.5277 29.3268 0.0000 0.9285 0.0000
# 2 26.5277 80.9935 37.8499 0.0000 2.0481 0.0000
# 3 29.3268 37.8499 91.1602 0.0000 1.8533 0.0000
# 4 0.0000 0.0000 0.0000 46.3334 0.0000 0.3210
# 5 0.9285 2.0481 1.8533 0.0000 42.7658 0.0000
# 6 0.0000 0.0000 0.0000 0.3210 0.0000 44.2186
#
#
#
# Elastic Compliance Matrix: (Units=1/GPa)
#
#
# Indices 1 2 3 4 5 6 
#
# 1 0.007861 -0.001728 -0.001811 0.000000 -0.000009 0.000000
# 2 -0.001728 0.015708 -0.005957 0.000000 -0.000457 0.000000
# 3 -0.001811 -0.005957 0.014031 0.000000 -0.000283 0.000000
# 4 0.000000 0.000000 0.000000 0.021584 0.000000 -0.000157
# 5 -0.000009 -0.000457 -0.000283 0.000000 0.023418 0.000000
# 6 0.000000 0.000000 0.000000 -0.000157 0.000000 0.022616
#
#
# Mechanical properties :
#
#
# Convention : Reuss Voigt Hill
#
# Bulk Modulus (GPa) = 53.73999 55.48540 54.61270
# Shear Modulus (GPa) = 38.34010 41.21392 39.77701
#
# Velocity S-wave (km/s) = 4.00693 4.15439 4.08132
# Velocity P-wave (km/s) = 6.62659 6.80053 6.71413
#
# Compressibility (1/GPa) = 0.01860812
#
# Stress axis : x y z
#
# Youngs Moduli (GPa) = 127.21636 63.66228 71.26876
#
# Poissons Ratio (x) = 0.11000 0.12908
# Poissons Ratio (y) = 0.21982 0.42453
# Poissons Ratio (z) = 0.23041 0.37922
#
# Static dielectric constant tensor:
#      x y z
#    x 1.881610 0.000000 -0.002760 
#    y 0.000000 1.958500 0.000000 
#    z -0.002760 0.000000 1.935120 
# 
# From -- ./inp_files/11106.got.cif
#   From: 2010.05.17/outbox.cif.g08.bks.cpg/sg4_6_cif.got.tgz:11106.got - 2010.06.03 18:43:04.
