data_PCOD9119068
_publ_section_title
;
Structure prediction by ZEFSAII (Michael W. Deem and Ramdas Pophale) SiO2 
 PCOD9119068
Probable space group: P 21
;
_chemical_formula_sum "Si O2"
_cell_formula_units_Z 12
_cell_length_a 18.794565
_cell_length_b 5.233758
_cell_length_c 21.193831
_cell_angle_alpha 90.000000
_cell_angle_beta 12.210488
_cell_angle_gamma 90.000000
_cell_volume 440.933779
_symmetry_space_group_name_H-M "P 21"
_symmetry_group_IT_number 4
_symmetry_cell_setting 'monoclinic'
loop_
_space_group_symop_operation_xyz
x,y,z
-x,1/2+y,-z
loop_
_atom_site_type_symbol
_atom_site_label
_atom_site_fract_x
_atom_site_fract_y
_atom_site_fract_z
Si Si1 0.325885 0.589550 0.269801
Si Si2 0.655739 0.381255 0.198638
Si Si3 0.345583 0.270757 0.898161
Si Si4 0.954172 0.591430 0.327460
Si Si5 0.619647 0.758067 0.427473
Si Si6 0.876208 0.094232 0.685319
O O1 0.614600 0.601955 0.072410
O O2 0.404297 0.599216 0.126708
O O3 0.112463 0.337739 0.468198
O O4 0.096149 0.840374 0.481540
O O5 0.796482 0.625604 0.038838
O O6 0.325884 0.302811 0.444231
O O7 0.520131 0.383412 0.386902
O O8 0.981887 0.202681 0.917174
O O9 0.709697 0.360827 0.559783
O O10 0.145880 0.511513 0.098664
O O11 0.201350 0.617788 0.173140
O O12 0.442179 0.485977 0.569227
#
# Coordination Sequence:
#
# PCOD9119068 Si02
#       6
#     2   2   2   2   2   2
#     4   9  18  38  64  97 145 199 255 316 375 438
#     4  12  26  48  80 110 152 198 248 322 378 470
#     4  11  24  43  71 109 149 201 257 314 379 448
#     4  11  24  43  71 109 149 201 257 314 379 448
#     4  12  30  52  80 114 150 196 246 310 394 476
#     4   9  18  38  64  97 145 199 255 316 375 438
#
# _framework density 27.214973000000001
#
# number of rings (size 3 to 8) (size 9 to 14) (size 15 to 20)
#    0.000    1.333    1.667    3.000    7.000    0.000 
#    0.000   13.333    0.000    0.000    0.000    0.000 
#    0.000    0.000    0.000    0.000    0.000    0.000 
#
# Total GULP energy -67197.879844 kJ/mol
# GULP energy per Si atom -5599.823320 kJ/mol
# Density = 2.715303 g / cm^3
# Si number density = 27.214973 Si / 1000 Ang^3
#
#
#
# Elastic Constant Matrix: (Units=GPa)
#
#
# Indices 1 2 3 4 5 6 
#
# 1 117.0759 25.4174 35.6613 0.0000 28.2870 0.0000
# 2 25.4174 143.0778 33.0740 0.0000 0.6507 0.0000
# 3 35.6613 33.0740 127.1342 0.0000 11.8273 0.0000
# 4 0.0000 0.0000 0.0000 36.3949 0.0000 -4.3545
# 5 28.2870 0.6507 11.8273 0.0000 31.5743 0.0000
# 6 0.0000 0.0000 0.0000 -4.3545 0.0000 47.5532
#
#
#
# Elastic Compliance Matrix: (Units=1/GPa)
#
#
# Indices 1 2 3 4 5 6 
#
# 1 0.011881 -0.001604 -0.001998 0.000000 -0.009863 0.000000
# 2 -0.001604 0.007664 -0.001723 0.000000 0.001924 0.000000
# 3 -0.001998 -0.001723 0.009019 0.000000 -0.001553 0.000000
# 4 0.000000 0.000000 0.000000 0.027781 0.000000 0.002544
# 5 -0.009863 0.001924 -0.001553 0.000000 0.041049 0.000000
# 6 0.000000 0.000000 0.000000 0.002544 0.000000 0.021262
#
#
# Mechanical properties :
#
#
# Convention : Reuss Voigt Hill
#
# Bulk Modulus (GPa) = 55.82138 63.95481 59.88809
# Shear Modulus (GPa) = 36.96137 42.64685 39.80411
#
# Velocity S-wave (km/s) = 3.68927 3.96288 3.82852
# Velocity P-wave (km/s) = 6.22121 6.67009 6.44955
#
# Compressibility (1/GPa) = 0.01791428
#
# Stress axis : x y z
#
# Youngs Moduli (GPa) = 84.16648 130.48629 110.87989
#
# Poissons Ratio (x) = 0.20930 0.22153
# Poissons Ratio (y) = 0.13500 0.19102
# Poissons Ratio (z) = 0.16816 0.22480
#
# Static dielectric constant tensor:
#      x y z
#    x 2.191700 0.000000 -0.079680 
#    y 0.000000 2.157740 0.000000 
#    z -0.079680 0.000000 2.044570 
# 
# From -- ./inp_files/16186.got.cif
#   From: 2010.05.17/outbox.cif.g08.bks.cpg/sg4_9_cif.got.tgz:16186.got - 2010.06.03 18:43:04.
