data_PCOD9119704
_publ_section_title
;
Structure prediction by ZEFSAII (Michael W. Deem and Ramdas Pophale) SiO2 
 PCOD9119704
Probable space group: P 21
;
_chemical_formula_sum "Si O2"
_cell_formula_units_Z 14
_cell_length_a 23.338257
_cell_length_b 5.244773
_cell_length_c 5.011158
_cell_angle_alpha 90.000000
_cell_angle_beta 57.377303
_cell_angle_gamma 90.000000
_cell_volume 516.616780
_symmetry_space_group_name_H-M "P 21"
_symmetry_group_IT_number 4
_symmetry_cell_setting 'monoclinic'
loop_
_space_group_symop_operation_xyz
x,y,z
-x,1/2+y,-z
loop_
_atom_site_type_symbol
_atom_site_label
_atom_site_fract_x
_atom_site_fract_y
_atom_site_fract_z
Si Si1 0.378864 0.495540 0.353555
Si Si2 0.879529 0.825410 0.238861
Si Si3 0.706121 0.358262 0.108477
Si Si4 0.851181 0.160467 0.783079
Si Si5 0.266604 0.163965 0.447740
Si Si6 0.541039 0.851873 0.368568
Si Si7 0.038947 0.007399 0.321958
O O1 0.358796 0.737799 0.582418
O O2 0.308436 0.420631 0.384477
O O3 0.404688 0.312862 0.527809
O O4 0.430715 0.472125 0.978614
O O5 0.809022 0.680793 0.471345
O O6 0.891159 0.019486 0.447540
O O7 0.939302 0.631820 0.013618
O O8 0.861887 0.999043 0.024907
O O9 0.735321 0.552059 0.252855
O O10 0.771359 0.171531 0.912353
O O11 0.692176 0.487054 0.860911
O O12 0.999685 0.237250 0.567104
O O13 0.887984 0.431236 0.734203
O O14 0.492453 0.077904 0.601026
#
# Coordination Sequence:
#
# PCOD9119704 Si02
#       7
#     2   2   2   2   2   2   2
#     4  12  28  49  80 117 162 216 282 332 408 492
#     4  12  27  52  79 119 167 214 271 350 425 486
#     4  12  26  45  80 122 163 207 269 348 423 487
#     4  12  27  52  79 119 167 214 271 350 425 486
#     4  12  26  45  80 122 163 207 269 348 423 487
#     4  12  30  54  80 118 170 224 272 332 398 484
#     4  12  28  57  82 121 162 228 284 336 408 512
#
# _framework density 27.099388999999999
#
# number of rings (size 3 to 8) (size 9 to 14) (size 15 to 20)
#    0.000    0.000    4.286    4.286    8.000    0.000 
#    5.143    0.000    0.000    0.000    0.000    0.000 
#    0.000    0.000    0.000    0.000    0.000    0.000 
#
# Total GULP energy -78487.795824 kJ/mol
# GULP energy per Si atom -5606.271130 kJ/mol
# Density = 2.703771 g / cm^3
# Si number density = 27.099389 Si / 1000 Ang^3
#
#
#
# Elastic Constant Matrix: (Units=GPa)
#
#
# Indices 1 2 3 4 5 6 
#
# 1 90.9455 19.1935 20.1187 0.0000 20.8279 0.0000
# 2 19.1935 119.8555 43.8154 0.0000 4.0283 0.0000
# 3 20.1187 43.8154 147.8994 0.0000 22.7620 0.0000
# 4 0.0000 0.0000 0.0000 47.2888 0.0000 7.4782
# 5 20.8279 4.0283 22.7620 0.0000 44.4151 0.0000
# 6 0.0000 0.0000 0.0000 7.4782 0.0000 49.7546
#
#
#
# Elastic Compliance Matrix: (Units=1/GPa)
#
#
# Indices 1 2 3 4 5 6 
#
# 1 0.012726 -0.001719 -0.000356 0.000000 -0.005630 0.000000
# 2 -0.001719 0.009605 -0.002824 0.000000 0.001382 0.000000
# 3 -0.000356 -0.002824 0.008231 0.000000 -0.003795 0.000000
# 4 0.000000 0.000000 0.000000 0.021662 0.000000 -0.003256
# 5 -0.005630 0.001382 -0.003795 0.000000 0.026974 0.000000
# 6 0.000000 0.000000 0.000000 -0.003256 0.000000 0.020588
#
#
# Mechanical properties :
#
#
# Convention : Reuss Voigt Hill
#
# Bulk Modulus (GPa) = 48.15998 58.32842 53.24420
# Shear Modulus (GPa) = 42.91697 46.66322 44.79009
#
# Velocity S-wave (km/s) = 3.98387 4.15411 4.06988
# Velocity P-wave (km/s) = 6.24275 6.67679 6.46341
#
# Compressibility (1/GPa) = 0.02076413
#
# Stress axis : x y z
#
# Youngs Moduli (GPa) = 78.57760 104.11621 121.49919
#
# Poissons Ratio (x) = 0.17895 0.04320
# Poissons Ratio (y) = 0.13506 0.34315
# Poissons Ratio (z) = 0.02794 0.29406
#
# Static dielectric constant tensor:
#      x y z
#    x 2.132590 0.000000 -0.092910 
#    y 0.000000 2.160580 0.000000 
#    z -0.092910 0.000000 2.139850 
# 
# From -- ./inp_files/4356.got.cif
#   From: 2010.05.17/outbox.cif.g08.bks.cpg/sg4_3_cif.got.tgz:4356.got - 2010.06.03 18:43:04.
