data_PCOD9119961
_publ_section_title
;
Structure prediction by ZEFSAII (Michael W. Deem and Ramdas Pophale) SiO2 
 PCOD9119961
Probable space group: C 2
;
_chemical_formula_sum "Si O2"
_cell_formula_units_Z 28
_cell_length_a 28.456816
_cell_length_b 5.605690
_cell_length_c 7.090213
_cell_angle_alpha 90.000000
_cell_angle_beta 88.687419
_cell_angle_gamma 90.000000
_cell_volume 1130.734629
_symmetry_space_group_name_H-M "C 2"
_symmetry_group_IT_number 5
_symmetry_cell_setting 'monoclinic'
loop_
_space_group_symop_operation_xyz
x,y,z
-x,y,-z
1/2+x,1/2+y,z
1/2-x,1/2+y,-z
loop_
_atom_site_type_symbol
_atom_site_label
_atom_site_fract_x
_atom_site_fract_y
_atom_site_fract_z
Si Si1 0.863891 0.862240 0.502886
Si Si2 0.500000 0.044406 0.000000
Si Si3 0.606387 0.874497 0.476778
Si Si4 0.954171 0.905699 0.243020
Si Si5 0.500000 0.786330 0.500000
Si Si6 0.307851 0.884556 0.966017
Si Si7 0.094325 0.277174 0.931758
Si Si8 0.713417 0.383581 0.810511
O O1 0.863421 0.600982 0.593468
O O2 0.913684 0.831258 0.388331
O O3 0.818404 0.881916 0.373202
O O4 0.872991 0.119063 0.594703
O O5 0.490336 0.208356 0.180741
O O6 0.452216 0.904255 0.995789
O O7 0.550384 0.899484 0.444085
O O8 0.608129 0.841275 0.710651
O O9 0.984264 0.118487 0.327986
O O10 0.922305 0.002437 0.073297
O O11 0.363183 0.856088 0.946402
O O12 0.296948 0.638266 0.086346
O O13 0.299980 0.139626 0.074289
O O14 0.270227 0.876308 0.799678
#
# Coordination Sequence:
#
# PCOD9119961 Si02
#       8
#     4   2   4   4   2   4   4   4
#     4  10  16  30  46  67  96 129 166 200 256 300
#     4  12  20  32  54  70 102 150 184 200 256 308
#     4  10  18  30  48  66  95 132 162 210 248 298
#     4  10  20  34  50  70 103 142 173 217 249 309
#     4   8  20  34  48  72  98 138 176 214 262 288
#     4  10  18  26  45  64  97 130 170 200 250 306
#     4  10  19  32  43  71  97 141 176 206 250 307
#     4  10  16  27  43  69  92 132 164 202 253 315
#
# _framework density 24.762663
#
# number of rings (size 3 to 8) (size 9 to 14) (size 15 to 20)
#    0.000    2.286    5.714    0.429    0.000    2.286 
#    0.000    0.000    0.000    0.000    0.000    0.000 
#    0.000    0.000   58.286    2.571    0.286    0.000 
#
# Total GULP energy -78067.294373 kJ/mol
# GULP energy per Si atom -5576.235312 kJ/mol
# Density = 2.470630 g / cm^3
# Si number density = 24.762663 Si / 1000 Ang^3
#
#
#
# Elastic Constant Matrix: (Units=GPa)
#
#
# Indices 1 2 3 4 5 6 
#
# 1 167.5499 45.6641 35.7237 0.0000 52.0797 0.0000
# 2 45.6641 160.5685 21.5552 0.0000 10.9846 0.0000
# 3 35.7237 21.5552 66.9688 0.0000 15.8462 0.0000
# 4 0.0000 0.0000 0.0000 12.0651 0.0000 -19.9137
# 5 52.0797 10.9846 15.8462 0.0000 35.2210 0.0000
# 6 0.0000 0.0000 0.0000 -19.9137 0.0000 3.3200
#
#
#
# Elastic Compliance Matrix: (Units=1/GPa)
#
#
# Indices 1 2 3 4 5 6 
#
# 1 0.011964 -0.002040 -0.001891 0.000000 -0.016204 0.000000
# 2 -0.002040 0.006904 -0.001498 0.000000 0.001537 0.000000
# 3 -0.001891 -0.001498 0.017516 0.000000 -0.004617 0.000000
# 4 0.000000 0.000000 0.000000 -0.009313 0.000000 -0.055859
# 5 -0.016204 0.001537 -0.004617 0.000000 0.053950 0.000000
# 6 0.000000 0.000000 0.000000 -0.055859 0.000000 -0.033843
#
#
# Mechanical properties :
#
#
# Convention : Reuss Voigt Hill
#
# Bulk Modulus (GPa) = 39.17616 66.77478 52.97547
# Shear Modulus (GPa) = 75.13760 29.59750 52.36755
#
# Velocity S-wave (km/s) = 5.51443 3.46099 4.60366
# Velocity P-wave (km/s) = 7.51001 6.55711 7.04968
#
# Compressibility (1/GPa) = 0.02552573
#
# Stress axis : x y z
#
# Youngs Moduli (GPa) = 83.58180 144.84482 57.09156
#
# Poissons Ratio (x) = 0.29550 0.10798
# Poissons Ratio (y) = 0.17052 0.08550
# Poissons Ratio (z) = 0.15809 0.21692
#
# Static dielectric constant tensor:
#      x y z
#    x 1.907660 0.000000 0.019280 
#    y 0.000000 2.114370 0.000000 
#    z 0.019280 0.000000 1.987780 
# 
# From -- ./inp_files/47635.got.cif
#   From: 2010.05.17/outbox.cif.g08.bks.cpg/sg5_24_cif.got.tgz:47635.got - 2010.06.03 18:56:24.
