data_PCOD9119308
_publ_section_title
;
Structure prediction by ZEFSAII (Michael W. Deem and Ramdas Pophale) SiO2 
 PCOD9119308
Probable space group: P 21
;
_chemical_formula_sum "Si O2"
_cell_formula_units_Z 14
_cell_length_a 8.721235
_cell_length_b 5.937008
_cell_length_c 18.498769
_cell_angle_alpha 90.000000
_cell_angle_beta 31.568925
_cell_angle_gamma 90.000000
_cell_volume 501.446903
_symmetry_space_group_name_H-M "P 21"
_symmetry_group_IT_number 4
_symmetry_cell_setting 'monoclinic'
loop_
_space_group_symop_operation_xyz
x,y,z
-x,1/2+y,-z
loop_
_atom_site_type_symbol
_atom_site_label
_atom_site_fract_x
_atom_site_fract_y
_atom_site_fract_z
Si Si1 0.995986 0.559410 0.401913
Si Si2 0.017945 0.930430 0.082829
Si Si3 0.606643 0.101429 0.147775
Si Si4 0.562009 0.898370 0.656142
Si Si5 0.963041 0.449882 0.696460
Si Si6 0.644724 0.678186 0.948136
Si Si7 0.574195 0.793413 0.385065
O O1 0.777648 0.742354 0.523999
O O2 0.772438 0.352959 0.477904
O O3 0.235251 0.531473 0.367903
O O4 0.122700 0.680816 0.279469
O O5 0.208361 0.141017 0.032699
O O6 0.783024 0.904778 0.241130
O O7 0.255211 0.730396 0.975557
O O8 0.825095 0.912640 0.088190
O O9 0.624896 0.261588 0.211196
O O10 0.266740 0.037725 0.273676
O O11 0.406560 0.044500 0.657321
O O12 0.874030 0.635905 0.791535
O O13 0.292194 0.388484 0.594172
O O14 0.521914 0.931998 0.994787
#
# Coordination Sequence:
#
# PCOD9119308 Si02
#       7
#     2   2   2   2   2   2   2
#     4  12  25  46  76 109 151 199 263 322 401 496
#     4  11  25  45  76 110 153 199 271 321 407 489
#     4  12  25  47  77 116 152 214 267 335 404 498
#     4  12  25  47  76 108 158 198 264 329 408 486
#     4  11  28  46  77 114 155 207 270 328 418 486
#     4  11  26  51  75 112 160 205 263 342 414 491
#     4  11  26  50  71 115 147 206 252 337 404 486
#
# _framework density 27.919208000000001
#
# number of rings (size 3 to 8) (size 9 to 14) (size 15 to 20)
#    0.000    0.571    4.286    2.571    6.000    2.286 
#    0.000    0.000    0.000    0.000    0.000    0.000 
#    0.000    0.000    0.000    0.000    0.000    0.000 
#
# Total GULP energy -77950.383595 kJ/mol
# GULP energy per Si atom -5567.884543 kJ/mol
# Density = 2.785566 g / cm^3
# Si number density = 27.919208 Si / 1000 Ang^3
#
#
#
# Elastic Constant Matrix: (Units=GPa)
#
#
# Indices 1 2 3 4 5 6 
#
# 1 162.5779 49.9188 43.6261 0.0000 -19.7750 0.0000
# 2 49.9188 57.7240 44.2416 0.0000 -3.3868 0.0000
# 3 43.6261 44.2416 103.5206 0.0000 -18.5878 0.0000
# 4 0.0000 0.0000 0.0000 44.8109 0.0000 8.0949
# 5 -19.7750 -3.3868 -18.5878 0.0000 44.2950 0.0000
# 6 0.0000 0.0000 0.0000 8.0949 0.0000 39.3060
#
#
#
# Elastic Compliance Matrix: (Units=1/GPa)
#
#
# Indices 1 2 3 4 5 6 
#
# 1 0.008852 -0.007534 0.000103 0.000000 0.003419 0.000000
# 2 -0.007534 0.032515 -0.011765 0.000000 -0.005814 0.000000
# 3 0.000103 -0.011765 0.015672 0.000000 0.005723 0.000000
# 4 0.000000 0.000000 0.000000 0.023178 0.000000 -0.004773
# 5 0.003419 -0.005814 0.005723 0.000000 0.026059 0.000000
# 6 0.000000 0.000000 0.000000 -0.004773 0.000000 0.026424
#
#
# Mechanical properties :
#
#
# Convention : Reuss Voigt Hill
#
# Bulk Modulus (GPa) = 53.62520 66.59950 60.11235
# Shear Modulus (GPa) = 28.19945 38.08479 33.14212
#
# Velocity S-wave (km/s) = 3.18156 3.69739 3.44913
# Velocity P-wave (km/s) = 5.72236 6.49105 6.11879
#
# Compressibility (1/GPa) = 0.01864795
#
# Stress axis : x y z
#
# Youngs Moduli (GPa) = 112.96449 30.75530 63.80782
#
# Poissons Ratio (x) = 0.23170 -0.00657
# Poissons Ratio (y) = 0.85104 0.75069
# Poissons Ratio (z) = -0.01164 0.36183
#
# Static dielectric constant tensor:
#      x y z
#    x 2.290800 0.000000 -0.011050 
#    y 0.000000 2.329110 0.000000 
#    z -0.011050 0.000000 2.369430 
# 
# From -- ./inp_files/8755.got.cif
#   From: 2010.05.17/outbox.cif.g08.bks.cpg/sg4_5_cif.got.tgz:8755.got - 2010.06.03 18:43:04.
