data_PCOD9119342
_publ_section_title
;
Structure prediction by ZEFSAII (Michael W. Deem and Ramdas Pophale) SiO2 
 PCOD9119342
Probable space group: P 21
;
_chemical_formula_sum "Si O2"
_cell_formula_units_Z 12
_cell_length_a 7.895767
_cell_length_b 5.076665
_cell_length_c 13.888867
_cell_angle_alpha 90.000000
_cell_angle_beta 124.819461
_cell_angle_gamma 90.000000
_cell_volume 457.045216
_symmetry_space_group_name_H-M "P 21"
_symmetry_group_IT_number 4
_symmetry_cell_setting 'monoclinic'
loop_
_space_group_symop_operation_xyz
x,y,z
-x,1/2+y,-z
loop_
_atom_site_type_symbol
_atom_site_label
_atom_site_fract_x
_atom_site_fract_y
_atom_site_fract_z
Si Si1 0.398111 0.021810 0.499795
Si Si2 0.770489 0.534804 0.045179
Si Si3 0.619280 0.919128 0.758597
Si Si4 0.894248 0.416599 0.871804
Si Si5 0.970753 0.971390 0.421342
Si Si6 0.648236 0.195413 0.171113
O O1 0.458956 0.327664 0.516070
O O2 0.158699 0.973529 0.405945
O O3 0.448747 0.913167 0.621619
O O4 0.794274 0.362446 0.148397
O O5 0.879606 0.821735 0.088251
O O6 0.878685 0.419662 0.983882
O O7 0.526550 0.535348 0.943342
O O8 0.777738 0.677958 0.800909
O O9 0.498674 0.898633 0.818902
O O10 0.747813 0.181446 0.790720
O O11 0.768695 0.030348 0.291862
O O12 0.022348 0.205375 0.514072
#
# Coordination Sequence:
#
# PCOD9119342 Si02
#       6
#     2   2   2   2   2   2
#     4  12  27  50  78 116 154 202 264 320 391 457
#     4  11  25  48  77 118 155 207 262 320 390 463
#     4  11  25  49  75 111 155 205 252 329 379 465
#     4  11  25  46  77 111 156 201 259 315 395 452
#     4  12  28  53  82 115 157 208 259 320 395 463
#     4  11  26  48  81 113 161 203 264 320 390 464
#
# _framework density 26.255609
#
# number of rings (size 3 to 8) (size 9 to 14) (size 15 to 20)
#    0.000    0.667    1.667    5.000    7.000    2.667 
#    9.000    0.000    0.000    0.000    0.000    0.000 
#    0.000    0.000    0.000    0.000    0.000    0.000 
#
# Total GULP energy -67279.260513 kJ/mol
# GULP energy per Si atom -5606.605043 kJ/mol
# Density = 2.619585 g / cm^3
# Si number density = 26.255609 Si / 1000 Ang^3
#
#
#
# Elastic Constant Matrix: (Units=GPa)
#
#
# Indices 1 2 3 4 5 6 
#
# 1 97.7076 24.7156 3.0171 0.0000 17.9825 0.0000
# 2 24.7156 143.6306 24.1068 0.0000 4.6507 0.0000
# 3 3.0171 24.1068 95.2316 0.0000 11.5733 0.0000
# 4 0.0000 0.0000 0.0000 23.1443 0.0000 -6.0586
# 5 17.9825 4.6507 11.5733 0.0000 46.8117 0.0000
# 6 0.0000 0.0000 0.0000 -6.0586 0.0000 40.9204
#
#
#
# Elastic Compliance Matrix: (Units=1/GPa)
#
#
# Indices 1 2 3 4 5 6 
#
# 1 0.011516 -0.001951 0.000663 0.000000 -0.004394 0.000000
# 2 -0.001951 0.007605 -0.001920 0.000000 0.000469 0.000000
# 3 0.000663 -0.001920 0.011313 0.000000 -0.002861 0.000000
# 4 0.000000 0.000000 0.000000 0.044949 0.000000 0.006655
# 5 -0.004394 0.000469 -0.002861 0.000000 0.023711 0.000000
# 6 0.000000 0.000000 0.000000 0.006655 0.000000 0.025423
#
#
# Mechanical properties :
#
#
# Convention : Reuss Voigt Hill
#
# Bulk Modulus (GPa) = 41.63405 48.91652 45.27528
# Shear Modulus (GPa) = 35.98666 41.15732 38.57199
#
# Velocity S-wave (km/s) = 3.70622 3.96354 3.83704
# Velocity P-wave (km/s) = 5.84862 6.29425 6.07552
#
# Compressibility (1/GPa) = 0.02401880
#
# Stress axis : x y z
#
# Youngs Moduli (GPa) = 86.83366 131.49073 88.39006
#
# Poissons Ratio (x) = 0.25650 -0.05860
# Poissons Ratio (y) = 0.16938 0.16973
# Poissons Ratio (z) = -0.05756 0.25250
#
# Static dielectric constant tensor:
#      x y z
#    x 2.082540 0.000000 -0.003960 
#    y 0.000000 2.055270 0.000000 
#    z -0.003960 0.000000 2.047460 
# 
# From -- ./inp_files/13612.got.cif
#   From: 2010.05.17/outbox.cif.g08.bks.cpg/sg4_7_cif.got.tgz:13612.got - 2010.06.03 18:43:04.
