data_PCOD9119813
_publ_section_title
;
Structure prediction by ZEFSAII (Michael W. Deem and Ramdas Pophale) SiO2 
 PCOD9119813
Probable space group: P 21
;
_chemical_formula_sum "Si O2"
_cell_formula_units_Z 14
_cell_length_a 9.000000
_cell_length_b 9.000000
_cell_length_c 9.000000
_cell_angle_alpha 90.000000
_cell_angle_beta 110.000000
_cell_angle_gamma 90.000000
_cell_volume 685.035921
_symmetry_space_group_name_H-M "P 21"
_symmetry_group_IT_number 4
_symmetry_cell_setting 'monoclinic'
loop_
_space_group_symop_operation_xyz
x,y,z
-x,1/2+y,-z
loop_
_atom_site_type_symbol
_atom_site_label
_atom_site_fract_x
_atom_site_fract_y
_atom_site_fract_z
Si Si1 0.201736 0.182580 0.762340
Si Si2 0.122776 0.581123 0.213277
Si Si3 0.599561 0.161474 0.477290
Si Si4 0.298466 0.718717 0.029993
Si Si5 0.349439 0.872979 0.745312
Si Si6 0.429330 0.347263 0.663038
Si Si7 0.290818 0.383125 0.065405
O O1 0.252575 0.311090 0.662386
O O2 0.028045 0.117690 0.738522
O O3 0.303835 0.044285 0.736596
O O4 0.251188 0.254411 0.936872
O O5 0.279513 0.589499 0.365338
O O6 0.153191 0.707088 0.096432
O O7 0.149702 0.426986 0.131367
O O8 0.699251 0.279862 0.414774
O O9 0.471227 0.250681 0.530973
O O10 0.542740 0.021083 0.361024
O O11 0.446523 0.790763 0.168539
O O12 0.324452 0.544414 0.000398
O O13 0.278735 0.805413 0.871645
O O14 0.539076 0.848936 0.806238
#
# Coordination Sequence:
#
# PCOD9119813 Si02
#       7
#     2   2   2   2   2   2   2
#     4  12  23  37  70  91 129 173 218 261 340 384
#     4   9  24  42  58  92 135 165 212 269 329 393
#     4  11  24  42  65  92 138 165 219 276 327 394
#     4   9  21  39  61  92 126 157 216 270 318 371
#     4  12  21  38  67  98 121 172 219 269 322 383
#     4  11  21  41  63  95 120 178 212 276 322 388
#     4  10  20  41  60  94 125 160 218 281 298 387
#
# _framework density 20.436885
#
# number of rings (size 3 to 8) (size 9 to 14) (size 15 to 20)
#    0.857    0.571    2.857    2.571    4.000    1.143 
#    0.000    0.000    0.000    0.000    0.000    0.000 
#    0.000    0.000    0.000    0.000    0.000    0.000 
#
# Total GULP energy -77961.717974 kJ/mol
# GULP energy per Si atom -5568.694141 kJ/mol
# Density = 2.039037 g / cm^3
# Si number density = 20.436885 Si / 1000 Ang^3
#
#
#
# Elastic Constant Matrix: (Units=GPa)
#
#
# Indices 1 2 3 4 5 6 
#
# 1 99.1313 3.3695 3.5082 0.0000 -23.4614 0.0000
# 2 3.3695 82.7907 14.5234 0.0000 -8.8491 0.0000
# 3 3.5082 14.5234 48.0149 0.0000 -22.4938 0.0000
# 4 0.0000 0.0000 0.0000 37.5083 0.0000 -12.5528
# 5 -23.4614 -8.8491 -22.4938 0.0000 29.9973 0.0000
# 6 0.0000 0.0000 0.0000 -12.5528 0.0000 31.5710
#
#
#
# Elastic Compliance Matrix: (Units=1/GPa)
#
#
# Indices 1 2 3 4 5 6 
#
# 1 0.013439 -0.000003 0.006077 0.000000 0.015067 0.000000
# 2 -0.000003 0.012791 -0.003240 0.000000 0.001341 0.000000
# 3 0.006077 -0.003240 0.035674 0.000000 0.030548 0.000000
# 4 0.000000 0.000000 0.000000 0.030753 0.000000 0.012227
# 5 0.015067 0.001341 0.030548 0.000000 0.068423 0.000000
# 6 0.000000 0.000000 0.000000 0.012227 0.000000 0.036536
#
#
# Mechanical properties :
#
#
# Convention : Reuss Voigt Hill
#
# Bulk Modulus (GPa) = 14.79901 30.30433 22.55167
# Shear Modulus (GPa) = 23.31330 33.71771 28.51551
#
# Velocity S-wave (km/s) = 3.38116 4.06624 3.73942
# Velocity P-wave (km/s) = 4.74342 6.07504 5.45005
#
# Compressibility (1/GPa) = 0.06757210
#
# Stress axis : x y z
#
# Youngs Moduli (GPa) = 74.41272 78.18279 28.03179
#
# Poissons Ratio (x) = 0.00020 -0.17036
# Poissons Ratio (y) = 0.00019 0.09083
# Poissons Ratio (z) = -0.45224 0.25333
#
# Static dielectric constant tensor:
#      x y z
#    x 1.743340 0.000000 -0.011030 
#    y 0.000000 1.765940 0.000000 
#    z -0.011030 0.000000 1.760840 
# 
# From -- ./inp_files/5373.got.cif
#   From: 2010.05.17/outbox.ucp.g08.bks.cvg/sg4_3_cif.got.tgz:5373.got - 2010.06.11 12:51:24.
