data_PCOD9119671
_publ_section_title
;
Structure prediction by ZEFSAII (Michael W. Deem and Ramdas Pophale) SiO2 
 PCOD9119671
Probable space group: P 21
;
_chemical_formula_sum "Si O2"
_cell_formula_units_Z 14
_cell_length_a 20.231560
_cell_length_b 5.740928
_cell_length_c 8.681100
_cell_angle_alpha 90.000000
_cell_angle_beta 147.638617
_cell_angle_gamma 90.000000
_cell_volume 539.695845
_symmetry_space_group_name_H-M "P 21"
_symmetry_group_IT_number 4
_symmetry_cell_setting 'monoclinic'
loop_
_space_group_symop_operation_xyz
x,y,z
-x,1/2+y,-z
loop_
_atom_site_type_symbol
_atom_site_label
_atom_site_fract_x
_atom_site_fract_y
_atom_site_fract_z
Si Si1 0.520488 0.158580 0.453690
Si Si2 0.849755 0.118395 0.362480
Si Si3 0.650932 0.684900 0.416332
Si Si4 0.826731 0.492668 0.532799
Si Si5 0.983582 0.342235 0.120877
Si Si6 0.791001 0.009431 0.907440
Si Si7 0.402384 0.441398 0.982955
O O1 0.503541 0.402306 0.517652
O O2 0.430393 0.203572 0.131680
O O3 0.661307 0.147506 0.672429
O O4 0.838015 0.391548 0.384168
O O5 0.982668 0.049572 0.696887
O O6 0.843524 0.003465 0.183343
O O7 0.717324 0.052334 0.177927
O O8 0.708327 0.494852 0.410882
O O9 0.748934 0.775730 0.734836
O O10 0.525827 0.592563 0.243042
O O11 0.618269 0.895932 0.237421
O O12 0.876413 0.752965 0.622322
O O13 0.929992 0.382685 0.847352
O O14 0.890445 0.158603 0.010639
#
# Coordination Sequence:
#
# PCOD9119671 Si02
#       7
#     2   2   2   2   2   2   2
#     4  12  27  51  79 117 165 213 271 349 422 508
#     4  12  28  47  77 115 154 210 265 344 418 502
#     4  12  26  49  81 119 160 212 279 344 416 511
#     4  12  25  50  77 108 155 211 268 334 408 502
#     4  12  26  49  75 108 154 203 272 327 413 497
#     4  12  29  48  78 118 158 211 270 345 424 491
#     4  12  25  48  79 115 156 210 275 329 425 503
#
# _framework density 25.940535000000001
#
# number of rings (size 3 to 8) (size 9 to 14) (size 15 to 20)
#    0.000    0.000    4.286    5.143    4.000    0.000 
#    0.000    0.000    0.000    0.000    0.000    0.000 
#    0.000    0.000    0.000    0.000    0.000    0.000 
#
# Total GULP energy -78220.175300 kJ/mol
# GULP energy per Si atom -5587.155379 kJ/mol
# Density = 2.588149 g / cm^3
# Si number density = 25.940535 Si / 1000 Ang^3
#
#
#
# Elastic Constant Matrix: (Units=GPa)
#
#
# Indices 1 2 3 4 5 6 
#
# 1 99.0490 35.0229 15.2511 0.0000 -2.7142 0.0000
# 2 35.0229 65.5958 27.0606 0.0000 -5.2299 0.0000
# 3 15.2511 27.0606 81.1828 0.0000 -9.3847 0.0000
# 4 0.0000 0.0000 0.0000 47.1873 0.0000 13.9153
# 5 -2.7142 -5.2299 -9.3847 0.0000 56.7282 0.0000
# 6 0.0000 0.0000 0.0000 13.9153 0.0000 29.2828
#
#
#
# Elastic Compliance Matrix: (Units=1/GPa)
#
#
# Indices 1 2 3 4 5 6 
#
# 1 0.012447 -0.006588 -0.000146 0.000000 -0.000036 0.000000
# 2 -0.006588 0.021187 -0.005745 0.000000 0.000688 0.000000
# 3 -0.000146 -0.005745 0.014475 0.000000 0.001858 0.000000
# 4 0.000000 0.000000 0.000000 0.024646 0.000000 -0.011712
# 5 -0.000036 0.000688 0.001858 0.000000 0.017997 0.000000
# 6 0.000000 0.000000 0.000000 -0.011712 0.000000 0.039715
#
#
# Mechanical properties :
#
#
# Convention : Reuss Voigt Hill
#
# Bulk Modulus (GPa) = 43.19661 44.49964 43.84813
# Shear Modulus (GPa) = 30.64769 37.87251 34.26010
#
# Velocity S-wave (km/s) = 3.44097 3.82511 3.63811
# Velocity P-wave (km/s) = 5.69871 6.05808 5.88114
#
# Compressibility (1/GPa) = 0.02314996
#
# Stress axis : x y z
#
# Youngs Moduli (GPa) = 80.33986 47.19784 69.08352
#
# Poissons Ratio (x) = 0.31095 0.01012
# Poissons Ratio (y) = 0.52930 0.39690
# Poissons Ratio (z) = 0.01177 0.27116
#
# Static dielectric constant tensor:
#      x y z
#    x 2.092910 0.000000 -0.107070 
#    y 0.000000 2.247430 0.000000 
#    z -0.107070 0.000000 2.103620 
# 
# From -- ./inp_files/7186.got.cif
#   From: 2010.05.17/outbox.cif.g08.bks.cpg/sg4_4_cif.got.tgz:7186.got - 2010.06.03 18:43:04.
