data_PCOD9119656
_publ_section_title
;
Structure prediction by ZEFSAII (Michael W. Deem and Ramdas Pophale) SiO2 
 PCOD9119656
Probable space group: P 21
;
_chemical_formula_sum "Si O2"
_cell_formula_units_Z 14
_cell_length_a 21.164485
_cell_length_b 4.748923
_cell_length_c 26.891640
_cell_angle_alpha 90.000000
_cell_angle_beta 168.579912
_cell_angle_gamma 90.000000
_cell_volume 535.164792
_symmetry_space_group_name_H-M "P 21"
_symmetry_group_IT_number 4
_symmetry_cell_setting 'monoclinic'
loop_
_space_group_symop_operation_xyz
x,y,z
-x,1/2+y,-z
loop_
_atom_site_type_symbol
_atom_site_label
_atom_site_fract_x
_atom_site_fract_y
_atom_site_fract_z
Si Si1 0.274660 0.777260 0.333851
Si Si2 0.144095 0.505999 0.135259
Si Si3 0.220000 0.623224 0.666423
Si Si4 0.405791 0.863985 0.955003
Si Si5 0.751738 0.113443 0.487071
Si Si6 0.269143 0.053303 0.021713
Si Si7 0.182948 0.137043 0.387275
O O1 0.594242 0.583358 0.579547
O O2 0.074250 0.647587 0.133699
O O3 0.046676 0.721932 0.205122
O O4 0.519616 0.539964 0.416387
O O5 0.033307 0.191527 0.042563
O O6 0.946806 0.399927 0.440224
O O7 0.397617 0.450506 0.845619
O O8 0.484744 0.681599 0.828816
O O9 0.058664 0.985935 0.696005
O O10 0.576509 0.036853 0.042704
O O11 0.844727 0.403472 0.588963
O O12 0.683874 0.907480 0.480440
O O13 0.483755 0.071492 0.237559
O O14 0.115730 0.771220 0.875796
#
# Coordination Sequence:
#
# PCOD9119656 Si02
#       7
#     2   2   2   2   2   2   2
#     4  12  27  46  74 111 152 204 262 322 396 478
#     4  12  25  47  74 107 152 202 263 328 394 476
#     4  12  28  49  79 115 152 207 262 325 410 483
#     4  12  25  48  75 111 155 196 261 334 395 485
#     4  12  28  49  77 118 155 215 270 329 414 487
#     4  12  28  52  82 115 167 212 269 341 408 492
#     4  12  27  49  77 115 161 212 269 337 403 485
#
# _framework density 26.160167999999999
#
# number of rings (size 3 to 8) (size 9 to 14) (size 15 to 20)
#    0.000    0.000    2.857    6.857    4.000    4.571 
#    0.000    0.000    0.000    0.000    0.000    0.000 
#    0.000    0.000    0.000    0.000    0.000    0.000 
#
# Total GULP energy -78264.505435 kJ/mol
# GULP energy per Si atom -5590.321817 kJ/mol
# Density = 2.610063 g / cm^3
# Si number density = 26.160168 Si / 1000 Ang^3
#
#
#
# Elastic Constant Matrix: (Units=GPa)
#
#
# Indices 1 2 3 4 5 6 
#
# 1 93.8349 10.7855 66.5763 0.0000 8.1910 0.0000
# 2 10.7855 108.2295 41.4376 0.0000 -7.1458 0.0000
# 3 66.5763 41.4376 153.1083 0.0000 -8.1694 0.0000
# 4 0.0000 0.0000 0.0000 36.1256 0.0000 -9.2991
# 5 8.1910 -7.1458 -8.1694 0.0000 59.8557 0.0000
# 6 0.0000 0.0000 0.0000 -9.2991 0.0000 36.4365
#
#
#
# Elastic Compliance Matrix: (Units=1/GPa)
#
#
# Indices 1 2 3 4 5 6 
#
# 1 0.016088 0.001042 -0.007443 0.000000 -0.003093 0.000000
# 2 0.001042 0.010419 -0.003238 0.000000 0.000659 0.000000
# 3 -0.007443 -0.003238 0.010756 0.000000 0.002100 0.000000
# 4 0.000000 0.000000 0.000000 0.029628 0.000000 0.007561
# 5 -0.003093 0.000659 0.002100 0.000000 0.017495 0.000000
# 6 0.000000 0.000000 0.000000 0.007561 0.000000 0.029375
#
#
# Mechanical properties :
#
#
# Convention : Reuss Voigt Hill
#
# Bulk Modulus (GPa) = 55.59825 65.86351 60.73088
# Shear Modulus (GPa) = 35.96290 42.24177 39.10233
#
# Velocity S-wave (km/s) = 3.71174 4.02274 3.87037
# Velocity P-wave (km/s) = 6.29830 6.84165 6.57559
#
# Compressibility (1/GPa) = 0.01798618
#
# Stress axis : x y z
#
# Youngs Moduli (GPa) = 62.15923 95.97897 92.97234
#
# Poissons Ratio (x) = -0.10002 0.69195
# Poissons Ratio (y) = -0.06478 0.30102
# Poissons Ratio (z) = 0.46262 0.31076
#
# Static dielectric constant tensor:
#      x y z
#    x 2.189440 0.000000 -0.111100 
#    y 0.000000 2.029720 0.000000 
#    z -0.111100 0.000000 2.124160 
# 
# From -- ./inp_files/15961.got.cif
#   From: 2010.05.17/outbox.cif.g08.bks.cpg/sg4_8_cif.got.tgz:15961.got - 2010.06.03 18:43:04.
