data_PCOD9119697
_publ_section_title
;
Structure prediction by ZEFSAII (Michael W. Deem and Ramdas Pophale) SiO2 
 PCOD9119697
Probable space group: P 21
;
_chemical_formula_sum "Si O2"
_cell_formula_units_Z 16
_cell_length_a 22.453000
_cell_length_b 5.511196
_cell_length_c 9.130454
_cell_angle_alpha 90.000000
_cell_angle_beta 35.580816
_cell_angle_gamma 90.000000
_cell_volume 657.391616
_symmetry_space_group_name_H-M "P 21"
_symmetry_group_IT_number 4
_symmetry_cell_setting 'monoclinic'
loop_
_space_group_symop_operation_xyz
x,y,z
-x,1/2+y,-z
loop_
_atom_site_type_symbol
_atom_site_label
_atom_site_fract_x
_atom_site_fract_y
_atom_site_fract_z
Si Si1 0.871494 0.977640 0.348383
Si Si2 0.904400 0.639166 0.022616
Si Si3 0.944406 0.825698 0.646312
Si Si4 0.750000 0.271436 0.363891
Si Si5 0.628506 0.565232 0.834359
Si Si6 0.404400 0.403705 0.359784
Si Si7 0.444406 0.217173 0.576065
Si Si8 0.750000 0.771436 0.839724
O O1 0.792110 0.970629 0.640445
O O2 0.837220 0.173905 0.298762
O O3 0.871922 0.736651 0.246887
O O4 0.985802 0.014318 0.177407
O O5 0.920674 0.842278 0.866812
O O6 0.811371 0.472757 0.152789
O O7 0.847099 0.733814 0.748240
O O8 0.021096 0.594495 0.473461
O O9 0.662780 0.368968 0.647642
O O10 0.688630 0.070114 0.398270
O O11 0.707890 0.572243 0.808886
O O12 0.628078 0.806222 0.734574
O O13 0.514198 0.528554 0.120616
O O14 0.420674 0.200593 0.450491
O O15 0.521096 0.448375 0.442155
O O16 0.347099 0.309057 0.863363
#
# Coordination Sequence:
#
# PCOD9119697 Si02
#       8
#     2   2   2   2   2   2   2   2
#     4  12  26  47  78 113 151 207 265 329 382 474
#     4  12  27  48  78 111 158 201 269 323 397 472
#     4  12  32  53  80 115 164 211 264 325 403 475
#     4  12  26  44  80 110 152 202 264 330 392 456
#     4  12  26  47  78 113 151 207 265 329 382 474
#     4  12  27  48  78 111 158 201 269 323 397 472
#     4  12  32  53  80 115 164 211 264 325 403 475
#     4  12  28  52  76 120 158 212 262 330 406 470
#
# _framework density 24.338612999999999
#
# number of rings (size 3 to 8) (size 9 to 14) (size 15 to 20)
#    0.000    0.000    7.500    0.000   14.000    1.000 
#    0.000    0.000    0.000    0.000    0.000    0.000 
#    0.000    0.000    0.000    0.000    0.000    0.000 
#
# Total GULP energy -89426.551805 kJ/mol
# GULP energy per Si atom -5589.159488 kJ/mol
# Density = 2.428322 g / cm^3
# Si number density = 24.338613 Si / 1000 Ang^3
#
#
#
# Elastic Constant Matrix: (Units=GPa)
#
#
# Indices 1 2 3 4 5 6 
#
# 1 100.1717 -2.6581 8.9542 0.0000 0.5134 0.0000
# 2 -2.6581 55.5211 0.5740 0.0000 -4.8876 0.0000
# 3 8.9542 0.5740 97.4531 0.0000 3.5971 0.0000
# 4 0.0000 0.0000 0.0000 31.2007 0.0000 -9.5079
# 5 0.5134 -4.8876 3.5971 0.0000 40.7762 0.0000
# 6 0.0000 0.0000 0.0000 -9.5079 0.0000 24.9127
#
#
#
# Elastic Compliance Matrix: (Units=1/GPa)
#
#
# Indices 1 2 3 4 5 6 
#
# 1 0.010079 0.000493 -0.000930 0.000000 0.000014 0.000000
# 2 0.000493 0.018231 -0.000234 0.000000 0.002200 0.000000
# 3 -0.000930 -0.000234 0.010383 0.000000 -0.000932 0.000000
# 4 0.000000 0.000000 0.000000 0.036269 0.000000 0.013842
# 5 0.000014 0.002200 -0.000932 0.000000 0.024870 0.000000
# 6 0.000000 0.000000 0.000000 0.013842 0.000000 0.045423
#
#
# Mechanical properties :
#
#
# Convention : Reuss Voigt Hill
#
# Bulk Modulus (GPa) = 26.77212 29.65404 28.21308
# Shear Modulus (GPa) = 31.43769 35.79628 33.61699
#
# Velocity S-wave (km/s) = 3.59789 3.83921 3.72051
# Velocity P-wave (km/s) = 5.31822 5.64474 5.48391
#
# Compressibility (1/GPa) = 0.03735230
#
# Stress axis : x y z
#
# Youngs Moduli (GPa) = 99.21651 54.85205 96.31556
#
# Poissons Ratio (x) = -0.02706 0.08953
# Poissons Ratio (y) = -0.04895 0.02253
# Poissons Ratio (z) = 0.09222 0.01283
#
# Static dielectric constant tensor:
#      x y z
#    x 1.886830 0.000000 -0.025820 
#    y 0.000000 2.013580 0.000000 
#    z -0.025820 0.000000 1.903900 
# 
# From -- ./inp_files/1350.got.cif
#   From: 2010.05.17/outbox.cif.g08.bks.cpg/sg4_1_cif.got.tgz:1350.got - 2010.06.03 18:43:04.
