data_PCOD9119874
_publ_section_title
;
Structure prediction by ZEFSAII (Michael W. Deem and Ramdas Pophale) SiO2 
 PCOD9119874
Probable space group: P 21
;
_chemical_formula_sum "Si O2"
_cell_formula_units_Z 14
_cell_length_a 9.000000
_cell_length_b 15.000000
_cell_length_c 6.000000
_cell_angle_alpha 90.000000
_cell_angle_beta 130.000000
_cell_angle_gamma 90.000000
_cell_volume 620.495999
_symmetry_space_group_name_H-M "P 21"
_symmetry_group_IT_number 4
_symmetry_cell_setting 'monoclinic'
loop_
_space_group_symop_operation_xyz
x,y,z
-x,1/2+y,-z
loop_
_atom_site_type_symbol
_atom_site_label
_atom_site_fract_x
_atom_site_fract_y
_atom_site_fract_z
Si Si1 0.249048 0.375000 0.264141
Si Si2 0.954754 0.371625 0.349919
Si Si3 0.714257 0.580556 0.704436
Si Si4 0.036464 0.068199 0.457243
Si Si5 0.647576 0.049285 0.902850
Si Si6 0.446168 0.936405 0.100214
Si Si7 0.835449 0.730458 0.132065
O O1 0.258224 0.473222 0.164741
O O2 0.396844 0.380759 0.612014
O O3 0.047254 0.352139 0.195317
O O4 0.303777 0.303428 0.126050
O O5 0.003589 0.477012 0.444320
O O6 0.031972 0.303630 0.611917
O O7 0.723964 0.371091 0.135503
O O8 0.844086 0.536073 0.640942
O O9 0.509937 0.604980 0.388542
O O10 0.651388 0.508937 0.828178
O O11 0.840904 0.661116 0.926999
O O12 0.160903 0.149801 0.680954
O O13 0.824150 0.102720 0.182435
O O14 0.537974 0.993098 0.988877
#
# Coordination Sequence:
#
# PCOD9119874 Si02
#       7
#     2   2   2   2   2   2   2
#     4  11  24  43  70 102 137 180 233 289 345 406
#     4  12  24  46  72  99 141 185 231 284 350 412
#     4  11  24  43  70 102 137 180 233 289 345 406
#     4  12  24  46  72  99 141 185 231 284 350 412
#     4  11  23  43  74 100 132 187 232 281 347 417
#     4  11  23  43  74 100 132 187 232 281 347 417
#     4  12  26  42  70 106 142 176 238 294 338 412
#
# _framework density 22.562595000000002
#
# number of rings (size 3 to 8) (size 9 to 14) (size 15 to 20)
#    0.000    0.571    5.714    1.714    0.000    1.143 
#    0.000    7.143    0.000    0.000    0.000    0.000 
#    0.000    0.000    0.000    0.000    0.000    0.000 
#
# Total GULP energy -77956.367399 kJ/mol
# GULP energy per Si atom -5568.311957 kJ/mol
# Density = 2.251124 g / cm^3
# Si number density = 22.562595 Si / 1000 Ang^3
#
#
#
# Elastic Constant Matrix: (Units=GPa)
#
#
# Indices 1 2 3 4 5 6 
#
# 1 80.1996 -7.9768 22.3248 0.0000 -4.5283 0.0000
# 2 -7.9768 66.2597 4.1458 0.0000 -7.4354 0.0000
# 3 22.3248 4.1458 97.9410 0.0000 -4.3178 0.0000
# 4 0.0000 0.0000 0.0000 57.3337 0.0000 -8.7042
# 5 -4.5283 -7.4354 -4.3178 0.0000 23.2105 0.0000
# 6 0.0000 0.0000 0.0000 -8.7042 0.0000 11.1436
#
#
#
# Elastic Compliance Matrix: (Units=1/GPa)
#
#
# Indices 1 2 3 4 5 6 
#
# 1 0.013701 0.002156 -0.003091 0.000000 0.002789 0.000000
# 2 0.002156 0.016013 -0.000932 0.000000 0.005377 0.000000
# 3 -0.003091 -0.000932 0.011005 0.000000 0.001145 0.000000
# 4 0.000000 0.000000 0.000000 0.019788 0.000000 0.015457
# 5 0.002789 0.005377 0.001145 0.000000 0.045564 0.000000
# 6 0.000000 0.000000 0.000000 0.015457 0.000000 0.101811
#
#
# Mechanical properties :
#
#
# Convention : Reuss Voigt Hill
#
# Bulk Modulus (GPa) = 27.03875 31.26531 29.15203
# Shear Modulus (GPa) = 22.32684 33.39799 27.86242
#
# Velocity S-wave (km/s) = 3.14913 3.85156 3.51792
# Velocity P-wave (km/s) = 5.02320 5.80229 5.42675
#
# Compressibility (1/GPa) = 0.03698396
#
# Stress axis : x y z
#
# Youngs Moduli (GPa) = 72.98580 62.44777 90.86904
#
# Poissons Ratio (x) = -0.13462 0.28091
# Poissons Ratio (y) = -0.15734 0.08471
# Poissons Ratio (z) = 0.22563 0.05821
#
# Static dielectric constant tensor:
#      x y z
#    x 1.817140 0.000000 0.027230 
#    y 0.000000 1.814430 0.000000 
#    z 0.027230 0.000000 1.969670 
# 
# From -- ./inp_files/1478.got.cif
#   From: 2010.05.17/outbox.ucp.g08.bks.cvg/sg4_1_cif.got.tgz:1478.got - 2010.06.11 12:51:24.
