data_PCOD9119983
_publ_section_title
;
Structure prediction by ZEFSAII (Michael W. Deem and Ramdas Pophale) SiO2 
 PCOD9119983
Probable space group: C 2
;
_chemical_formula_sum "Si O2"
_cell_formula_units_Z 20
_cell_length_a 9.600671
_cell_length_b 22.678343
_cell_length_c 5.290295
_cell_angle_alpha 90.000000
_cell_angle_beta 125.675652
_cell_angle_gamma 90.000000
_cell_volume 935.677216
_symmetry_space_group_name_H-M "C 2"
_symmetry_group_IT_number 5
_symmetry_cell_setting 'monoclinic'
loop_
_space_group_symop_operation_xyz
x,y,z
-x,y,-z
1/2+x,1/2+y,z
1/2-x,1/2+y,-z
loop_
_atom_site_type_symbol
_atom_site_label
_atom_site_fract_x
_atom_site_fract_y
_atom_site_fract_z
Si Si1 0.191118 0.875000 0.470033
Si Si2 0.679515 0.513842 0.561194
Si Si3 0.385080 0.192847 0.125852
Si Si4 0.308619 0.069213 0.186641
Si Si5 0.297632 0.324802 0.018002
O O1 0.279176 0.843268 0.797542
O O2 0.997654 0.847416 0.246924
O O3 0.181211 0.944179 0.509150
O O4 0.277056 0.859563 0.296952
O O5 0.500000 0.530188 0.500000
O O6 0.703600 0.545025 0.315783
O O7 0.804791 0.531181 0.925162
O O8 0.500000 0.202932 0.500000
O O9 0.268137 0.136454 0.063184
O O10 0.296105 0.255073 0.976700
O O11 0.500000 0.178476 0.000000
O O12 0.500000 0.070604 0.500000
#
# Coordination Sequence:
#
# PCOD9119983 Si02
#       5
#     4   4   4   4   4
#     4  10  18  29  52  88 119 140 190 262 318 324
#     4  12  23  39  62  89 129 163 211 253 300 375
#     4  11  18  33  55  82 123 151 202 250 314 346
#     4  11  25  40  58  88 130 175 200 246 309 375
#     4  10  16  29  51  87 119 139 185 275 315 316
#
# _framework density 21.374894000000001
#
# number of rings (size 3 to 8) (size 9 to 14) (size 15 to 20)
#    0.000    1.200    6.000    4.800    2.800    0.000 
#    0.000    0.000    0.000    0.000    0.000   21.000 
#    0.000    0.000    0.000    0.000    0.000    0.000 
#
# Total GULP energy -55797.487153 kJ/mol
# GULP energy per Si atom -5579.748715 kJ/mol
# Density = 2.132624 g / cm^3
# Si number density = 21.374894 Si / 1000 Ang^3
#
#
#
# Elastic Constant Matrix: (Units=GPa)
#
#
# Indices 1 2 3 4 5 6 
#
# 1 61.0323 46.7724 38.2929 0.0000 -31.3014 0.0000
# 2 46.7724 172.0011 38.8311 0.0000 -23.3186 0.0000
# 3 38.2929 38.8311 117.9654 0.0000 -52.5689 0.0000
# 4 0.0000 0.0000 0.0000 19.2158 0.0000 -22.7033
# 5 -31.3014 -23.3186 -52.5689 0.0000 45.9489 0.0000
# 6 0.0000 0.0000 0.0000 -22.7033 0.0000 23.2136
#
#
#
# Elastic Compliance Matrix: (Units=1/GPa)
#
#
# Indices 1 2 3 4 5 6 
#
# 1 0.029628 -0.005708 -0.000072 0.000000 0.017204 0.000000
# 2 -0.005708 0.007444 -0.001320 0.000000 -0.001620 0.000000
# 3 -0.000072 -0.001320 0.017575 0.000000 0.019388 0.000000
# 4 0.000000 0.000000 0.000000 -0.334623 0.000000 -0.327267
# 5 0.017204 -0.001620 0.019388 0.000000 0.054842 0.000000
# 6 0.000000 0.000000 0.000000 -0.327267 0.000000 -0.276994
#
#
# Mechanical properties :
#
#
# Convention : Reuss Voigt Hill
#
# Bulk Modulus (GPa) = 24.72355 66.53239 45.62797
# Shear Modulus (GPa) = -10.53858 32.81582 11.13862
#
# Velocity S-wave (km/s) = -2.22285 3.92248 2.28525
# Velocity P-wave (km/s) = 2.23689 7.19086 5.32504
#
# Compressibility (1/GPa) = 0.04044727
#
# Stress axis : x y z
#
# Youngs Moduli (GPa) = 33.75240 134.32979 56.90004
#
# Poissons Ratio (x) = 0.76676 0.00410
# Poissons Ratio (y) = 0.19266 0.07509
# Poissons Ratio (z) = 0.00243 0.17726
#
# Static dielectric constant tensor:
#      x y z
#    x 1.746290 0.000000 -0.022040 
#    y 0.000000 1.755520 0.000000 
#    z -0.022040 0.000000 2.173360 
# 
# From -- ./inp_files/3249.got.cif
#   From: 2010.05.17/outbox.cif.g08.bks.cpg/sg5_2_cif.got.tgz:3249.got - 2010.06.03 18:56:24.
