data_PCOD9119863
_publ_section_title
;
Structure prediction by ZEFSAII (Michael W. Deem and Ramdas Pophale) SiO2 
 PCOD9119863
Probable space group: P 21
;
_chemical_formula_sum "Si O2"
_cell_formula_units_Z 14
_cell_length_a 24.000000
_cell_length_b 6.000000
_cell_length_c 21.000000
_cell_angle_alpha 90.000000
_cell_angle_beta 170.000000
_cell_angle_gamma 90.000000
_cell_volume 525.112089
_symmetry_space_group_name_H-M "P 21"
_symmetry_group_IT_number 4
_symmetry_cell_setting 'monoclinic'
loop_
_space_group_symop_operation_xyz
x,y,z
-x,1/2+y,-z
loop_
_atom_site_type_symbol
_atom_site_label
_atom_site_fract_x
_atom_site_fract_y
_atom_site_fract_z
Si Si1 0.505678 0.135810 0.313340
Si Si2 0.860919 0.907579 0.341278
Si Si3 0.205704 0.774371 0.484852
Si Si4 0.600398 0.160452 0.939921
Si Si5 0.216213 0.444735 0.604068
Si Si6 0.348126 0.133785 0.471231
Si Si7 0.643513 0.150679 0.676243
O O1 0.554436 0.146151 0.292165
O O2 0.659542 0.378145 0.508418
O O3 0.612266 0.881312 0.450820
O O4 0.143671 0.181287 0.928605
O O5 0.683846 0.939114 0.209906
O O6 0.944318 0.644874 0.436661
O O7 0.729497 0.942860 0.122343
O O8 0.278952 0.036628 0.552945
O O9 0.196782 0.685643 0.548274
O O10 0.483147 0.322319 0.863124
O O11 0.893647 0.286958 0.235697
O O12 0.632448 0.134143 0.740080
O O13 0.997217 0.152410 0.044909
O O14 0.506372 0.405007 0.510561
#
# Coordination Sequence:
#
# PCOD9119863 Si02
#       7
#     2   2   2   2   2   2   2
#     4  12  28  47  74 102 151 204 248 302 356 428
#     4  10  26  46  72 102 138 178 226 308 394 470
#     4  12  28  45  74 100 141 196 258 308 366 442
#     4  11  27  45  72 101 139 181 245 311 392 461
#     4  11  27  45  72 101 139 181 245 311 392 461
#     4  12  26  49  72 112 155 196 246 292 360 422
#     4  12  24  45  80 116 153 192 240 296 356 422
#
# _framework density 26.660974
#
# number of rings (size 3 to 8) (size 9 to 14) (size 15 to 20)
#    0.000    0.571    0.000    6.000   18.000    1.143 
#    0.000    0.000    0.000    0.000    0.000    0.000 
#    0.000    0.000    0.000    0.000    0.000    0.000 
#
# Total GULP energy -77956.535319 kJ/mol
# GULP energy per Si atom -5568.323951 kJ/mol
# Density = 2.660029 g / cm^3
# Si number density = 26.660974 Si / 1000 Ang^3
#
#
#
# Elastic Constant Matrix: (Units=GPa)
#
#
# Indices 1 2 3 4 5 6 
#
# 1 108.2655 40.3716 0.5375 0.0000 14.7543 0.0000
# 2 40.3716 202.6858 54.2301 0.0000 3.9458 0.0000
# 3 0.5375 54.2301 87.8752 0.0000 17.5634 0.0000
# 4 0.0000 0.0000 0.0000 67.6498 0.0000 -0.8768
# 5 14.7543 3.9458 17.5634 0.0000 36.1037 0.0000
# 6 0.0000 0.0000 0.0000 -0.8768 0.0000 64.9120
#
#
#
# Elastic Compliance Matrix: (Units=1/GPa)
#
#
# Indices 1 2 3 4 5 6 
#
# 1 0.011039 -0.002839 0.002796 0.000000 -0.005561 0.000000
# 2 -0.002839 0.006691 -0.004649 0.000000 0.002691 0.000000
# 3 0.002796 -0.004649 0.015905 0.000000 -0.008372 0.000000
# 4 0.000000 0.000000 0.000000 0.014785 0.000000 0.000200
# 5 -0.005561 0.002691 -0.008372 0.000000 0.033749 0.000000
# 6 0.000000 0.000000 0.000000 0.000200 0.000000 0.015408
#
#
# Mechanical properties :
#
#
# Convention : Reuss Voigt Hill
#
# Bulk Modulus (GPa) = 41.23648 65.45611 53.34630
# Shear Modulus (GPa) = 43.46132 53.97892 48.72012
#
# Velocity S-wave (km/s) = 4.04189 4.50448 4.27944
# Velocity P-wave (km/s) = 6.10598 7.18738 6.66864
#
# Compressibility (1/GPa) = 0.02425037
#
# Stress axis : x y z
#
# Youngs Moduli (GPa) = 90.58797 149.46030 62.87253
#
# Poissons Ratio (x) = 0.42425 -0.17577
# Poissons Ratio (y) = 0.25714 0.29232
# Poissons Ratio (z) = -0.25325 0.69490
#
# Static dielectric constant tensor:
#      x y z
#    x 2.152860 0.000000 -0.261590 
#    y 0.000000 2.063110 0.000000 
#    z -0.261590 0.000000 2.385650 
# 
# From -- ./inp_files/15911.got.cif
#   From: 2010.05.17/outbox.ucp.g08.bks.cvg/sg4_8_cif.got.tgz:15911.got - 2010.06.11 12:51:24.
