data_PCOD9119439
_publ_section_title
;
Structure prediction by ZEFSAII (Michael W. Deem and Ramdas Pophale) SiO2 
 PCOD9119439
Probable space group: P 21
;
_chemical_formula_sum "Si O2"
_cell_formula_units_Z 16
_cell_length_a 24.410955
_cell_length_b 5.273937
_cell_length_c 30.203844
_cell_angle_alpha 90.000000
_cell_angle_beta 9.967991
_cell_angle_gamma 90.000000
_cell_volume 673.091203
_symmetry_space_group_name_H-M "P 21"
_symmetry_group_IT_number 4
_symmetry_cell_setting 'monoclinic'
loop_
_space_group_symop_operation_xyz
x,y,z
-x,1/2+y,-z
loop_
_atom_site_type_symbol
_atom_site_label
_atom_site_fract_x
_atom_site_fract_y
_atom_site_fract_z
Si Si1 0.142714 0.847430 0.381308
Si Si2 0.049781 0.992109 0.143193
Si Si3 0.290572 0.777891 0.661151
Si Si4 0.248468 0.142038 0.557562
Si Si5 0.345963 0.213325 0.374545
Si Si6 0.413110 0.390462 0.894830
Si Si7 0.886557 0.890167 0.067125
Si Si8 0.702953 0.295199 0.835509
O O1 0.409902 0.944631 0.200992
O O2 0.210929 0.700487 0.281993
O O3 0.012937 0.606714 0.511711
O O4 0.895143 0.205996 0.235388
O O5 0.293040 0.104902 0.985584
O O6 0.753293 0.874697 0.406173
O O7 0.304274 0.842088 0.909605
O O8 0.510973 0.537800 0.498597
O O9 0.032390 0.810681 0.904555
O O10 0.282427 0.187023 0.477748
O O11 0.518886 0.946636 0.354922
O O12 0.907347 0.043485 0.843260
O O13 0.020590 0.330893 0.612373
O O14 0.400086 0.971079 0.298405
O O15 0.037196 0.160371 0.960809
O O16 0.513092 0.557095 0.977787
#
# Coordination Sequence:
#
# PCOD9119439 Si02
#       8
#     2   2   2   2   2   2   2   2
#     4  12  25  47  76 109 152 204 252 318 384 454
#     4  11  28  48  80 113 155 205 257 318 387 459
#     4  12  29  51  80 115 158 205 258 316 384 464
#     4  11  28  49  77 115 155 202 260 316 385 462
#     4  11  26  51  74 112 155 208 257 322 388 458
#     4  11  26  47  77 108 155 203 257 320 383 462
#     4  12  29  51  79 115 156 205 258 318 383 460
#     4  12  27  46  75 113 154 200 263 320 384 461
#
# _framework density 23.770923
#
# number of rings (size 3 to 8) (size 9 to 14) (size 15 to 20)
#    0.000    0.500    1.250    4.500   17.500    1.000 
#    0.000    0.000    0.000    0.000    0.000    0.000 
#    0.000    0.000    0.000    0.000    0.000    0.000 
#
# Total GULP energy -89294.045502 kJ/mol
# GULP energy per Si atom -5580.877844 kJ/mol
# Density = 2.371682 g / cm^3
# Si number density = 23.770923 Si / 1000 Ang^3
#
#
#
# Elastic Constant Matrix: (Units=GPa)
#
#
# Indices 1 2 3 4 5 6 
#
# 1 112.7838 9.1808 37.4979 -0.0005 17.9898 -0.0001
# 2 9.1808 94.0982 35.0362 -0.0001 -9.7093 0.0000
# 3 37.4979 35.0362 104.5825 -0.0005 0.4121 -0.0001
# 4 -0.0005 -0.0001 -0.0005 30.0763 0.0003 -4.0910
# 5 17.9898 -9.7093 0.4121 0.0003 52.3988 0.0001
# 6 -0.0001 0.0000 -0.0001 -4.0910 0.0001 32.8978
#
#
#
# Elastic Compliance Matrix: (Units=1/GPa)
#
#
# Indices 1 2 3 4 5 6 
#
# 1 0.010722 0.000004 -0.003831 0.000000 -0.003650 0.000000
# 2 0.000004 0.012421 -0.004172 0.000000 0.002333 0.000000
# 3 -0.003831 -0.004172 0.012331 0.000000 0.000445 0.000000
# 4 0.000000 0.000000 0.000000 0.033821 0.000000 0.004206
# 5 -0.003650 0.002333 0.000445 0.000000 0.020766 0.000000
# 6 0.000000 0.000000 0.000000 0.004206 0.000000 0.030920
#
#
# Mechanical properties :
#
#
# Convention : Reuss Voigt Hill
#
# Bulk Modulus (GPa) = 51.34522 52.76603 52.05562
# Shear Modulus (GPa) = 34.84993 38.39122 36.62058
#
# Velocity S-wave (km/s) = 3.83309 4.02313 3.92926
# Velocity P-wave (km/s) = 6.42160 6.62017 6.52164
#
# Compressibility (1/GPa) = 0.01947601
#
# Stress axis : x y z
#
# Youngs Moduli (GPa) = 93.26353 80.51001 81.09420
#
# Poissons Ratio (x) = -0.00030 0.31070
# Poissons Ratio (y) = -0.00035 0.33830
# Poissons Ratio (z) = 0.35732 0.33586
#
# Static dielectric constant tensor:
#      x y z
#    x 1.859000 0.000000 -0.038180 
#    y 0.000000 2.071850 0.000000 
#    z -0.038180 0.000000 1.940440 
# 
# From -- ./inp_files/16571.got.cif
#   From: 2010.05.17/outbox.cif.g08.bks.cpg/sg4_9_cif.got.tgz:16571.got - 2010.06.03 18:43:04.
