data_PCOD9119317
_publ_section_title
;
Structure prediction by ZEFSAII (Michael W. Deem and Ramdas Pophale) SiO2 
 PCOD9119317
Probable space group: P 21
;
_chemical_formula_sum "Si O2"
_cell_formula_units_Z 16
_cell_length_a 11.600612
_cell_length_b 6.860697
_cell_length_c 8.566528
_cell_angle_alpha 90.000000
_cell_angle_beta 98.151481
_cell_angle_gamma 90.000000
_cell_volume 674.906851
_symmetry_space_group_name_H-M "P 21"
_symmetry_group_IT_number 4
_symmetry_cell_setting 'monoclinic'
loop_
_space_group_symop_operation_xyz
x,y,z
-x,1/2+y,-z
loop_
_atom_site_type_symbol
_atom_site_label
_atom_site_fract_x
_atom_site_fract_y
_atom_site_fract_z
Si Si1 0.943197 0.626300 0.309284
Si Si2 0.613622 0.069773 0.093217
Si Si3 0.168935 0.623787 0.044540
Si Si4 0.866343 0.796689 0.617731
Si Si5 0.488060 0.204510 0.749792
Si Si6 0.288549 0.627234 0.404027
Si Si7 0.066615 0.972154 0.136659
Si Si8 0.287352 0.916071 0.684267
O O1 0.921062 0.688186 0.482136
O O2 0.818975 0.525504 0.251929
O O3 0.036679 0.455513 0.321674
O O4 0.999091 0.814972 0.234554
O O5 0.642937 0.264893 0.193443
O O6 0.553480 0.915733 0.196527
O O7 0.743172 0.016570 0.055411
O O8 0.540330 0.109928 0.921114
O O9 0.223056 0.604903 0.225750
O O10 0.155453 0.857208 0.043278
O O11 0.038817 0.557631 0.983436
O O12 0.864368 0.638297 0.755755
O O13 0.748761 0.911879 0.543055
O O14 0.584458 0.190774 0.631646
O O15 0.380522 0.081323 0.665678
O O16 0.249412 0.787424 0.524724
#
# Coordination Sequence:
#
# PCOD9119317 Si02
#       8
#     2   2   2   2   2   2   2   2
#     4  12  25  43  75 111 157 202 250 304 384 457
#     4  11  25  51  74 104 148 195 258 310 388 454
#     4  11  25  46  69 110 146 199 248 303 377 448
#     4  12  24  48  71 113 154 202 250 311 377 460
#     4  11  26  52  75 108 147 198 255 322 382 449
#     4  11  27  48  73 109 151 192 260 312 379 447
#     4  12  25  45  75 110 159 203 249 308 378 456
#     4  12  27  45  76 109 146 203 252 314 379 451
#
# _framework density 23.706976999999998
#
# number of rings (size 3 to 8) (size 9 to 14) (size 15 to 20)
#    0.000    0.500    3.750    3.750    7.000    0.000 
#    9.000    0.000    0.000    0.000    0.000    0.000 
#    0.000    0.000    0.000    0.000    0.000    0.000 
#
# Total GULP energy -89286.742232 kJ/mol
# GULP energy per Si atom -5580.421389 kJ/mol
# Density = 2.365302 g / cm^3
# Si number density = 23.706977 Si / 1000 Ang^3
#
#
#
# Elastic Constant Matrix: (Units=GPa)
#
#
# Indices 1 2 3 4 5 6 
#
# 1 94.3735 28.5768 -12.0017 0.0000 -15.9389 0.0000
# 2 28.5768 99.2544 11.1489 0.0000 9.5189 0.0000
# 3 -12.0017 11.1489 47.6787 0.0000 0.5582 0.0000
# 4 0.0000 0.0000 0.0000 -22.6623 0.0000 76.8724
# 5 -15.9389 9.5189 0.5582 0.0000 18.2005 0.0000
# 6 0.0000 0.0000 0.0000 76.8724 0.0000 -14.3978
#
#
#
# Elastic Compliance Matrix: (Units=1/GPa)
#
#
# Indices 1 2 3 4 5 6 
#
# 1 0.016499 -0.007106 0.005604 0.000000 0.017994 0.000000
# 2 -0.007106 0.013953 -0.004895 0.000000 -0.013370 0.000000
# 3 0.005604 -0.004895 0.023450 0.000000 0.006749 0.000000
# 4 0.000000 0.000000 0.000000 0.002579 0.000000 0.013769
# 5 0.017994 -0.013370 0.006749 0.000000 0.077487 0.000000
# 6 0.000000 0.000000 0.000000 0.013769 0.000000 0.004059
#
#
# Mechanical properties :
#
#
# Convention : Reuss Voigt Hill
#
# Bulk Modulus (GPa) = 24.32505 32.97275 28.64890
# Shear Modulus (GPa) = 30.39091 10.46693 20.42892
#
# Velocity S-wave (km/s) = 3.58430 2.10350 2.93870
# Velocity P-wave (km/s) = 5.23571 4.45402 4.86060
#
# Compressibility (1/GPa) = 0.04110989
#
# Stress axis : x y z
#
# Youngs Moduli (GPa) = 60.60803 71.66930 42.64403
#
# Poissons Ratio (x) = 0.50925 -0.23898
# Poissons Ratio (y) = 0.43066 0.20873
# Poissons Ratio (z) = -0.33965 0.35081
#
# Static dielectric constant tensor:
#      x y z
#    x 2.372460 0.000000 -0.863840 
#    y 0.000000 2.085980 0.000000 
#    z -0.863840 0.000000 3.679420 
# 
# From -- ./inp_files/7414.got.cif
#   From: 2010.05.17/outbox.cif.g08.bks.cpg/sg4_4_cif.got.tgz:7414.got - 2010.06.03 18:43:04.
