data_PCOD9119219
_publ_section_title
;
Structure prediction by ZEFSAII (Michael W. Deem and Ramdas Pophale) SiO2 
 PCOD9119219
Probable space group: P 21
;
_chemical_formula_sum "Si O2"
_cell_formula_units_Z 16
_cell_length_a 7.058277
_cell_length_b 5.527975
_cell_length_c 20.828985
_cell_angle_alpha 90.000000
_cell_angle_beta 127.410890
_cell_angle_gamma 90.000000
_cell_volume 645.530819
_symmetry_space_group_name_H-M "P 21"
_symmetry_group_IT_number 4
_symmetry_cell_setting 'monoclinic'
loop_
_space_group_symop_operation_xyz
x,y,z
-x,1/2+y,-z
loop_
_atom_site_type_symbol
_atom_site_label
_atom_site_fract_x
_atom_site_fract_y
_atom_site_fract_z
Si Si1 0.634744 0.663800 0.121095
Si Si2 0.728577 0.575533 0.512202
Si Si3 0.402128 0.923709 0.748394
Si Si4 0.876090 0.044172 0.233434
Si Si5 0.356311 0.917724 0.367940
Si Si6 0.256426 0.751081 0.594300
Si Si7 0.947005 0.852069 0.835815
Si Si8 0.912660 0.076233 0.015015
O O1 0.653459 0.579975 0.200052
O O2 0.836022 0.542824 0.117974
O O3 0.373697 0.591843 0.044746
O O4 0.690048 0.945944 0.142262
O O5 0.513247 0.709896 0.432520
O O6 0.707036 0.582538 0.583557
O O7 0.730660 0.317801 0.477930
O O8 0.986902 0.676824 0.549198
O O9 0.281564 0.663637 0.743061
O O10 0.303633 0.962840 0.656282
O O11 0.685873 0.943408 0.798836
O O12 0.033182 0.251608 0.231972
O O13 0.090248 0.852515 0.289596
O O14 0.532626 0.053728 0.355008
O O15 0.990019 0.634910 0.894523
O O16 0.002802 0.314553 0.993393
#
# Coordination Sequence:
#
# PCOD9119219 Si02
#       8
#     2   2   2   2   2   2   2   2
#     4  11  28  45  74 111 144 189 249 300 369 441
#     4  12  26  42  69  99 136 183 240 295 371 442
#     4  11  24  48  69 102 144 185 240 302 363 441
#     4  11  26  44  73 102 143 191 242 303 366 446
#     4  12  25  43  67 102 139 185 236 302 366 436
#     4  12  25  43  69  99 139 183 239 303 367 436
#     4  11  26  46  74 107 147 193 243 298 370 436
#     4  12  28  51  81 112 160 205 249 313 376 448
#
# _framework density 24.785803000000001
#
# number of rings (size 3 to 8) (size 9 to 14) (size 15 to 20)
#    0.000    0.500    6.250    0.750    7.000    4.000 
#    0.000    0.000    0.000    0.000    0.000    0.000 
#    0.000    0.000    0.000    0.000    0.000    0.000 
#
# Total GULP energy -89337.720638 kJ/mol
# GULP energy per Si atom -5583.607540 kJ/mol
# Density = 2.472939 g / cm^3
# Si number density = 24.785803 Si / 1000 Ang^3
#
#
#
# Elastic Constant Matrix: (Units=GPa)
#
#
# Indices 1 2 3 4 5 6 
#
# 1 178.7330 31.7027 25.9099 0.0000 25.1875 0.0000
# 2 31.7027 36.5325 -8.4025 0.0000 10.7880 0.0000
# 3 25.9099 -8.4025 55.4373 0.0000 19.6745 0.0000
# 4 0.0000 0.0000 0.0000 30.5374 0.0000 -0.7528
# 5 25.1875 10.7880 19.6745 0.0000 63.8364 0.0000
# 6 0.0000 0.0000 0.0000 -0.7528 0.0000 39.0859
#
#
#
# Elastic Compliance Matrix: (Units=1/GPa)
#
#
# Indices 1 2 3 4 5 6 
#
# 1 0.007661 -0.007621 -0.004626 0.000000 -0.000309 0.000000
# 2 -0.007621 0.038905 0.012042 0.000000 -0.007279 0.000000
# 3 -0.004626 0.012042 0.024814 0.000000 -0.007858 0.000000
# 4 0.000000 0.000000 0.000000 0.032762 0.000000 0.000631
# 5 -0.000309 -0.007279 -0.007858 0.000000 0.019439 0.000000
# 6 0.000000 0.000000 0.000000 0.000631 0.000000 0.025597
#
#
# Mechanical properties :
#
#
# Convention : Reuss Voigt Hill
#
# Bulk Modulus (GPa) = 14.09026 41.01367 27.55196
# Shear Modulus (GPa) = 28.86098 41.45811 35.15955
#
# Velocity S-wave (km/s) = 3.41606 4.09425 3.77043
# Velocity P-wave (km/s) = 4.61047 6.23968 5.48589
#
# Compressibility (1/GPa) = 0.07097101
#
# Stress axis : x y z
#
# Youngs Moduli (GPa) = 130.53503 25.70353 40.29957
#
# Poissons Ratio (x) = 0.19588 0.18642
# Poissons Ratio (y) = 0.99476 -0.48528
# Poissons Ratio (z) = 0.60382 -0.30952
#
# Static dielectric constant tensor:
#      x y z
#    x 1.967290 0.000000 -0.002150 
#    y 0.000000 2.109230 0.000000 
#    z -0.002150 0.000000 2.003220 
# 
# From -- ./inp_files/3942.got.cif
#   From: 2010.05.17/outbox.cif.g08.bks.cpg/sg4_2_cif.got.tgz:3942.got - 2010.06.03 18:43:04.
