data_PCOD9119030
_publ_section_title
;
Structure prediction by ZEFSAII (Michael W. Deem and Ramdas Pophale) SiO2 
 PCOD9119030
Probable space group: P 21
;
_chemical_formula_sum "Si O2"
_cell_formula_units_Z 16
_cell_length_a 24.128243
_cell_length_b 4.948722
_cell_length_c 29.966447
_cell_angle_alpha 90.000000
_cell_angle_beta 10.436001
_cell_angle_gamma 90.000000
_cell_volume 648.129030
_symmetry_space_group_name_H-M "P 21"
_symmetry_group_IT_number 4
_symmetry_cell_setting 'monoclinic'
loop_
_space_group_symop_operation_xyz
x,y,z
-x,1/2+y,-z
loop_
_atom_site_type_symbol
_atom_site_label
_atom_site_fract_x
_atom_site_fract_y
_atom_site_fract_z
Si Si1 0.857152 0.115160 0.822620
Si Si2 0.962518 0.119925 0.001142
Si Si3 0.519548 0.960317 0.456551
Si Si4 0.441720 0.429330 0.379185
Si Si5 0.121352 0.782033 0.696228
Si Si6 0.180910 0.995007 0.475536
Si Si7 0.146576 0.212324 0.404905
Si Si8 0.583003 0.502234 0.172668
O O1 0.096395 0.360840 0.637885
O O2 0.939653 0.005797 0.707618
O O3 0.506929 0.191444 0.108322
O O4 0.954330 0.923986 0.786984
O O5 0.195055 0.283288 0.786089
O O6 0.630325 0.162328 0.242019
O O7 0.961427 0.317680 0.045331
O O8 0.393307 0.748138 0.592933
O O9 0.267714 0.980687 0.616848
O O10 0.399592 0.609614 0.455814
O O11 0.602032 0.565437 0.210081
O O12 0.886865 0.580408 0.906197
O O13 0.076049 0.105859 0.510671
O O14 0.467657 0.194435 0.260264
O O15 0.316701 0.695539 0.364492
O O16 0.031421 0.513424 0.487639
#
# Coordination Sequence:
#
# PCOD9119030 Si02
#       8
#     2   2   2   2   2   2   2   2
#     4  11  26  45  79 106 145 188 254 294 364 438
#     4  12  25  46  68  97 145 190 243 304 370 441
#     4  12  28  46  67 104 146 193 249 309 375 437
#     4  11  25  44  72 105 137 194 244 306 365 428
#     4  12  24  45  75 100 145 196 246 310 365 429
#     4  11  24  47  71 110 144 183 242 297 351 439
#     4  12  28  48  76 109 152 192 227 295 369 437
#     4  11  24  41  72 105 142 178 243 307 351 419
#
# _framework density 24.686442
#
# number of rings (size 3 to 8) (size 9 to 14) (size 15 to 20)
#    0.000    0.500    3.750    3.750    3.500    3.000 
#    0.000    0.000    0.000    0.000    0.000    0.000 
#    0.000    0.000    0.000    0.000    0.000    0.000 
#
# Total GULP energy -89643.968339 kJ/mol
# GULP energy per Si atom -5602.748021 kJ/mol
# Density = 2.463025 g / cm^3
# Si number density = 24.686442 Si / 1000 Ang^3
#
#
#
# Elastic Constant Matrix: (Units=GPa)
#
#
# Indices 1 2 3 4 5 6 
#
# 1 136.9932 15.6609 39.8003 0.0000 25.7875 0.0000
# 2 15.6609 81.4216 6.3467 0.0000 6.7479 0.0000
# 3 39.8003 6.3467 123.0400 0.0000 11.4111 0.0000
# 4 0.0000 0.0000 0.0000 30.7116 0.0000 -1.7087
# 5 25.7875 6.7479 11.4111 0.0000 45.8847 0.0000
# 6 0.0000 0.0000 0.0000 -1.7087 0.0000 45.1375
#
#
#
# Elastic Compliance Matrix: (Units=1/GPa)
#
#
# Indices 1 2 3 4 5 6 
#
# 1 0.008942 -0.001178 -0.002438 0.000000 -0.004246 0.000000
# 2 -0.001178 0.012617 -0.000163 0.000000 -0.001153 0.000000
# 3 -0.002438 -0.000163 0.009003 0.000000 -0.000845 0.000000
# 4 0.000000 0.000000 0.000000 0.032630 0.000000 0.001235
# 5 -0.004246 -0.001153 -0.000845 0.000000 0.024560 0.000000
# 6 0.000000 0.000000 0.000000 0.001235 0.000000 0.022201
#
#
# Mechanical properties :
#
#
# Convention : Reuss Voigt Hill
#
# Bulk Modulus (GPa) = 43.47121 51.67450 47.57286
# Shear Modulus (GPa) = 39.94338 42.98988 41.46663
#
# Velocity S-wave (km/s) = 4.02684 4.17758 4.10290
# Velocity P-wave (km/s) = 6.26643 6.65187 6.46202
#
# Compressibility (1/GPa) = 0.02300373
#
# Stress axis : x y z
#
# Youngs Moduli (GPa) = 111.83407 79.26084 111.07660
#
# Poissons Ratio (x) = 0.09337 0.27080
# Poissons Ratio (y) = 0.13174 0.01809
# Poissons Ratio (z) = 0.27264 0.01291
#
# Static dielectric constant tensor:
#      x y z
#    x 2.056840 0.000000 0.060390 
#    y 0.000000 1.920530 0.000000 
#    z 0.060390 0.000000 1.945740 
# 
# From -- ./inp_files/16561.got.cif
#   From: 2010.05.17/outbox.cif.g08.bks.cpg/sg4_9_cif.got.tgz:16561.got - 2010.06.03 18:43:04.
