data_PCOD9119628
_publ_section_title
;
Structure prediction by ZEFSAII (Michael W. Deem and Ramdas Pophale) SiO2 
 PCOD9119628
Probable space group: P 21
;
_chemical_formula_sum "Si O2"
_cell_formula_units_Z 16
_cell_length_a 16.641950
_cell_length_b 7.721763
_cell_length_c 6.202670
_cell_angle_alpha 90.000000
_cell_angle_beta 56.112970
_cell_angle_gamma 90.000000
_cell_volume 661.682918
_symmetry_space_group_name_H-M "P 21"
_symmetry_group_IT_number 4
_symmetry_cell_setting 'monoclinic'
loop_
_space_group_symop_operation_xyz
x,y,z
-x,1/2+y,-z
loop_
_atom_site_type_symbol
_atom_site_label
_atom_site_fract_x
_atom_site_fract_y
_atom_site_fract_z
Si Si1 0.398563 0.023490 0.242974
Si Si2 0.520937 0.843009 0.434067
Si Si3 0.439069 0.580086 0.312031
Si Si4 0.107309 0.945285 0.670585
Si Si5 0.103214 0.310772 0.913811
Si Si6 0.777006 0.154227 0.252910
Si Si7 0.708321 0.680401 0.218221
Si Si8 0.738777 0.354804 0.896177
O O1 0.322513 0.144590 0.486727
O O2 0.456229 0.915998 0.337607
O O3 0.337682 0.890282 0.183655
O O4 0.481509 0.120654 0.984301
O O5 0.472478 0.651026 0.498344
O O6 0.634235 0.811053 0.213560
O O7 0.528792 0.887205 0.671887
O O8 0.325004 0.606068 0.479691
O O9 0.098883 0.148428 0.751790
O O10 0.173076 0.831410 0.738376
O O11 0.159950 0.911531 0.364323
O O12 0.001955 0.857990 0.841316
O O13 0.152340 0.496473 0.785018
O O14 0.182446 0.241681 0.964498
O O15 0.755908 0.189023 0.027728
O O16 0.698975 0.497337 0.119945
#
# Coordination Sequence:
#
# PCOD9119628 Si02
#       8
#     2   2   2   2   2   2   2   2
#     4  12  25  45  76 106 159 213 255 309 387 468
#     4  12  25  43  66 109 152 202 255 312 363 458
#     4  12  26  42  74 107 154 203 255 305 382 455
#     4  12  27  53  85 110 155 202 257 334 397 471
#     4  12  26  53  82 114 154 195 263 331 397 461
#     4  12  27  49  76 120 155 199 264 325 380 477
#     4  12  25  50  71 109 161 198 263 327 375 470
#     4  12  25  51  78 109 154 212 252 325 397 456
#
# _framework density 24.180766999999999
#
# number of rings (size 3 to 8) (size 9 to 14) (size 15 to 20)
#    0.000    0.000    7.500    2.250    1.750    4.000 
#    4.500    0.000    0.000    0.000    0.000    0.000 
#    0.000    0.000    0.000    0.000    0.000    0.000 
#
# Total GULP energy -89097.937086 kJ/mol
# GULP energy per Si atom -5568.621068 kJ/mol
# Density = 2.412573 g / cm^3
# Si number density = 24.180767 Si / 1000 Ang^3
#
#
#
# Elastic Constant Matrix: (Units=GPa)
#
#
# Indices 1 2 3 4 5 6 
#
# 1 139.0970 29.7082 72.1943 0.0000 -36.8050 0.0000
# 2 29.7082 75.3371 65.1920 0.0000 4.8766 0.0000
# 3 72.1943 65.1920 161.8151 0.0000 -40.4844 0.0000
# 4 0.0000 0.0000 0.0000 59.6203 0.0000 -8.9109
# 5 -36.8050 4.8766 -40.4844 0.0000 44.9334 0.0000
# 6 0.0000 0.0000 0.0000 -8.9109 0.0000 54.3774
#
#
#
# Elastic Compliance Matrix: (Units=1/GPa)
#
#
# Indices 1 2 3 4 5 6 
#
# 1 0.010777 -0.003584 -0.001366 0.000000 0.007985 0.000000
# 2 -0.003584 0.028835 -0.014893 0.000000 -0.019483 0.000000
# 3 -0.001366 -0.014893 0.016672 0.000000 0.015518 0.000000
# 4 0.000000 0.000000 0.000000 0.017194 0.000000 0.002818
# 5 0.007985 -0.019483 0.015518 0.000000 0.044892 0.000000
# 6 0.000000 0.000000 0.000000 0.002818 0.000000 0.018852
#
#
# Mechanical properties :
#
#
# Convention : Reuss Voigt Hill
#
# Bulk Modulus (GPa) = 60.24894 78.93757 69.59326
# Shear Modulus (GPa) = 27.40614 45.72987 36.56801
#
# Velocity S-wave (km/s) = 3.37023 4.35347 3.89302
# Velocity P-wave (km/s) = 6.33362 7.61485 7.00360
#
# Compressibility (1/GPa) = 0.01659780
#
# Stress axis : x y z
#
# Youngs Moduli (GPa) = 92.79218 34.67963 59.98135
#
# Poissons Ratio (x) = 0.12431 0.08194
# Poissons Ratio (y) = 0.33260 0.89328
# Poissons Ratio (z) = 0.12677 0.51647
#
# Static dielectric constant tensor:
#      x y z
#    x 1.921220 0.000000 -0.056070 
#    y 0.000000 2.831660 0.000000 
#    z -0.056070 0.000000 1.705330 
# 
# From -- ./inp_files/4099.got.cif
#   From: 2010.05.17/outbox.cif.g08.bks.cpg/sg4_3_cif.got.tgz:4099.got - 2010.06.03 18:43:04.
