data_PCOD9119572
_publ_section_title
;
Structure prediction by ZEFSAII (Michael W. Deem and Ramdas Pophale) SiO2 
 PCOD9119572
Probable space group: P 21
;
_chemical_formula_sum "Si O2"
_cell_formula_units_Z 16
_cell_length_a 9.388564
_cell_length_b 6.286206
_cell_length_c 11.385234
_cell_angle_alpha 90.000000
_cell_angle_beta 103.725071
_cell_angle_gamma 90.000000
_cell_volume 652.751884
_symmetry_space_group_name_H-M "P 21"
_symmetry_group_IT_number 4
_symmetry_cell_setting 'monoclinic'
loop_
_space_group_symop_operation_xyz
x,y,z
-x,1/2+y,-z
loop_
_atom_site_type_symbol
_atom_site_label
_atom_site_fract_x
_atom_site_fract_y
_atom_site_fract_z
Si Si1 0.308712 0.529010 0.223570
Si Si2 0.631971 0.154617 0.185202
Si Si3 0.919656 0.958401 0.144604
Si Si4 0.811569 0.678249 0.911815
Si Si5 0.535996 0.623080 0.461384
Si Si6 0.793149 0.374204 0.424536
Si Si7 0.958934 0.122700 0.660756
Si Si8 0.402099 0.848071 0.052160
O O1 0.312575 0.281173 0.195086
O O2 0.433363 0.617660 0.329071
O O3 0.152805 0.555446 0.257808
O O4 0.330549 0.653946 0.107517
O O5 0.673675 0.253253 0.318594
O O6 0.788846 0.109674 0.156336
O O7 0.537341 0.940200 0.154125
O O8 0.554012 0.304211 0.072771
O O9 0.940334 0.797659 0.256395
O O10 0.886714 0.841933 0.015030
O O11 0.070881 0.076572 0.150538
O O12 0.728926 0.515045 0.977452
O O13 0.513797 0.877072 0.496898
O O14 0.706137 0.573243 0.465675
O O15 0.858301 0.223519 0.538491
O O16 0.930942 0.451701 0.373759
#
# Coordination Sequence:
#
# PCOD9119572 Si02
#       8
#     2   2   2   2   2   2   2   2
#     4  12  27  49  79 112 153 210 265 333 401 489
#     4  12  27  47  74 114 158 206 259 333 403 483
#     4  12  24  44  75 108 154 200 261 323 405 483
#     4  12  24  46  75 110 152 197 260 333 399 486
#     4  12  31  53  86 120 164 218 277 337 409 486
#     4  12  29  49  78 116 162 211 265 332 403 487
#     4  12  27  49  75 112 157 208 264 326 399 484
#     4  12  27  49  76 114 152 202 265 325 411 476
#
# _framework density 24.511613000000001
#
# number of rings (size 3 to 8) (size 9 to 14) (size 15 to 20)
#    0.000    0.000    3.750    5.250   10.500    0.000 
#    0.000    0.000    0.000    0.000    0.000    0.000 
#    0.000    0.000    0.000    0.000    0.000    0.000 
#
# Total GULP energy -89407.719794 kJ/mol
# GULP energy per Si atom -5587.982487 kJ/mol
# Density = 2.445582 g / cm^3
# Si number density = 24.511613 Si / 1000 Ang^3
#
#
#
# Elastic Constant Matrix: (Units=GPa)
#
#
# Indices 1 2 3 4 5 6 
#
# 1 102.8461 13.1909 -5.8932 0.0000 -20.5297 0.0000
# 2 13.1909 67.8966 26.2521 0.0000 -7.2980 0.0000
# 3 -5.8932 26.2521 100.0716 0.0000 6.9245 0.0000
# 4 0.0000 0.0000 0.0000 39.7141 0.0000 0.1021
# 5 -20.5297 -7.2980 6.9245 0.0000 36.4193 0.0000
# 6 0.0000 0.0000 0.0000 0.1021 0.0000 52.9894
#
#
#
# Elastic Compliance Matrix: (Units=1/GPa)
#
#
# Indices 1 2 3 4 5 6 
#
# 1 0.011154 -0.001831 0.000737 0.000000 0.005781 0.000000
# 2 -0.001831 0.017337 -0.004889 0.000000 0.003372 0.000000
# 3 0.000737 -0.004889 0.011509 0.000000 -0.002753 0.000000
# 4 0.000000 0.000000 0.000000 0.025180 0.000000 -0.000049
# 5 0.005781 0.003372 -0.002753 0.000000 0.031916 0.000000
# 6 0.000000 0.000000 0.000000 -0.000049 0.000000 0.018872
#
#
# Mechanical properties :
#
#
# Convention : Reuss Voigt Hill
#
# Bulk Modulus (GPa) = 35.66986 37.54599 36.60792
# Shear Modulus (GPa) = 36.42243 41.64219 39.03231
#
# Velocity S-wave (km/s) = 3.85895 4.12621 3.99482
# Velocity P-wave (km/s) = 5.86849 6.16861 6.02042
#
# Compressibility (1/GPa) = 0.02803488
#
# Stress axis : x y z
#
# Youngs Moduli (GPa) = 89.65209 57.68102 86.88629
#
# Poissons Ratio (x) = 0.10560 -0.06405
# Poissons Ratio (y) = 0.16413 0.42480
# Poissons Ratio (z) = -0.06608 0.28201
#
# Static dielectric constant tensor:
#      x y z
#    x 1.954000 0.000000 -0.056550 
#    y 0.000000 2.029740 0.000000 
#    z -0.056550 0.000000 1.950080 
# 
# From -- ./inp_files/7358.got.cif
#   From: 2010.05.17/outbox.cif.g08.bks.cpg/sg4_4_cif.got.tgz:7358.got - 2010.06.03 18:43:04.
