data_PCOD9119097
_publ_section_title
;
Structure prediction by ZEFSAII (Michael W. Deem and Ramdas Pophale) SiO2 
 PCOD9119097
Probable space group: P 21
;
_chemical_formula_sum "Si O2"
_cell_formula_units_Z 16
_cell_length_a 9.866593
_cell_length_b 12.294344
_cell_length_c 5.172797
_cell_angle_alpha 90.000000
_cell_angle_beta 101.345378
_cell_angle_gamma 90.000000
_cell_volume 615.215855
_symmetry_space_group_name_H-M "P 21"
_symmetry_group_IT_number 4
_symmetry_cell_setting 'monoclinic'
loop_
_space_group_symop_operation_xyz
x,y,z
-x,1/2+y,-z
loop_
_atom_site_type_symbol
_atom_site_label
_atom_site_fract_x
_atom_site_fract_y
_atom_site_fract_z
Si Si1 0.328448 0.791760 0.786320
Si Si2 0.107200 0.167294 0.686663
Si Si3 0.303207 0.413799 0.367202
Si Si4 0.420555 0.999907 0.654492
Si Si5 0.206690 0.041332 0.203010
Si Si6 0.834553 0.094165 0.406254
Si Si7 0.506170 0.742499 0.342347
Si Si8 0.942952 0.900790 0.102015
O O1 0.200133 0.710514 0.726103
O O2 0.424397 0.749568 0.583455
O O3 0.305961 0.919683 0.731843
O O4 0.403254 0.779423 0.083553
O O5 0.158381 0.117511 0.431102
O O6 0.078511 0.294813 0.726429
O O7 0.956026 0.112363 0.655778
O O8 0.196800 0.119404 0.953909
O O9 0.435083 0.438452 0.234413
O O10 0.287363 0.529641 0.500563
O O11 0.361122 0.320077 0.574742
O O12 0.158613 0.383334 0.180950
O O13 0.361986 0.005299 0.337451
O O14 0.446245 0.123816 0.724535
O O15 0.102583 0.938256 0.129371
O O16 0.880945 0.007879 0.212215
#
# Coordination Sequence:
#
# PCOD9119097 Si02
#       8
#     2   2   2   2   2   2   2   2
#     4  11  26  44  69 103 145 186 232 297 356 423
#     4  11  26  45  75 103 142 192 244 299 357 432
#     4  11  24  44  73 105 141 193 240 300 357 435
#     4  11  25  46  70 105 148 187 238 301 361 427
#     4  11  26  46  67 106 141 188 238 298 360 428
#     4  11  24  46  73 107 143 191 245 295 363 429
#     4  11  26  41  68 105 141 186 237 289 359 424
#     4  11  25  46  73 102 143 193 240 301 357 432
#
# _framework density 26.007131999999999
#
# number of rings (size 3 to 8) (size 9 to 14) (size 15 to 20)
#    0.000    1.000    2.500    2.250    8.750    3.000 
#    0.000    0.000    0.000    0.000    0.000    0.000 
#    0.000    0.000    0.000    0.000    0.000    0.000 
#
# Total GULP energy -89520.938042 kJ/mol
# GULP energy per Si atom -5595.058628 kJ/mol
# Density = 2.594794 g / cm^3
# Si number density = 26.007132 Si / 1000 Ang^3
#
#
#
# Elastic Constant Matrix: (Units=GPa)
#
#
# Indices 1 2 3 4 5 6 
#
# 1 62.9766 7.7248 13.0864 0.0000 -6.1874 0.0000
# 2 7.7248 164.8397 21.7030 0.0000 -0.0294 0.0000
# 3 13.0864 21.7030 110.0267 0.0000 20.1383 0.0000
# 4 0.0000 0.0000 0.0000 27.0432 0.0000 12.5483
# 5 -6.1874 -0.0294 20.1383 0.0000 36.8957 0.0000
# 6 0.0000 0.0000 0.0000 12.5483 0.0000 40.8698
#
#
#
# Elastic Compliance Matrix: (Units=1/GPa)
#
#
# Indices 1 2 3 4 5 6 
#
# 1 0.016921 -0.000434 -0.002718 0.000000 0.004321 0.000000
# 2 -0.000434 0.006258 -0.001300 0.000000 0.000642 0.000000
# 3 -0.002718 -0.001300 0.010834 0.000000 -0.006370 0.000000
# 4 0.000000 0.000000 0.000000 0.043121 0.000000 -0.013240
# 5 0.004321 0.000642 -0.006370 0.000000 0.031306 0.000000
# 6 0.000000 0.000000 0.000000 -0.013240 0.000000 0.028533
#
#
# Mechanical properties :
#
#
# Convention : Reuss Voigt Hill
#
# Bulk Modulus (GPa) = 39.82600 46.98572 43.40586
# Shear Modulus (GPa) = 32.41526 40.65032 36.53279
#
# Velocity S-wave (km/s) = 3.53427 3.95783 3.75203
# Velocity P-wave (km/s) = 5.65698 6.24432 5.95789
#
# Compressibility (1/GPa) = 0.02510922
#
# Stress axis : x y z
#
# Youngs Moduli (GPa) = 59.09655 159.79133 92.29852
#
# Poissons Ratio (x) = 0.06941 0.25085
# Poissons Ratio (y) = 0.02567 0.12001
# Poissons Ratio (z) = 0.16061 0.20777
#
# Static dielectric constant tensor:
#      x y z
#    x 2.200930 0.000000 -0.047180 
#    y 0.000000 2.033070 0.000000 
#    z -0.047180 0.000000 2.004450 
# 
# From -- ./inp_files/2891.got.cif
#   From: 2010.05.17/outbox.cif.g08.bks.cpg/sg4_2_cif.got.tgz:2891.got - 2010.06.03 18:43:04.
