data_PCOD9119313
_publ_section_title
;
Structure prediction by ZEFSAII (Michael W. Deem and Ramdas Pophale) SiO2 
 PCOD9119313
Probable space group: P 21
;
_chemical_formula_sum "Si O2"
_cell_formula_units_Z 16
_cell_length_a 9.876764
_cell_length_b 8.057860
_cell_length_c 8.383246
_cell_angle_alpha 90.000000
_cell_angle_beta 90.066287
_cell_angle_gamma 90.000000
_cell_volume 667.185062
_symmetry_space_group_name_H-M "P 21"
_symmetry_group_IT_number 4
_symmetry_cell_setting 'monoclinic'
loop_
_space_group_symop_operation_xyz
x,y,z
-x,1/2+y,-z
loop_
_atom_site_type_symbol
_atom_site_label
_atom_site_fract_x
_atom_site_fract_y
_atom_site_fract_z
Si Si1 0.742657 0.240720 0.031029
Si Si2 0.730628 0.175094 0.444824
Si Si3 0.746420 0.004027 0.771694
Si Si4 0.110228 0.378330 0.686655
Si Si5 0.945994 0.792693 0.947076
Si Si6 0.140725 0.022530 0.512877
Si Si7 0.501287 0.758204 0.742496
Si Si8 0.727752 0.544655 0.820231
O O1 0.629807 0.302846 0.152306
O O2 0.736610 0.360689 0.879483
O O3 0.899363 0.243850 0.082923
O O4 0.708160 0.067889 0.947581
O O5 0.805432 0.350491 0.411433
O O6 0.570459 0.204269 0.420921
O O7 0.766827 0.125659 0.624636
O O8 0.769597 0.014324 0.336218
O O9 0.620755 0.889472 0.720991
O O10 0.890558 0.917694 0.811160
O O11 0.068366 0.356832 0.871344
O O12 0.995888 0.468643 0.579370
O O13 0.132124 0.190843 0.617736
O O14 0.839049 0.643945 0.923190
O O15 0.239726 0.064363 0.365537
O O16 0.578070 0.614604 0.838950
#
# Coordination Sequence:
#
# PCOD9119313 Si02
#       8
#     2   2   2   2   2   2   2   2
#     4  12  23  44  74 107 145 194 251 311 380 452
#     4  12  27  49  79 108 156 205 251 317 388 454
#     4  11  25  50  72 109 153 198 257 319 380 460
#     4  12  25  48  78 119 157 194 254 317 390 455
#     4  11  25  45  78 112 149 198 249 324 384 455
#     4  12  26  48  77 114 154 199 250 318 385 462
#     4  11  28  45  71 106 147 205 253 308 378 454
#     4  11  25  49  69 105 153 193 253 312 379 452
#
# _framework density 23.981352999999999
#
# number of rings (size 3 to 8) (size 9 to 14) (size 15 to 20)
#    0.000    0.500    3.750    3.750    5.250    2.000 
#    2.250    0.000    0.000    0.000    0.000    0.000 
#    0.000    0.000    0.000    0.000    0.000    0.000 
#
# Total GULP energy -89419.914813 kJ/mol
# GULP energy per Si atom -5588.744676 kJ/mol
# Density = 2.392677 g / cm^3
# Si number density = 23.981353 Si / 1000 Ang^3
#
#
#
# Elastic Constant Matrix: (Units=GPa)
#
#
# Indices 1 2 3 4 5 6 
#
# 1 134.5624 44.4692 45.0597 0.0000 16.9551 0.0000
# 2 44.4692 115.2414 43.8930 0.0000 10.2449 0.0000
# 3 45.0597 43.8930 120.3721 0.0000 -0.7435 0.0000
# 4 0.0000 0.0000 0.0000 34.0840 0.0000 -5.6080
# 5 16.9551 10.2449 -0.7435 0.0000 28.5678 0.0000
# 6 0.0000 0.0000 0.0000 -5.6080 0.0000 21.2293
#
#
#
# Elastic Compliance Matrix: (Units=1/GPa)
#
#
# Indices 1 2 3 4 5 6 
#
# 1 0.009769 -0.002222 -0.002878 0.000000 -0.005076 0.000000
# 2 -0.002222 0.010992 -0.003193 0.000000 -0.002706 0.000000
# 3 -0.002878 -0.003193 0.010568 0.000000 0.003128 0.000000
# 4 0.000000 0.000000 0.000000 0.030672 0.000000 0.008103
# 5 -0.005076 -0.002706 0.003128 0.000000 0.039069 0.000000
# 6 0.000000 0.000000 0.000000 0.008103 0.000000 0.049245
#
#
# Mechanical properties :
#
#
# Convention : Reuss Voigt Hill
#
# Bulk Modulus (GPa) = 67.82862 70.77995 69.30429
# Shear Modulus (GPa) = 29.10084 32.55983 30.83033
#
# Velocity S-wave (km/s) = 3.48728 3.68871 3.58941
# Velocity P-wave (km/s) = 6.67534 6.90802 6.79268
#
# Compressibility (1/GPa) = 0.01474304
#
# Stress axis : x y z
#
# Youngs Moduli (GPa) = 102.36239 90.97837 94.62105
#
# Poissons Ratio (x) = 0.20218 0.27232
# Poissons Ratio (y) = 0.22748 0.30211
# Poissons Ratio (z) = 0.29460 0.29048
#
# Static dielectric constant tensor:
#      x y z
#    x 1.909490 0.000000 -0.015570 
#    y 0.000000 2.002340 0.000000 
#    z -0.015570 0.000000 1.941710 
# 
# From -- ./inp_files/5672.got.cif
#   From: 2010.05.17/outbox.cif.g08.bks.cpg/sg4_3_cif.got.tgz:5672.got - 2010.06.03 18:43:04.
