data_PCOD9119645
_publ_section_title
;
Structure prediction by ZEFSAII (Michael W. Deem and Ramdas Pophale) SiO2 
 PCOD9119645
Probable space group: P 21
;
_chemical_formula_sum "Si O2"
_cell_formula_units_Z 16
_cell_length_a 10.549348
_cell_length_b 4.996242
_cell_length_c 12.182808
_cell_angle_alpha 90.000000
_cell_angle_beta 101.460173
_cell_angle_gamma 90.000000
_cell_volume 629.318503
_symmetry_space_group_name_H-M "P 21"
_symmetry_group_IT_number 4
_symmetry_cell_setting 'monoclinic'
loop_
_space_group_symop_operation_xyz
x,y,z
-x,1/2+y,-z
loop_
_atom_site_type_symbol
_atom_site_label
_atom_site_fract_x
_atom_site_fract_y
_atom_site_fract_z
Si Si1 0.972072 0.927950 0.926179
Si Si2 0.961572 0.685390 0.551791
Si Si3 0.307500 0.978827 0.428749
Si Si4 0.582604 0.596387 0.006006
Si Si5 0.856665 0.418733 0.244423
Si Si6 0.694760 0.892727 0.237007
Si Si7 0.494152 0.648943 0.346916
Si Si8 0.311459 0.292123 0.197677
O O1 0.826241 0.932057 0.852998
O O2 0.081081 0.011767 0.858118
O O3 0.010110 0.629145 0.969606
O O4 0.832610 0.517581 0.547252
O O5 0.054742 0.472101 0.508813
O O6 0.024637 0.773333 0.676010
O O7 0.407820 0.046995 0.543337
O O8 0.306007 0.142133 0.313496
O O9 0.363472 0.702544 0.393268
O O10 0.658880 0.612336 0.904290
O O11 0.541587 0.293775 0.023465
O O12 0.657089 0.741638 0.117872
O O13 0.802007 0.678306 0.297281
O O14 0.749680 0.185757 0.226849
O O15 0.574674 0.885719 0.300920
O O16 0.437598 0.478742 0.236442
#
# Coordination Sequence:
#
# PCOD9119645 Si02
#       8
#     2   2   2   2   2   2   2   2
#     4  12  28  50  77 112 149 199 257 315 387 445
#     4  12  28  50  77 110 148 201 255 310 375 445
#     4  12  27  48  77 111 157 201 255 314 384 460
#     4  12  25  46  71 108 150 196 248 306 381 451
#     4  12  25  49  73 108 149 197 254 311 370 450
#     4  12  27  48  77 110 155 198 257 315 379 460
#     4  12  27  47  76 113 156 203 252 314 388 454
#     4  12  27  48  76 110 156 199 250 321 374 461
#
# _framework density 25.424330999999999
#
# number of rings (size 3 to 8) (size 9 to 14) (size 15 to 20)
#    0.000    0.000    3.750    6.000    5.250    2.000 
#    0.000    0.000    0.000    0.000    0.000    0.000 
#    0.000    0.000    0.000    0.000    0.000    0.000 
#
# Total GULP energy -89526.856360 kJ/mol
# GULP energy per Si atom -5595.428522 kJ/mol
# Density = 2.536646 g / cm^3
# Si number density = 25.424331 Si / 1000 Ang^3
#
#
#
# Elastic Constant Matrix: (Units=GPa)
#
#
# Indices 1 2 3 4 5 6 
#
# 1 72.0439 28.7875 18.6694 0.0000 -6.1512 0.0000
# 2 28.7875 83.3216 1.8194 0.0000 5.6733 0.0000
# 3 18.6694 1.8194 103.8383 0.0000 10.4315 0.0000
# 4 0.0000 0.0000 0.0000 20.7660 0.0000 -20.2320
# 5 -6.1512 5.6733 10.4315 0.0000 53.5656 0.0000
# 6 0.0000 0.0000 0.0000 -20.2320 0.0000 17.5121
#
#
#
# Elastic Compliance Matrix: (Units=1/GPa)
#
#
# Indices 1 2 3 4 5 6 
#
# 1 0.017519 -0.006205 -0.003375 0.000000 0.003326 0.000000
# 2 -0.006205 0.014288 0.001111 0.000000 -0.002442 0.000000
# 3 -0.003375 0.001111 0.010473 0.000000 -0.002545 0.000000
# 4 0.000000 0.000000 0.000000 -0.383376 0.000000 -0.442921
# 5 0.003326 -0.002442 -0.002545 0.000000 0.019805 0.000000
# 6 0.000000 0.000000 0.000000 -0.442921 0.000000 -0.454612
#
#
# Mechanical properties :
#
#
# Convention : Reuss Voigt Hill
#
# Bulk Modulus (GPa) = 39.46347 39.75071 39.60709
# Shear Modulus (GPa) = -6.66208 32.36390 12.85091
#
# Velocity S-wave (km/s) = -1.62051 3.57171 2.25068
# Velocity P-wave (km/s) = 3.47192 5.71650 4.72930
#
# Compressibility (1/GPa) = 0.02533989
#
# Stress axis : x y z
#
# Youngs Moduli (GPa) = 57.08197 69.99025 95.48018
#
# Poissons Ratio (x) = 0.43432 0.32226
# Poissons Ratio (y) = 0.35422 -0.10605
# Poissons Ratio (z) = 0.19266 -0.07774
#
# Static dielectric constant tensor:
#      x y z
#    x 2.050260 0.000000 0.056520 
#    y 0.000000 1.978550 0.000000 
#    z 0.056520 0.000000 2.057090 
# 
# From -- ./inp_files/7364.got.cif
#   From: 2010.05.17/outbox.cif.g08.bks.cpg/sg4_4_cif.got.tgz:7364.got - 2010.06.03 18:43:04.
