data_PCOD9119045
_publ_section_title
;
Structure prediction by ZEFSAII (Michael W. Deem and Ramdas Pophale) SiO2 
 PCOD9119045
Probable space group: P 21
;
_chemical_formula_sum "Si O2"
_cell_formula_units_Z 16
_cell_length_a 7.734389
_cell_length_b 8.984403
_cell_length_c 8.735305
_cell_angle_alpha 90.000000
_cell_angle_beta 96.011778
_cell_angle_gamma 90.000000
_cell_volume 603.668153
_symmetry_space_group_name_H-M "P 21"
_symmetry_group_IT_number 4
_symmetry_cell_setting 'monoclinic'
loop_
_space_group_symop_operation_xyz
x,y,z
-x,1/2+y,-z
loop_
_atom_site_type_symbol
_atom_site_label
_atom_site_fract_x
_atom_site_fract_y
_atom_site_fract_z
Si Si1 0.758009 0.895900 0.604400
Si Si2 0.839891 0.002757 0.171776
Si Si3 0.665638 0.742012 0.315999
Si Si4 0.839354 0.442438 0.010616
Si Si5 0.858858 0.320055 0.348820
Si Si6 0.393879 0.687930 0.028255
Si Si7 0.623686 0.662815 0.805241
Si Si8 0.434130 0.976146 0.508679
O O1 0.611917 0.845849 0.458248
O O2 0.750231 0.783572 0.744456
O O3 0.619565 0.025622 0.621333
O O4 0.953418 0.876968 0.565735
O O5 0.862717 0.144622 0.289787
O O6 0.673911 0.033101 0.046456
O O7 0.810471 0.846146 0.252297
O O8 0.995876 0.991235 0.069300
O O9 0.701645 0.595086 0.413077
O O10 0.527810 0.714420 0.173229
O O11 0.700551 0.566271 0.949960
O O12 0.858322 0.417855 0.191857
O O13 0.774352 0.283375 0.944437
O O14 0.694678 0.338245 0.447471
O O15 0.470739 0.752903 0.874302
O O16 0.576908 0.550037 0.664302
#
# Coordination Sequence:
#
# PCOD9119045 Si02
#       8
#     2   2   2   2   2   2   2   2
#     4  11  24  46  75 109 151 197 257 315 388 457
#     4  11  25  47  73 108 154 194 256 319 387 457
#     4  11  27  47  74 109 146 202 252 317 386 466
#     4  11  24  43  70 106 147 195 246 312 384 440
#     4  11  26  46  77 112 148 202 252 323 379 469
#     4  11  24  42  73 102 138 199 251 308 376 454
#     4  11  24  48  71 104 153 198 250 320 377 462
#     4  11  26  47  75 112 151 199 256 318 395 457
#
# _framework density 26.504625999999998
#
# number of rings (size 3 to 8) (size 9 to 14) (size 15 to 20)
#    0.000    1.000    1.250    4.500    5.250    4.000 
#    0.000    0.000    0.000    0.000    0.000    0.000 
#    0.000    0.000    0.000    0.000    0.000    0.000 
#
# Total GULP energy -89156.125199 kJ/mol
# GULP energy per Si atom -5572.257825 kJ/mol
# Density = 2.644430 g / cm^3
# Si number density = 26.504626 Si / 1000 Ang^3
#
#
#
# Elastic Constant Matrix: (Units=GPa)
#
#
# Indices 1 2 3 4 5 6 
#
# 1 167.2373 16.7906 61.3646 0.0000 -16.6507 0.0000
# 2 16.7906 74.8156 51.2499 0.0000 -5.4159 0.0000
# 3 61.3646 51.2499 120.0821 0.0000 16.2087 0.0000
# 4 0.0000 0.0000 0.0000 42.7503 0.0000 -18.3326
# 5 -16.6507 -5.4159 16.2087 0.0000 40.3858 0.0000
# 6 0.0000 0.0000 0.0000 -18.3326 0.0000 39.4705
#
#
#
# Elastic Compliance Matrix: (Units=1/GPa)
#
#
# Indices 1 2 3 4 5 6 
#
# 1 0.008820 0.003143 -0.006763 0.000000 0.006772 0.000000
# 2 0.003143 0.021545 -0.012018 0.000000 0.009009 0.000000
# 3 -0.006763 -0.012018 0.018509 0.000000 -0.011828 0.000000
# 4 0.000000 0.000000 0.000000 0.029210 0.000000 0.013567
# 5 0.006772 0.009009 -0.011828 0.000000 0.033509 0.000000
# 6 0.000000 0.000000 0.000000 0.013567 0.000000 0.031637
#
#
# Mechanical properties :
#
#
# Convention : Reuss Voigt Hill
#
# Bulk Modulus (GPa) = 56.81770 68.99389 62.90580
# Shear Modulus (GPa) = 27.72094 40.03662 33.87878
#
# Velocity S-wave (km/s) = 3.23753 3.89080 3.57910
# Velocity P-wave (km/s) = 5.95474 6.80234 6.39260
#
# Compressibility (1/GPa) = 0.01760015
#
# Stress axis : x y z
#
# Youngs Moduli (GPa) = 113.38364 46.41423 54.02745
#
# Poissons Ratio (x) = -0.14590 0.36537
# Poissons Ratio (y) = -0.35641 0.64928
# Poissons Ratio (z) = 0.76678 0.55779
#
# Static dielectric constant tensor:
#      x y z
#    x 2.260840 0.000000 0.004360 
#    y 0.000000 2.209240 0.000000 
#    z 0.004360 0.000000 2.069520 
# 
# From -- ./inp_files/5684.got.cif
#   From: 2010.05.17/outbox.cif.g08.bks.cpg/sg4_3_cif.got.tgz:5684.got - 2010.06.03 18:43:04.
