data_PCOD9119012
_publ_section_title
;
Structure prediction by ZEFSAII (Michael W. Deem and Ramdas Pophale) SiO2 
 PCOD9119012
Probable space group: P 21
;
_chemical_formula_sum "Si O2"
_cell_formula_units_Z 16
_cell_length_a 15.363529
_cell_length_b 5.502547
_cell_length_c 9.264260
_cell_angle_alpha 90.000000
_cell_angle_beta 49.468919
_cell_angle_gamma 90.000000
_cell_volume 595.264074
_symmetry_space_group_name_H-M "P 21"
_symmetry_group_IT_number 4
_symmetry_cell_setting 'monoclinic'
loop_
_space_group_symop_operation_xyz
x,y,z
-x,1/2+y,-z
loop_
_atom_site_type_symbol
_atom_site_label
_atom_site_fract_x
_atom_site_fract_y
_atom_site_fract_z
Si Si1 0.705771 0.001240 0.854740
Si Si2 0.705678 0.929629 0.348407
Si Si3 0.334712 0.766109 0.371515
Si Si4 0.289909 0.822014 0.877730
Si Si5 0.952210 0.431603 0.881271
Si Si6 0.428746 0.238239 0.785536
Si Si7 0.116563 0.037517 0.735022
Si Si8 0.045670 0.592789 0.511199
O O1 0.646771 0.198423 0.814706
O O2 0.829353 0.976909 0.649781
O O3 0.726177 0.116605 0.988385
O O4 0.633705 0.774642 0.990570
O O5 0.622940 0.829335 0.312853
O O6 0.812587 0.756868 0.259713
O O7 0.667569 0.999982 0.549318
O O8 0.727330 0.197951 0.258021
O O9 0.449755 0.867364 0.320819
O O10 0.218463 0.913884 0.530644
O O11 0.409166 0.952944 0.775436
O O12 0.178786 0.986592 0.022006
O O13 0.012077 0.177611 0.769235
O O14 0.023605 0.618803 0.707605
O O15 0.945038 0.411785 0.061521
O O16 0.965904 0.366810 0.540540
#
# Coordination Sequence:
#
# PCOD9119012 Si02
#       8
#     2   2   2   2   2   2   2   2
#     4  11  28  47  73 114 151 207 265 326 409 476
#     4  11  24  46  75 112 146 203 259 326 401 481
#     4  12  29  48  76 116 155 206 267 339 405 484
#     4  11  23  49  76 106 151 204 261 318 402 483
#     4  12  25  45  77 110 159 207 254 337 403 486
#     4  11  27  49  79 104 158 205 272 334 401 487
#     4  12  28  47  76 116 161 200 268 336 411 486
#     4  12  28  47  80 116 157 214 270 328 406 503
#
# _framework density 26.878827000000001
#
# number of rings (size 3 to 8) (size 9 to 14) (size 15 to 20)
#    0.000    0.500    3.750    2.250   10.500    2.000 
#    0.000    0.000    0.000    0.000    0.000    0.000 
#    0.000    0.000    0.000    0.000    0.000    0.000 
#
# Total GULP energy -89208.090636 kJ/mol
# GULP energy per Si atom -5575.505665 kJ/mol
# Density = 2.681765 g / cm^3
# Si number density = 26.878827 Si / 1000 Ang^3
#
#
#
# Elastic Constant Matrix: (Units=GPa)
#
#
# Indices 1 2 3 4 5 6 
#
# 1 88.1577 6.5059 14.0499 0.0000 -12.8363 0.0000
# 2 6.5059 59.6975 18.4027 0.0000 -9.2572 0.0000
# 3 14.0499 18.4027 81.1443 0.0000 10.9417 0.0000
# 4 0.0000 0.0000 0.0000 34.7924 0.0000 6.4117
# 5 -12.8363 -9.2572 10.9417 0.0000 49.0572 0.0000
# 6 0.0000 0.0000 0.0000 6.4117 0.0000 30.5684
#
#
#
# Elastic Compliance Matrix: (Units=1/GPa)
#
#
# Indices 1 2 3 4 5 6 
#
# 1 0.012321 0.000074 -0.002667 0.000000 0.003833 0.000000
# 2 0.000074 0.019002 -0.004957 0.000000 0.004711 0.000000
# 3 -0.002667 -0.004957 0.014568 0.000000 -0.004883 0.000000
# 4 0.000000 0.000000 0.000000 0.029898 0.000000 -0.006271
# 5 0.003833 0.004711 -0.004883 0.000000 0.023365 0.000000
# 6 0.000000 0.000000 0.000000 -0.006271 0.000000 0.034029
#
#
# Mechanical properties :
#
#
# Convention : Reuss Voigt Hill
#
# Bulk Modulus (GPa) = 32.47831 34.10183 33.29007
# Shear Modulus (GPa) = 31.53645 35.55299 33.54472
#
# Velocity S-wave (km/s) = 3.42904 3.64086 3.53653
# Velocity P-wave (km/s) = 5.27136 5.51265 5.39335
#
# Compressibility (1/GPa) = 0.03078978
#
# Stress axis : x y z
#
# Youngs Moduli (GPa) = 81.16257 52.62676 68.64302
#
# Poissons Ratio (x) = -0.00388 0.18306
# Poissons Ratio (y) = -0.00598 0.34029
# Poissons Ratio (z) = 0.21645 0.26089
#
# Static dielectric constant tensor:
#      x y z
#    x 2.173480 0.000000 -0.067370 
#    y 0.000000 2.416430 0.000000 
#    z -0.067370 0.000000 2.178800 
# 
# From -- ./inp_files/9004.got.cif
#   From: 2010.05.17/outbox.cif.g08.bks.cpg/sg4_5_cif.got.tgz:9004.got - 2010.06.03 18:43:04.
