data_PCOD9119846
_publ_section_title
;
Structure prediction by ZEFSAII (Michael W. Deem and Ramdas Pophale) SiO2 
 PCOD9119846
Probable space group: P 21
;
_chemical_formula_sum "Si O2"
_cell_formula_units_Z 16
_cell_length_a 6.000000
_cell_length_b 9.000000
_cell_length_c 15.000000
_cell_angle_alpha 90.000000
_cell_angle_beta 50.000000
_cell_angle_gamma 90.000000
_cell_volume 620.495999
_symmetry_space_group_name_H-M "P 21"
_symmetry_group_IT_number 4
_symmetry_cell_setting 'monoclinic'
loop_
_space_group_symop_operation_xyz
x,y,z
-x,1/2+y,-z
loop_
_atom_site_type_symbol
_atom_site_label
_atom_site_fract_x
_atom_site_fract_y
_atom_site_fract_z
Si Si1 0.185499 0.518470 0.533495
Si Si2 0.097146 0.660444 0.905560
Si Si3 0.668865 0.891655 0.051230
Si Si4 0.502105 0.928559 0.768472
Si Si5 0.317913 0.169055 0.672841
Si Si6 0.277632 0.218326 0.414022
Si Si7 0.161884 0.506183 0.732085
Si Si8 0.305238 0.603414 0.124306
O O1 0.473500 0.620084 0.460757
O O2 0.265508 0.350152 0.488837
O O3 0.026359 0.512719 0.669040
O O4 0.980084 0.601240 0.516719
O O5 0.306300 0.524952 0.882517
O O6 0.251925 0.806412 0.827924
O O7 0.944465 0.575531 0.861748
O O8 0.887306 0.754828 0.024542
O O9 0.410189 0.776150 0.089240
O O10 0.745255 0.001867 0.949226
O O11 0.759608 0.822251 0.666198
O O12 0.446184 0.065995 0.718245
O O13 0.498216 0.996337 0.866470
O O14 0.292926 0.340683 0.706621
O O15 0.990883 0.115516 0.743280
O O16 0.565371 0.118623 0.338497
#
# Coordination Sequence:
#
# PCOD9119846 Si02
#       8
#     2   2   2   2   2   2   2   2
#     4  11  24  44  71 103 147 194 239 296 365 441
#     4  11  25  47  75 103 147 190 243 314 375 436
#     4  12  27  45  77 106 148 191 256 312 384 440
#     4  10  23  46  69 103 146 184 239 308 366 437
#     4  11  25  44  69 105 147 186 243 302 369 435
#     4  10  24  41  69 103 144 191 241 295 358 438
#     4  11  25  42  72 102 141 190 244 293 369 438
#     4  12  27  45  74 107 138 194 249 306 374 453
#
# _framework density 25.785823000000001
#
# number of rings (size 3 to 8) (size 9 to 14) (size 15 to 20)
#    0.000    1.000    1.250    3.750    5.250    8.000 
#    0.000    0.000    0.000    0.000    0.000    0.000 
#    0.000    0.000    0.000    0.000    0.000    0.000 
#
# Total GULP energy -89082.714828 kJ/mol
# GULP energy per Si atom -5567.669677 kJ/mol
# Density = 2.572713 g / cm^3
# Si number density = 25.785823 Si / 1000 Ang^3
#
#
#
# Elastic Constant Matrix: (Units=GPa)
#
#
# Indices 1 2 3 4 5 6 
#
# 1 26.6505 56.1318 18.8625 0.0000 -4.9762 0.0000
# 2 56.1318 168.6069 18.9134 0.0000 13.6433 0.0000
# 3 18.8625 18.9134 45.9856 0.0000 12.0110 0.0000
# 4 0.0000 0.0000 0.0000 38.5988 0.0000 0.2011
# 5 -4.9762 13.6433 12.0110 0.0000 41.5944 0.0000
# 6 0.0000 0.0000 0.0000 0.2011 0.0000 40.6419
#
#
#
# Elastic Compliance Matrix: (Units=1/GPa)
#
#
# Indices 1 2 3 4 5 6 
#
# 1 4.226525 -1.346641 -1.543658 0.000000 1.393109 0.000000
# 2 -1.346641 0.435357 0.489618 0.000000 -0.445292 0.000000
# 3 -1.543658 0.489618 0.588092 0.000000 -0.515097 0.000000
# 4 0.000000 0.000000 0.000000 0.025908 0.000000 -0.000128
# 5 1.393109 -0.445292 -0.515097 0.000000 0.485509 0.000000
# 6 0.000000 0.000000 0.000000 -0.000128 0.000000 0.024606
#
#
# Mechanical properties :
#
#
# Convention : Reuss Voigt Hill
#
# Bulk Modulus (GPa) = 2.22909 47.67317 24.95113
# Shear Modulus (GPa) = 0.46568 33.98938 17.22753
#
# Velocity S-wave (km/s) = 0.42543 3.63456 2.58757
# Velocity P-wave (km/s) = 1.05245 6.01179 4.31563
#
# Compressibility (1/GPa) = 0.44861264
#
# Stress axis : x y z
#
# Youngs Moduli (GPa) = 0.23660 2.29697 1.70041
#
# Poissons Ratio (x) = 3.09319 2.62486
# Poissons Ratio (y) = 0.31862 -0.83255
# Poissons Ratio (z) = 0.36523 -1.12464
#
# Static dielectric constant tensor:
#      x y z
#    x 2.188610 0.000000 0.046710 
#    y 0.000000 1.873810 0.000000 
#    z 0.046710 0.000000 2.421190 
# 
# From -- ./inp_files/3589.got.cif
#   From: 2010.05.17/outbox.ucp.g08.bks.cvg/sg4_2_cif.got.tgz:3589.got - 2010.06.11 12:51:24.
