data_PCOD9119437
_publ_section_title
;
Structure prediction by ZEFSAII (Michael W. Deem and Ramdas Pophale) SiO2 
 PCOD9119437
Probable space group: P 21
;
_chemical_formula_sum "Si O2"
_cell_formula_units_Z 14
_cell_length_a 14.609294
_cell_length_b 7.550272
_cell_length_c 14.610458
_cell_angle_alpha 90.000000
_cell_angle_beta 19.461023
_cell_angle_gamma 90.000000
_cell_volume 536.927579
_symmetry_space_group_name_H-M "P 21"
_symmetry_group_IT_number 4
_symmetry_cell_setting 'monoclinic'
loop_
_space_group_symop_operation_xyz
x,y,z
-x,1/2+y,-z
loop_
_atom_site_type_symbol
_atom_site_label
_atom_site_fract_x
_atom_site_fract_y
_atom_site_fract_z
Si Si1 0.665542 0.144130 0.914197
Si Si2 0.467935 0.003051 0.642354
Si Si3 0.091362 0.270887 0.382545
Si Si4 0.106389 0.639836 0.615232
Si Si5 0.823928 0.295249 0.947279
Si Si6 0.192982 0.984317 0.643706
Si Si7 0.753962 0.880578 0.193069
O O1 0.887083 0.280106 0.661311
O O2 0.795951 0.954019 0.766238
O O3 0.366149 0.167360 0.152877
O O4 0.645653 0.189724 0.040456
O O5 0.295204 0.836701 0.840353
O O6 0.680652 0.949259 0.362791
O O7 0.296179 0.171363 0.769523
O O8 0.627256 0.068474 0.583133
O O9 0.907888 0.172455 0.478805
O O10 0.070500 0.833653 0.692893
O O11 0.890095 0.489026 0.845084
O O12 0.093199 0.174552 0.705373
O O13 0.515895 0.961889 0.352046
O O14 0.046310 0.934202 0.877705
#
# Coordination Sequence:
#
# PCOD9119437 Si02
#       7
#     2   2   2   2   2   2   2
#     4  12  28  48  80 111 152 200 249 311 380 456
#     4  11  27  45  78 107 156 196 255 314 373 449
#     4  12  27  52  75 113 152 199 251 311 378 455
#     4  11  26  49  73 110 153 191 253 310 373 446
#     4  12  26  47  76 111 148 198 248 309 378 446
#     4  11  26  47  74 105 149 195 249 305 373 447
#     4  11  26  48  72 109 148 201 249 310 375 445
#
# _framework density 26.074280000000002
#
# number of rings (size 3 to 8) (size 9 to 14) (size 15 to 20)
#    0.000    0.571    2.857    3.429   12.000    0.000 
#    0.000    0.000    0.000    0.000    0.000    0.000 
#    0.000    0.000    0.000    0.000    0.000    0.000 
#
# Total GULP energy -78512.535783 kJ/mol
# GULP energy per Si atom -5608.038270 kJ/mol
# Density = 2.601493 g / cm^3
# Si number density = 26.074280 Si / 1000 Ang^3
#
#
#
# Elastic Constant Matrix: (Units=GPa)
#
#
# Indices 1 2 3 4 5 6 
#
# 1 115.1557 39.1756 14.6127 0.0000 -5.2964 0.0000
# 2 39.1756 108.1009 6.0119 0.0000 -2.9791 0.0000
# 3 14.6127 6.0119 65.9215 0.0000 6.7790 0.0000
# 4 0.0000 0.0000 0.0000 41.3683 0.0000 0.1891
# 5 -5.2964 -2.9791 6.7790 0.0000 39.0419 0.0000
# 6 0.0000 0.0000 0.0000 0.1891 0.0000 43.9327
#
#
#
# Elastic Compliance Matrix: (Units=1/GPa)
#
#
# Indices 1 2 3 4 5 6 
#
# 1 0.010225 -0.003548 -0.002095 0.000000 0.001480 0.000000
# 2 -0.003548 0.010558 -0.000214 0.000000 0.000361 0.000000
# 3 -0.002095 -0.000214 0.015970 0.000000 -0.003073 0.000000
# 4 0.000000 0.000000 0.000000 0.024174 0.000000 -0.000104
# 5 0.001480 0.000361 -0.003073 0.000000 0.026375 0.000000
# 6 0.000000 0.000000 0.000000 -0.000104 0.000000 0.022763
#
#
# Mechanical properties :
#
#
# Convention : Reuss Voigt Hill
#
# Bulk Modulus (GPa) = 39.93772 45.41981 42.67877
# Shear Modulus (GPa) = 38.42476 40.16045 39.29261
#
# Velocity S-wave (km/s) = 3.84300 3.92884 3.88616
# Velocity P-wave (km/s) = 5.91960 6.16751 6.04483
#
# Compressibility (1/GPa) = 0.02503898
#
# Stress axis : x y z
#
# Youngs Moduli (GPa) = 97.80031 94.71213 62.61933
#
# Poissons Ratio (x) = 0.33606 0.13120
# Poissons Ratio (y) = 0.34701 0.01337
# Poissons Ratio (z) = 0.20491 0.02022
#
# Static dielectric constant tensor:
#      x y z
#    x 2.054690 0.000000 0.003200 
#    y 0.000000 2.037660 0.000000 
#    z 0.003200 0.000000 1.999300 
# 
# From -- ./inp_files/14170.got.cif
#   From: 2010.05.17/outbox.cif.g08.bks.cpg/sg4_8_cif.got.tgz:14170.got - 2010.06.03 18:43:04.
