data_PCOD9119134
_publ_section_title
;
Structure prediction by ZEFSAII (Michael W. Deem and Ramdas Pophale) SiO2 
 PCOD9119134
Probable space group: P 21
;
_chemical_formula_sum "Si O2"
_cell_formula_units_Z 16
_cell_length_a 12.386897
_cell_length_b 5.186059
_cell_length_c 9.562937
_cell_angle_alpha 90.000000
_cell_angle_beta 83.816680
_cell_angle_gamma 90.000000
_cell_volume 610.741355
_symmetry_space_group_name_H-M "P 21"
_symmetry_group_IT_number 4
_symmetry_cell_setting 'monoclinic'
loop_
_space_group_symop_operation_xyz
x,y,z
-x,1/2+y,-z
loop_
_atom_site_type_symbol
_atom_site_label
_atom_site_fract_x
_atom_site_fract_y
_atom_site_fract_z
Si Si1 0.425333 0.814370 0.985124
Si Si2 0.244033 0.300306 0.331726
Si Si3 0.732174 0.520133 0.217474
Si Si4 0.073883 0.700732 0.825799
Si Si5 0.024728 0.982905 0.420852
Si Si6 0.162940 0.372391 0.036967
Si Si7 0.543899 0.654767 0.417715
Si Si8 0.352273 0.800581 0.285362
O O1 0.359970 0.847031 0.848506
O O2 0.495671 0.553875 0.987383
O O3 0.336063 0.813134 0.121790
O O4 0.136753 0.143280 0.389763
O O5 0.229996 0.346733 0.167985
O O6 0.279155 0.585724 0.373462
O O7 0.336402 0.087897 0.343621
O O8 0.839003 0.380831 0.263375
O O9 0.667998 0.662541 0.350641
O O10 0.780309 0.702351 0.090157
O O11 0.037895 0.484585 0.719192
O O12 0.959520 0.803340 0.897334
O O13 0.140518 0.632439 0.955673
O O14 0.963543 0.188843 0.530798
O O15 0.504540 0.379366 0.478784
O O16 0.474279 0.708211 0.287460
#
# Coordination Sequence:
#
# PCOD9119134 Si02
#       8
#     2   2   2   2   2   2   2   2
#     4  12  26  44  76 112 146 182 247 303 383 447
#     4  11  25  44  77 106 143 193 241 313 374 438
#     4  12  27  46  78 105 151 199 235 317 385 435
#     4  11  26  44  78 110 154 191 247 308 378 451
#     4  11  27  49  72 105 151 201 254 297 357 449
#     4  11  24  45  72 116 149 183 244 311 386 450
#     4  12  31  51  70 105 151 202 261 302 356 448
#     4  12  24  47  73 103 143 189 245 311 363 438
#
# _framework density 26.197669000000001
#
# number of rings (size 3 to 8) (size 9 to 14) (size 15 to 20)
#    0.000    0.500    3.750    3.000    7.000    3.000 
#    0.000    0.000    0.000    0.000    0.000    0.000 
#    0.000    0.000    0.000    0.000    0.000    0.000 
#
# Total GULP energy -89465.369578 kJ/mol
# GULP energy per Si atom -5591.585599 kJ/mol
# Density = 2.613804 g / cm^3
# Si number density = 26.197669 Si / 1000 Ang^3
#
#
#
# Elastic Constant Matrix: (Units=GPa)
#
#
# Indices 1 2 3 4 5 6 
#
# 1 106.7795 40.4227 20.4206 0.0000 -23.5952 0.0000
# 2 40.4227 128.3116 0.6460 0.0000 -12.1501 0.0000
# 3 20.4206 0.6460 66.0179 0.0000 -9.1474 0.0000
# 4 0.0000 0.0000 0.0000 36.0485 0.0000 1.0319
# 5 -23.5952 -12.1501 -9.1474 0.0000 27.9831 0.0000
# 6 0.0000 0.0000 0.0000 1.0319 0.0000 37.7832
#
#
#
# Elastic Compliance Matrix: (Units=1/GPa)
#
#
# Indices 1 2 3 4 5 6 
#
# 1 0.013059 -0.003279 -0.002806 0.000000 0.008670 0.000000
# 2 -0.003279 0.008963 0.001134 0.000000 0.001497 0.000000
# 3 -0.002806 0.001134 0.016492 0.000000 0.003517 0.000000
# 4 0.000000 0.000000 0.000000 0.027762 0.000000 -0.000758
# 5 0.008670 0.001497 0.003517 0.000000 0.044847 0.000000
# 6 0.000000 0.000000 0.000000 -0.000758 0.000000 0.026487
#
#
# Mechanical properties :
#
#
# Convention : Reuss Voigt Hill
#
# Bulk Modulus (GPa) = 34.95100 47.12085 41.03592
# Shear Modulus (GPa) = 31.83741 36.33761 34.08751
#
# Velocity S-wave (km/s) = 3.48986 3.72836 3.61108
# Velocity P-wave (km/s) = 5.44142 6.04648 5.75191
#
# Compressibility (1/GPa) = 0.02861148
#
# Stress axis : x y z
#
# Youngs Moduli (GPa) = 76.57657 111.57504 60.63690
#
# Poissons Ratio (x) = 0.36584 0.17014
# Poissons Ratio (y) = 0.25108 -0.06876
# Poissons Ratio (z) = 0.21487 -0.12653
#
# Static dielectric constant tensor:
#      x y z
#    x 2.119920 0.000000 -0.031170 
#    y 0.000000 2.080200 0.000000 
#    z -0.031170 0.000000 2.078850 
# 
# From -- ./inp_files/7361.got.cif
#   From: 2010.05.17/outbox.cif.g08.bks.cpg/sg4_4_cif.got.tgz:7361.got - 2010.06.03 18:43:04.
