data_PCOD9119335
_publ_section_title
;
Structure prediction by ZEFSAII (Michael W. Deem and Ramdas Pophale) SiO2 
 PCOD9119335
Probable space group: P 21
;
_chemical_formula_sum "Si O2"
_cell_formula_units_Z 12
_cell_length_a 14.858308
_cell_length_b 4.871307
_cell_length_c 8.040781
_cell_angle_alpha 90.000000
_cell_angle_beta 53.099916
_cell_angle_gamma 90.000000
_cell_volume 465.405356
_symmetry_space_group_name_H-M "P 21"
_symmetry_group_IT_number 4
_symmetry_cell_setting 'monoclinic'
loop_
_space_group_symop_operation_xyz
x,y,z
-x,1/2+y,-z
loop_
_atom_site_type_symbol
_atom_site_label
_atom_site_fract_x
_atom_site_fract_y
_atom_site_fract_z
Si Si1 0.022150 0.794900 0.579205
Si Si2 0.256947 0.080755 0.373107
Si Si3 0.059193 0.961600 0.014553
Si Si4 0.481842 0.188868 0.739159
Si Si5 0.621000 0.070321 0.896441
Si Si6 0.316408 0.929974 0.667036
O O1 0.043762 0.558589 0.418023
O O2 0.136686 0.936813 0.511089
O O3 0.961094 0.621684 0.790631
O O4 0.276373 0.365802 0.261109
O O5 0.300014 0.102155 0.514505
O O6 0.329680 0.868843 0.184534
O O7 0.187908 0.858341 0.855942
O O8 0.021845 0.200683 0.925365
O O9 0.532315 0.034052 0.843607
O O10 0.377888 0.074437 0.751249
O O11 0.589820 0.212358 0.498032
O O12 0.436567 0.473788 0.870002
#
# Coordination Sequence:
#
# PCOD9119335 Si02
#       6
#     2   2   2   2   2   2
#     4  12  27  49  78 115 152 202 264 318 388 458
#     4  11  25  47  74 109 155 203 247 326 375 460
#     4  12  28  53  79 115 157 207 257 321 393 461
#     4  11  25  49  77 119 154 209 257 320 388 465
#     4  11  25  46  75 110 155 197 258 309 388 452
#     4  11  26  46  79 110 159 200 261 314 390 458
#
# _framework density 25.783975000000002
#
# number of rings (size 3 to 8) (size 9 to 14) (size 15 to 20)
#    0.000    0.667    1.667    5.000    7.000    2.667 
#    0.000    0.000    0.000    0.000    0.000    0.000 
#    0.000    0.000    0.000    0.000    0.000    0.000 
#
# Total GULP energy -67173.741017 kJ/mol
# GULP energy per Si atom -5597.811751 kJ/mol
# Density = 2.572529 g / cm^3
# Si number density = 25.783975 Si / 1000 Ang^3
#
#
#
# Elastic Constant Matrix: (Units=GPa)
#
#
# Indices 1 2 3 4 5 6 
#
# 1 170.5369 45.7056 55.4522 0.0000 -8.8374 0.0000
# 2 45.7056 90.0178 18.8583 0.0000 13.0895 0.0000
# 3 55.4522 18.8583 122.7641 0.0000 -5.5710 0.0000
# 4 0.0000 0.0000 0.0000 43.1217 0.0000 2.9692
# 5 -8.8374 13.0895 -5.5710 0.0000 41.6879 0.0000
# 6 0.0000 0.0000 0.0000 2.9692 0.0000 19.1130
#
#
#
# Elastic Compliance Matrix: (Units=1/GPa)
#
#
# Indices 1 2 3 4 5 6 
#
# 1 0.007951 -0.003792 -0.002896 0.000000 0.002489 0.000000
# 2 -0.003792 0.013941 -0.000668 0.000000 -0.005270 0.000000
# 3 -0.002896 -0.000668 0.009596 0.000000 0.000878 0.000000
# 4 0.000000 0.000000 0.000000 0.023441 0.000000 -0.003641
# 5 0.002489 -0.005270 0.000878 0.000000 0.026288 0.000000
# 6 0.000000 0.000000 0.000000 -0.003641 0.000000 0.052886
#
#
# Mechanical properties :
#
#
# Convention : Reuss Voigt Hill
#
# Bulk Modulus (GPa) = 59.60885 69.26120 64.43503
# Shear Modulus (GPa) = 32.38220 38.33803 35.36012
#
# Velocity S-wave (km/s) = 3.54772 3.86021 3.70726
# Velocity P-wave (km/s) = 6.32064 6.84023 6.58556
#
# Compressibility (1/GPa) = 0.01677603
#
# Stress axis : x y z
#
# Youngs Moduli (GPa) = 125.77348 71.73282 104.20819
#
# Poissons Ratio (x) = 0.27203 0.30177
# Poissons Ratio (y) = 0.47696 0.06958
# Poissons Ratio (z) = 0.36422 0.04790
#
# Static dielectric constant tensor:
#      x y z
#    x 2.031430 0.000000 0.006420 
#    y 0.000000 2.064560 0.000000 
#    z 0.006420 0.000000 2.068100 
# 
# From -- ./inp_files/8898.got.cif
#   From: 2010.05.17/outbox.cif.g08.bks.cpg/sg4_5_cif.got.tgz:8898.got - 2010.06.03 18:43:04.
