data_PCOD9119941
_publ_section_title
;
Structure prediction by ZEFSAII (Michael W. Deem and Ramdas Pophale) SiO2 
 PCOD9119941
Probable space group: C 2
;
_chemical_formula_sum "Si O2"
_cell_formula_units_Z 32
_cell_length_a 9.570214
_cell_length_b 14.732059
_cell_length_c 11.447274
_cell_angle_alpha 90.000000
_cell_angle_beta 45.258576
_cell_angle_gamma 90.000000
_cell_volume 1146.366093
_symmetry_space_group_name_H-M "C 2"
_symmetry_group_IT_number 5
_symmetry_cell_setting 'monoclinic'
loop_
_space_group_symop_operation_xyz
x,y,z
-x,y,-z
1/2+x,1/2+y,z
1/2-x,1/2+y,-z
loop_
_atom_site_type_symbol
_atom_site_label
_atom_site_fract_x
_atom_site_fract_y
_atom_site_fract_z
Si Si1 0.246404 0.276390 0.578600
Si Si2 0.226106 0.181577 0.355690
Si Si3 0.208228 0.316116 0.193397
Si Si4 0.226289 0.493502 0.335737
Si Si5 0.738409 0.739206 0.835345
Si Si6 0.296569 0.058253 0.888505
Si Si7 0.287290 0.917947 0.055919
Si Si8 0.737653 0.988768 0.586778
O O1 0.315883 0.221990 0.423512
O O2 0.287230 0.220795 0.672003
O O3 0.293293 0.383671 0.567655
O O4 0.010994 0.284454 0.708536
O O5 0.309683 0.228838 0.191157
O O6 0.000000 0.212920 0.500000
O O7 0.210216 0.072822 0.361601
O O8 0.223308 0.389429 0.291066
O O9 0.259297 0.366918 0.043011
O O10 0.311230 0.544433 0.172886
O O11 0.315695 0.508728 0.410289
O O12 0.000000 0.517250 0.500000
O O13 0.819141 0.665322 0.877368
O O14 0.500000 0.741655 0.000000
O O15 0.812040 0.842302 0.806996
O O16 0.223585 0.017044 0.052247
O O17 0.499494 0.001815 0.743044
O O18 0.500000 0.929215 0.000000
#
# Coordination Sequence:
#
# PCOD9119941 Si02
#       8
#     4   4   4   4   4   4   4   4
#     4  11  18  36  60  82 110 154 190 221 275 347
#     4  10  22  33  55  89 115 143 185 227 286 335
#     4  10  15  33  57  80 104 145 190 223 260 331
#     4   9  14  28  56  83 105 137 179 226 261 329
#     4  11  21  38  58  83 111 145 194 237 275 331
#     4  10  21  34  60  85 106 147 194 232 281 325
#     4  10  18  37  59  79 105 150 199 224 270 332
#     4  11  18  35  58  87 116 144 186 230 276 345
#
# _framework density 27.914292
#
# number of rings (size 3 to 8) (size 9 to 14) (size 15 to 20)
#    0.000    1.750    7.500    1.125    0.000    0.000 
#    4.500    1.250    5.500    0.000    0.000    0.000 
#    0.000    0.000    0.000    0.000    0.000    0.000 
#
# Total GULP energy -89191.144540 kJ/mol
# GULP energy per Si atom -5574.446534 kJ/mol
# Density = 2.785076 g / cm^3
# Si number density = 27.914292 Si / 1000 Ang^3
#
#
#
# Elastic Constant Matrix: (Units=GPa)
#
#
# Indices 1 2 3 4 5 6 
#
# 1 75.8647 46.6192 46.3398 -0.0002 17.9678 0.0002
# 2 46.6192 150.2922 30.9838 -0.0001 18.2566 0.0001
# 3 46.3398 30.9838 127.8467 -0.0002 18.6894 0.0002
# 4 -0.0002 -0.0001 -0.0002 11.2120 0.0002 17.9215
# 5 17.9678 18.2566 18.6894 0.0002 49.4211 -0.0003
# 6 0.0002 0.0001 0.0002 17.9215 -0.0003 38.2099
#
#
#
# Elastic Compliance Matrix: (Units=1/GPa)
#
#
# Indices 1 2 3 4 5 6 
#
# 1 0.020425 -0.004725 -0.005745 0.000002 -0.003508 -0.000001
# 2 -0.004725 0.008300 -0.000108 0.000000 -0.001308 0.000000
# 3 -0.005745 -0.000108 0.010182 0.000000 -0.001722 0.000000
# 4 0.000002 0.000000 0.000000 0.356339 -0.000003 -0.167133
# 5 -0.003508 -0.001308 -0.001722 -0.000003 0.022644 0.000002
# 6 -0.000001 0.000000 0.000000 -0.167133 0.000002 0.104561
#
#
# Mechanical properties :
#
#
# Convention : Reuss Voigt Hill
#
# Bulk Modulus (GPa) = 56.33460 66.87659 61.60560
# Shear Modulus (GPa) = 9.09876 35.10598 22.10237
#
# Velocity S-wave (km/s) = 1.80738 3.55016 2.81694
# Velocity P-wave (km/s) = 4.95788 6.38864 5.71818
#
# Compressibility (1/GPa) = 0.01775108
#
# Stress axis : x y z
#
# Youngs Moduli (GPa) = 48.95908 120.47524 98.21018
#
# Poissons Ratio (x) = 0.56926 0.56427
# Poissons Ratio (y) = 0.23134 0.01058
# Poissons Ratio (z) = 0.28129 0.01298
#
# Static dielectric constant tensor:
#      x y z
#    x 2.400540 0.000000 -0.037600 
#    y 0.000000 2.195160 0.000000 
#    z -0.037600 0.000000 2.217500 
# 
# From -- ./inp_files/39860.got.cif
#   From: 2010.05.17/outbox.cif.g08.bks.cpg/sg5_20_cif.got.tgz:39860.got - 2010.06.03 18:56:24.
