data_PCOD9119974
_publ_section_title
;
Structure prediction by ZEFSAII (Michael W. Deem and Ramdas Pophale) SiO2 
 PCOD9119974
Probable space group: C 2
;
_chemical_formula_sum "Si O2"
_cell_formula_units_Z 30
_cell_length_a 12.704519
_cell_length_b 14.037203
_cell_length_c 6.938083
_cell_angle_alpha 90.000000
_cell_angle_beta 90.079910
_cell_angle_gamma 90.000000
_cell_volume 1237.308157
_symmetry_space_group_name_H-M "C 2"
_symmetry_group_IT_number 5
_symmetry_cell_setting 'monoclinic'
loop_
_space_group_symop_operation_xyz
x,y,z
-x,y,-z
1/2+x,1/2+y,z
1/2-x,1/2+y,-z
loop_
_atom_site_type_symbol
_atom_site_label
_atom_site_fract_x
_atom_site_fract_y
_atom_site_fract_z
Si Si1 0.239861 0.639230 0.180333
Si Si2 0.468382 0.556977 0.278121
Si Si3 0.694254 0.937489 0.295260
Si Si4 0.471106 0.962892 0.232764
Si Si5 0.000000 0.200990 0.000000
Si Si6 0.304698 0.834717 0.110553
Si Si7 0.907057 0.659353 0.155028
Si Si8 0.407440 0.359848 0.347764
O O1 0.357728 0.608713 0.235656
O O2 0.182868 0.552507 0.289939
O O3 0.228337 0.754339 0.203159
O O4 0.196125 0.627173 0.963616
O O5 0.500000 0.557256 0.500000
O O6 0.454518 0.447153 0.219720
O O7 0.542827 0.626931 0.160543
O O8 0.795151 0.903518 0.416394
O O9 0.572086 0.910873 0.324945
O O10 0.726381 0.894406 0.081198
O O11 0.446294 0.071776 0.283556
O O12 0.361961 0.907218 0.253167
O O13 0.500000 0.966913 0.000000
O O14 0.096443 0.269542 0.954015
O O15 0.885597 0.758127 0.256782
O O16 0.000000 0.677123 0.000000
O O17 0.500000 0.344031 0.500000
#
# Coordination Sequence:
#
# PCOD9119974 Si02
#       8
#     4   4   4   4   2   4   4   4
#     4  10  18  30  54  83 109 151 193 239 296 348
#     4   9  21  38  56  85 123 155 194 250 301 356
#     4  10  16  32  54  78 106 152 188 233 293 357
#     4   9  16  29  53  83 106 135 189 250 279 343
#     4  10  18  32  60  88 108 154 206 240 294 348
#     4  10  16  28  52  87 106 137 197 242 284 348
#     4  11  19  32  57  85 107 144 201 240 287 362
#     4  10  22  37  56  79 119 158 188 238 306 359
#
# _framework density 24.246185000000001
#
# number of rings (size 3 to 8) (size 9 to 14) (size 15 to 20)
#    0.000    2.133    7.333    0.000    0.933    0.000 
#    0.000    1.333    0.000    3.200    0.000    0.000 
#    0.000    0.000    0.000    0.000    0.000    0.000 
#
# Total GULP energy -83521.641036 kJ/mol
# GULP energy per Si atom -5568.109402 kJ/mol
# Density = 2.419100 g / cm^3
# Si number density = 24.246185 Si / 1000 Ang^3
#
#
#
# Elastic Constant Matrix: (Units=GPa)
#
#
# Indices 1 2 3 4 5 6 
#
# 1 88.8130 28.2184 43.9906 0.0000 30.7346 0.0000
# 2 28.2184 156.8852 19.9575 0.0000 -2.7979 0.0000
# 3 43.9906 19.9575 72.0564 0.0000 23.2111 0.0000
# 4 0.0000 0.0000 0.0000 7.0170 0.0000 23.1417
# 5 30.7346 -2.7979 23.2111 0.0000 42.6162 0.0000
# 6 0.0000 0.0000 0.0000 23.1417 0.0000 33.0561
#
#
#
# Elastic Compliance Matrix: (Units=1/GPa)
#
#
# Indices 1 2 3 4 5 6 
#
# 1 0.019471 -0.002665 -0.007967 0.000000 -0.009878 0.000000
# 2 -0.002665 0.007079 -0.001337 0.000000 0.003115 0.000000
# 3 -0.007967 -0.001337 0.020969 0.000000 -0.005763 0.000000
# 4 0.000000 0.000000 0.000000 -0.108887 0.000000 0.076229
# 5 -0.009878 0.003115 -0.005763 0.000000 0.033932 0.000000
# 6 0.000000 0.000000 0.000000 0.076229 0.000000 -0.023114
#
#
# Mechanical properties :
#
#
# Convention : Reuss Voigt Hill
#
# Bulk Modulus (GPa) = 42.40807 55.78751 49.09779
# Shear Modulus (GPa) = -266.64426 31.57707 -117.53360
#
# Velocity S-wave (km/s) = -10.49821 3.61273 -6.96996
# Velocity P-wave (km/s) = 11.37635 6.36091 6.66934
#
# Compressibility (1/GPa) = 0.02358042
#
# Stress axis : x y z
#
# Youngs Moduli (GPa) = 51.35882 141.26168 47.69054
#
# Poissons Ratio (x) = 0.37644 0.37995
# Poissons Ratio (y) = 0.13686 0.06377
# Poissons Ratio (z) = 0.40917 0.18890
#
# Static dielectric constant tensor:
#      x y z
#    x 2.027730 0.000000 -0.057960 
#    y 0.000000 1.978280 0.000000 
#    z -0.057960 0.000000 2.060810 
# 
# From -- ./inp_files/24426.got.cif
#   From: 2010.05.17/outbox.cif.g08.bks.cpg/sg5_13_cif.got.tgz:24426.got - 2010.06.03 18:56:24.
