data_PCOD9119970
_publ_section_title
;
Structure prediction by ZEFSAII (Michael W. Deem and Ramdas Pophale) SiO2 
 PCOD9119970
Probable space group: C 2
;
_chemical_formula_sum "Si O2"
_cell_formula_units_Z 28
_cell_length_a 24.681258
_cell_length_b 7.665695
_cell_length_c 8.443795
_cell_angle_alpha 90.000000
_cell_angle_beta 55.840947
_cell_angle_gamma 90.000000
_cell_volume 1321.950204
_symmetry_space_group_name_H-M "C 2"
_symmetry_group_IT_number 5
_symmetry_cell_setting 'monoclinic'
loop_
_space_group_symop_operation_xyz
x,y,z
-x,y,-z
1/2+x,1/2+y,z
1/2-x,1/2+y,-z
loop_
_atom_site_type_symbol
_atom_site_label
_atom_site_fract_x
_atom_site_fract_y
_atom_site_fract_z
Si Si1 0.500000 0.009110 0.000000
Si Si2 0.303531 0.438436 0.216261
Si Si3 0.191740 0.231208 0.206981
Si Si4 0.203371 0.467318 0.905315
Si Si5 0.203423 0.608521 0.561258
Si Si6 0.500000 0.155110 0.500000
Si Si7 0.411051 0.917317 0.426361
Si Si8 0.589192 0.242175 0.086474
O O1 0.450051 0.136825 0.986368
O O2 0.540623 0.895429 0.804506
O O3 0.246907 0.358045 0.196487
O O4 0.271466 0.601520 0.354604
O O5 0.309693 0.296315 0.346693
O O6 0.374004 0.420051 0.021641
O O7 0.225341 0.042875 0.163116
O O8 0.126851 0.261557 0.419437
O O9 0.186716 0.296528 0.034150
O O10 0.203414 0.482595 0.715465
O O11 0.147175 0.608906 0.044107
O O12 0.146367 0.541831 0.543556
O O13 0.539623 0.267663 0.309800
O O14 0.451745 0.027345 0.485601
#
# Coordination Sequence:
#
# PCOD9119970 Si02
#       8
#     2   4   4   4   4   2   4   4
#     4  10  16  28  50  70 104 124 162 216 244 286
#     4   9  18  33  48  73 106 125 167 208 246 301
#     4   9  19  31  49  71 107 126 165 208 248 300
#     4  10  18  34  47  77 104 130 166 206 249 300
#     4   9  18  32  50  73 103 131 162 207 245 299
#     4  10  18  26  52  70 108 128 160 212 252 280
#     4  10  17  29  47  74 102 129 162 207 256 285
#     4   9  17  30  44  75 102 125 163 207 252 290
#
# _framework density 21.180827000000001
#
# number of rings (size 3 to 8) (size 9 to 14) (size 15 to 20)
#    0.000    2.857    4.286    0.000    0.000    2.286 
#    0.000    0.000    0.000    0.000    0.000   37.000 
#    0.000    0.000    0.000    0.000    0.000    0.000 
#
# Total GULP energy -77983.051082 kJ/mol
# GULP energy per Si atom -5570.217934 kJ/mol
# Density = 2.113262 g / cm^3
# Si number density = 21.180827 Si / 1000 Ang^3
#
#
#
# Elastic Constant Matrix: (Units=GPa)
#
#
# Indices 1 2 3 4 5 6 
#
# 1 72.0358 9.3788 37.4107 0.0000 -3.5535 0.0000
# 2 9.3788 21.7818 15.9212 0.0000 -8.7283 0.0000
# 3 37.4107 15.9212 181.2640 0.0000 -20.1952 0.0000
# 4 0.0000 0.0000 0.0000 8.2000 0.0000 -9.8874
# 5 -3.5535 -8.7283 -20.1952 0.0000 26.9990 0.0000
# 6 0.0000 0.0000 0.0000 -9.8874 0.0000 8.5780
#
#
#
# Elastic Compliance Matrix: (Units=1/GPa)
#
#
# Indices 1 2 3 4 5 6 
#
# 1 0.016085 -0.005469 -0.003055 0.000000 -0.001936 0.000000
# 2 -0.005469 0.056121 -0.002029 0.000000 0.015906 0.000000
# 3 -0.003055 -0.002029 0.006772 0.000000 0.004008 0.000000
# 4 0.000000 0.000000 0.000000 -0.312828 0.000000 -0.360580
# 5 -0.001936 0.015906 0.004008 0.000000 0.044923 0.000000
# 6 0.000000 0.000000 0.000000 -0.360580 0.000000 -0.299044
#
#
# Mechanical properties :
#
#
# Convention : Reuss Voigt Hill
#
# Bulk Modulus (GPa) = 17.27907 44.50033 30.88970
# Shear Modulus (GPa) = -11.17133 22.91346 5.87106
#
# Velocity S-wave (km/s) = -2.29907 3.29264 1.66670
# Velocity P-wave (km/s) = 1.06206 5.95908 4.28011
#
# Compressibility (1/GPa) = 0.05787349
#
# Stress axis : x y z
#
# Youngs Moduli (GPa) = 62.16923 17.81863 147.66605
#
# Poissons Ratio (x) = 0.09744 0.45114
# Poissons Ratio (y) = 0.33998 0.29955
# Poissons Ratio (z) = 0.18994 0.03615
#
# Static dielectric constant tensor:
#      x y z
#    x 1.763630 0.000000 0.007500 
#    y 0.000000 1.789120 0.000000 
#    z 0.007500 0.000000 1.850420 
# 
# From -- ./inp_files/30786.got.cif
#   From: 2010.05.17/outbox.cif.g08.bks.cpg/sg5_16_cif.got.tgz:30786.got - 2010.06.03 18:56:24.
