data_PCOD9119930
_publ_section_title
;
Structure prediction by ZEFSAII (Michael W. Deem and Ramdas Pophale) SiO2 
 PCOD9119930
Probable space group: C 2
;
_chemical_formula_sum "Si O2"
_cell_formula_units_Z 28
_cell_length_a 31.045818
_cell_length_b 6.918675
_cell_length_c 5.410638
_cell_angle_alpha 90.000000
_cell_angle_beta 104.958315
_cell_angle_gamma 90.000000
_cell_volume 1122.801112
_symmetry_space_group_name_H-M "C 2"
_symmetry_group_IT_number 5
_symmetry_cell_setting 'monoclinic'
loop_
_space_group_symop_operation_xyz
x,y,z
-x,y,-z
1/2+x,1/2+y,z
1/2-x,1/2+y,-z
loop_
_atom_site_type_symbol
_atom_site_label
_atom_site_fract_x
_atom_site_fract_y
_atom_site_fract_z
Si Si1 0.676672 0.683820 0.166385
Si Si2 0.905684 0.750168 0.422591
Si Si3 0.548994 0.655576 0.529530
Si Si4 0.686211 0.290388 0.933662
Si Si5 0.424575 0.721211 0.931834
Si Si6 0.276168 0.643129 0.259985
Si Si7 0.948565 0.762438 0.985256
O O1 0.627877 0.759996 0.156356
O O2 0.708559 0.712890 0.448925
O O3 0.670499 0.452215 0.109099
O O4 0.696999 0.744146 0.929913
O O5 0.856355 0.698190 0.258125
O O6 0.918896 0.683228 0.714723
O O7 0.913223 0.987372 0.439520
O O8 0.937051 0.694625 0.241480
O O9 0.500000 0.565990 0.500000
O O10 0.550378 0.774988 0.279797
O O11 0.558918 0.786284 0.778392
O O12 0.709756 0.421106 0.757719
O O13 0.724316 0.168985 0.123189
O O14 0.437079 0.491918 0.968876
O O15 0.000000 0.737096 0.000000
#
# Coordination Sequence:
#
# PCOD9119930 Si02
#       7
#     4   4   4   4   4   4   4
#     4  10  20  33  49  70  95 133 176 204 252 295
#     4  10  17  26  42  60  93 126 161 187 242 297
#     4  10  16  23  38  63  90 127 157 185 231 298
#     4  10  22  35  53  74  99 137 174 212 259 295
#     4  10  15  26  38  57  88 125 159 186 231 295
#     4  10  22  33  54  70 100 126 180 216 254 302
#     4  10  16  24  38  62  91 128 157 184 231 300
#
# _framework density 24.937629000000001
#
# number of rings (size 3 to 8) (size 9 to 14) (size 15 to 20)
#    0.857    1.143    2.857    6.857    2.000    0.000 
#    0.000    0.000    0.000    0.000    0.000    0.000 
#    0.000    0.000    0.000   99.000    0.000    0.000 
#
# Total GULP energy -78169.315024 kJ/mol
# GULP energy per Si atom -5583.522502 kJ/mol
# Density = 2.488087 g / cm^3
# Si number density = 24.937629 Si / 1000 Ang^3
#
#
#
# Elastic Constant Matrix: (Units=GPa)
#
#
# Indices 1 2 3 4 5 6 
#
# 1 44.8784 -7.2321 -19.7974 0.0000 16.7469 0.0000
# 2 -7.2321 64.8725 -5.2122 0.0000 0.2722 0.0000
# 3 -19.7974 -5.2122 144.2574 0.0000 -13.8847 0.0000
# 4 0.0000 0.0000 0.0000 -13.4552 0.0000 8.9730
# 5 16.7469 0.2722 -13.8847 0.0000 54.2332 0.0000
# 6 0.0000 0.0000 0.0000 8.9730 0.0000 1.5868
#
#
#
# Elastic Compliance Matrix: (Units=1/GPa)
#
#
# Indices 1 2 3 4 5 6 
#
# 1 0.027000 0.003291 0.003097 0.000000 -0.007561 0.000000
# 2 0.003291 0.015861 0.000942 0.000000 -0.000854 0.000000
# 3 0.003097 0.000942 0.007483 0.000000 0.000955 0.000000
# 4 0.000000 0.000000 0.000000 -0.015578 0.000000 0.088086
# 5 -0.007561 -0.000854 0.000955 0.000000 0.021023 0.000000
# 6 0.000000 0.000000 0.000000 0.088086 0.000000 0.132088
#
#
# Mechanical properties :
#
#
# Convention : Reuss Voigt Hill
#
# Bulk Modulus (GPa) = 15.38384 21.05834 18.22109
# Shear Modulus (GPa) = 25.65611 27.55629 26.60620
#
# Velocity S-wave (km/s) = 3.21099 3.32777 3.26990
# Velocity P-wave (km/s) = 4.46426 4.81956 4.64531
#
# Compressibility (1/GPa) = 0.06500326
#
# Stress axis : x y z
#
# Youngs Moduli (GPa) = 37.03668 63.04774 133.63688
#
# Poissons Ratio (x) = -0.20746 -0.41381
# Poissons Ratio (y) = -0.12187 -0.12594
# Poissons Ratio (z) = -0.11469 -0.05942
#
# Static dielectric constant tensor:
#      x y z
#    x 1.936130 0.000000 -0.031990 
#    y 0.000000 2.086900 0.000000 
#    z -0.031990 0.000000 2.026220 
# 
# From -- ./inp_files/11326.got.cif
#   From: 2010.05.17/outbox.cif.g08.bks.cpg/sg5_6_cif.got.tgz:11326.got - 2010.06.03 18:56:24.
