data_PCOD9119657
_publ_section_title
;
Structure prediction by ZEFSAII (Michael W. Deem and Ramdas Pophale) SiO2 
 PCOD9119657
Probable space group: P 21
;
_chemical_formula_sum "Si O2"
_cell_formula_units_Z 14
_cell_length_a 7.122747
_cell_length_b 16.798296
_cell_length_c 4.930758
_cell_angle_alpha 90.000000
_cell_angle_beta 99.889267
_cell_angle_gamma 90.000000
_cell_volume 581.199267
_symmetry_space_group_name_H-M "P 21"
_symmetry_group_IT_number 4
_symmetry_cell_setting 'monoclinic'
loop_
_space_group_symop_operation_xyz
x,y,z
-x,1/2+y,-z
loop_
_atom_site_type_symbol
_atom_site_label
_atom_site_fract_x
_atom_site_fract_y
_atom_site_fract_z
Si Si1 0.871620 0.934540 0.068417
Si Si2 0.866378 0.412550 0.354103
Si Si3 0.654134 0.558705 0.505711
Si Si4 0.095516 0.195266 0.653253
Si Si5 0.714607 0.774627 0.790389
Si Si6 0.281151 0.740318 0.645526
Si Si7 0.398393 0.584676 0.953873
O O1 0.032110 0.950684 0.881074
O O2 0.745748 0.862411 0.917151
O O3 0.744974 0.011010 0.095018
O O4 0.980742 0.908875 0.365786
O O5 0.701272 0.468913 0.431520
O O6 0.789698 0.325374 0.260354
O O7 0.573212 0.568003 0.787562
O O8 0.837165 0.611702 0.462933
O O9 0.870164 0.211293 0.617992
O O10 0.160182 0.257449 0.439751
O O11 0.209690 0.215788 0.954025
O O12 0.501751 0.756884 0.637839
O O13 0.293319 0.665633 0.848867
O O14 0.484730 0.589525 0.273279
#
# Coordination Sequence:
#
# PCOD9119657 Si02
#       7
#     2   2   2   2   2   2   2
#     4  12  25  50  71 114 150 205 251 323 371 467
#     4  12  27  46  78 107 158 196 262 310 392 446
#     4  12  25  50  71 114 150 205 251 323 371 467
#     4  12  25  47  74 107 153 188 253 312 372 456
#     4  12  25  47  74 107 153 188 253 312 372 456
#     4  12  26  48  78 114 146 206 242 324 378 456
#     4  12  27  46  78 107 158 196 262 310 392 446
#
# _framework density 24.088123
#
# number of rings (size 3 to 8) (size 9 to 14) (size 15 to 20)
#    0.000    0.000    5.714    3.429    0.000    6.857 
#    0.000    0.000    0.000    0.000    0.000    0.000 
#    0.000    0.000    0.000    0.000    0.000    0.000 
#
# Total GULP energy -78418.875195 kJ/mol
# GULP energy per Si atom -5601.348228 kJ/mol
# Density = 2.403330 g / cm^3
# Si number density = 24.088123 Si / 1000 Ang^3
#
#
#
# Elastic Constant Matrix: (Units=GPa)
#
#
# Indices 1 2 3 4 5 6 
#
# 1 90.2438 33.6339 33.7642 0.0000 9.3618 0.0000
# 2 33.6339 130.7250 23.7429 0.0000 17.1712 0.0000
# 3 33.7642 23.7429 65.4376 0.0000 -11.9456 0.0000
# 4 0.0000 0.0000 0.0000 30.3629 0.0000 6.5270
# 5 9.3618 17.1712 -11.9456 0.0000 42.8081 0.0000
# 6 0.0000 0.0000 0.0000 6.5270 0.0000 34.8366
#
#
#
# Elastic Compliance Matrix: (Units=1/GPa)
#
#
# Indices 1 2 3 4 5 6 
#
# 1 0.015308 -0.001820 -0.008130 0.000000 -0.004886 0.000000
# 2 -0.001820 0.009248 -0.003183 0.000000 -0.004200 0.000000
# 3 -0.008130 -0.003183 0.022327 0.000000 0.009285 0.000000
# 4 0.000000 0.000000 0.000000 0.034317 0.000000 -0.006430
# 5 -0.004886 -0.004200 0.009285 0.000000 0.028704 0.000000
# 6 0.000000 0.000000 0.000000 -0.006430 0.000000 0.029910
#
#
# Mechanical properties :
#
#
# Convention : Reuss Voigt Hill
#
# Bulk Modulus (GPa) = 48.50609 52.07648 50.29129
# Shear Modulus (GPa) = 28.90968 34.61921 31.76444
#
# Velocity S-wave (km/s) = 3.46810 3.79514 3.63530
# Velocity P-wave (km/s) = 6.01810 6.39298 6.20837
#
# Compressibility (1/GPa) = 0.02061597
#
# Stress axis : x y z
#
# Youngs Moduli (GPa) = 65.32408 108.13567 44.78961
#
# Poissons Ratio (x) = 0.19682 0.36415
# Poissons Ratio (y) = 0.11890 0.14256
# Poissons Ratio (z) = 0.53111 0.34418
#
# Static dielectric constant tensor:
#      x y z
#    x 1.992430 0.000000 0.069360 
#    y 0.000000 1.969790 0.000000 
#    z 0.069360 0.000000 1.896770 
# 
# From -- ./inp_files/2193.got.cif
#   From: 2010.05.17/outbox.cif.g08.bks.cpg/sg4_2_cif.got.tgz:2193.got - 2010.06.03 18:43:04.
