data_PCOD9119229
_publ_section_title
;
Structure prediction by ZEFSAII (Michael W. Deem and Ramdas Pophale) SiO2 
 PCOD9119229
Probable space group: P 21
;
_chemical_formula_sum "Si O2"
_cell_formula_units_Z 16
_cell_length_a 5.325974
_cell_length_b 10.008729
_cell_length_c 11.889638
_cell_angle_alpha 90.000000
_cell_angle_beta 109.979128
_cell_angle_gamma 90.000000
_cell_volume 595.648388
_symmetry_space_group_name_H-M "P 21"
_symmetry_group_IT_number 4
_symmetry_cell_setting 'monoclinic'
loop_
_space_group_symop_operation_xyz
x,y,z
-x,1/2+y,-z
loop_
_atom_site_type_symbol
_atom_site_label
_atom_site_fract_x
_atom_site_fract_y
_atom_site_fract_z
Si Si1 0.055826 0.437700 0.482694
Si Si2 0.306874 0.140355 0.888148
Si Si3 0.149583 0.216747 0.240057
Si Si4 0.141001 0.947461 0.122623
Si Si5 0.206204 0.513582 0.254103
Si Si6 0.537279 0.879576 0.979313
Si Si7 0.748478 0.203004 0.380350
Si Si8 0.529332 0.767919 0.314157
O O1 0.083450 0.474686 0.356766
O O2 0.085999 0.577178 0.549332
O O3 0.286206 0.340609 0.567309
O O4 0.799687 0.341919 0.453211
O O5 0.465382 0.217276 0.012049
O O6 0.321471 0.236237 0.780988
O O7 0.998230 0.099849 0.852916
O O8 0.453244 0.999246 0.881454
O O9 0.216832 0.364059 0.204419
O O10 0.434239 0.176454 0.339130
O O11 0.887144 0.220360 0.278810
O O12 0.112296 0.103044 0.143790
O O13 0.329972 0.920724 0.045901
O O14 0.286428 0.867858 0.246285
O O15 0.844568 0.898747 0.057007
O O16 0.431209 0.618732 0.326826
#
# Coordination Sequence:
#
# PCOD9119229 Si02
#       8
#     2   2   2   2   2   2   2   2
#     4  11  26  45  74 108 153 202 251 309 377 454
#     4  11  27  50  73 116 146 206 247 324 376 455
#     4  11  26  44  71 104 150 192 248 308 375 438
#     4  11  24  48  73 112 143 201 245 317 374 455
#     4  11  27  45  73 108 153 198 255 313 374 452
#     4  11  27  46  79 109 151 192 258 307 387 445
#     4  11  26  44  67 107 143 201 248 304 369 448
#     4  11  25  48  76 106 159 200 252 312 380 449
#
# _framework density 26.861481999999999
#
# number of rings (size 3 to 8) (size 9 to 14) (size 15 to 20)
#    0.000    1.000    2.500    1.500   14.000    3.000 
#    0.000    0.000    0.000    0.000    0.000    0.000 
#    0.000    0.000    0.000    0.000    0.000    0.000 
#
# Total GULP energy -89484.033761 kJ/mol
# GULP energy per Si atom -5592.752110 kJ/mol
# Density = 2.680034 g / cm^3
# Si number density = 26.861482 Si / 1000 Ang^3
#
#
#
# Elastic Constant Matrix: (Units=GPa)
#
#
# Indices 1 2 3 4 5 6 
#
# 1 47.5466 3.6860 12.3761 0.0000 5.7738 0.0000
# 2 3.6860 170.4982 20.9706 0.0000 -15.1863 0.0000
# 3 12.3761 20.9706 78.5922 0.0000 15.7992 0.0000
# 4 0.0000 0.0000 0.0000 57.4122 0.0000 10.6847
# 5 5.7738 -15.1863 15.7992 0.0000 22.6185 0.0000
# 6 0.0000 0.0000 0.0000 10.6847 0.0000 44.6431
#
#
#
# Elastic Compliance Matrix: (Units=1/GPa)
#
#
# Indices 1 2 3 4 5 6 
#
# 1 0.022247 -0.000560 -0.002486 0.000000 -0.004319 0.000000
# 2 -0.000560 0.006885 -0.003149 0.000000 0.006965 0.000000
# 3 -0.002486 -0.003149 0.016581 0.000000 -0.013062 0.000000
# 4 0.000000 0.000000 0.000000 0.018230 0.000000 -0.004363
# 5 -0.004319 0.006965 -0.013062 0.000000 0.059115 0.000000
# 6 0.000000 0.000000 0.000000 -0.004363 0.000000 0.023444
#
#
# Mechanical properties :
#
#
# Convention : Reuss Voigt Hill
#
# Bulk Modulus (GPa) = 30.00862 41.18917 35.59890
# Shear Modulus (GPa) = 29.41188 42.24170 35.82679
#
# Velocity S-wave (km/s) = 3.31259 3.96987 3.65603
# Velocity P-wave (km/s) = 5.08201 6.03162 5.57706
#
# Compressibility (1/GPa) = 0.03332376
#
# Stress axis : x y z
#
# Youngs Moduli (GPa) = 44.95024 145.24321 60.30830
#
# Poissons Ratio (x) = 0.08132 0.14991
# Poissons Ratio (y) = 0.02517 0.18992
# Poissons Ratio (z) = 0.11173 0.45739
#
# Static dielectric constant tensor:
#      x y z
#    x 2.120640 0.000000 -0.035650 
#    y 0.000000 2.184730 0.000000 
#    z -0.035650 0.000000 2.198620 
# 
# From -- ./inp_files/13309.got.cif
#   From: 2010.05.17/outbox.cif.g08.bks.cpg/sg4_7_cif.got.tgz:13309.got - 2010.06.03 18:43:04.
