data_PCOD9119189
_publ_section_title
;
Structure prediction by ZEFSAII (Michael W. Deem and Ramdas Pophale) SiO2 
 PCOD9119189
Probable space group: P 21
;
_chemical_formula_sum "Si O2"
_cell_formula_units_Z 14
_cell_length_a 12.575167
_cell_length_b 8.113958
_cell_length_c 5.183868
_cell_angle_alpha 90.000000
_cell_angle_beta 101.378185
_cell_angle_gamma 90.000000
_cell_volume 518.537288
_symmetry_space_group_name_H-M "P 21"
_symmetry_group_IT_number 4
_symmetry_cell_setting 'monoclinic'
loop_
_space_group_symop_operation_xyz
x,y,z
-x,1/2+y,-z
loop_
_atom_site_type_symbol
_atom_site_label
_atom_site_fract_x
_atom_site_fract_y
_atom_site_fract_z
Si Si1 0.569770 0.545360 0.207812
Si Si2 0.913683 0.907356 0.579798
Si Si3 0.198828 0.603483 0.114748
Si Si4 0.903629 0.541335 0.669556
Si Si5 0.682044 0.902088 0.208688
Si Si6 0.603032 0.191259 0.488025
Si Si7 0.223498 0.927341 0.891161
O O1 0.626670 0.727088 0.206502
O O2 0.570505 0.369911 0.370029
O O3 0.464708 0.620873 0.305779
O O4 0.648299 0.464550 0.018506
O O5 0.938728 0.730121 0.701711
O O6 0.788950 0.901663 0.434295
O O7 0.910653 0.047327 0.798478
O O8 0.991648 0.942767 0.379425
O O9 0.273802 0.699109 0.354148
O O10 0.266375 0.446534 0.043221
O O11 0.196054 0.732728 0.879507
O O12 0.818854 0.510959 0.392070
O O13 0.845401 0.494535 0.904108
O O14 0.601489 0.049590 0.262385
#
# Coordination Sequence:
#
# PCOD9119189 Si02
#       7
#     2   2   2   2   2   2   2
#     4  12  23  48  79 111 159 202 265 321 402 463
#     4  11  27  46  78 110 156 201 266 327 394 471
#     4  11  26  47  74 111 156 204 263 328 395 469
#     4  12  28  48  77 116 151 212 259 330 399 469
#     4  11  24  47  71 112 151 202 257 324 388 466
#     4  11  25  46  76 115 149 207 256 329 386 484
#     4  12  27  48  79 113 158 204 260 325 396 470
#
# _framework density 26.999023999999999
#
# number of rings (size 3 to 8) (size 9 to 14) (size 15 to 20)
#    0.000    0.571    4.286    2.571    6.000    1.143 
#    2.571    0.000    0.000    0.000    0.000    0.000 
#    0.000    0.000    0.000    0.000    0.000    0.000 
#
# Total GULP energy -78178.059495 kJ/mol
# GULP energy per Si atom -5584.147107 kJ/mol
# Density = 2.693757 g / cm^3
# Si number density = 26.999024 Si / 1000 Ang^3
#
#
#
# Elastic Constant Matrix: (Units=GPa)
#
#
# Indices 1 2 3 4 5 6 
#
# 1 174.4104 -10.6781 97.1774 0.0000 33.8269 0.0000
# 2 -10.6781 232.8473 -5.5229 0.0000 -101.6525 0.0000
# 3 97.1774 -5.5229 146.4044 0.0000 17.2165 0.0000
# 4 0.0000 0.0000 0.0000 35.1229 0.0000 -19.9028
# 5 33.8269 -101.6525 17.2165 0.0000 190.5073 0.0000
# 6 0.0000 0.0000 0.0000 -19.9028 0.0000 44.8711
#
#
#
# Elastic Compliance Matrix: (Units=1/GPa)
#
#
# Indices 1 2 3 4 5 6 
#
# 1 0.009337 -0.000261 -0.006060 0.000000 -0.001249 0.000000
# 2 -0.000261 0.005609 0.000028 0.000000 0.003037 0.000000
# 3 -0.006060 0.000028 0.010841 0.000000 0.000111 0.000000
# 4 0.000000 0.000000 0.000000 0.038030 0.000000 0.016868
# 5 -0.001249 0.003037 0.000111 0.000000 0.007081 0.000000
# 6 0.000000 0.000000 0.000000 0.016868 0.000000 0.029768
#
#
# Mechanical properties :
#
#
# Convention : Reuss Voigt Hill
#
# Bulk Modulus (GPa) = 75.75972 79.51276 77.63624
# Shear Modulus (GPa) = 42.49792 85.61262 64.05527
#
# Velocity S-wave (km/s) = 3.97174 5.63723 4.87612
# Velocity P-wave (km/s) = 7.01099 8.47852 7.77944
#
# Compressibility (1/GPa) = 0.01319963
#
# Stress axis : x y z
#
# Youngs Moduli (GPa) = 107.10641 178.28183 92.24375
#
# Poissons Ratio (x) = 0.04654 0.55901
# Poissons Ratio (y) = 0.02796 -0.00256
# Poissons Ratio (z) = 0.64908 -0.00495
#
# Static dielectric constant tensor:
#      x y z
#    x 2.213130 0.000000 0.152560 
#    y 0.000000 2.051890 0.000000 
#    z 0.152560 0.000000 2.205830 
# 
# From -- ./inp_files/2553.got.cif
#   From: 2010.05.17/outbox.cif.g08.bks.cpg/sg4_2_cif.got.tgz:2553.got - 2010.06.03 18:43:04.
