data_PCOD9119096
_publ_section_title
;
Structure prediction by ZEFSAII (Michael W. Deem and Ramdas Pophale) SiO2 
 PCOD9119096
Probable space group: P 21
;
_chemical_formula_sum "Si O2"
_cell_formula_units_Z 16
_cell_length_a 12.763319
_cell_length_b 5.153520
_cell_length_c 10.576816
_cell_angle_alpha 90.000000
_cell_angle_beta 59.493485
_cell_angle_gamma 90.000000
_cell_volume 599.395992
_symmetry_space_group_name_H-M "P 21"
_symmetry_group_IT_number 4
_symmetry_cell_setting 'monoclinic'
loop_
_space_group_symop_operation_xyz
x,y,z
-x,1/2+y,-z
loop_
_atom_site_type_symbol
_atom_site_label
_atom_site_fract_x
_atom_site_fract_y
_atom_site_fract_z
Si Si1 0.569961 0.746680 0.917674
Si Si2 0.198288 0.581348 0.896423
Si Si3 0.980957 0.787042 0.855869
Si Si4 0.379200 0.401185 0.398108
Si Si5 0.917804 0.202909 0.542793
Si Si6 0.178749 0.050112 0.620428
Si Si7 0.382249 0.752763 0.604096
Si Si8 0.805496 0.426212 0.851218
O O1 0.588518 0.851738 0.764874
O O2 0.694286 0.619765 0.891570
O O3 0.477452 0.500100 0.977795
O O4 0.313972 0.548782 0.736947
O O5 0.086063 0.670807 0.877154
O O6 0.141266 0.326568 0.990878
O O7 0.217954 0.769256 0.004604
O O8 0.930100 0.592652 0.783242
O O9 0.044500 0.052079 0.765916
O O10 0.389025 0.686002 0.451745
O O11 0.485875 0.278580 0.419164
O O12 0.247037 0.282920 0.509658
O O13 0.847528 0.320688 0.464649
O O14 0.826919 0.236959 0.718274
O O15 0.027608 0.414040 0.491014
O O16 0.278620 0.973415 0.665378
#
# Coordination Sequence:
#
# PCOD9119096 Si02
#       8
#     2   2   2   2   2   2   2   2
#     4  12  32  54  82 115 159 211 267 329 393 475
#     4  11  25  45  72 110 156 202 256 323 393 477
#     4  11  24  44  72 111 150 200 256 317 401 463
#     4  12  26  50  77 113 154 207 266 329 394 471
#     4  12  27  46  75 110 153 203 256 319 393 469
#     4  11  25  46  72 112 151 198 256 327 389 469
#     4  11  27  46  77 109 152 201 263 327 393 466
#     4  12  26  47  75 108 157 204 258 321 396 472
#
# _framework density 26.693539000000001
#
# number of rings (size 3 to 8) (size 9 to 14) (size 15 to 20)
#    0.000    0.500    5.000    1.500    8.750    0.000 
#    0.000    0.000    0.000    0.000    0.000    0.000 
#    0.000    0.000    0.000    0.000    0.000    0.000 
#
# Total GULP energy -89522.893977 kJ/mol
# GULP energy per Si atom -5595.180874 kJ/mol
# Density = 2.663278 g / cm^3
# Si number density = 26.693539 Si / 1000 Ang^3
#
#
#
# Elastic Constant Matrix: (Units=GPa)
#
#
# Indices 1 2 3 4 5 6 
#
# 1 164.3653 22.9377 28.7478 0.0000 0.7695 0.0000
# 2 22.9377 73.5946 13.4578 0.0000 -7.9040 0.0000
# 3 28.7478 13.4578 98.9353 0.0000 5.3592 0.0000
# 4 0.0000 0.0000 0.0000 42.1645 0.0000 1.9645
# 5 0.7695 -7.9040 5.3592 0.0000 28.9795 0.0000
# 6 0.0000 0.0000 0.0000 1.9645 0.0000 45.4895
#
#
#
# Elastic Compliance Matrix: (Units=1/GPa)
#
#
# Indices 1 2 3 4 5 6 
#
# 1 0.006628 -0.001800 -0.001661 0.000000 -0.000360 0.000000
# 2 -0.001800 0.014947 -0.001751 0.000000 0.004448 0.000000
# 3 -0.001661 -0.001751 0.010962 0.000000 -0.002461 0.000000
# 4 0.000000 0.000000 0.000000 0.023764 0.000000 -0.001026
# 5 -0.000360 0.004448 -0.002461 0.000000 0.036185 0.000000
# 6 0.000000 0.000000 0.000000 -0.001026 0.000000 0.022027
#
#
# Mechanical properties :
#
#
# Convention : Reuss Voigt Hill
#
# Bulk Modulus (GPa) = 45.22690 51.90911 48.56800
# Shear Modulus (GPa) = 37.79025 41.44348 39.61686
#
# Velocity S-wave (km/s) = 3.76667 3.94454 3.85663
# Velocity P-wave (km/s) = 5.99140 6.34306 6.16973
#
# Compressibility (1/GPa) = 0.02211074
#
# Stress axis : x y z
#
# Youngs Moduli (GPa) = 150.88570 66.90278 91.22563
#
# Poissons Ratio (x) = 0.12046 0.15156
# Poissons Ratio (y) = 0.27167 0.15974
# Poissons Ratio (z) = 0.25068 0.11715
#
# Static dielectric constant tensor:
#      x y z
#    x 2.057460 0.000000 0.043160 
#    y 0.000000 2.215610 0.000000 
#    z 0.043160 0.000000 2.168530 
# 
# From -- ./inp_files/11749.got.cif
#   From: 2010.05.17/outbox.cif.g08.bks.cpg/sg4_6_cif.got.tgz:11749.got - 2010.06.03 18:43:04.
