data_PCOD9119002
_publ_section_title
;
Structure prediction by ZEFSAII (Michael W. Deem and Ramdas Pophale) SiO2 
 PCOD9119002
Probable space group: P 21
;
_chemical_formula_sum "Si O2"
_cell_formula_units_Z 14
_cell_length_a 9.709165
_cell_length_b 10.889026
_cell_length_c 9.171218
_cell_angle_alpha 90.000000
_cell_angle_beta 37.107439
_cell_angle_gamma 90.000000
_cell_volume 584.978041
_symmetry_space_group_name_H-M "P 21"
_symmetry_group_IT_number 4
_symmetry_cell_setting 'monoclinic'
loop_
_space_group_symop_operation_xyz
x,y,z
-x,1/2+y,-z
loop_
_atom_site_type_symbol
_atom_site_label
_atom_site_fract_x
_atom_site_fract_y
_atom_site_fract_z
Si Si1 0.166216 0.925070 0.137323
Si Si2 0.949362 0.263742 0.010291
Si Si3 0.324990 0.850274 0.499985
Si Si4 0.944121 0.946150 0.602414
Si Si5 0.353368 0.557965 0.885774
Si Si6 0.636044 0.658554 0.150442
Si Si7 0.579938 0.752030 0.869492
O O1 0.052965 0.002815 0.364340
O O2 0.999166 0.847699 0.173984
O O3 0.343502 0.827460 0.055837
O O4 0.316953 0.016727 0.913013
O O5 0.797974 0.351282 0.241754
O O6 0.806532 0.145585 0.075403
O O7 0.159336 0.215457 0.927595
O O8 0.407613 0.709645 0.415864
O O9 0.141023 0.886790 0.534217
O O10 0.537150 0.942657 0.291546
O O11 0.787436 0.841439 0.664360
O O12 0.786383 0.019376 0.850072
O O13 0.559364 0.641255 0.773523
O O14 0.616017 0.712182 0.004722
#
# Coordination Sequence:
#
# PCOD9119002 Si02
#       7
#     2   2   2   2   2   2   2
#     4  11  28  47  73 114 147 196 257 309 376 453
#     4  11  29  47  74 109 152 197 247 313 387 440
#     4  12  25  48  74 106 147 200 243 311 375 452
#     4  12  23  50  79 104 150 195 254 307 376 444
#     4  11  27  48  76 110 148 197 258 310 374 451
#     4  12  25  46  72 109 149 192 250 307 378 449
#     4  11  23  48  72 114 143 189 255 311 368 453
#
# _framework density 23.93252
#
# number of rings (size 3 to 8) (size 9 to 14) (size 15 to 20)
#    0.000    0.571    4.286    1.714    6.000    9.143 
#    2.571    0.000    0.000    0.000    0.000    0.000 
#    0.000    0.000    0.000    0.000    0.000    0.000 
#
# Total GULP energy -78320.875548 kJ/mol
# GULP energy per Si atom -5594.348253 kJ/mol
# Density = 2.387805 g / cm^3
# Si number density = 23.932520 Si / 1000 Ang^3
#
#
#
# Elastic Constant Matrix: (Units=GPa)
#
#
# Indices 1 2 3 4 5 6 
#
# 1 147.2109 49.5832 19.5755 0.0000 4.2609 0.0000
# 2 49.5832 70.5743 9.2442 0.0000 4.9302 0.0000
# 3 19.5755 9.2442 62.3044 0.0000 24.6874 0.0000
# 4 0.0000 0.0000 0.0000 22.5345 0.0000 1.9083
# 5 4.2609 4.9302 24.6874 0.0000 33.3186 0.0000
# 6 0.0000 0.0000 0.0000 1.9083 0.0000 40.3861
#
#
#
# Elastic Compliance Matrix: (Units=1/GPa)
#
#
# Indices 1 2 3 4 5 6 
#
# 1 0.009194 -0.006233 -0.002638 0.000000 0.001701 0.000000
# 2 -0.006233 0.018690 -0.000049 0.000000 -0.001932 0.000000
# 3 -0.002638 -0.000049 0.023711 0.000000 -0.017224 0.000000
# 4 0.000000 0.000000 0.000000 0.044555 0.000000 -0.002105
# 5 0.001701 -0.001932 -0.017224 0.000000 0.042844 0.000000
# 6 0.000000 0.000000 0.000000 -0.002105 0.000000 0.024860
#
#
# Mechanical properties :
#
#
# Convention : Reuss Voigt Hill
#
# Bulk Modulus (GPa) = 29.62507 48.54394 39.08450
# Shear Modulus (GPa) = 25.91416 32.69363 29.30390
#
# Velocity S-wave (km/s) = 3.29416 3.70006 3.50299
# Velocity P-wave (km/s) = 5.18403 6.21141 5.72083
#
# Compressibility (1/GPa) = 0.03375520
#
# Stress axis : x y z
#
# Youngs Moduli (GPa) = 108.76961 53.50555 42.17418
#
# Poissons Ratio (x) = 0.33348 0.11125
# Poissons Ratio (y) = 0.67791 0.00208
# Poissons Ratio (z) = 0.28692 0.00264
#
# Static dielectric constant tensor:
#      x y z
#    x 1.876040 0.000000 0.008140 
#    y 0.000000 1.926790 0.000000 
#    z 0.008140 0.000000 1.943730 
# 
# From -- ./inp_files/1286.got.cif
#   From: 2010.05.17/outbox.cif.g08.bks.cpg/sg4_1_cif.got.tgz:1286.got - 2010.06.03 18:43:04.
