data_PCOD9119567
_publ_section_title
;
Structure prediction by ZEFSAII (Michael W. Deem and Ramdas Pophale) SiO2 
 PCOD9119567
Probable space group: P 21
;
_chemical_formula_sum "Si O2"
_cell_formula_units_Z 14
_cell_length_a 4.868398
_cell_length_b 11.078950
_cell_length_c 9.171873
_cell_angle_alpha 90.000000
_cell_angle_beta 103.292125
_cell_angle_gamma 90.000000
_cell_volume 481.448113
_symmetry_space_group_name_H-M "P 21"
_symmetry_group_IT_number 4
_symmetry_cell_setting 'monoclinic'
loop_
_space_group_symop_operation_xyz
x,y,z
-x,1/2+y,-z
loop_
_atom_site_type_symbol
_atom_site_label
_atom_site_fract_x
_atom_site_fract_y
_atom_site_fract_z
Si Si1 0.247048 0.439830 0.756728
Si Si2 0.693437 0.208538 0.189400
Si Si3 0.035920 0.560704 0.142386
Si Si4 0.373178 0.131844 0.664884
Si Si5 0.664780 0.463809 0.574812
Si Si6 0.295036 0.255298 0.408258
Si Si7 0.029656 0.301897 0.001067
O O1 0.271365 0.568278 0.843312
O O2 0.554755 0.436123 0.721176
O O3 0.998580 0.468731 0.609731
O O4 0.122354 0.343593 0.851505
O O5 0.426584 0.224072 0.259456
O O6 0.966587 0.247886 0.318088
O O7 0.722147 0.283869 0.043305
O O8 0.322469 0.625682 0.231379
O O9 0.108661 0.427420 0.095675
O O10 0.833912 0.556435 0.260867
O O11 0.895884 0.657649 0.014949
O O12 0.240719 0.253073 0.589647
O O13 0.412597 0.100235 0.491195
O O14 0.495158 0.376991 0.448851
#
# Coordination Sequence:
#
# PCOD9119567 Si02
#       7
#     2   2   2   2   2   2   2
#     4  12  24  46  71 104 144 189 232 296 356 424
#     4  12  24  46  71 104 144 189 232 296 356 424
#     4  12  28  46  76 106 146 194 240 302 352 430
#     4  12  24  46  72 110 144 186 244 300 364 426
#     4  12  24  44  73 106 144 182 236 297 362 422
#     4  12  24  44  73 106 144 182 236 297 362 422
#     4  12  28  52  72 108 148 194 248 286 360 434
#
# _framework density 29.078938000000001
#
# number of rings (size 3 to 8) (size 9 to 14) (size 15 to 20)
#    0.000    0.000    4.286    6.000    0.000    4.571 
#    0.000    0.000    0.000    0.000    0.000    0.000 
#    0.000    0.000    0.000    0.000    0.000    0.000 
#
# Total GULP energy -78013.107849 kJ/mol
# GULP energy per Si atom -5572.364846 kJ/mol
# Density = 2.901275 g / cm^3
# Si number density = 29.078938 Si / 1000 Ang^3
#
#
#
# Elastic Constant Matrix: (Units=GPa)
#
#
# Indices 1 2 3 4 5 6 
#
# 1 150.5560 19.6328 63.7670 0.0000 3.0533 0.0000
# 2 19.6328 143.7020 45.8121 0.0000 -2.9307 0.0000
# 3 63.7670 45.8121 137.1131 0.0000 -26.0438 0.0000
# 4 0.0000 0.0000 0.0000 63.3535 0.0000 -13.3645
# 5 3.0533 -2.9307 -26.0438 0.0000 47.1646 0.0000
# 6 0.0000 0.0000 0.0000 -13.3645 0.0000 38.4451
#
#
#
# Elastic Compliance Matrix: (Units=1/GPa)
#
#
# Indices 1 2 3 4 5 6 
#
# 1 0.008670 0.000255 -0.004715 0.000000 -0.003149 0.000000
# 2 0.000255 0.007844 -0.002960 0.000000 -0.001164 0.000000
# 3 -0.004715 -0.002960 0.011728 0.000000 0.006598 0.000000
# 4 0.000000 0.000000 0.000000 0.017034 0.000000 0.005921
# 5 -0.003149 -0.001164 0.006598 0.000000 0.024977 0.000000
# 6 0.000000 0.000000 0.000000 0.005921 0.000000 0.028070
#
#
# Mechanical properties :
#
#
# Convention : Reuss Voigt Hill
#
# Bulk Modulus (GPa) = 74.62511 76.64387 75.63449
# Shear Modulus (GPa) = 42.50570 49.93659 46.22115
#
# Velocity S-wave (km/s) = 3.82741 4.14850 3.99119
# Velocity P-wave (km/s) = 6.72687 7.02575 6.87793
#
# Compressibility (1/GPa) = 0.01340032
#
# Stress axis : x y z
#
# Youngs Moduli (GPa) = 115.34228 127.48489 85.26288
#
# Poissons Ratio (x) = -0.03245 0.40204
# Poissons Ratio (y) = -0.02936 0.25240
# Poissons Ratio (z) = 0.54387 0.37739
#
# Static dielectric constant tensor:
#      x y z
#    x 2.207890 0.000000 0.136040 
#    y 0.000000 2.571650 0.000000 
#    z 0.136040 0.000000 2.475450 
# 
# From -- ./inp_files/4598.got.cif
#   From: 2010.05.17/outbox.cif.g08.bks.cpg/sg4_3_cif.got.tgz:4598.got - 2010.06.03 18:43:04.
