data_PCOD9119999
_publ_section_title
;
Structure prediction by ZEFSAII (Michael W. Deem and Ramdas Pophale) SiO2 
 PCOD9119999
Probable space group: C 2
;
_chemical_formula_sum "Si O2"
_cell_formula_units_Z 18
_cell_length_a 11.374908
_cell_length_b 15.446577
_cell_length_c 6.797597
_cell_angle_alpha 90.000000
_cell_angle_beta 42.231983
_cell_angle_gamma 90.000000
_cell_volume 802.770547
_symmetry_space_group_name_H-M "C 2"
_symmetry_group_IT_number 5
_symmetry_cell_setting 'monoclinic'
loop_
_space_group_symop_operation_xyz
x,y,z
-x,y,-z
1/2+x,1/2+y,z
1/2-x,1/2+y,-z
loop_
_atom_site_type_symbol
_atom_site_label
_atom_site_fract_x
_atom_site_fract_y
_atom_site_fract_z
Si Si1 0.058885 0.529790 0.693294
Si Si2 0.323747 0.210090 0.346506
Si Si3 0.500000 0.643091 0.500000
Si Si4 0.156333 0.900647 0.555773
Si Si5 0.318724 0.484282 0.908614
O O1 0.143108 0.624724 0.562037
O O2 0.205527 0.456697 0.492787
O O3 0.118896 0.506727 0.199311
O O4 0.000000 0.532337 0.000000
O O5 0.155799 0.193855 0.414566
O O6 0.303926 0.299717 0.484533
O O7 0.500000 0.219741 0.000000
O O8 0.413038 0.577078 0.764182
O O9 0.184740 0.936844 0.299932
O O10 0.954668 0.923532 0.854245
#
# Coordination Sequence:
#
# PCOD9119999 Si02
#       5
#     4   4   2   4   4
#     4   9  15  31  51  70  95 131 165 201 241 290
#     4  11  19  30  51  79 103 128 168 206 244 294
#     4  10  16  30  52  72  94 132 170 198 238 290
#     4   9  18  29  51  78 100 122 168 211 243 283
#     4   9  16  34  54  71  94 132 169 206 241 292
#
# _framework density 22.422349000000001
#
# number of rings (size 3 to 8) (size 9 to 14) (size 15 to 20)
#    0.000    2.667    8.889    0.000    0.000    1.778 
#    0.000    0.000    0.000   12.000    0.000    0.000 
#    0.000    0.000    0.000    0.000    0.000    0.000 
#
# Total GULP energy -50231.655042 kJ/mol
# GULP energy per Si atom -5581.295005 kJ/mol
# Density = 2.237131 g / cm^3
# Si number density = 22.422349 Si / 1000 Ang^3
#
#
#
# Elastic Constant Matrix: (Units=GPa)
#
#
# Indices 1 2 3 4 5 6 
#
# 1 168.0521 69.3723 39.7717 0.0000 -48.8491 0.0000
# 2 69.3723 162.2447 47.8925 0.0000 -36.5028 0.0000
# 3 39.7717 47.8925 79.5814 0.0000 -32.6700 0.0000
# 4 0.0000 0.0000 0.0000 10.0442 0.0000 -6.9022
# 5 -48.8491 -36.5028 -32.6700 0.0000 49.7518 0.0000
# 6 0.0000 0.0000 0.0000 -6.9022 0.0000 32.6671
#
#
#
# Elastic Compliance Matrix: (Units=1/GPa)
#
#
# Indices 1 2 3 4 5 6 
#
# 1 0.008950 -0.002163 -0.000294 0.000000 0.007007 0.000000
# 2 -0.002163 0.008484 -0.003205 0.000000 0.001996 0.000000
# 3 -0.000294 -0.003205 0.018561 0.000000 0.009548 0.000000
# 4 0.000000 0.000000 0.000000 0.116471 0.000000 0.024609
# 5 0.007007 0.001996 0.009548 0.000000 0.034714 0.000000
# 6 0.000000 0.000000 0.000000 0.024609 0.000000 0.035811
#
#
# Mechanical properties :
#
#
# Convention : Reuss Voigt Hill
#
# Bulk Modulus (GPa) = 40.53626 80.43902 60.48764
# Shear Modulus (GPa) = 20.61520 35.34875 27.98197
#
# Velocity S-wave (km/s) = 3.03546 3.97482 3.53647
# Velocity P-wave (km/s) = 5.51390 7.55102 6.61139
#
# Compressibility (1/GPa) = 0.02466927
#
# Stress axis : x y z
#
# Youngs Moduli (GPa) = 111.73070 117.87381 53.87555
#
# Poissons Ratio (x) = 0.25502 0.01586
# Poissons Ratio (y) = 0.24173 0.17267
# Poissons Ratio (z) = 0.03289 0.37779
#
# Static dielectric constant tensor:
#      x y z
#    x 1.927370 0.000000 0.146500 
#    y 0.000000 1.769100 0.000000 
#    z 0.146500 0.000000 2.100260 
# 
# From -- ./inp_files/19584.got.cif
#   From: 2010.05.17/outbox.cif.g08.bks.cpg/sg5_10_cif.got.tgz:19584.got - 2010.06.03 18:56:24.
