data_PCOD9119588
_publ_section_title
;
Structure prediction by ZEFSAII (Michael W. Deem and Ramdas Pophale) SiO2 
 PCOD9119588
Probable space group: P 21
;
_chemical_formula_sum "Si O2"
_cell_formula_units_Z 14
_cell_length_a 16.137065
_cell_length_b 5.026605
_cell_length_c 9.912293
_cell_angle_alpha 90.000000
_cell_angle_beta 37.967520
_cell_angle_gamma 90.000000
_cell_volume 494.652398
_symmetry_space_group_name_H-M "P 21"
_symmetry_group_IT_number 4
_symmetry_cell_setting 'monoclinic'
loop_
_space_group_symop_operation_xyz
x,y,z
-x,1/2+y,-z
loop_
_atom_site_type_symbol
_atom_site_label
_atom_site_fract_x
_atom_site_fract_y
_atom_site_fract_z
Si Si1 0.415143 0.336190 0.144689
Si Si2 0.632465 0.500382 0.206022
Si Si3 0.878475 0.375846 0.338481
Si Si4 0.073814 0.956906 0.422682
Si Si5 0.271853 0.524753 0.070713
Si Si6 0.664505 0.033625 0.474426
Si Si7 0.140581 0.153040 0.904362
O O1 0.364722 0.329551 0.362761
O O2 0.535819 0.554060 0.976621
O O3 0.307913 0.463757 0.179479
O O4 0.702190 0.745482 0.036720
O O5 0.476250 0.587120 0.420012
O O6 0.738628 0.470343 0.192472
O O7 0.623314 0.223892 0.137864
O O8 0.913776 0.578578 0.173900
O O9 0.866769 0.478484 0.504192
O O10 0.739135 0.255994 0.466249
O O11 0.008179 0.178325 0.166132
O O12 0.055806 0.258431 0.396225
O O13 0.152812 0.748245 0.226342
O O14 0.774914 0.919760 0.230587
#
# Coordination Sequence:
#
# PCOD9119588 Si02
#       7
#     2   2   2   2   2   2   2
#     4  12  24  46  75 112 152 192 253 320 396 465
#     4  12  30  49  82 115 161 207 263 334 391 471
#     4  12  28  51  78 110 160 214 265 326 389 476
#     4  12  28  48  81 117 155 206 267 330 404 470
#     4  12  24  49  74 115 157 200 257 329 400 461
#     4  12  28  48  79 112 156 211 261 325 395 475
#     4  12  30  51  77 113 161 214 272 318 391 472
#
# _framework density 28.302706000000001
#
# number of rings (size 3 to 8) (size 9 to 14) (size 15 to 20)
#    0.000    0.000    5.714    2.571   10.000    2.286 
#    0.000    0.000    0.000    0.000    0.000    0.000 
#    0.000    0.000    0.000    0.000    0.000    0.000 
#
# Total GULP energy -78345.467127 kJ/mol
# GULP energy per Si atom -5596.104795 kJ/mol
# Density = 2.823829 g / cm^3
# Si number density = 28.302706 Si / 1000 Ang^3
#
#
#
# Elastic Constant Matrix: (Units=GPa)
#
#
# Indices 1 2 3 4 5 6 
#
# 1 149.5703 14.8108 7.7427 0.0000 5.1622 0.0000
# 2 14.8108 129.7672 -13.4115 0.0000 16.1997 0.0000
# 3 7.7427 -13.4115 52.7958 0.0000 -9.8744 0.0000
# 4 0.0000 0.0000 0.0000 35.1469 0.0000 -0.0194
# 5 5.1622 16.1997 -9.8744 0.0000 49.9182 0.0000
# 6 0.0000 0.0000 0.0000 -0.0194 0.0000 47.4372
#
#
#
# Elastic Compliance Matrix: (Units=1/GPa)
#
#
# Indices 1 2 3 4 5 6 
#
# 1 0.006863 -0.000835 -0.001351 0.000000 -0.000706 0.000000
# 2 -0.000835 0.008267 0.001804 0.000000 -0.002240 0.000000
# 3 -0.001351 0.001804 0.020263 0.000000 0.003563 0.000000
# 4 0.000000 0.000000 0.000000 0.028452 0.000000 0.000012
# 5 -0.000706 -0.002240 0.003563 0.000000 0.021537 0.000000
# 6 0.000000 0.000000 0.000000 0.000012 0.000000 0.021081
#
#
# Mechanical properties :
#
#
# Convention : Reuss Voigt Hill
#
# Bulk Modulus (GPa) = 28.87637 38.93525 33.90581
# Shear Modulus (GPa) = 42.09807 48.03320 45.06564
#
# Velocity S-wave (km/s) = 3.86090 4.12409 3.99466
# Velocity P-wave (km/s) = 5.48636 6.03855 5.76907
#
# Compressibility (1/GPa) = 0.03463039
#
# Stress axis : x y z
#
# Youngs Moduli (GPa) = 145.71410 120.95703 49.34988
#
# Poissons Ratio (x) = 0.10097 0.06665
# Poissons Ratio (y) = 0.12163 -0.08901
# Poissons Ratio (z) = 0.19679 -0.21816
#
# Static dielectric constant tensor:
#      x y z
#    x 2.325760 0.000000 -0.147780 
#    y 0.000000 2.192880 0.000000 
#    z -0.147780 0.000000 2.505930 
# 
# From -- ./inp_files/8897.got.cif
#   From: 2010.05.17/outbox.cif.g08.bks.cpg/sg4_5_cif.got.tgz:8897.got - 2010.06.03 18:43:04.
