data_PCOD9119324
_publ_section_title
;
Structure prediction by ZEFSAII (Michael W. Deem and Ramdas Pophale) SiO2 
 PCOD9119324
Probable space group: P 21
;
_chemical_formula_sum "Si O2"
_cell_formula_units_Z 16
_cell_length_a 11.198010
_cell_length_b 8.118903
_cell_length_c 8.575255
_cell_angle_alpha 90.000000
_cell_angle_beta 56.054118
_cell_angle_gamma 90.000000
_cell_volume 646.749151
_symmetry_space_group_name_H-M "P 21"
_symmetry_group_IT_number 4
_symmetry_cell_setting 'monoclinic'
loop_
_space_group_symop_operation_xyz
x,y,z
-x,1/2+y,-z
loop_
_atom_site_type_symbol
_atom_site_label
_atom_site_fract_x
_atom_site_fract_y
_atom_site_fract_z
Si Si1 0.671313 0.881610 0.889471
Si Si2 0.786194 0.405289 0.962818
Si Si3 0.201839 0.869231 0.562753
Si Si4 0.335351 0.354175 0.459311
Si Si5 0.934735 0.041205 0.861894
Si Si6 0.936085 0.042586 0.225048
Si Si7 0.611172 0.253364 0.843571
Si Si8 0.601761 0.546182 0.371654
O O1 0.670835 0.798735 0.717457
O O2 0.822513 0.914462 0.863908
O O3 0.620998 0.067368 0.890770
O O4 0.551864 0.795339 0.084796
O O5 0.645659 0.369745 0.965165
O O6 0.910524 0.521032 0.804521
O O7 0.864733 0.225194 0.916182
O O8 0.725563 0.499070 0.157850
O O9 0.126542 0.723840 0.712745
O O10 0.251356 0.793673 0.363798
O O11 0.354163 0.920084 0.523626
O O12 0.086333 0.017722 0.660349
O O13 0.179497 0.421524 0.616078
O O14 0.448952 0.503109 0.406874
O O15 0.383564 0.217125 0.548445
O O16 0.954519 0.999449 0.029652
#
# Coordination Sequence:
#
# PCOD9119324 Si02
#       8
#     2   2   2   2   2   2   2   2
#     4  11  27  49  71 109 154 192 244 311 378 441
#     4  11  25  47  72 102 148 195 243 303 369 440
#     4  12  26  45  73 110 146 198 252 303 370 449
#     4  12  28  46  74 109 147 193 252 310 373 445
#     4  11  25  46  72 106 149 192 245 307 372 439
#     4  12  24  46  71 108 146 193 252 308 364 443
#     4  11  27  47  71 105 153 195 245 304 373 450
#     4  12  26  46  74 105 143 198 251 304 367 443
#
# _framework density 24.739111999999999
#
# number of rings (size 3 to 8) (size 9 to 14) (size 15 to 20)
#    0.000    0.500    5.000    1.500    7.000    1.000 
#    0.000    0.000    0.000    0.000    0.000    0.000 
#    0.000    0.000    0.000    0.000    0.000    0.000 
#
# Total GULP energy -89478.211214 kJ/mol
# GULP energy per Si atom -5592.388201 kJ/mol
# Density = 2.468280 g / cm^3
# Si number density = 24.739112 Si / 1000 Ang^3
#
#
#
# Elastic Constant Matrix: (Units=GPa)
#
#
# Indices 1 2 3 4 5 6 
#
# 1 68.9247 12.2129 1.1934 0.0000 -7.0465 0.0000
# 2 12.2129 88.9546 36.5850 0.0000 -3.3482 0.0000
# 3 1.1934 36.5850 101.9400 0.0000 -10.3044 0.0000
# 4 0.0000 0.0000 0.0000 35.7056 0.0000 -4.7289
# 5 -7.0465 -3.3482 -10.3044 0.0000 27.4749 0.0000
# 6 0.0000 0.0000 0.0000 -4.7289 0.0000 40.5340
#
#
#
# Elastic Compliance Matrix: (Units=1/GPa)
#
#
# Indices 1 2 3 4 5 6 
#
# 1 0.015329 -0.002401 0.001091 0.000000 0.004048 0.000000
# 2 -0.002401 0.013565 -0.004922 0.000000 -0.000809 0.000000
# 3 0.001091 -0.004922 0.011985 0.000000 0.004175 0.000000
# 4 0.000000 0.000000 0.000000 0.028446 0.000000 0.003319
# 5 0.004048 -0.000809 0.004175 0.000000 0.038902 0.000000
# 6 0.000000 0.000000 0.000000 0.003319 0.000000 0.025058
#
#
# Mechanical properties :
#
#
# Convention : Reuss Voigt Hill
#
# Bulk Modulus (GPa) = 35.19101 39.97799 37.58450
# Shear Modulus (GPa) = 32.21200 34.73144 33.47172
#
# Velocity S-wave (km/s) = 3.61233 3.75094 3.68229
# Velocity P-wave (km/s) = 5.62622 5.91222 5.77099
#
# Compressibility (1/GPa) = 0.02841635
#
# Stress axis : x y z
#
# Youngs Moduli (GPa) = 65.23579 73.71796 83.43476
#
# Poissons Ratio (x) = 0.17700 -0.09107
# Poissons Ratio (y) = 0.15664 0.41067
# Poissons Ratio (z) = -0.07120 0.36284
#
# Static dielectric constant tensor:
#      x y z
#    x 1.956170 0.000000 0.069250 
#    y 0.000000 1.976530 0.000000 
#    z 0.069250 0.000000 1.954720 
# 
# From -- ./inp_files/7993.got.cif
#   From: 2010.05.17/outbox.cif.g08.bks.cpg/sg4_4_cif.got.tgz:7993.got - 2010.06.03 18:43:04.
