data_PCOD9119084
_publ_section_title
;
Structure prediction by ZEFSAII (Michael W. Deem and Ramdas Pophale) SiO2 
 PCOD9119084
Probable space group: P 21
;
_chemical_formula_sum "Si O2"
_cell_formula_units_Z 12
_cell_length_a 11.884529
_cell_length_b 7.566570
_cell_length_c 5.308465
_cell_angle_alpha 90.000000
_cell_angle_beta 72.119755
_cell_angle_gamma 90.000000
_cell_volume 454.307810
_symmetry_space_group_name_H-M "P 21"
_symmetry_group_IT_number 4
_symmetry_cell_setting 'monoclinic'
loop_
_space_group_symop_operation_xyz
x,y,z
-x,1/2+y,-z
loop_
_atom_site_type_symbol
_atom_site_label
_atom_site_fract_x
_atom_site_fract_y
_atom_site_fract_z
Si Si1 0.872390 0.507580 0.117720
Si Si2 0.714911 0.803724 0.061262
Si Si3 0.580914 0.686954 0.658803
Si Si4 0.648945 0.302840 0.452591
Si Si5 0.196065 0.592839 0.299813
Si Si6 0.974164 0.805467 0.344133
O O1 0.765946 0.374906 0.236105
O O2 0.897688 0.253637 0.632946
O O3 0.984758 0.405760 0.936601
O O4 0.820783 0.660014 0.971256
O O5 0.657226 0.766300 0.372134
O O6 0.691162 0.155124 0.619581
O O7 0.625695 0.759169 0.894659
O O8 0.760598 0.002628 0.989136
O O9 0.598309 0.475754 0.631741
O O10 0.448408 0.738883 0.677253
O O11 0.120277 0.432869 0.467969
O O12 0.912667 0.619312 0.330271
#
# Coordination Sequence:
#
# PCOD9119084 Si02
#       6
#     2   2   2   2   2   2
#     4  11  24  44  70 105 145 191 239 295 356 428
#     4  11  25  47  73 106 146 187 238 296 360 429
#     4  11  26  47  73 108 144 188 240 298 362 429
#     4  11  25  45  72 106 144 188 240 299 361 426
#     4  12  24  43  70 105 145 191 238 297 357 427
#     4  12  24  42  68 104 144 189 239 291 354 425
#
# _framework density 26.413809000000001
#
# number of rings (size 3 to 8) (size 9 to 14) (size 15 to 20)
#    0.000    0.667    0.000    8.000    0.000    8.000 
#    0.000    0.000    0.000    0.000    0.000    0.000 
#    0.000    0.000    0.000    0.000    0.000    0.000 
#
# Total GULP energy -67333.603470 kJ/mol
# GULP energy per Si atom -5611.133623 kJ/mol
# Density = 2.635369 g / cm^3
# Si number density = 26.413809 Si / 1000 Ang^3
#
#
#
# Elastic Constant Matrix: (Units=GPa)
#
#
# Indices 1 2 3 4 5 6 
#
# 1 151.9114 37.8297 31.3395 0.0000 30.6875 0.0000
# 2 37.8297 145.5994 32.1360 0.0000 0.9690 0.0000
# 3 31.3395 32.1360 75.9217 0.0000 0.3373 0.0000
# 4 0.0000 0.0000 0.0000 53.4730 0.0000 0.8661
# 5 30.6875 0.9690 0.3373 0.0000 48.3868 0.0000
# 6 0.0000 0.0000 0.0000 0.8661 0.0000 68.2662
#
#
#
# Elastic Compliance Matrix: (Units=1/GPa)
#
#
# Indices 1 2 3 4 5 6 
#
# 1 0.008672 -0.001580 -0.002887 0.000000 -0.005448 0.000000
# 2 -0.001580 0.007865 -0.002681 0.000000 0.000863 0.000000
# 3 -0.002887 -0.002681 0.015490 0.000000 0.001777 0.000000
# 4 0.000000 0.000000 0.000000 0.018705 0.000000 -0.000237
# 5 -0.005448 0.000863 0.001777 0.000000 0.024093 0.000000
# 6 0.000000 0.000000 0.000000 -0.000237 0.000000 0.014652
#
#
# Mechanical properties :
#
#
# Convention : Reuss Voigt Hill
#
# Bulk Modulus (GPa) = 56.39481 64.00476 60.19979
# Shear Modulus (GPa) = 45.58664 52.16701 48.87682
#
# Velocity S-wave (km/s) = 4.15886 4.44891 4.30633
# Velocity P-wave (km/s) = 6.66771 7.11860 6.89684
#
# Compressibility (1/GPa) = 0.01773213
#
# Stress axis : x y z
#
# Youngs Moduli (GPa) = 115.30829 127.15324 64.55815
#
# Poissons Ratio (x) = 0.20088 0.18638
# Poissons Ratio (y) = 0.18217 0.17305
# Poissons Ratio (z) = 0.33289 0.34085
#
# Static dielectric constant tensor:
#      x y z
#    x 2.051450 0.000000 0.016770 
#    y 0.000000 2.039490 0.000000 
#    z 0.016770 0.000000 2.082870 
# 
# From -- ./inp_files/2602.got.cif
#   From: 2010.05.17/outbox.cif.g08.bks.cpg/sg4_2_cif.got.tgz:2602.got - 2010.06.03 18:43:04.
