data_PCOD9119615
_publ_section_title
;
Structure prediction by ZEFSAII (Michael W. Deem and Ramdas Pophale) SiO2 
 PCOD9119615
Probable space group: P 21
;
_chemical_formula_sum "Si O2"
_cell_formula_units_Z 12
_cell_length_a 9.661833
_cell_length_b 5.329700
_cell_length_c 10.574632
_cell_angle_alpha 90.000000
_cell_angle_beta 117.082111
_cell_angle_gamma 90.000000
_cell_volume 484.831414
_symmetry_space_group_name_H-M "P 21"
_symmetry_group_IT_number 4
_symmetry_cell_setting 'monoclinic'
loop_
_space_group_symop_operation_xyz
x,y,z
-x,1/2+y,-z
loop_
_atom_site_type_symbol
_atom_site_label
_atom_site_fract_x
_atom_site_fract_y
_atom_site_fract_z
Si Si1 0.233486 0.043350 0.605611
Si Si2 0.832387 0.196585 0.827843
Si Si3 0.142128 0.442592 0.923672
Si Si4 0.028093 0.326470 0.324490
Si Si5 0.402332 0.801264 0.468167
Si Si6 0.588310 0.659703 0.079451
O O1 0.166072 0.218481 0.467725
O O2 0.365263 0.149069 0.753577
O O3 0.304783 0.809952 0.557749
O O4 0.085809 0.977738 0.630524
O O5 0.710232 0.353313 0.697021
O O6 0.983584 0.356902 0.923811
O O7 0.895721 0.988952 0.755278
O O8 0.765653 0.089223 0.929452
O O9 0.247691 0.215868 0.921727
O O10 0.081641 0.611347 0.782689
O O11 0.479304 0.532796 0.477114
O O12 0.516243 0.398558 0.002423
#
# Coordination Sequence:
#
# PCOD9119615 Si02
#       6
#     2   2   2   2   2   2
#     4  12  26  52  84 112 158 202 270 328 394 474
#     4  12  26  51  82 113 157 208 264 328 389 471
#     4  12  26  51  82 113 157 208 264 328 389 471
#     4  12  24  50  84 116 148 200 270 336 390 454
#     4  12  30  54  79 120 161 211 260 324 404 469
#     4  12  30  54  79 120 161 211 260 324 404 469
#
# _framework density 24.750874
#
# number of rings (size 3 to 8) (size 9 to 14) (size 15 to 20)
#    0.000    0.000    5.000    4.000    2.333    4.000 
#    6.000    0.000    0.000    0.000    0.000    0.000 
#    0.000    0.000    0.000    0.000    0.000    0.000 
#
# Total GULP energy -67285.446856 kJ/mol
# GULP energy per Si atom -5607.120571 kJ/mol
# Density = 2.469454 g / cm^3
# Si number density = 24.750874 Si / 1000 Ang^3
#
#
#
# Elastic Constant Matrix: (Units=GPa)
#
#
# Indices 1 2 3 4 5 6 
#
# 1 58.1980 13.6172 27.1406 0.0000 11.2038 0.0000
# 2 13.6172 87.0245 42.2829 0.0000 6.0034 0.0000
# 3 27.1406 42.2829 183.2458 0.0000 5.5624 0.0000
# 4 0.0000 0.0000 0.0000 53.1083 0.0000 0.8377
# 5 11.2038 6.0034 5.5624 0.0000 31.8216 0.0000
# 6 0.0000 0.0000 0.0000 0.8377 0.0000 50.6225
#
#
#
# Elastic Compliance Matrix: (Units=1/GPa)
#
#
# Indices 1 2 3 4 5 6 
#
# 1 0.019867 -0.001507 -0.002404 0.000000 -0.006290 0.000000
# 2 -0.001507 0.013175 -0.002772 0.000000 -0.001470 0.000000
# 3 -0.002404 -0.002772 0.006446 0.000000 0.000243 0.000000
# 4 0.000000 0.000000 0.000000 0.018834 0.000000 -0.000312
# 5 -0.006290 -0.001470 0.000243 0.000000 0.033875 0.000000
# 6 0.000000 0.000000 0.000000 -0.000312 0.000000 0.019759
#
#
# Mechanical properties :
#
#
# Convention : Reuss Voigt Hill
#
# Bulk Modulus (GPa) = 38.28183 54.94995 46.61589
# Shear Modulus (GPa) = 37.30506 43.47231 40.38869
#
# Velocity S-wave (km/s) = 3.88651 4.19548 4.04395
# Velocity P-wave (km/s) = 5.96995 6.76157 6.37806
#
# Compressibility (1/GPa) = 0.02612205
#
# Stress axis : x y z
#
# Youngs Moduli (GPa) = 50.33383 75.90009 155.14645
#
# Poissons Ratio (x) = 0.11437 0.37296
# Poissons Ratio (y) = 0.07584 0.43011
# Poissons Ratio (z) = 0.12100 0.21042
#
# Static dielectric constant tensor:
#      x y z
#    x 1.956730 0.000000 0.016740 
#    y 0.000000 1.975140 0.000000 
#    z 0.016740 0.000000 1.927290 
# 
# From -- ./inp_files/5154.got.cif
#   From: 2010.05.17/outbox.cif.g08.bks.cpg/sg4_3_cif.got.tgz:5154.got - 2010.06.03 18:43:04.
