data_PCOD9119886
_publ_section_title
;
Structure prediction by ZEFSAII (Michael W. Deem and Ramdas Pophale) SiO2 
 PCOD9119886
Probable space group: P 21
;
_chemical_formula_sum "Si O2"
_cell_formula_units_Z 16
_cell_length_a 12.000000
_cell_length_b 9.000000
_cell_length_c 18.000000
_cell_angle_alpha 90.000000
_cell_angle_beta 160.000000
_cell_angle_gamma 90.000000
_cell_volume 664.887159
_symmetry_space_group_name_H-M "P 21"
_symmetry_group_IT_number 4
_symmetry_cell_setting 'monoclinic'
loop_
_space_group_symop_operation_xyz
x,y,z
-x,1/2+y,-z
loop_
_atom_site_type_symbol
_atom_site_label
_atom_site_fract_x
_atom_site_fract_y
_atom_site_fract_z
Si Si1 0.936789 0.040610 0.314826
Si Si2 0.191380 0.370029 0.258446
Si Si3 0.185471 0.712104 0.496718
Si Si4 0.851355 0.336673 0.758414
Si Si5 0.768205 0.740185 0.375415
Si Si6 0.156167 0.614269 0.911119
Si Si7 0.166539 0.069279 0.862305
Si Si8 0.683358 0.458906 0.817088
O O1 0.925666 0.112365 0.226570
O O2 0.152491 0.130571 0.507924
O O3 0.557959 0.051509 0.104776
O O4 0.098057 0.876900 0.410853
O O5 0.557212 0.388423 0.518410
O O6 0.121750 0.194324 0.214109
O O7 0.972341 0.417306 0.192129
O O8 0.018608 0.441539 0.076832
O O9 0.536152 0.626694 0.715046
O O10 0.080032 0.738635 0.516489
O O11 0.967148 0.610135 0.303509
O O12 0.733397 0.367604 0.770179
O O13 0.154577 0.445129 0.936334
O O14 0.991770 0.182621 0.812323
O O15 0.603424 0.882631 0.312019
O O16 0.494135 0.683223 0.147166
#
# Coordination Sequence:
#
# PCOD9119886 Si02
#       8
#     2   2   2   2   2   2   2   2
#     4  12  26  46  74 112 151 201 256 326 392 463
#     4  11  25  47  72 106 151 204 256 321 387 463
#     4  12  24  49  76 110 152 202 260 321 393 462
#     4  12  26  48  73 112 153 206 259 321 396 466
#     4  11  25  48  73 110 150 197 258 323 388 469
#     4  11  25  45  72 106 151 197 266 315 388 469
#     4  12  26  46  78 110 155 204 256 324 392 469
#     4  11  27  49  76 110 153 201 261 323 390 475
#
# _framework density 24.064233999999999
#
# number of rings (size 3 to 8) (size 9 to 14) (size 15 to 20)
#    0.000    0.500    3.750    4.500    0.000    6.000 
#    2.250    0.000    0.000    0.000    0.000    0.000 
#    0.000    0.000    0.000    0.000    0.000    0.000 
#
# Total GULP energy -89356.486233 kJ/mol
# GULP energy per Si atom -5584.780390 kJ/mol
# Density = 2.400946 g / cm^3
# Si number density = 24.064234 Si / 1000 Ang^3
#
#
#
# Elastic Constant Matrix: (Units=GPa)
#
#
# Indices 1 2 3 4 5 6 
#
# 1 177.1147 39.2225 38.0304 0.0000 -12.2534 0.0000
# 2 39.2225 86.2837 56.8849 0.0000 -4.9139 0.0000
# 3 38.0304 56.8849 82.3281 0.0000 -25.4928 0.0000
# 4 0.0000 0.0000 0.0000 37.7350 0.0000 -2.3322
# 5 -12.2534 -4.9139 -25.4928 0.0000 44.4667 0.0000
# 6 0.0000 0.0000 0.0000 -2.3322 0.0000 35.0251
#
#
#
# Elastic Compliance Matrix: (Units=1/GPa)
#
#
# Indices 1 2 3 4 5 6 
#
# 1 0.006431 -0.001981 -0.001363 0.000000 0.000772 0.000000
# 2 -0.001981 0.024102 -0.018338 0.000000 -0.008395 0.000000
# 3 -0.001363 -0.018338 0.030035 0.000000 0.014817 0.000000
# 4 0.000000 0.000000 0.000000 0.026610 0.000000 0.001772
# 5 0.000772 -0.008395 0.014817 0.000000 0.030268 0.000000
# 6 0.000000 0.000000 0.000000 0.001772 0.000000 0.028669
#
#
# Mechanical properties :
#
#
# Convention : Reuss Voigt Hill
#
# Bulk Modulus (GPa) = 58.12584 68.22245 63.17415
# Shear Modulus (GPa) = 25.61316 37.55128 31.58222
#
# Velocity S-wave (km/s) = 3.26600 3.95455 3.62665
# Velocity P-wave (km/s) = 6.19913 7.01876 6.62164
#
# Compressibility (1/GPa) = 0.01720405
#
# Stress axis : x y z
#
# Youngs Moduli (GPa) = 155.50271 41.49100 33.29474
#
# Poissons Ratio (x) = 0.08218 0.04538
# Poissons Ratio (y) = 0.30800 0.61055
# Poissons Ratio (z) = 0.21196 0.76085
#
# Static dielectric constant tensor:
#      x y z
#    x 1.944990 0.000000 0.056280 
#    y 0.000000 2.002410 0.000000 
#    z 0.056280 0.000000 1.917670 
# 
# From -- ./inp_files/15180.got.cif
#   From: 2010.05.17/outbox.ucp.g08.bks.cvg/sg4_8_cif.got.tgz:15180.got - 2010.06.11 12:51:24.
