data_PCOD9119399
_publ_section_title
;
Structure prediction by ZEFSAII (Michael W. Deem and Ramdas Pophale) SiO2 
 PCOD9119399
Probable space group: P 21
;
_chemical_formula_sum "Si O2"
_cell_formula_units_Z 14
_cell_length_a 12.398377
_cell_length_b 10.859763
_cell_length_c 5.262417
_cell_angle_alpha 90.000000
_cell_angle_beta 135.457012
_cell_angle_gamma 90.000000
_cell_volume 497.008226
_symmetry_space_group_name_H-M "P 21"
_symmetry_group_IT_number 4
_symmetry_cell_setting 'monoclinic'
loop_
_space_group_symop_operation_xyz
x,y,z
-x,1/2+y,-z
loop_
_atom_site_type_symbol
_atom_site_label
_atom_site_fract_x
_atom_site_fract_y
_atom_site_fract_z
Si Si1 0.577720 0.353370 0.749923
Si Si2 0.935021 0.343396 0.729763
Si Si3 0.625694 0.078692 0.596395
Si Si4 0.860247 0.089697 0.607738
Si Si5 0.790368 0.531601 0.815793
Si Si6 0.585391 0.698147 0.154173
Si Si7 0.145168 0.341912 0.593433
O O1 0.606212 0.214425 0.688922
O O2 0.445436 0.449559 0.426319
O O3 0.725029 0.434572 0.909795
O O4 0.507547 0.317020 0.906138
O O5 0.046342 0.345726 0.679312
O O6 0.822165 0.229464 0.493192
O O7 0.830368 0.458638 0.623249
O O8 0.035303 0.322818 0.158413
O O9 0.802269 0.066339 0.797271
O O10 0.524033 0.103051 0.169839
O O11 0.788779 0.979030 0.333923
O O12 0.040831 0.083059 0.841496
O O13 0.670059 0.635436 0.536629
O O14 0.722766 0.741208 0.200531
#
# Coordination Sequence:
#
# PCOD9119399 Si02
#       7
#     2   2   2   2   2   2   2
#     4  12  27  52  78 118 162 211 268 340 415 500
#     4  11  26  48  77 117 157 210 272 335 404 481
#     4  12  29  49  81 115 164 212 279 339 421 494
#     4  11  25  50  74 117 155 213 271 336 407 488
#     4  11  26  49  80 114 160 208 269 342 411 487
#     4  12  28  48  79 118 161 215 273 339 416 496
#     4  11  27  46  77 113 161 209 266 335 408 484
#
# _framework density 28.16855
#
# number of rings (size 3 to 8) (size 9 to 14) (size 15 to 20)
#    0.000    0.571    5.714    0.000    8.000    3.429 
#    5.143    0.000    0.000    0.000    0.000    0.000 
#    0.000    0.000    0.000    0.000    0.000    0.000 
#
# Total GULP energy -78365.766629 kJ/mol
# GULP energy per Si atom -5597.554759 kJ/mol
# Density = 2.810444 g / cm^3
# Si number density = 28.168550 Si / 1000 Ang^3
#
#
#
# Elastic Constant Matrix: (Units=GPa)
#
#
# Indices 1 2 3 4 5 6 
#
# 1 203.2517 40.3028 39.7832 0.0000 9.9929 0.0000
# 2 40.3028 130.0588 14.7274 0.0000 -3.8966 0.0000
# 3 39.7832 14.7274 126.3195 0.0000 2.7975 0.0000
# 4 0.0000 0.0000 0.0000 17.9346 0.0000 5.4874
# 5 9.9929 -3.8966 2.7975 0.0000 43.7234 0.0000
# 6 0.0000 0.0000 0.0000 5.4874 0.0000 74.6687
#
#
#
# Elastic Compliance Matrix: (Units=1/GPa)
#
#
# Indices 1 2 3 4 5 6 
#
# 1 0.005606 -0.001601 -0.001550 0.000000 -0.001325 0.000000
# 2 -0.001601 0.008274 -0.000485 0.000000 0.001134 0.000000
# 3 -0.001550 -0.000485 0.008466 0.000000 -0.000231 0.000000
# 4 0.000000 0.000000 0.000000 0.057041 0.000000 -0.004192
# 5 -0.001325 0.001134 -0.000231 0.000000 0.023290 0.000000
# 6 0.000000 0.000000 0.000000 -0.004192 0.000000 0.013701
#
#
# Mechanical properties :
#
#
# Convention : Reuss Voigt Hill
#
# Bulk Modulus (GPa) = 66.34181 72.13965 69.24073
# Shear Modulus (GPa) = 38.85776 51.58644 45.22210
#
# Velocity S-wave (km/s) = 3.71816 4.28407 4.01110
# Velocity P-wave (km/s) = 6.48350 7.08072 6.78868
#
# Compressibility (1/GPa) = 0.01507345
#
# Stress axis : x y z
#
# Youngs Moduli (GPa) = 178.38103 120.85995 118.11749
#
# Poissons Ratio (x) = 0.19355 0.18302
# Poissons Ratio (y) = 0.28566 0.05734
# Poissons Ratio (z) = 0.27640 0.05867
#
# Static dielectric constant tensor:
#      x y z
#    x 2.158640 0.000000 -0.055860 
#    y 0.000000 2.175850 0.000000 
#    z -0.055860 0.000000 2.344000 
# 
# From -- ./inp_files/2912.got.cif
#   From: 2010.05.17/outbox.cif.g08.bks.cpg/sg4_2_cif.got.tgz:2912.got - 2010.06.03 18:43:04.
