data_PCOD9119299
_publ_section_title
;
Structure prediction by ZEFSAII (Michael W. Deem and Ramdas Pophale) SiO2 
 PCOD9119299
Probable space group: P 21
;
_chemical_formula_sum "Si O2"
_cell_formula_units_Z 16
_cell_length_a 9.315792
_cell_length_b 8.792197
_cell_length_c 11.541215
_cell_angle_alpha 90.000000
_cell_angle_beta 132.009761
_cell_angle_gamma 90.000000
_cell_volume 702.385526
_symmetry_space_group_name_H-M "P 21"
_symmetry_group_IT_number 4
_symmetry_cell_setting 'monoclinic'
loop_
_space_group_symop_operation_xyz
x,y,z
-x,1/2+y,-z
loop_
_atom_site_type_symbol
_atom_site_label
_atom_site_fract_x
_atom_site_fract_y
_atom_site_fract_z
Si Si1 0.223096 0.461760 0.366065
Si Si2 0.858320 0.215269 0.850143
Si Si3 0.036052 0.174103 0.181169
Si Si4 0.137340 0.996161 0.654244
Si Si5 0.120652 0.547787 0.688138
Si Si6 0.784022 0.750952 0.128457
Si Si7 0.379417 0.002144 0.305673
Si Si8 0.556106 0.231925 0.224777
O O1 0.251093 0.612562 0.303539
O O2 0.130601 0.339276 0.229667
O O3 0.431150 0.433191 0.533416
O O4 0.063803 0.464984 0.383325
O O5 0.733542 0.363472 0.817901
O O6 0.056684 0.240881 0.886858
O O7 0.924610 0.135087 0.003993
O O8 0.893897 0.160098 0.211313
O O9 0.211301 0.058635 0.301252
O O10 0.278020 0.862670 0.682286
O O11 0.242424 0.102748 0.805151
O O12 0.053586 0.076380 0.494162
O O13 0.131149 0.378306 0.741139
O O14 0.323984 0.581687 0.741154
O O15 0.588172 0.782894 0.954190
O O16 0.435910 0.157777 0.266888
#
# Coordination Sequence:
#
# PCOD9119299 Si02
#       8
#     2   2   2   2   2   2   2   2
#     4  11  25  45  73 102 147 191 241 299 359 436
#     4  11  25  46  72 105 145 192 239 301 364 426
#     4  12  25  45  73 105 145 190 243 299 366 430
#     4  11  25  46  72 105 145 192 239 301 364 426
#     4  12  25  45  73 105 145 190 243 299 366 430
#     4  11  25  45  73 102 147 191 241 299 359 436
#     4  12  25  46  74 107 144 190 246 300 361 439
#     4  12  25  46  74 107 144 190 246 300 361 439
#
# _framework density 22.779515
#
# number of rings (size 3 to 8) (size 9 to 14) (size 15 to 20)
#    0.000    0.500    5.000    3.000    3.500    2.000 
#    0.000    3.750    0.000    0.000    0.000    0.000 
#    0.000    0.000    0.000    0.000    0.000    0.000 
#
# Total GULP energy -89220.960245 kJ/mol
# GULP energy per Si atom -5576.310015 kJ/mol
# Density = 2.272767 g / cm^3
# Si number density = 22.779515 Si / 1000 Ang^3
#
#
#
# Elastic Constant Matrix: (Units=GPa)
#
#
# Indices 1 2 3 4 5 6 
#
# 1 60.8649 13.2718 26.1495 0.0000 -11.1009 0.0000
# 2 13.2718 39.7589 10.2408 0.0000 -5.7834 0.0000
# 3 26.1495 10.2408 107.6760 0.0000 6.3659 0.0000
# 4 0.0000 0.0000 0.0000 30.3319 0.0000 3.0071
# 5 -11.1009 -5.7834 6.3659 0.0000 26.5967 0.0000
# 6 0.0000 0.0000 0.0000 3.0071 0.0000 42.5478
#
#
#
# Elastic Compliance Matrix: (Units=1/GPa)
#
#
# Indices 1 2 3 4 5 6 
#
# 1 0.021358 -0.004419 -0.005312 0.000000 0.009225 0.000000
# 2 -0.004419 0.027776 -0.001843 0.000000 0.004636 0.000000
# 3 -0.005312 -0.001843 0.011064 0.000000 -0.005266 0.000000
# 4 0.000000 0.000000 0.000000 0.033201 0.000000 -0.002347
# 5 0.009225 0.004636 -0.005266 0.000000 0.043718 0.000000
# 6 0.000000 0.000000 0.000000 -0.002347 0.000000 0.023669
#
#
# Mechanical properties :
#
#
# Convention : Reuss Voigt Hill
#
# Bulk Modulus (GPa) = 26.99065 34.18045 30.58555
# Shear Modulus (GPa) = 25.47342 30.47113 27.97227
#
# Velocity S-wave (km/s) = 3.34767 3.66136 3.50802
# Velocity P-wave (km/s) = 5.17850 5.73686 5.46482
#
# Compressibility (1/GPa) = 0.03704987
#
# Stress axis : x y z
#
# Youngs Moduli (GPa) = 46.82047 36.00255 90.38556
#
# Poissons Ratio (x) = 0.15911 0.48013
# Poissons Ratio (y) = 0.20692 0.16654
# Poissons Ratio (z) = 0.24871 0.06633
#
# Static dielectric constant tensor:
#      x y z
#    x 1.804820 0.000000 -0.022710 
#    y 0.000000 1.932520 0.000000 
#    z -0.022710 0.000000 1.782720 
# 
# From -- ./inp_files/5381.got.cif
#   From: 2010.05.17/outbox.cif.g08.bks.cpg/sg4_3_cif.got.tgz:5381.got - 2010.06.03 18:43:04.
