data_PCOD9119541
_publ_section_title
;
Structure prediction by ZEFSAII (Michael W. Deem and Ramdas Pophale) SiO2 
 PCOD9119541
Probable space group: P 21
;
_chemical_formula_sum "Si O2"
_cell_formula_units_Z 16
_cell_length_a 8.630587
_cell_length_b 16.478363
_cell_length_c 8.754550
_cell_angle_alpha 90.000000
_cell_angle_beta 148.212813
_cell_angle_gamma 90.000000
_cell_volume 655.851829
_symmetry_space_group_name_H-M "P 21"
_symmetry_group_IT_number 4
_symmetry_cell_setting 'monoclinic'
loop_
_space_group_symop_operation_xyz
x,y,z
-x,1/2+y,-z
loop_
_atom_site_type_symbol
_atom_site_label
_atom_site_fract_x
_atom_site_fract_y
_atom_site_fract_z
Si Si1 0.447018 0.986060 0.562393
Si Si2 0.710422 0.844842 0.273150
Si Si3 0.141124 0.236304 0.308108
Si Si4 0.330500 0.834129 0.663015
Si Si5 0.158047 0.567083 0.895699
Si Si6 0.834677 0.056117 0.643190
Si Si7 0.466919 0.018046 0.082429
Si Si8 0.784863 0.224750 0.722928
O O1 0.482531 0.905517 0.692715
O O2 0.665494 0.988175 0.601671
O O3 0.102246 0.008001 0.258700
O O4 0.572422 0.061228 0.762846
O O5 0.780762 0.789871 0.478677
O O6 0.030360 0.869793 0.479954
O O7 0.529800 0.924006 0.170185
O O8 0.531479 0.808151 0.976381
O O9 0.449586 0.215270 0.490739
O O10 0.966690 0.157110 0.219222
O O11 0.949710 0.269045 0.002528
O O12 0.226395 0.769431 0.449588
O O13 0.321673 0.537745 0.881215
O O14 0.582520 0.077315 0.311304
O O15 0.918456 0.135363 0.809639
O O16 0.118198 0.028327 0.786271
#
# Coordination Sequence:
#
# PCOD9119541 Si02
#       8
#     2   2   2   2   2   2   2   2
#     4  12  23  48  78 104 144 203 252 308 374 451
#     4  12  27  50  74 113 152 202 251 315 381 460
#     4  12  26  50  76 109 155 199 254 313 386 456
#     4  12  26  50  76 109 155 199 254 313 386 456
#     4  12  23  48  78 104 144 203 252 308 374 451
#     4  12  26  46  76 110 151 193 261 317 372 446
#     4  12  26  46  76 110 151 193 261 317 372 446
#     4  12  27  50  74 113 152 202 251 315 381 460
#
# _framework density 24.395757
#
# number of rings (size 3 to 8) (size 9 to 14) (size 15 to 20)
#    0.000    0.000    5.000    4.500    3.500    0.000 
#    0.000    0.000    0.000    0.000    0.000    0.000 
#    0.000    0.000    0.000    0.000    0.000    0.000 
#
# Total GULP energy -89435.993420 kJ/mol
# GULP energy per Si atom -5589.749589 kJ/mol
# Density = 2.434023 g / cm^3
# Si number density = 24.395757 Si / 1000 Ang^3
#
#
#
# Elastic Constant Matrix: (Units=GPa)
#
#
# Indices 1 2 3 4 5 6 
#
# 1 111.8030 39.7346 52.5727 0.0000 7.5980 0.0000
# 2 39.7346 66.5966 13.0220 0.0000 -6.1963 0.0000
# 3 52.5727 13.0220 150.1196 0.0000 -5.5563 0.0000
# 4 0.0000 0.0000 0.0000 34.0973 0.0000 -8.8706
# 5 7.5980 -6.1963 -5.5563 0.0000 60.6301 0.0000
# 6 0.0000 0.0000 0.0000 -8.8706 0.0000 31.7632
#
#
#
# Elastic Compliance Matrix: (Units=1/GPa)
#
#
# Indices 1 2 3 4 5 6 
#
# 1 0.013920 -0.007735 -0.004312 0.000000 -0.002930 0.000000
# 2 -0.007735 0.019700 0.001114 0.000000 0.003085 0.000000
# 3 -0.004312 0.001114 0.008127 0.000000 0.001399 0.000000
# 4 0.000000 0.000000 0.000000 0.031626 0.000000 0.008832
# 5 -0.002930 0.003085 0.001399 0.000000 0.017304 0.000000
# 6 0.000000 0.000000 0.000000 0.008832 0.000000 0.033950
#
#
# Mechanical properties :
#
#
# Convention : Reuss Voigt Hill
#
# Bulk Modulus (GPa) = 50.30049 59.90863 55.10456
# Shear Modulus (GPa) = 32.65428 40.17743 36.41586
#
# Velocity S-wave (km/s) = 3.66255 4.06261 3.86776
# Velocity P-wave (km/s) = 6.20879 6.82764 6.52555
#
# Compressibility (1/GPa) = 0.01988052
#
# Stress axis : x y z
#
# Youngs Moduli (GPa) = 71.83800 50.76163 123.05064
#
# Poissons Ratio (x) = 0.39263 0.53065
# Poissons Ratio (y) = 0.55566 -0.13709
# Poissons Ratio (z) = 0.30980 -0.05655
#
# Static dielectric constant tensor:
#      x y z
#    x 2.007940 0.000000 -0.076470 
#    y 0.000000 1.965880 0.000000 
#    z -0.076470 0.000000 1.930280 
# 
# From -- ./inp_files/6956.got.cif
#   From: 2010.05.17/outbox.cif.g08.bks.cpg/sg4_4_cif.got.tgz:6956.got - 2010.06.03 18:43:04.
