data_PCOD9119825
_publ_section_title
;
Structure prediction by ZEFSAII (Michael W. Deem and Ramdas Pophale) SiO2 
 PCOD9119825
Probable space group: P 21
;
_chemical_formula_sum "Si O2"
_cell_formula_units_Z 16
_cell_length_a 12.000000
_cell_length_b 12.000000
_cell_length_c 9.000000
_cell_angle_alpha 90.000000
_cell_angle_beta 140.000000
_cell_angle_gamma 90.000000
_cell_volume 833.052742
_symmetry_space_group_name_H-M "P 21"
_symmetry_group_IT_number 4
_symmetry_cell_setting 'monoclinic'
loop_
_space_group_symop_operation_xyz
x,y,z
-x,1/2+y,-z
loop_
_atom_site_type_symbol
_atom_site_label
_atom_site_fract_x
_atom_site_fract_y
_atom_site_fract_z
Si Si1 0.882380 0.958960 0.115288
Si Si2 0.316912 0.810832 0.090320
Si Si3 0.944378 0.178063 0.361150
Si Si4 0.644562 0.212685 0.303817
Si Si5 0.755425 0.402459 0.652664
Si Si6 0.731295 0.796879 0.191106
Si Si7 0.460951 0.482107 0.869058
Si Si8 0.521035 0.066947 0.765721
O O1 0.828198 0.847335 0.146871
O O2 0.041640 0.933800 0.167587
O O3 0.942481 0.053290 0.294958
O O4 0.696506 0.010573 0.876613
O O5 0.291170 0.862326 0.228145
O O6 0.388993 0.907080 0.052753
O O7 0.445343 0.700678 0.214625
O O8 0.134768 0.760576 0.844889
O O9 0.802731 0.196584 0.348192
O O10 0.138266 0.207877 0.607539
O O11 0.704657 0.299348 0.490856
O O12 0.589838 0.086136 0.286244
O O13 0.463549 0.259552 0.050254
O O14 0.639861 0.508937 0.481757
O O15 0.699747 0.898511 0.272137
O O16 0.491787 0.530487 0.070520
#
# Coordination Sequence:
#
# PCOD9119825 Si02
#       8
#     2   2   2   2   2   2   2   2
#     4  10  22  39  64  97 124 172 217 268 330 378
#     4  11  25  44  63 100 138 173 215 271 338 396
#     4  11  22  40  66  94 126 165 230 273 313 382
#     4  12  22  40  65  98 130 169 217 278 317 388
#     4  12  25  42  65  94 145 175 207 272 344 399
#     4  11  21  37  66  98 120 168 223 275 318 368
#     4  11  21  42  67  97 125 167 231 266 320 376
#     4  10  22  46  68  92 132 175 226 279 310 395
#
# _framework density 19.206467
#
# number of rings (size 3 to 8) (size 9 to 14) (size 15 to 20)
#    0.000    1.000    8.750    0.000    5.250    0.000 
#    2.250    2.500    0.000    0.000    0.000    0.000 
#    0.000    0.000    0.000    0.000    0.000    0.000 
#
# Total GULP energy -89259.711477 kJ/mol
# GULP energy per Si atom -5578.731967 kJ/mol
# Density = 1.916275 g / cm^3
# Si number density = 19.206467 Si / 1000 Ang^3
#
#
#
# Elastic Constant Matrix: (Units=GPa)
#
#
# Indices 1 2 3 4 5 6 
#
# 1 129.2079 39.7806 36.2735 0.0000 0.2695 0.0000
# 2 39.7806 86.9506 6.5529 0.0000 2.2056 0.0000
# 3 36.2735 6.5529 48.9915 0.0000 7.7063 0.0000
# 4 0.0000 0.0000 0.0000 28.2752 0.0000 4.2784
# 5 0.2695 2.2056 7.7063 0.0000 28.2843 0.0000
# 6 0.0000 0.0000 0.0000 4.2784 0.0000 35.3008
#
#
#
# Elastic Compliance Matrix: (Units=1/GPa)
#
#
# Indices 1 2 3 4 5 6 
#
# 1 0.011510 -0.004705 -0.008288 0.000000 0.002515 0.000000
# 2 -0.004705 0.013548 0.001913 0.000000 -0.001533 0.000000
# 3 -0.008288 0.001913 0.027481 0.000000 -0.007558 0.000000
# 4 0.000000 0.000000 0.000000 0.036027 0.000000 -0.004366
# 5 0.002515 -0.001533 -0.007558 0.000000 0.037510 0.000000
# 6 0.000000 0.000000 0.000000 -0.004366 0.000000 0.028857
#
#
# Mechanical properties :
#
#
# Convention : Reuss Voigt Hill
#
# Bulk Modulus (GPa) = 32.91867 47.81821 40.36844
# Shear Modulus (GPa) = 26.70651 30.54159 28.62405
#
# Velocity S-wave (km/s) = 3.73298 3.99202 3.86467
# Velocity P-wave (km/s) = 5.97970 6.79701 6.40141
#
# Compressibility (1/GPa) = 0.03037789
#
# Stress axis : x y z
#
# Youngs Moduli (GPa) = 86.88445 73.81127 36.38849
#
# Poissons Ratio (x) = 0.34728 0.30159
# Poissons Ratio (y) = 0.40878 -0.06959
# Poissons Ratio (z) = 0.72010 -0.14116
#
# Static dielectric constant tensor:
#      x y z
#    x 1.670070 0.000000 -0.000020 
#    y 0.000000 1.717660 0.000000 
#    z -0.000020 0.000000 1.680310 
# 
# From -- ./inp_files/8295.got.cif
#   From: 2010.05.17/outbox.ucp.g08.bks.cvg/sg4_5_cif.got.tgz:8295.got - 2010.06.11 12:51:24.
