data_PCOD9119781
_publ_section_title
;
Structure prediction by ZEFSAII (Michael W. Deem and Ramdas Pophale) SiO2 
 PCOD9119781
Probable space group: P 21
;
_chemical_formula_sum "Si O2"
_cell_formula_units_Z 10
_cell_length_a 9.823610
_cell_length_b 8.031645
_cell_length_c 9.663404
_cell_angle_alpha 90.000000
_cell_angle_beta 27.756818
_cell_angle_gamma 90.000000
_cell_volume 355.083491
_symmetry_space_group_name_H-M "P 21"
_symmetry_group_IT_number 4
_symmetry_cell_setting 'monoclinic'
loop_
_space_group_symop_operation_xyz
x,y,z
-x,1/2+y,-z
loop_
_atom_site_type_symbol
_atom_site_label
_atom_site_fract_x
_atom_site_fract_y
_atom_site_fract_z
Si Si1 0.150228 0.301400 0.470970
Si Si2 0.696023 0.432186 0.661558
Si Si3 0.897474 0.826077 0.924104
Si Si4 0.675618 0.072937 0.343213
Si Si5 0.310624 0.879613 0.878916
O O1 0.916564 0.338436 0.563546
O O2 0.297816 0.124206 0.303630
O O3 0.436194 0.414269 0.233754
O O4 0.969173 0.328385 0.776830
O O5 0.854778 0.437113 0.369937
O O6 0.387499 0.343037 0.915804
O O7 0.074638 0.655798 0.784624
O O8 0.801314 0.909808 0.154028
O O9 0.625934 0.211245 0.269081
O O10 0.403123 0.021051 0.682487
#
# Coordination Sequence:
#
# PCOD9119781 Si02
#       5
#     2   2   2   2   2
#     4  12  27  53  79 117 165 219 280 343 405 496
#     4  12  27  53  79 117 165 219 280 343 405 496
#     4  12  28  51  83 118 170 213 278 343 418 497
#     4  12  28  52  84 124 168 222 268 348 420 502
#     4  12  28  51  83 118 170 213 278 343 418 497
#
# _framework density 28.162389000000001
#
# number of rings (size 3 to 8) (size 9 to 14) (size 15 to 20)
#    0.000    0.000    4.000    3.600    2.800    8.000 
#    0.000    0.000    0.000    0.000    0.000    0.000 
#    0.000    0.000    0.000    0.000    0.000    0.000 
#
# Total GULP energy -56013.189649 kJ/mol
# GULP energy per Si atom -5601.318965 kJ/mol
# Density = 2.809829 g / cm^3
# Si number density = 28.162389 Si / 1000 Ang^3
#
#
#
# Elastic Constant Matrix: (Units=GPa)
#
#
# Indices 1 2 3 4 5 6 
#
# 1 142.2627 34.0848 16.8564 0.0000 -19.7538 0.0000
# 2 34.0848 116.4398 15.0657 0.0000 3.5325 0.0000
# 3 16.8564 15.0657 157.3216 0.0000 -9.9655 0.0000
# 4 0.0000 0.0000 0.0000 45.1025 0.0000 -2.8536
# 5 -19.7538 3.5325 -9.9655 0.0000 32.3245 0.0000
# 6 0.0000 0.0000 0.0000 -2.8536 0.0000 40.3394
#
#
#
# Elastic Compliance Matrix: (Units=1/GPa)
#
#
# Indices 1 2 3 4 5 6 
#
# 1 0.008428 -0.002588 -0.000317 0.000000 0.005335 0.000000
# 2 -0.002588 0.009539 -0.000818 0.000000 -0.002876 0.000000
# 3 -0.000317 -0.000818 0.006591 0.000000 0.001928 0.000000
# 4 0.000000 0.000000 0.000000 0.022271 0.000000 0.001575
# 5 0.005335 -0.002876 0.001928 0.000000 0.035105 0.000000
# 6 0.000000 0.000000 0.000000 0.001575 0.000000 0.024901
#
#
# Mechanical properties :
#
#
# Convention : Reuss Voigt Hill
#
# Bulk Modulus (GPa) = 58.44360 60.89312 59.66836
# Shear Modulus (GPa) = 41.67172 46.88775 44.27973
#
# Velocity S-wave (km/s) = 3.85085 4.08475 3.96953
# Velocity P-wave (km/s) = 6.36942 6.62692 6.49944
#
# Compressibility (1/GPa) = 0.01711051
#
# Stress axis : x y z
#
# Youngs Moduli (GPa) = 118.65675 104.83513 151.72518
#
# Poissons Ratio (x) = 0.27129 0.04813
# Poissons Ratio (y) = 0.30706 0.12417
# Poissons Ratio (z) = 0.03764 0.08580
#
# Static dielectric constant tensor:
#      x y z
#    x 2.341070 0.000000 -0.067220 
#    y 0.000000 2.405980 0.000000 
#    z -0.067220 0.000000 2.108320 
# 
# From -- ./inp_files/5316.got.cif
#   From: 2010.05.17/outbox.cif.g08.bks.cpg/sg4_3_cif.got.tgz:5316.got - 2010.06.03 18:43:04.
