data_PCOD9119614
_publ_section_title
;
Structure prediction by ZEFSAII (Michael W. Deem and Ramdas Pophale) SiO2 
 PCOD9119614
Probable space group: P 21
;
_chemical_formula_sum "Si O2"
_cell_formula_units_Z 14
_cell_length_a 23.057564
_cell_length_b 5.534193
_cell_length_c 10.426251
_cell_angle_alpha 90.000000
_cell_angle_beta 25.569148
_cell_angle_gamma 90.000000
_cell_volume 574.218808
_symmetry_space_group_name_H-M "P 21"
_symmetry_group_IT_number 4
_symmetry_cell_setting 'monoclinic'
loop_
_space_group_symop_operation_xyz
x,y,z
-x,1/2+y,-z
loop_
_atom_site_type_symbol
_atom_site_label
_atom_site_fract_x
_atom_site_fract_y
_atom_site_fract_z
Si Si1 0.341291 0.473710 0.412163
Si Si2 0.391187 0.235090 0.050387
Si Si3 0.022784 0.311679 0.379106
Si Si4 0.086453 0.784337 0.935407
Si Si5 0.741122 0.614205 0.235493
Si Si6 0.514729 0.367579 0.547776
Si Si7 0.132824 0.949912 0.558025
O O1 0.337790 0.400122 0.271513
O O2 0.195951 0.574904 0.738259
O O3 0.364093 0.252975 0.464268
O O4 0.460861 0.657891 0.197955
O O5 0.290238 0.007681 0.243840
O O6 0.409078 0.350144 0.875525
O O7 0.006168 0.565757 0.485254
O O8 0.922180 0.323428 0.458433
O O9 0.176321 0.282981 0.024971
O O10 0.087252 0.827324 0.781928
O O11 0.150572 0.005781 0.882797
O O12 0.945834 0.706292 0.274660
O O13 0.661926 0.411756 0.315221
O O14 0.489478 0.610602 0.516086
#
# Coordination Sequence:
#
# PCOD9119614 Si02
#       7
#     2   2   2   2   2   2   2
#     4  12  24  50  82 117 159 204 260 338 423 462
#     4  12  26  49  81 124 157 204 274 336 397 482
#     4  12  30  54  81 116 163 221 271 323 392 490
#     4  12  24  50  82 117 159 204 260 338 423 462
#     4  12  26  56  80 108 164 210 270 334 410 472
#     4  12  30  54  81 116 163 221 271 323 392 490
#     4  12  26  49  81 124 157 204 274 336 397 482
#
# _framework density 24.380951
#
# number of rings (size 3 to 8) (size 9 to 14) (size 15 to 20)
#    0.000    0.000    4.286    5.143    2.000    2.286 
#    5.143    0.000    0.000    0.000    0.000    0.000 
#    0.000    0.000    0.000    0.000    0.000    0.000 
#
# Total GULP energy -78468.111446 kJ/mol
# GULP energy per Si atom -5604.865103 kJ/mol
# Density = 2.432546 g / cm^3
# Si number density = 24.380951 Si / 1000 Ang^3
#
#
#
# Elastic Constant Matrix: (Units=GPa)
#
#
# Indices 1 2 3 4 5 6 
#
# 1 115.5538 45.1635 30.3422 0.0000 17.8375 0.0000
# 2 45.1635 113.7372 33.7857 0.0000 28.7366 0.0000
# 3 30.3422 33.7857 91.4676 0.0000 20.6663 0.0000
# 4 0.0000 0.0000 0.0000 48.5890 0.0000 6.0198
# 5 17.8375 28.7366 20.6663 0.0000 48.0484 0.0000
# 6 0.0000 0.0000 0.0000 6.0198 0.0000 11.8684
#
#
#
# Elastic Compliance Matrix: (Units=1/GPa)
#
#
# Indices 1 2 3 4 5 6 
#
# 1 0.010671 -0.003356 -0.002059 0.000000 -0.001069 0.000000
# 2 -0.003356 0.012045 -0.002204 0.000000 -0.005010 0.000000
# 3 -0.002059 -0.002204 0.013247 0.000000 -0.003615 0.000000
# 4 0.000000 0.000000 0.000000 0.021961 0.000000 -0.011139
# 5 -0.001069 -0.005010 -0.003615 0.000000 0.025761 0.000000
# 6 0.000000 0.000000 0.000000 -0.011139 0.000000 0.089907
#
#
# Mechanical properties :
#
#
# Convention : Reuss Voigt Hill
#
# Bulk Modulus (GPa) = 48.24848 59.92682 54.08765
# Shear Modulus (GPa) = 25.54446 35.79898 30.67172
#
# Velocity S-wave (km/s) = 3.24036 3.83602 3.55071
# Velocity P-wave (km/s) = 5.81656 6.65228 6.24840
#
# Compressibility (1/GPa) = 0.02072604
#
# Stress axis : x y z
#
# Youngs Moduli (GPa) = 93.71047 83.02004 75.49048
#
# Poissons Ratio (x) = 0.27859 0.15542
# Poissons Ratio (y) = 0.31446 0.16638
# Poissons Ratio (z) = 0.19294 0.18298
#
# Static dielectric constant tensor:
#      x y z
#    x 1.920210 0.000000 0.005790 
#    y 0.000000 2.004180 0.000000 
#    z 0.005790 0.000000 1.910330 
# 
# From -- ./inp_files/9753.got.cif
#   From: 2010.05.17/outbox.cif.g08.bks.cpg/sg4_5_cif.got.tgz:9753.got - 2010.06.03 18:43:04.
