data_PCOD9119684
_publ_section_title
;
Structure prediction by ZEFSAII (Michael W. Deem and Ramdas Pophale) SiO2 
 PCOD9119684
Probable space group: P 21
;
_chemical_formula_sum "Si O2"
_cell_formula_units_Z 14
_cell_length_a 23.142096
_cell_length_b 5.267811
_cell_length_c 13.794865
_cell_angle_alpha 90.000000
_cell_angle_beta 19.831855
_cell_angle_gamma 90.000000
_cell_volume 570.537552
_symmetry_space_group_name_H-M "P 21"
_symmetry_group_IT_number 4
_symmetry_cell_setting 'monoclinic'
loop_
_space_group_symop_operation_xyz
x,y,z
-x,1/2+y,-z
loop_
_atom_site_type_symbol
_atom_site_label
_atom_site_fract_x
_atom_site_fract_y
_atom_site_fract_z
Si Si1 0.419064 0.916340 0.171632
Si Si2 0.936367 0.724759 0.654362
Si Si3 0.068346 0.112371 0.936907
Si Si4 0.375134 0.910157 0.816892
Si Si5 0.713706 0.170902 0.237412
Si Si6 0.569445 0.538225 0.632362
Si Si7 0.032953 0.829661 0.722489
O O1 0.221050 0.913354 0.454416
O O2 0.457016 0.888770 0.226499
O O3 0.504389 0.683803 0.981383
O O4 0.023515 0.476318 0.469932
O O5 0.006401 0.770607 0.652003
O O6 0.735388 0.651514 0.975912
O O7 0.016594 0.093109 0.131067
O O8 0.261247 0.205676 0.614573
O O9 0.953966 0.338150 0.075057
O O10 0.271293 0.787862 0.892914
O O11 0.417125 0.716327 0.837054
O O12 0.559154 0.968352 0.479766
O O13 0.640425 0.363963 0.433069
O O14 0.889709 0.032210 0.979755
#
# Coordination Sequence:
#
# PCOD9119684 Si02
#       7
#     2   2   2   2   2   2   2
#     4  12  34  55  79 117 163 227 274 334 402 494
#     4  12  31  54  80 121 164 232 276 328 402 498
#     4  12  26  47  78 120 150 197 260 336 414 462
#     4  12  26  48  81 122 167 203 274 338 420 486
#     4  12  25  50  81 126 156 210 258 360 422 482
#     4  12  28  48  83 115 165 207 270 338 421 484
#     4  12  28  54  84 117 167 202 288 340 411 494
#
# _framework density 24.538262
#
# number of rings (size 3 to 8) (size 9 to 14) (size 15 to 20)
#    0.000    0.000    4.286    3.429    8.000    3.429 
#    0.000    0.000    0.000    0.000    0.000    0.000 
#    0.000    0.000    0.000    0.000    0.000    0.000 
#
# Total GULP energy -78475.184434 kJ/mol
# GULP energy per Si atom -5605.370317 kJ/mol
# Density = 2.448241 g / cm^3
# Si number density = 24.538262 Si / 1000 Ang^3
#
#
#
# Elastic Constant Matrix: (Units=GPa)
#
#
# Indices 1 2 3 4 5 6 
#
# 1 144.5328 38.7208 25.1342 0.0000 16.6632 0.0000
# 2 38.7208 146.0080 55.3678 0.0000 2.7940 0.0000
# 3 25.1342 55.3678 123.6035 0.0000 -11.8070 0.0000
# 4 0.0000 0.0000 0.0000 55.0769 0.0000 6.8657
# 5 16.6632 2.7940 -11.8070 0.0000 41.1324 0.0000
# 6 0.0000 0.0000 0.0000 6.8657 0.0000 40.8377
#
#
#
# Elastic Compliance Matrix: (Units=1/GPa)
#
#
# Indices 1 2 3 4 5 6 
#
# 1 0.007957 -0.001571 -0.001246 0.000000 -0.003474 0.000000
# 2 -0.001571 0.008673 -0.003662 0.000000 -0.001004 0.000000
# 3 -0.001246 -0.003662 0.010339 0.000000 0.003721 0.000000
# 4 0.000000 0.000000 0.000000 0.018545 0.000000 -0.003118
# 5 -0.003474 -0.001004 0.003721 0.000000 0.026856 0.000000
# 6 0.000000 0.000000 0.000000 -0.003118 0.000000 0.025011
#
#
# Mechanical properties :
#
#
# Convention : Reuss Voigt Hill
#
# Bulk Modulus (GPa) = 71.36687 72.51001 71.93844
# Shear Modulus (GPa) = 43.47435 47.07082 45.27259
#
# Velocity S-wave (km/s) = 4.21372 4.38455 4.29998
# Velocity P-wave (km/s) = 7.26780 7.43278 7.35076
#
# Compressibility (1/GPa) = 0.01401210
#
# Stress axis : x y z
#
# Youngs Moduli (GPa) = 125.67505 115.29614 96.71687
#
# Poissons Ratio (x) = 0.18115 0.12052
# Poissons Ratio (y) = 0.19745 0.35414
# Poissons Ratio (z) = 0.15661 0.42217
#
# Static dielectric constant tensor:
#      x y z
#    x 1.984920 0.000000 -0.026250 
#    y 0.000000 1.958460 0.000000 
#    z -0.026250 0.000000 1.948110 
# 
# From -- ./inp_files/13022.got.cif
#   From: 2010.05.17/outbox.cif.g08.bks.cpg/sg4_7_cif.got.tgz:13022.got - 2010.06.03 18:43:04.
