data_PCOD9119937
_publ_section_title
;
Structure prediction by ZEFSAII (Michael W. Deem and Ramdas Pophale) SiO2 
 PCOD9119937
Probable space group: C 2
;
_chemical_formula_sum "Si O2"
_cell_formula_units_Z 24
_cell_length_a 7.796751
_cell_length_b 14.307080
_cell_length_c 13.242726
_cell_angle_alpha 90.000000
_cell_angle_beta 37.560667
_cell_angle_gamma 90.000000
_cell_volume 900.508508
_symmetry_space_group_name_H-M "C 2"
_symmetry_group_IT_number 5
_symmetry_cell_setting 'monoclinic'
loop_
_space_group_symop_operation_xyz
x,y,z
-x,y,-z
1/2+x,1/2+y,z
1/2-x,1/2+y,-z
loop_
_atom_site_type_symbol
_atom_site_label
_atom_site_fract_x
_atom_site_fract_y
_atom_site_fract_z
Si Si1 0.533242 0.388280 0.800012
Si Si2 0.572504 0.585601 0.223829
Si Si3 0.500000 0.253078 0.000000
Si Si4 0.197877 0.806598 0.306678
Si Si5 0.000000 0.283061 0.500000
Si Si6 0.683799 0.990343 0.696820
Si Si7 0.063900 0.635409 0.603023
O O1 0.460121 0.498168 0.838514
O O2 0.443630 0.318243 0.929581
O O3 0.418278 0.355783 0.742142
O O4 0.858907 0.356178 0.641807
O O5 0.773192 0.543694 0.219071
O O6 0.263204 0.597951 0.419931
O O7 0.731890 0.683113 0.131484
O O8 0.413456 0.885095 0.241415
O O9 0.000000 0.797741 0.500000
O O10 0.217564 0.697850 0.272203
O O11 0.221805 0.211119 0.445291
O O12 0.000000 0.987409 0.500000
O O13 0.506001 0.050934 0.704099
#
# Coordination Sequence:
#
# PCOD9119937 Si02
#       7
#     4   4   2   4   2   4   4
#     4  10  22  38  67  96 126 163 218 259 311 383
#     4  10  19  36  60  88 122 168 208 252 309 375
#     4  12  22  42  66  86 130 180 206 250 318 378
#     4   9  18  32  56  92 124 151 197 262 313 357
#     4  10  16  36  66  96 118 162 208 268 318 360
#     4   8  14  29  54  84 115 146 197 255 292 363
#     4  10  15  31  60  88 116 159 200 251 316 362
#
# _framework density 26.651606999999998
#
# number of rings (size 3 to 8) (size 9 to 14) (size 15 to 20)
#    0.000    2.333    4.167    2.000    0.000    0.000 
#    1.500    8.333    7.333    0.000    0.000    0.000 
#    0.000    0.000    0.000    0.000    0.000    0.000 
#
# Total GULP energy -66929.971287 kJ/mol
# GULP energy per Si atom -5577.497607 kJ/mol
# Density = 2.659095 g / cm^3
# Si number density = 26.651607 Si / 1000 Ang^3
#
#
#
# Elastic Constant Matrix: (Units=GPa)
#
#
# Indices 1 2 3 4 5 6 
#
# 1 114.2439 62.3740 41.3946 -0.0014 6.0624 0.0013
# 2 62.3740 263.7127 65.7805 -0.0011 17.0906 0.0006
# 3 41.3946 65.7805 85.9136 -0.0041 -3.3600 0.0072
# 4 -0.0014 -0.0011 -0.0041 41.8508 0.0013 6.6093
# 5 6.0624 17.0906 -3.3600 0.0013 36.1937 -0.0023
# 6 0.0013 0.0006 0.0072 6.6093 -0.0023 34.8956
#
#
#
# Elastic Compliance Matrix: (Units=1/GPa)
#
#
# Indices 1 2 3 4 5 6 
#
# 1 0.011211 -0.001466 -0.004341 0.000000 -0.001589 0.000000
# 2 -0.001466 0.005127 -0.003316 0.000000 -0.002483 0.000001
# 3 -0.004341 -0.003316 0.016420 0.000002 0.003817 -0.000003
# 4 0.000000 0.000000 0.000002 0.024631 -0.000001 -0.004665
# 5 -0.001589 -0.002483 0.003817 -0.000001 0.029422 0.000001
# 6 0.000000 0.000001 -0.000003 -0.004665 0.000001 0.029541
#
#
# Mechanical properties :
#
#
# Convention : Reuss Voigt Hill
#
# Bulk Modulus (GPa) = 68.91547 89.21872 79.06709
# Shear Modulus (GPa) = 35.85894 42.20943 39.03418
#
# Velocity S-wave (km/s) = 3.67204 3.98395 3.83117
# Velocity P-wave (km/s) = 6.62515 7.39669 7.02153
#
# Compressibility (1/GPa) = 0.01451053
#
# Stress axis : x y z
#
# Youngs Moduli (GPa) = 89.19963 195.05198 60.90184
#
# Poissons Ratio (x) = 0.28589 0.26440
# Poissons Ratio (y) = 0.13074 0.20197
# Poissons Ratio (z) = 0.38726 0.64686
#
# Static dielectric constant tensor:
#      x y z
#    x 2.299600 0.000000 -0.070700 
#    y 0.000000 2.094800 0.000000 
#    z -0.070700 0.000000 2.164690 
# 
# From -- ./inp_files/50853.got.cif
#   From: 2010.05.17/outbox.cif.g08.bks.cpg/sg5_26_cif.got.tgz:50853.got - 2010.06.03 18:56:24.
