data_PCOD9119504
_publ_section_title
;
Structure prediction by ZEFSAII (Michael W. Deem and Ramdas Pophale) SiO2 
 PCOD9119504
Probable space group: P 21
;
_chemical_formula_sum "Si O2"
_cell_formula_units_Z 12
_cell_length_a 15.995969
_cell_length_b 4.930698
_cell_length_c 21.754441
_cell_angle_alpha 90.000000
_cell_angle_beta 19.345723
_cell_angle_gamma 90.000000
_cell_volume 568.388992
_symmetry_space_group_name_H-M "P 21"
_symmetry_group_IT_number 4
_symmetry_cell_setting 'monoclinic'
loop_
_space_group_symop_operation_xyz
x,y,z
-x,1/2+y,-z
loop_
_atom_site_type_symbol
_atom_site_label
_atom_site_fract_x
_atom_site_fract_y
_atom_site_fract_z
Si Si1 0.482743 0.750000 0.553552
Si Si2 0.216890 0.182453 0.533108
Si Si3 0.557043 0.182443 0.692959
Si Si4 0.167415 0.830845 0.375990
Si Si5 0.006221 0.033862 0.037185
Si Si6 0.337563 0.614730 0.126141
O O1 0.560664 0.542362 0.445982
O O2 0.690749 0.760258 0.463103
O O3 0.229189 0.630763 0.759595
O O4 0.272832 0.433601 0.449069
O O5 0.924662 0.104524 0.729193
O O6 0.385306 0.931421 0.392781
O O7 0.638665 0.276223 0.703602
O O8 0.269633 0.088499 0.888098
O O9 0.274056 0.733966 0.237157
O O10 0.925946 0.639507 0.558102
O O11 0.010269 0.225193 0.973783
O O12 0.465885 0.322346 0.040749
#
# Coordination Sequence:
#
# PCOD9119504 Si02
#       6
#     2   2   2   2   2   2
#     4  12  26  44  68 102 142 173 221 285 342 404
#     4  12  24  44  72  96 134 188 218 274 358 392
#     4  12  22  42  74 100 130 180 234 276 324 404
#     4  12  23  43  69 102 130 177 233 274 325 402
#     4  12  23  43  69 102 130 177 233 274 325 402
#     4  12  26  44  68 102 142 173 221 285 342 404
#
# _framework density 21.112300999999999
#
# number of rings (size 3 to 8) (size 9 to 14) (size 15 to 20)
#    0.000    0.000    6.667    4.000    0.000    2.667 
#    0.000    0.000    0.000    0.000    0.000    0.000 
#    0.000    0.000    0.000    0.000    0.000    0.000 
#
# Total GULP energy -67219.584800 kJ/mol
# GULP energy per Si atom -5601.632067 kJ/mol
# Density = 2.106425 g / cm^3
# Si number density = 21.112301 Si / 1000 Ang^3
#
#
#
# Elastic Constant Matrix: (Units=GPa)
#
#
# Indices 1 2 3 4 5 6 
#
# 1 99.2999 -20.0920 31.5253 0.0000 -20.0381 0.0000
# 2 -20.0920 67.9894 -14.6657 0.0000 6.8203 0.0000
# 3 31.5253 -14.6657 73.3391 0.0000 -12.6363 0.0000
# 4 0.0000 0.0000 0.0000 31.4433 0.0000 -1.2872
# 5 -20.0381 6.8203 -12.6363 0.0000 35.2607 0.0000
# 6 0.0000 0.0000 0.0000 -1.2872 0.0000 32.4554
#
#
#
# Elastic Compliance Matrix: (Units=1/GPa)
#
#
# Indices 1 2 3 4 5 6 
#
# 1 0.012969 0.002391 -0.004164 0.000000 0.005415 0.000000
# 2 0.002391 0.015945 0.001986 0.000000 -0.001014 0.000000
# 3 -0.004164 0.001986 0.016358 0.000000 0.003112 0.000000
# 4 0.000000 0.000000 0.000000 0.031855 0.000000 0.001263
# 5 0.005415 -0.001014 0.003112 0.000000 0.032749 0.000000
# 6 0.000000 0.000000 0.000000 0.001263 0.000000 0.030862
#
#
# Mechanical properties :
#
#
# Convention : Reuss Voigt Hill
#
# Bulk Modulus (GPa) = 21.88208 26.01819 23.95014
# Shear Modulus (GPa) = 32.14532 36.08928 34.11730
#
# Velocity S-wave (km/s) = 3.90627 4.13897 4.02430
# Velocity P-wave (km/s) = 5.54368 5.93228 5.74126
#
# Compressibility (1/GPa) = 0.04569950
#
# Stress axis : x y z
#
# Youngs Moduli (GPa) = 77.10720 62.71610 61.13071
#
# Poissons Ratio (x) = -0.14997 0.25452
# Poissons Ratio (y) = -0.18438 -0.12141
# Poissons Ratio (z) = 0.32104 -0.12455
#
# Static dielectric constant tensor:
#      x y z
#    x 1.740740 0.000000 0.003770 
#    y 0.000000 1.738990 0.000000 
#    z 0.003770 0.000000 1.743760 
# 
# From -- ./inp_files/1245.got.cif
#   From: 2010.05.17/outbox.cif.g08.bks.cpg/sg4_1_cif.got.tgz:1245.got - 2010.06.03 18:43:04.
