data_PCOD9119478
_publ_section_title
;
Structure prediction by ZEFSAII (Michael W. Deem and Ramdas Pophale) SiO2 
 PCOD9119478
Probable space group: P 21
;
_chemical_formula_sum "Si O2"
_cell_formula_units_Z 14
_cell_length_a 4.872373
_cell_length_b 12.675198
_cell_length_c 7.676673
_cell_angle_alpha 90.000000
_cell_angle_beta 100.968619
_cell_angle_gamma 90.000000
_cell_volume 465.437174
_symmetry_space_group_name_H-M "P 21"
_symmetry_group_IT_number 4
_symmetry_cell_setting 'monoclinic'
loop_
_space_group_symop_operation_xyz
x,y,z
-x,1/2+y,-z
loop_
_atom_site_type_symbol
_atom_site_label
_atom_site_fract_x
_atom_site_fract_y
_atom_site_fract_z
Si Si1 0.603522 0.769720 0.601473
Si Si2 0.033805 0.147608 0.163035
Si Si3 0.688374 0.447292 0.876105
Si Si4 0.080332 0.289363 0.720792
Si Si5 0.594999 0.161264 0.836704
Si Si6 0.752583 0.049588 0.439019
Si Si7 0.249505 0.952490 0.719017
O O1 0.386028 0.864137 0.608111
O O2 0.814662 0.785670 0.465603
O O3 0.441485 0.656541 0.567771
O O4 0.808989 0.756293 0.790594
O O5 0.205879 0.065689 0.072714
O O6 0.995450 0.095556 0.345872
O O7 0.738702 0.147624 0.038085
O O8 0.924448 0.386191 0.793557
O O9 0.431626 0.470239 0.708950
O O10 0.701697 0.408396 0.078646
O O11 0.854260 0.199708 0.747300
O O12 0.377478 0.256000 0.835092
O O13 0.440941 0.058695 0.742655
O O14 0.940860 0.989344 0.611549
#
# Coordination Sequence:
#
# PCOD9119478 Si02
#       7
#     2   2   2   2   2   2   2
#     4  11  31  61  95 145 199 267 342 422 503 613
#     4  11  27  58  90 136 195 257 326 423 492 598
#     4  11  29  59 100 143 197 263 334 421 500 611
#     4  12  32  58  94 148 197 259 337 415 508 603
#     4  12  30  57  98 138 200 264 329 417 506 604
#     4  11  28  62  98 143 204 256 340 419 508 595
#     4  12  29  63 105 147 200 270 344 415 515 610
#
# _framework density 30.079246000000001
#
# number of rings (size 3 to 8) (size 9 to 14) (size 15 to 20)
#    0.000    0.571    1.429    1.714   12.000    5.714 
#   10.286    0.000    0.000    0.000    0.000    0.000 
#    0.000    0.000    0.000    0.000    0.000    0.000 
#
# Total GULP energy -78400.655301 kJ/mol
# GULP energy per Si atom -5600.046807 kJ/mol
# Density = 3.001078 g / cm^3
# Si number density = 30.079246 Si / 1000 Ang^3
#
#
#
# Elastic Constant Matrix: (Units=GPa)
#
#
# Indices 1 2 3 4 5 6 
#
# 1 238.3211 79.0791 87.1257 0.0000 -5.8017 0.0000
# 2 79.0791 178.0474 89.8803 0.0000 -1.3509 0.0000
# 3 87.1257 89.8803 191.7544 0.0000 18.5528 0.0000
# 4 0.0000 0.0000 0.0000 47.9322 0.0000 5.9930
# 5 -5.8017 -1.3509 18.5528 0.0000 79.4061 0.0000
# 6 0.0000 0.0000 0.0000 5.9930 0.0000 75.8217
#
#
#
# Elastic Compliance Matrix: (Units=1/GPa)
#
#
# Indices 1 2 3 4 5 6 
#
# 1 0.005368 -0.001451 -0.001836 0.000000 0.000796 0.000000
# 2 -0.001451 0.007821 -0.003079 0.000000 0.000746 0.000000
# 3 -0.001836 -0.003079 0.007684 0.000000 -0.001982 0.000000
# 4 0.000000 0.000000 0.000000 0.021071 0.000000 -0.001665
# 5 0.000796 0.000746 -0.001982 0.000000 0.013127 0.000000
# 6 0.000000 0.000000 0.000000 -0.001665 0.000000 0.013320
#
#
# Mechanical properties :
#
#
# Convention : Reuss Voigt Hill
#
# Bulk Modulus (GPa) = 122.83132 124.47701 123.65416
# Shear Modulus (GPa) = 59.63931 64.10119 61.87025
#
# Velocity S-wave (km/s) = 4.45763 4.62137 4.54024
# Velocity P-wave (km/s) = 8.21088 8.36355 8.28756
#
# Compressibility (1/GPa) = 0.00814125
#
# Stress axis : x y z
#
# Youngs Moduli (GPa) = 186.28334 127.86238 130.14277
#
# Poissons Ratio (x) = 0.18559 0.23892
# Poissons Ratio (y) = 0.27039 0.40065
# Poissons Ratio (z) = 0.34198 0.39363
#
# Static dielectric constant tensor:
#      x y z
#    x 2.291710 0.000000 -0.002890 
#    y 0.000000 2.492880 0.000000 
#    z -0.002890 0.000000 2.477860 
# 
# From -- ./inp_files/4799.got.cif
#   From: 2010.05.17/outbox.cif.g08.bks.cpg/sg4_3_cif.got.tgz:4799.got - 2010.06.03 18:43:04.
