data_PCOD9119939
_publ_section_title
;
Structure prediction by ZEFSAII (Michael W. Deem and Ramdas Pophale) SiO2 
 PCOD9119939
Probable space group: C 2
;
_chemical_formula_sum "Si O2"
_cell_formula_units_Z 32
_cell_length_a 13.428549
_cell_length_b 23.256943
_cell_length_c 7.517820
_cell_angle_alpha 90.000000
_cell_angle_beta 36.281358
_cell_angle_gamma 90.000000
_cell_volume 1389.352948
_symmetry_space_group_name_H-M "C 2"
_symmetry_group_IT_number 5
_symmetry_cell_setting 'monoclinic'
loop_
_space_group_symop_operation_xyz
x,y,z
-x,y,-z
1/2+x,1/2+y,z
1/2-x,1/2+y,-z
loop_
_atom_site_type_symbol
_atom_site_label
_atom_site_fract_x
_atom_site_fract_y
_atom_site_fract_z
Si Si1 0.698327 0.388540 0.242853
Si Si2 0.661082 0.776741 0.887137
Si Si3 0.883295 0.707801 0.330946
Si Si4 0.069584 0.598601 0.099850
Si Si5 0.476472 0.670465 0.321997
Si Si6 0.512110 0.973533 0.203541
Si Si7 0.170665 0.938850 0.652583
Si Si8 0.089435 0.050669 0.538994
O O1 0.500000 0.391528 0.500000
O O2 0.783406 0.328501 0.066443
O O3 0.709652 0.394223 0.440618
O O4 0.816876 0.439914 0.001325
O O5 0.823704 0.759489 0.538700
O O6 0.500000 0.795332 0.000000
O O7 0.601787 0.716928 0.058849
O O8 0.707834 0.684493 0.495959
O O9 0.989384 0.657984 0.282614
O O10 0.000000 0.726718 0.000000
O O11 0.010751 0.539192 0.269754
O O12 0.263722 0.586098 0.775950
O O13 0.000000 0.599949 0.000000
O O14 0.500000 0.677585 0.500000
O O15 0.511397 0.603324 0.226665
O O16 0.342474 0.943805 0.515060
O O17 0.500000 0.974501 0.000000
O O18 0.144080 0.001815 0.596622
O O19 0.000000 0.925374 0.000000
O O20 0.000000 0.021609 0.500000
#
# Coordination Sequence:
#
# PCOD9119939 Si02
#       8
#     4   4   4   4   4   4   4   4
#     4  11  23  43  65  85 118 165 213 258 318 373
#     4  10  23  41  62  89 122 168 219 256 307 381
#     4  10  19  35  60  86 119 163 211 246 303 377
#     4  10  15  32  59  88 116 163 200 238 306 369
#     4  10  21  37  59  90 126 164 204 260 314 361
#     4   9  17  34  62  84 113 160 197 241 299 376
#     4  11  22  37  63  97 123 156 208 259 310 377
#     4  11  20  35  61  92 128 164 202 248 313 377
#
# _framework density 23.032304
#
# number of rings (size 3 to 8) (size 9 to 14) (size 15 to 20)
#    0.000    1.750    6.250    1.500    0.000    4.000 
#    0.000    3.125    0.000    1.500    0.000    0.000 
#    0.000    0.000    0.000    0.000    0.000    0.000 
#
# Total GULP energy -89199.061781 kJ/mol
# GULP energy per Si atom -5574.941361 kJ/mol
# Density = 2.297988 g / cm^3
# Si number density = 23.032304 Si / 1000 Ang^3
#
#
#
# Elastic Constant Matrix: (Units=GPa)
#
#
# Indices 1 2 3 4 5 6 
#
# 1 38.9980 5.4268 3.8347 0.0000 -6.2206 0.0000
# 2 5.4268 93.7155 19.6482 0.0000 -11.3990 0.0000
# 3 3.8347 19.6482 96.2535 0.0000 -15.1411 0.0000
# 4 0.0000 0.0000 0.0000 31.7871 0.0000 -9.7572
# 5 -6.2206 -11.3990 -15.1411 0.0000 27.5267 0.0000
# 6 0.0000 0.0000 0.0000 -9.7572 0.0000 2.6767
#
#
#
# Elastic Compliance Matrix: (Units=1/GPa)
#
#
# Indices 1 2 3 4 5 6 
#
# 1 0.026666 -0.000855 0.000005 0.000000 0.005675 0.000000
# 2 -0.000855 0.011527 -0.001750 0.000000 0.003618 0.000000
# 3 0.000005 -0.001750 0.011640 0.000000 0.005679 0.000000
# 4 0.000000 0.000000 0.000000 -0.264492 0.000000 -0.964149
# 5 0.005675 0.003618 0.005679 0.000000 0.042233 0.000000
# 6 0.000000 0.000000 0.000000 -0.964149 0.000000 -3.141003
#
#
# Mechanical properties :
#
#
# Convention : Reuss Voigt Hill
#
# Bulk Modulus (GPa) = 22.40515 31.86517 27.13516
# Shear Modulus (GPa) = -1.51821 25.73524 12.10851
#
# Velocity S-wave (km/s) = -0.81277 3.34631 2.29534
# Velocity P-wave (km/s) = 2.97792 5.36614 4.33955
#
# Compressibility (1/GPa) = 0.04463259
#
# Stress axis : x y z
#
# Youngs Moduli (GPa) = 37.50094 86.75275 85.91402
#
# Poissons Ratio (x) = 0.07417 -0.00041
# Poissons Ratio (y) = 0.03206 0.15034
# Poissons Ratio (z) = -0.00018 0.15181
#
# Static dielectric constant tensor:
#      x y z
#    x 1.937280 0.000000 -0.036140 
#    y 0.000000 1.925770 0.000000 
#    z -0.036140 0.000000 1.957920 
# 
# From -- ./inp_files/25609.got.cif
#   From: 2010.05.17/outbox.cif.g08.bks.cpg/sg5_13_cif.got.tgz:25609.got - 2010.06.03 18:56:24.
