data_PCOD9119723
_publ_section_title
;
Structure prediction by ZEFSAII (Michael W. Deem and Ramdas Pophale) SiO2 
 PCOD9119723
Probable space group: P 21
;
_chemical_formula_sum "Si O2"
_cell_formula_units_Z 16
_cell_length_a 9.464361
_cell_length_b 8.906211
_cell_length_c 10.939123
_cell_angle_alpha 90.000000
_cell_angle_beta 131.870441
_cell_angle_gamma 90.000000
_cell_volume 686.629512
_symmetry_space_group_name_H-M "P 21"
_symmetry_group_IT_number 4
_symmetry_cell_setting 'monoclinic'
loop_
_space_group_symop_operation_xyz
x,y,z
-x,1/2+y,-z
loop_
_atom_site_type_symbol
_atom_site_label
_atom_site_fract_x
_atom_site_fract_y
_atom_site_fract_z
Si Si1 0.135516 0.188260 0.988954
Si Si2 0.161971 0.344173 0.748805
Si Si3 0.159262 0.692419 0.791968
Si Si4 0.462126 0.026237 0.315351
Si Si5 0.776722 0.227501 0.435651
Si Si6 0.471418 0.978221 0.588684
Si Si7 0.529911 0.230888 0.818615
Si Si8 0.094177 0.384739 0.193624
O O1 0.168113 0.291703 0.891931
O O2 0.335552 0.128996 0.155000
O O3 0.046036 0.283818 0.046969
O O4 0.012055 0.043894 0.880089
O O5 0.115656 0.521578 0.726406
O O6 0.357357 0.302540 0.795620
O O7 0.997060 0.248307 0.589235
O O8 0.252353 0.761661 0.724051
O O9 0.981563 0.790902 0.734477
O O10 0.305981 0.693866 0.989428
O O11 0.680474 0.069731 0.415531
O O12 0.409897 0.053076 0.425779
O O13 0.416624 0.857684 0.249443
O O14 0.667629 0.343939 0.458505
O O15 0.476824 0.087502 0.707480
O O16 0.682527 0.917404 0.682810
#
# Coordination Sequence:
#
# PCOD9119723 Si02
#       8
#     2   2   2   2   2   2   2   2
#     4  12  26  48  75 116 147 209 253 326 387 480
#     4  12  30  48  81 112 162 204 270 326 406 478
#     4  12  29  52  78 118 158 208 266 331 403 482
#     4  12  26  51  73 114 156 204 260 320 393 474
#     4  12  29  49  78 116 155 208 264 326 401 475
#     4  12  29  47  80 114 159 205 260 328 399 472
#     4  12  28  50  79 115 158 208 257 331 396 475
#     4  12  27  47  80 111 161 202 268 318 405 470
#
# _framework density 23.302232
#
# number of rings (size 3 to 8) (size 9 to 14) (size 15 to 20)
#    0.000    0.000    3.750    4.500   10.500    0.000 
#    0.000    0.000    0.000    0.000    0.000    0.000 
#    0.000    0.000    0.000    0.000    0.000    0.000 
#
# Total GULP energy -89679.396473 kJ/mol
# GULP energy per Si atom -5604.962280 kJ/mol
# Density = 2.324920 g / cm^3
# Si number density = 23.302232 Si / 1000 Ang^3
#
#
#
# Elastic Constant Matrix: (Units=GPa)
#
#
# Indices 1 2 3 4 5 6 
#
# 1 82.9669 12.9215 -3.2778 0.0000 -19.7904 0.0000
# 2 12.9215 63.9282 -11.3169 0.0000 -5.2935 0.0000
# 3 -3.2778 -11.3169 71.2789 0.0000 -14.6773 0.0000
# 4 0.0000 0.0000 0.0000 34.8778 0.0000 -9.3416
# 5 -19.7904 -5.2935 -14.6773 0.0000 46.6191 0.0000
# 6 0.0000 0.0000 0.0000 -9.3416 0.0000 43.1597
#
#
#
# Elastic Compliance Matrix: (Units=1/GPa)
#
#
# Indices 1 2 3 4 5 6 
#
# 1 0.013903 -0.002017 0.001590 0.000000 0.006173 0.000000
# 2 -0.002017 0.016741 0.002973 0.000000 0.001980 0.000000
# 3 0.001590 0.002973 0.015808 0.000000 0.005989 0.000000
# 4 0.000000 0.000000 0.000000 0.030436 0.000000 0.006588
# 5 0.006173 0.001980 0.005989 0.000000 0.026182 0.000000
# 6 0.000000 0.000000 0.000000 0.006588 0.000000 0.024596
#
#
# Mechanical properties :
#
#
# Convention : Reuss Voigt Hill
#
# Bulk Modulus (GPa) = 19.40147 23.86974 21.63561
# Shear Modulus (GPa) = 35.77724 39.58778 37.68251
#
# Velocity S-wave (km/s) = 3.92261 4.12622 4.02571
# Velocity P-wave (km/s) = 5.37215 5.74167 5.55998
#
# Compressibility (1/GPa) = 0.05154248
#
# Stress axis : x y z
#
# Youngs Moduli (GPa) = 71.92908 59.73513 63.25969
#
# Poissons Ratio (x) = 0.12051 -0.10060
# Poissons Ratio (y) = 0.14511 -0.18807
# Poissons Ratio (z) = -0.11438 -0.17759
#
# Static dielectric constant tensor:
#      x y z
#    x 1.843760 0.000000 0.031930 
#    y 0.000000 1.851200 0.000000 
#    z 0.031930 0.000000 1.863210 
# 
# From -- ./inp_files/5403.got.cif
#   From: 2010.05.17/outbox.cif.g08.bks.cpg/sg4_3_cif.got.tgz:5403.got - 2010.06.03 18:43:04.
