data_PCOD9119889
_publ_section_title
;
Structure prediction by ZEFSAII (Michael W. Deem and Ramdas Pophale) SiO2 
 PCOD9119889
Probable space group: P 21
;
_chemical_formula_sum "Si O2"
_cell_formula_units_Z 16
_cell_length_a 9.000000
_cell_length_b 9.000000
_cell_length_c 9.000000
_cell_angle_alpha 90.000000
_cell_angle_beta 120.000000
_cell_angle_gamma 90.000000
_cell_volume 631.332519
_symmetry_space_group_name_H-M "P 21"
_symmetry_group_IT_number 4
_symmetry_cell_setting 'monoclinic'
loop_
_space_group_symop_operation_xyz
x,y,z
-x,1/2+y,-z
loop_
_atom_site_type_symbol
_atom_site_label
_atom_site_fract_x
_atom_site_fract_y
_atom_site_fract_z
Si Si1 0.560747 0.078410 0.345971
Si Si2 0.380470 0.567170 0.110573
Si Si3 0.937015 0.033064 0.618986
Si Si4 0.107561 0.040804 0.409726
Si Si5 0.042418 0.765106 0.864236
Si Si6 0.460851 0.903908 0.547985
Si Si7 0.416164 0.241707 0.993775
Si Si8 0.964104 0.783545 0.153257
O O1 0.527653 0.228771 0.425212
O O2 0.524938 0.143717 0.165565
O O3 0.748721 0.006966 0.458354
O O4 0.447560 0.953564 0.369941
O O5 0.397453 0.495126 0.284303
O O6 0.422129 0.417055 0.035017
O O7 0.206324 0.656569 0.976302
O O8 0.523136 0.689388 0.137103
O O9 0.037012 0.101734 0.528797
O O10 0.044279 0.897295 0.743806
O O11 0.908745 0.155832 0.731110
O O12 0.283929 0.959696 0.529400
O O13 0.982985 0.915129 0.279597
O O14 0.107829 0.163204 0.280729
O O15 0.995571 0.831766 0.000830
O O16 0.219326 0.206749 0.926143
#
# Coordination Sequence:
#
# PCOD9119889 Si02
#       8
#     2   2   2   2   2   2   2   2
#     4  11  26  46  73 105 146 191 241 301 363 440
#     4  11  26  46  73 105 146 191 241 301 363 440
#     4  12  27  46  77 105 146 194 248 306 370 434
#     4  12  25  48  72 107 145 193 246 306 366 439
#     4  12  27  46  77 105 146 194 248 306 370 434
#     4  11  26  47  72 106 147 190 244 298 366 437
#     4  11  26  47  72 106 147 190 244 298 366 437
#     4  12  25  48  72 107 145 193 246 306 366 439
#
# _framework density 25.343222000000001
#
# number of rings (size 3 to 8) (size 9 to 14) (size 15 to 20)
#    0.000    0.500    2.500    4.500   10.500    1.000 
#    0.000    0.000    0.000    0.000    0.000    0.000 
#    0.000    0.000    0.000    0.000    0.000    0.000 
#
# Total GULP energy -89429.245876 kJ/mol
# GULP energy per Si atom -5589.327867 kJ/mol
# Density = 2.528554 g / cm^3
# Si number density = 25.343222 Si / 1000 Ang^3
#
#
#
# Elastic Constant Matrix: (Units=GPa)
#
#
# Indices 1 2 3 4 5 6 
#
# 1 67.0190 -0.6199 18.1784 0.0000 2.3928 0.0000
# 2 -0.6199 72.8338 45.3665 0.0000 -19.0285 0.0000
# 3 18.1784 45.3665 103.9544 0.0000 -1.6546 0.0000
# 4 0.0000 0.0000 0.0000 55.1743 0.0000 -2.8786
# 5 2.3928 -19.0285 -1.6546 0.0000 29.4131 0.0000
# 6 0.0000 0.0000 0.0000 -2.8786 0.0000 34.0775
#
#
#
# Elastic Compliance Matrix: (Units=1/GPa)
#
#
# Indices 1 2 3 4 5 6 
#
# 1 0.016011 0.002647 -0.003952 0.000000 0.000187 0.000000
# 2 0.002647 0.024458 -0.010898 0.000000 0.014994 0.000000
# 3 -0.003952 -0.010898 0.014973 0.000000 -0.005886 0.000000
# 4 0.000000 0.000000 0.000000 0.018205 0.000000 0.001538
# 5 0.000187 0.014994 -0.005886 0.000000 0.043353 0.000000
# 6 0.000000 0.000000 0.000000 0.001538 0.000000 0.029475
#
#
# Mechanical properties :
#
#
# Convention : Reuss Voigt Hill
#
# Bulk Modulus (GPa) = 32.22085 41.07302 36.64694
# Shear Modulus (GPa) = 27.59009 35.79180 31.69094
#
# Velocity S-wave (km/s) = 3.30306 3.76211 3.54004
# Velocity P-wave (km/s) = 5.22382 5.92564 5.58577
#
# Compressibility (1/GPa) = 0.03103581
#
# Stress axis : x y z
#
# Youngs Moduli (GPa) = 62.45757 40.88671 66.78753
#
# Poissons Ratio (x) = -0.10822 0.26394
# Poissons Ratio (y) = -0.16531 0.72784
# Poissons Ratio (z) = 0.24683 0.44557
#
# Static dielectric constant tensor:
#      x y z
#    x 2.011330 0.000000 0.046930 
#    y 0.000000 2.005460 0.000000 
#    z 0.046930 0.000000 2.018210 
# 
# From -- ./inp_files/5784.got.cif
#   From: 2010.05.17/outbox.ucp.g08.bks.cvg/sg4_3_cif.got.tgz:5784.got - 2010.06.11 12:51:24.
