data_PCOD9119047
_publ_section_title
;
Structure prediction by ZEFSAII (Michael W. Deem and Ramdas Pophale) SiO2 
 PCOD9119047
Probable space group: P 21
;
_chemical_formula_sum "Si O2"
_cell_formula_units_Z 16
_cell_length_a 21.941755
_cell_length_b 6.717616
_cell_length_c 13.965276
_cell_angle_alpha 90.000000
_cell_angle_beta 159.371271
_cell_angle_gamma 90.000000
_cell_volume 725.207375
_symmetry_space_group_name_H-M "P 21"
_symmetry_group_IT_number 4
_symmetry_cell_setting 'monoclinic'
loop_
_space_group_symop_operation_xyz
x,y,z
-x,1/2+y,-z
loop_
_atom_site_type_symbol
_atom_site_label
_atom_site_fract_x
_atom_site_fract_y
_atom_site_fract_z
Si Si1 0.473039 0.139310 0.843624
Si Si2 0.776154 0.863843 0.233502
Si Si3 0.004126 0.614687 0.317342
Si Si4 0.335862 0.331876 0.149537
Si Si5 0.252820 0.236651 0.344117
Si Si6 0.976719 0.394683 0.088120
Si Si7 0.266113 0.975334 0.712759
Si Si8 0.680746 0.093302 0.696863
O O1 0.398468 0.150323 0.627528
O O2 0.324715 0.081563 0.700848
O O3 0.569590 0.344756 0.010821
O O4 0.618772 0.969450 0.058691
O O5 0.785540 0.640125 0.285781
O O6 0.942666 0.991718 0.510013
O O7 0.729300 0.873734 0.053400
O O8 0.111417 0.819347 0.471172
O O9 0.053963 0.481863 0.299460
O O10 0.803428 0.670383 0.017177
O O11 0.524853 0.235881 0.435795
O O12 0.331632 0.524662 0.211360
O O13 0.325207 0.393735 0.375061
O O14 0.120705 0.347168 0.221654
O O15 0.149197 0.062700 0.139649
O O16 0.861451 0.203005 0.942872
#
# Coordination Sequence:
#
# PCOD9119047 Si02
#       8
#     2   2   2   2   2   2   2   2
#     4  11  24  42  74 105 139 185 237 298 376 436
#     4  11  26  47  71 104 144 191 239 304 365 442
#     4  11  28  45  71 107 142 192 245 296 372 433
#     4  12  28  49  75 101 149 201 247 295 364 443
#     4  12  26  44  76 110 146 192 244 310 374 442
#     4  12  26  48  74 112 146 190 247 312 381 437
#     4  11  24  46  71 107 142 183 239 304 373 437
#     4  12  28  51  72 108 150 196 252 309 359 444
#
# _framework density 22.062656
#
# number of rings (size 3 to 8) (size 9 to 14) (size 15 to 20)
#    0.000    0.500    3.750    3.000   10.500    1.000 
#    2.250    0.000    0.000    0.000    0.000    0.000 
#    0.000    0.000    0.000    0.000    0.000    0.000 
#
# Total GULP energy -89635.970147 kJ/mol
# GULP energy per Si atom -5602.248134 kJ/mol
# Density = 2.201244 g / cm^3
# Si number density = 22.062656 Si / 1000 Ang^3
#
#
#
# Elastic Constant Matrix: (Units=GPa)
#
#
# Indices 1 2 3 4 5 6 
#
# 1 71.0992 10.1127 10.0197 0.0000 -20.2596 0.0000
# 2 10.1127 62.4034 13.8781 0.0000 -11.0079 0.0000
# 3 10.0197 13.8781 69.7281 0.0000 -13.5332 0.0000
# 4 0.0000 0.0000 0.0000 37.8401 0.0000 -8.6247
# 5 -20.2596 -11.0079 -13.5332 0.0000 42.4480 0.0000
# 6 0.0000 0.0000 0.0000 -8.6247 0.0000 34.4629
#
#
#
# Elastic Compliance Matrix: (Units=1/GPa)
#
#
# Indices 1 2 3 4 5 6 
#
# 1 0.016416 -0.001217 -0.000701 0.000000 0.007296 0.000000
# 2 -0.001217 0.017360 -0.002685 0.000000 0.003065 0.000000
# 3 -0.000701 -0.002685 0.015751 0.000000 0.003991 0.000000
# 4 0.000000 0.000000 0.000000 0.028026 0.000000 0.007014
# 5 0.007296 0.003065 0.003991 0.000000 0.029108 0.000000
# 6 0.000000 0.000000 0.000000 0.007014 0.000000 0.030772
#
#
# Mechanical properties :
#
#
# Convention : Reuss Voigt Hill
#
# Bulk Modulus (GPa) = 24.80164 30.13906 27.47035
# Shear Modulus (GPa) = 31.23465 34.23155 32.73310
#
# Velocity S-wave (km/s) = 3.76669 3.94326 3.85599
# Velocity P-wave (km/s) = 5.49392 5.86709 5.68357
#
# Compressibility (1/GPa) = 0.04031991
#
# Stress axis : x y z
#
# Youngs Moduli (GPa) = 60.91739 57.60409 63.48740
#
# Poissons Ratio (x) = 0.07013 0.04448
# Poissons Ratio (y) = 0.07416 0.17049
# Poissons Ratio (z) = 0.04268 0.15469
#
# Static dielectric constant tensor:
#      x y z
#    x 1.796360 0.000000 0.005460 
#    y 0.000000 1.778360 0.000000 
#    z 0.005460 0.000000 1.798770 
# 
# From -- ./inp_files/9079.got.cif
#   From: 2010.05.17/outbox.cif.g08.bks.cpg/sg4_5_cif.got.tgz:9079.got - 2010.06.03 18:43:04.
