data_PCOD9119375
_publ_section_title
;
Structure prediction by ZEFSAII (Michael W. Deem and Ramdas Pophale) SiO2 
 PCOD9119375
Probable space group: P 21
;
_chemical_formula_sum "Si O2"
_cell_formula_units_Z 14
_cell_length_a 9.429057
_cell_length_b 12.187068
_cell_length_c 6.866994
_cell_angle_alpha 90.000000
_cell_angle_beta 44.535674
_cell_angle_gamma 90.000000
_cell_volume 553.440526
_symmetry_space_group_name_H-M "P 21"
_symmetry_group_IT_number 4
_symmetry_cell_setting 'monoclinic'
loop_
_space_group_symop_operation_xyz
x,y,z
-x,1/2+y,-z
loop_
_atom_site_type_symbol
_atom_site_label
_atom_site_fract_x
_atom_site_fract_y
_atom_site_fract_z
Si Si1 0.652762 0.353520 0.152044
Si Si2 0.218950 0.866782 0.404753
Si Si3 0.692951 0.685728 0.662428
Si Si4 0.983936 0.236204 0.112427
Si Si5 0.468357 0.549122 0.587685
Si Si6 0.017480 0.563680 0.165451
Si Si7 0.589110 0.744898 0.192135
O O1 0.459448 0.279096 0.272438
O O2 0.824313 0.294878 0.120390
O O3 0.554656 0.451990 0.370618
O O4 0.759605 0.386290 0.844869
O O5 0.110340 0.754159 0.582558
O O6 0.388657 0.080046 0.372349
O O7 0.075608 0.955169 0.649900
O O8 0.477842 0.654488 0.432751
O O9 0.928497 0.668097 0.375479
O O10 0.660267 0.688094 0.922968
O O11 0.028759 0.110243 0.006965
O O12 0.210140 0.284842 0.893420
O O13 0.556682 0.343376 0.730446
O O14 0.253689 0.544008 0.904299
#
# Coordination Sequence:
#
# PCOD9119375 Si02
#       7
#     2   2   2   2   2   2   2
#     4  11  27  52  81 113 161 210 269 326 399 475
#     4  11  27  52  76 116 154 209 269 325 400 470
#     4  11  25  48  77 114 157 206 265 323 394 470
#     4  12  26  48  80 116 153 209 261 334 392 473
#     4  12  25  48  79 116 155 207 260 336 394 471
#     4  12  26  47  81 114 157 206 269 325 399 468
#     4  11  26  49  80 111 163 203 265 325 398 473
#
# _framework density 25.296303999999999
#
# number of rings (size 3 to 8) (size 9 to 14) (size 15 to 20)
#    0.000    0.571    4.286    1.714    4.000    1.143 
#    0.000    0.000    6.286    0.000    0.000    0.000 
#    0.000    0.000    0.000    0.000    0.000    0.000 
#
# Total GULP energy -78131.370912 kJ/mol
# GULP energy per Si atom -5580.812208 kJ/mol
# Density = 2.523873 g / cm^3
# Si number density = 25.296304 Si / 1000 Ang^3
#
#
#
# Elastic Constant Matrix: (Units=GPa)
#
#
# Indices 1 2 3 4 5 6 
#
# 1 140.5683 52.7898 81.0272 0.0000 -2.8247 0.0000
# 2 52.7898 98.4876 81.3386 0.0000 -4.5339 0.0000
# 3 81.0272 81.3386 251.4172 0.0000 -5.6392 0.0000
# 4 0.0000 0.0000 0.0000 68.8032 0.0000 -13.8652
# 5 -2.8247 -4.5339 -5.6392 0.0000 37.8842 0.0000
# 6 0.0000 0.0000 0.0000 -13.8652 0.0000 22.7389
#
#
#
# Elastic Compliance Matrix: (Units=1/GPa)
#
#
# Indices 1 2 3 4 5 6 
#
# 1 0.009554 -0.003518 -0.001941 0.000000 0.000002 0.000000
# 2 -0.003518 0.015188 -0.003758 0.000000 0.000996 0.000000
# 3 -0.001941 -0.003758 0.005825 0.000000 0.000273 0.000000
# 4 0.000000 0.000000 0.000000 0.016570 0.000000 0.010104
# 5 0.000002 0.000996 0.000273 0.000000 0.026556 0.000000
# 6 0.000000 0.000000 0.000000 0.010104 0.000000 0.050138
#
#
# Mechanical properties :
#
#
# Convention : Reuss Voigt Hill
#
# Bulk Modulus (GPa) = 82.41180 102.30937 92.36059
# Shear Modulus (GPa) = 34.17411 44.23978 39.20694
#
# Velocity S-wave (km/s) = 3.67952 4.18648 3.94116
# Velocity P-wave (km/s) = 7.12047 7.99381 7.56975
#
# Compressibility (1/GPa) = 0.01213418
#
# Stress axis : x y z
#
# Youngs Moduli (GPa) = 104.66885 65.83978 171.68096
#
# Poissons Ratio (x) = 0.23162 0.33321
# Poissons Ratio (y) = 0.36822 0.64512
# Poissons Ratio (z) = 0.20315 0.24740
#
# Static dielectric constant tensor:
#      x y z
#    x 2.114190 0.000000 -0.081000 
#    y 0.000000 2.132140 0.000000 
#    z -0.081000 0.000000 2.047430 
# 
# From -- ./inp_files/1818.got.cif
#   From: 2010.05.17/outbox.cif.g08.bks.cpg/sg4_1_cif.got.tgz:1818.got - 2010.06.03 18:43:04.
