data_PCOD9119023
_publ_section_title
;
Structure prediction by ZEFSAII (Michael W. Deem and Ramdas Pophale) SiO2 
 PCOD9119023
Probable space group: P 21
;
_chemical_formula_sum "Si O2"
_cell_formula_units_Z 14
_cell_length_a 5.142788
_cell_length_b 6.922399
_cell_length_c 14.943899
_cell_angle_alpha 90.000000
_cell_angle_beta 96.428435
_cell_angle_gamma 90.000000
_cell_volume 528.664217
_symmetry_space_group_name_H-M "P 21"
_symmetry_group_IT_number 4
_symmetry_cell_setting 'monoclinic'
loop_
_space_group_symop_operation_xyz
x,y,z
-x,1/2+y,-z
loop_
_atom_site_type_symbol
_atom_site_label
_atom_site_fract_x
_atom_site_fract_y
_atom_site_fract_z
Si Si1 0.312281 0.157770 0.368687
Si Si2 0.255781 0.168117 0.750072
Si Si3 0.654752 0.035028 0.553427
Si Si4 0.693795 0.684784 0.949783
Si Si5 0.957956 0.864822 0.412198
Si Si6 0.251701 0.892210 0.202911
Si Si7 0.173414 0.914135 0.894212
O O1 0.459198 0.080520 0.464365
O O2 0.394128 0.381866 0.369824
O O3 0.370681 0.047134 0.278654
O O4 0.017156 0.075053 0.373038
O O5 0.246455 0.223308 0.644667
O O6 0.546282 0.216763 0.791932
O O7 0.169787 0.964991 0.788681
O O8 0.032259 0.316625 0.778197
O O9 0.785159 0.233476 0.587199
O O10 0.878880 0.911009 0.509338
O O11 0.748893 0.497771 0.891251
O O12 0.400918 0.761401 0.925031
O O13 0.751280 0.612600 0.051827
O O14 0.899034 0.841854 0.921905
#
# Coordination Sequence:
#
# PCOD9119023 Si02
#       7
#     2   2   2   2   2   2   2
#     4  11  24  40  65  93 133 175 231 283 342 396
#     4  11  24  45  68  97 137 176 221 280 338 396
#     4  12  22  42  62  94 126 182 228 286 334 410
#     4  12  25  45  72 104 136 176 221 270 335 405
#     4  11  24  40  65  93 133 175 231 283 342 396
#     4  11  24  45  68  97 137 176 221 280 338 396
#     4  12  25  45  72 104 136 176 221 270 335 405
#
# _framework density 26.481836999999999
#
# number of rings (size 3 to 8) (size 9 to 14) (size 15 to 20)
#    0.000    0.571    4.286    4.286    2.000    0.000 
#    5.143    0.000    0.000    0.000    0.000    0.000 
#    0.000    0.000    0.000    0.000    0.000    0.000 
#
# Total GULP energy -78330.621613 kJ/mol
# GULP energy per Si atom -5595.044401 kJ/mol
# Density = 2.642156 g / cm^3
# Si number density = 26.481837 Si / 1000 Ang^3
#
#
#
# Elastic Constant Matrix: (Units=GPa)
#
#
# Indices 1 2 3 4 5 6 
#
# 1 68.8188 -3.5416 -12.0877 0.0000 0.8980 0.0000
# 2 -3.5416 81.3637 -6.6911 0.0000 7.9336 0.0000
# 3 -12.0877 -6.6911 65.3218 0.0000 1.4193 0.0000
# 4 0.0000 0.0000 0.0000 50.1450 0.0000 6.6369
# 5 0.8980 7.9336 1.4193 0.0000 32.0617 0.0000
# 6 0.0000 0.0000 0.0000 6.6369 0.0000 50.0315
#
#
#
# Elastic Compliance Matrix: (Units=1/GPa)
#
#
# Indices 1 2 3 4 5 6 
#
# 1 0.015103 0.000974 0.002912 0.000000 -0.000793 0.000000
# 2 0.000974 0.012779 0.001560 0.000000 -0.003258 0.000000
# 3 0.002912 0.001560 0.016033 0.000000 -0.001177 0.000000
# 4 0.000000 0.000000 0.000000 0.020299 0.000000 -0.002693
# 5 -0.000793 -0.003258 -0.001177 0.000000 0.032071 0.000000
# 6 0.000000 0.000000 0.000000 -0.002693 0.000000 0.020345
#
#
# Mechanical properties :
#
#
# Convention : Reuss Voigt Hill
#
# Bulk Modulus (GPa) = 18.24592 18.98482 18.61537
# Shear Modulus (GPa) = 40.32084 42.30263 41.31173
#
# Velocity S-wave (km/s) = 3.90626 4.00111 3.95397
# Velocity P-wave (km/s) = 5.22017 5.34132 5.28109
#
# Compressibility (1/GPa) = 0.05480677
#
# Stress axis : x y z
#
# Youngs Moduli (GPa) = 66.21273 78.25389 62.37128
#
# Poissons Ratio (x) = -0.07623 -0.18161
# Poissons Ratio (y) = -0.06450 -0.09730
# Poissons Ratio (z) = -0.19280 -0.12208
#
# Static dielectric constant tensor:
#      x y z
#    x 2.083870 0.000000 0.004650 
#    y 0.000000 2.091490 0.000000 
#    z 0.004650 0.000000 2.151040 
# 
# From -- ./inp_files/3343.got.cif
#   From: 2010.05.17/outbox.cif.g08.bks.cpg/sg4_2_cif.got.tgz:3343.got - 2010.06.03 18:43:04.
