data_PCOD9119428
_publ_section_title
;
Structure prediction by ZEFSAII (Michael W. Deem and Ramdas Pophale) SiO2 
 PCOD9119428
Probable space group: P 21
;
_chemical_formula_sum "Si O2"
_cell_formula_units_Z 12
_cell_length_a 11.767888
_cell_length_b 5.124325
_cell_length_c 8.899752
_cell_angle_alpha 90.000000
_cell_angle_beta 67.144631
_cell_angle_gamma 90.000000
_cell_volume 494.541672
_symmetry_space_group_name_H-M "P 21"
_symmetry_group_IT_number 4
_symmetry_cell_setting 'monoclinic'
loop_
_space_group_symop_operation_xyz
x,y,z
-x,1/2+y,-z
loop_
_atom_site_type_symbol
_atom_site_label
_atom_site_fract_x
_atom_site_fract_y
_atom_site_fract_z
Si Si1 0.919546 0.942030 0.049586
Si Si2 0.208855 0.140855 0.634343
Si Si3 0.685547 0.997981 0.663549
Si Si4 0.070759 0.802358 0.514004
Si Si5 0.413650 0.036429 0.760061
Si Si6 0.325384 0.538351 0.982785
O O1 0.841674 0.879845 0.240348
O O2 0.977976 0.661487 0.981561
O O3 0.820772 0.037385 0.977497
O O4 0.256244 0.253198 0.452459
O O5 0.096832 0.944486 0.658763
O O6 0.319565 0.010319 0.669595
O O7 0.792919 0.213377 0.605087
O O8 0.557012 0.045618 0.644541
O O9 0.653288 0.974485 0.854690
O O10 0.009097 0.036905 0.449337
O O11 0.382838 0.307329 0.855779
O O12 0.383317 0.805677 0.892612
#
# Coordination Sequence:
#
# PCOD9119428 Si02
#       6
#     2   2   2   2   2   2
#     4  11  26  46  74 106 156 205 252 310 392 465
#     4  11  29  48  79 116 153 201 264 323 384 458
#     4  12  29  48  86 109 157 204 262 320 391 451
#     4  12  29  48  71 113 158 191 255 316 388 450
#     4  11  28  51  77 113 161 198 262 316 396 460
#     4  11  27  49  73 115 153 207 257 315 387 464
#
# _framework density 24.264890000000001
#
# number of rings (size 3 to 8) (size 9 to 14) (size 15 to 20)
#    0.000    0.667    1.667    3.000   16.333    1.333 
#    3.000    0.000    0.000    0.000    0.000    0.000 
#    0.000    0.000    0.000    0.000    0.000    0.000 
#
# Total GULP energy -67209.593661 kJ/mol
# GULP energy per Si atom -5600.799472 kJ/mol
# Density = 2.420966 g / cm^3
# Si number density = 24.264890 Si / 1000 Ang^3
#
#
#
# Elastic Constant Matrix: (Units=GPa)
#
#
# Indices 1 2 3 4 5 6 
#
# 1 163.4521 13.8665 18.5512 0.0000 -6.9563 0.0000
# 2 13.8665 380.2829 136.6937 0.0000 16.8505 0.0000
# 3 18.5512 136.6937 93.2501 0.0000 19.0360 0.0000
# 4 0.0000 0.0000 0.0000 30.2392 0.0000 13.8841
# 5 -6.9563 16.8505 19.0360 0.0000 41.8553 0.0000
# 6 0.0000 0.0000 0.0000 13.8841 0.0000 -10.0533
#
#
#
# Elastic Compliance Matrix: (Units=1/GPa)
#
#
# Indices 1 2 3 4 5 6 
#
# 1 0.006444 0.000600 -0.002569 0.000000 0.001998 0.000000
# 2 0.000600 0.005716 -0.008872 0.000000 0.001834 0.000000
# 3 -0.002569 -0.008872 0.026014 0.000000 -0.008686 0.000000
# 4 0.000000 0.000000 0.000000 0.020237 0.000000 0.027949
# 5 0.001998 0.001834 -0.008686 0.000000 0.027436 0.000000
# 6 0.000000 0.000000 0.000000 0.027949 0.000000 -0.060871
#
#
# Mechanical properties :
#
#
# Convention : Reuss Voigt Hill
#
# Bulk Modulus (GPa) = 60.64239 108.35645 84.49942
# Shear Modulus (GPa) = 95.86819 43.59982 69.73400
#
# Velocity S-wave (km/s) = 6.29244 4.24350 5.36666
# Velocity P-wave (km/s) = 8.82265 8.29230 8.56158
#
# Compressibility (1/GPa) = 0.01649011
#
# Stress axis : x y z
#
# Youngs Moduli (GPa) = 155.18921 174.95991 38.44118
#
# Poissons Ratio (x) = -0.10500 0.09877
# Poissons Ratio (y) = -0.09313 0.34106
# Poissons Ratio (z) = 0.39876 1.55227
#
# Static dielectric constant tensor:
#      x y z
#    x 1.981260 0.000000 0.006890 
#    y 0.000000 1.904780 0.000000 
#    z 0.006890 0.000000 1.976080 
# 
# From -- ./inp_files/7054.got.cif
#   From: 2010.05.17/outbox.cif.g08.bks.cpg/sg4_4_cif.got.tgz:7054.got - 2010.06.03 18:43:04.
