data_PCOD9119281
_publ_section_title
;
Structure prediction by ZEFSAII (Michael W. Deem and Ramdas Pophale) SiO2 
 PCOD9119281
Probable space group: P 21
;
_chemical_formula_sum "Si O2"
_cell_formula_units_Z 16
_cell_length_a 11.509681
_cell_length_b 11.803034
_cell_length_c 14.100165
_cell_angle_alpha 90.000000
_cell_angle_beta 20.488045
_cell_angle_gamma 90.000000
_cell_volume 670.446289
_symmetry_space_group_name_H-M "P 21"
_symmetry_group_IT_number 4
_symmetry_cell_setting 'monoclinic'
loop_
_space_group_symop_operation_xyz
x,y,z
-x,1/2+y,-z
loop_
_atom_site_type_symbol
_atom_site_label
_atom_site_fract_x
_atom_site_fract_y
_atom_site_fract_z
Si Si1 0.509482 0.645930 0.937781
Si Si2 0.518728 0.716334 0.425438
Si Si3 0.718725 0.190314 0.185152
Si Si4 0.745665 0.099251 0.554913
Si Si5 0.147770 0.431965 0.152964
Si Si6 0.624605 0.845766 0.707983
Si Si7 0.313189 0.764517 0.245448
Si Si8 0.430632 0.434818 0.741270
O O1 0.470907 0.763424 0.908061
O O2 0.868496 0.610030 0.705955
O O3 0.364411 0.545221 0.988361
O O4 0.271114 0.656450 0.210434
O O5 0.323829 0.723893 0.672707
O O6 0.335333 0.628845 0.492825
O O7 0.559219 0.838666 0.345770
O O8 0.906408 0.685964 0.141638
O O9 0.487929 0.273945 0.298642
O O10 0.615019 0.059874 0.263053
O O11 0.610813 0.210765 0.711717
O O12 0.583703 0.979874 0.713652
O O13 0.823446 0.438387 0.465094
O O14 0.360223 0.330562 0.033500
O O15 0.161423 0.410663 0.029060
O O16 0.002514 0.839867 0.456300
#
# Coordination Sequence:
#
# PCOD9119281 Si02
#       8
#     2   2   2   2   2   2   2   2
#     4  11  25  43  72 110 146 190 232 301 372 445
#     4  12  29  50  75 106 144 197 251 304 361 428
#     4  12  29  50  75 106 144 197 251 304 361 428
#     4  11  26  46  71 107 147 189 245 305 368 436
#     4  12  24  46  76 107 147 190 236 291 370 454
#     4  11  26  46  71 107 147 189 245 305 368 436
#     4  11  25  43  72 110 146 190 232 301 372 445
#     4  12  26  50  74 103 149 196 244 299 360 440
#
# _framework density 23.864699999999999
#
# number of rings (size 3 to 8) (size 9 to 14) (size 15 to 20)
#    0.000    0.500    3.750    3.000   12.250    0.000 
#    0.000    0.000    0.000    0.000    0.000    0.000 
#    0.000    0.000    0.000    0.000    0.000    0.000 
#
# Total GULP energy -89189.470579 kJ/mol
# GULP energy per Si atom -5574.341911 kJ/mol
# Density = 2.381038 g / cm^3
# Si number density = 23.864700 Si / 1000 Ang^3
#
#
#
# Elastic Constant Matrix: (Units=GPa)
#
#
# Indices 1 2 3 4 5 6 
#
# 1 116.5747 31.8389 -0.5630 0.0000 14.9665 0.0000
# 2 31.8389 126.4819 1.6972 0.0000 -9.8855 0.0000
# 3 -0.5630 1.6972 45.8646 0.0000 -0.8589 0.0000
# 4 0.0000 0.0000 0.0000 34.4482 0.0000 -13.4350
# 5 14.9665 -9.8855 -0.8589 0.0000 30.9493 0.0000
# 6 0.0000 0.0000 0.0000 -13.4350 0.0000 36.9405
#
#
#
# Elastic Compliance Matrix: (Units=1/GPa)
#
#
# Indices 1 2 3 4 5 6 
#
# 1 0.010157 -0.003017 0.000126 0.000000 -0.005872 0.000000
# 2 -0.003017 0.009008 -0.000289 0.000000 0.004328 0.000000
# 3 0.000126 -0.000289 0.021824 0.000000 0.000452 0.000000
# 4 0.000000 0.000000 0.000000 0.033827 0.000000 0.012303
# 5 -0.005872 0.004328 0.000452 0.000000 0.036545 0.000000
# 6 0.000000 0.000000 0.000000 0.012303 0.000000 0.031545
#
#
# Mechanical properties :
#
#
# Convention : Reuss Voigt Hill
#
# Bulk Modulus (GPa) = 28.87823 39.42972 34.15397
# Shear Modulus (GPa) = 31.09263 37.53082 34.31173
#
# Velocity S-wave (km/s) = 3.61345 3.96997 3.79590
# Velocity P-wave (km/s) = 5.43474 6.12962 5.79261
#
# Compressibility (1/GPa) = 0.03462816
#
# Stress axis : x y z
#
# Youngs Moduli (GPa) = 98.45660 111.01249 45.82107
#
# Poissons Ratio (x) = 0.33496 -0.00579
# Poissons Ratio (y) = 0.29708 0.01326
# Poissons Ratio (z) = -0.01244 0.03212
#
# Static dielectric constant tensor:
#      x y z
#    x 2.036780 0.000000 -0.016870 
#    y 0.000000 1.915560 0.000000 
#    z -0.016870 0.000000 1.998290 
# 
# From -- ./inp_files/1387.got.cif
#   From: 2010.05.17/outbox.cif.g08.bks.cpg/sg4_1_cif.got.tgz:1387.got - 2010.06.03 18:43:04.
