data_PCOD9119613
_publ_section_title
;
Structure prediction by ZEFSAII (Michael W. Deem and Ramdas Pophale) SiO2 
 PCOD9119613
Probable space group: P 21
;
_chemical_formula_sum "Si O2"
_cell_formula_units_Z 14
_cell_length_a 15.491845
_cell_length_b 5.657649
_cell_length_c 10.058327
_cell_angle_alpha 90.000000
_cell_angle_beta 143.541353
_cell_angle_gamma 90.000000
_cell_volume 523.876078
_symmetry_space_group_name_H-M "P 21"
_symmetry_group_IT_number 4
_symmetry_cell_setting 'monoclinic'
loop_
_space_group_symop_operation_xyz
x,y,z
-x,1/2+y,-z
loop_
_atom_site_type_symbol
_atom_site_label
_atom_site_fract_x
_atom_site_fract_y
_atom_site_fract_z
Si Si1 0.865417 0.837710 0.716415
Si Si2 0.375797 0.640625 0.511909
Si Si3 0.960864 0.328279 0.523455
Si Si4 0.696195 0.588579 0.271982
Si Si5 0.119890 0.140180 0.966258
Si Si6 0.409398 0.457819 0.047609
Si Si7 0.630161 0.325628 0.792148
O O1 0.778018 0.679297 0.504652
O O2 0.024196 0.901228 0.860831
O O3 0.779031 0.086587 0.617415
O O4 0.867268 0.738892 0.868513
O O5 0.475311 0.816290 0.717396
O O6 0.465007 0.396577 0.618565
O O7 0.360403 0.720191 0.342256
O O8 0.788197 0.364374 0.337566
O O9 0.005706 0.575242 0.505744
O O10 0.041119 0.310418 0.765290
O O11 0.524161 0.564585 0.084231
O O12 0.700616 0.787734 0.163933
O O13 0.272828 0.059698 0.095027
O O14 0.331046 0.640888 0.047270
#
# Coordination Sequence:
#
# PCOD9119613 Si02
#       7
#     2   2   2   2   2   2   2
#     4  12  25  51  80 121 164 215 284 348 424 513
#     4  12  24  49  78 117 161 208 277 348 423 500
#     4  12  31  57  85 122 173 224 282 355 424 517
#     4  12  28  52  80 116 163 220 282 349 428 503
#     4  12  28  49  84 124 163 220 276 351 429 502
#     4  12  28  50  79 117 161 218 282 351 425 511
#     4  12  26  48  80 123 163 215 281 350 423 508
#
# _framework density 26.723877999999999
#
# number of rings (size 3 to 8) (size 9 to 14) (size 15 to 20)
#    0.000    0.000    2.857    6.000    2.000    5.714 
#    0.000    0.000    0.000    0.000    0.000    0.000 
#    0.000    0.000    0.000    0.000    0.000    0.000 
#
# Total GULP energy -78619.576623 kJ/mol
# GULP energy per Si atom -5615.684044 kJ/mol
# Density = 2.666305 g / cm^3
# Si number density = 26.723878 Si / 1000 Ang^3
#
#
#
# Elastic Constant Matrix: (Units=GPa)
#
#
# Indices 1 2 3 4 5 6 
#
# 1 83.0078 38.1220 33.2344 0.0000 -9.2283 0.0000
# 2 38.1220 99.9160 49.2156 0.0000 -27.6832 0.0000
# 3 33.2344 49.2156 149.8079 0.0000 -35.0270 0.0000
# 4 0.0000 0.0000 0.0000 69.9431 0.0000 -3.6509
# 5 -9.2283 -27.6832 -35.0270 0.0000 52.3011 0.0000
# 6 0.0000 0.0000 0.0000 -3.6509 0.0000 71.2665
#
#
#
# Elastic Compliance Matrix: (Units=1/GPa)
#
#
# Indices 1 2 3 4 5 6 
#
# 1 0.015050 -0.005158 -0.001970 0.000000 -0.001394 0.000000
# 2 -0.005158 0.014619 -0.002445 0.000000 0.005190 0.000000
# 3 -0.001970 -0.002445 0.008930 0.000000 0.004339 0.000000
# 4 0.000000 0.000000 0.000000 0.014336 0.000000 0.000734
# 5 -0.001394 0.005190 0.004339 0.000000 0.024527 0.000000
# 6 0.000000 0.000000 0.000000 0.000734 0.000000 0.014069
#
#
# Mechanical properties :
#
#
# Convention : Reuss Voigt Hill
#
# Bulk Modulus (GPa) = 51.40701 63.76398 57.58549
# Shear Modulus (GPa) = 42.67656 52.84614 47.76135
#
# Velocity S-wave (km/s) = 4.00051 4.45172 4.23213
# Velocity P-wave (km/s) = 6.37314 7.09478 6.74362
#
# Compressibility (1/GPa) = 0.01945260
#
# Stress axis : x y z
#
# Youngs Moduli (GPa) = 66.44662 68.40596 111.98269
#
# Poissons Ratio (x) = 0.35283 0.22063
# Poissons Ratio (y) = 0.34272 0.27377
# Poissons Ratio (z) = 0.13091 0.16724
#
# Static dielectric constant tensor:
#      x y z
#    x 2.061000 0.000000 -0.005310 
#    y 0.000000 2.127700 0.000000 
#    z -0.005310 0.000000 2.021730 
# 
# From -- ./inp_files/9095.got.cif
#   From: 2010.05.17/outbox.cif.g08.bks.cpg/sg4_5_cif.got.tgz:9095.got - 2010.06.03 18:43:04.
