data_PCOD9119784
_publ_section_title
;
Structure prediction by ZEFSAII (Michael W. Deem and Ramdas Pophale) SiO2 
 PCOD9119784
Probable space group: P 21
;
_chemical_formula_sum "Si O2"
_cell_formula_units_Z 12
_cell_length_a 17.974506
_cell_length_b 5.126855
_cell_length_c 4.953969
_cell_angle_alpha 90.000000
_cell_angle_beta 92.896377
_cell_angle_gamma 90.000000
_cell_volume 455.938368
_symmetry_space_group_name_H-M "P 21"
_symmetry_group_IT_number 4
_symmetry_cell_setting 'monoclinic'
loop_
_space_group_symop_operation_xyz
x,y,z
-x,1/2+y,-z
loop_
_atom_site_type_symbol
_atom_site_label
_atom_site_fract_x
_atom_site_fract_y
_atom_site_fract_z
Si Si1 0.543756 0.188910 0.928477
Si Si2 0.332491 0.349921 0.861921
Si Si3 0.358849 0.004139 0.394374
Si Si4 0.123302 0.792117 0.066690
Si Si5 0.218306 0.681471 0.583387
Si Si6 0.989258 0.622596 0.686198
O O1 0.376612 0.203681 0.635267
O O2 0.497192 0.411566 0.071636
O O3 0.375703 0.617457 0.930914
O O4 0.335462 0.175667 0.129383
O O5 0.429403 0.823690 0.341217
O O6 0.252552 0.422471 0.725131
O O7 0.287725 0.837699 0.471813
O O8 0.178243 0.827047 0.824008
O O9 0.992558 0.879381 0.505412
O O10 0.163159 0.647417 0.322124
O O11 0.088917 0.054641 0.187248
O O12 0.947486 0.144514 0.073757
#
# Coordination Sequence:
#
# PCOD9119784 Si02
#       6
#     2   2   2   2   2   2
#     4  12  27  56  88 129 168 226 280 352 424 497
#     4  12  27  56  82 122 171 220 285 346 415 507
#     4  12  27  56  82 122 171 220 285 346 415 507
#     4  12  27  54  84 125 164 226 278 348 430 491
#     4  12  28  52  84 120 170 224 280 352 416 502
#     4  12  28  58  86 124 172 214 278 352 416 516
#
# _framework density 26.319348000000002
#
# number of rings (size 3 to 8) (size 9 to 14) (size 15 to 20)
#    0.000    0.000    3.333    6.000    0.000    1.333 
#   24.000    0.000    0.000    0.000    0.000    0.000 
#    0.000    0.000    0.000    0.000    0.000    0.000 
#
# Total GULP energy -67359.647846 kJ/mol
# GULP energy per Si atom -5613.303987 kJ/mol
# Density = 2.625944 g / cm^3
# Si number density = 26.319348 Si / 1000 Ang^3
#
#
#
# Elastic Constant Matrix: (Units=GPa)
#
#
# Indices 1 2 3 4 5 6 
#
# 1 88.2591 30.3681 40.4477 0.0000 -16.7556 0.0000
# 2 30.3681 139.7038 56.1030 0.0000 -4.4584 0.0000
# 3 40.4477 56.1030 192.5326 0.0000 -4.4427 0.0000
# 4 0.0000 0.0000 0.0000 49.7735 0.0000 -4.8685
# 5 -16.7556 -4.4584 -4.4427 0.0000 67.7202 0.0000
# 6 0.0000 0.0000 0.0000 -4.8685 0.0000 31.3543
#
#
#
# Elastic Compliance Matrix: (Units=1/GPa)
#
#
# Indices 1 2 3 4 5 6 
#
# 1 0.013610 -0.001971 -0.002214 0.000000 0.003092 0.000000
# 2 -0.001971 0.008402 -0.002036 0.000000 -0.000068 0.000000
# 3 -0.002214 -0.002036 0.006246 0.000000 -0.000272 0.000000
# 4 0.000000 0.000000 0.000000 0.020401 0.000000 0.003168
# 5 0.003092 -0.000068 -0.000272 0.000000 0.015509 0.000000
# 6 0.000000 0.000000 0.000000 0.003168 0.000000 0.032385
#
#
# Mechanical properties :
#
#
# Convention : Reuss Voigt Hill
#
# Bulk Modulus (GPa) = 63.22200 74.92589 69.07394
# Shear Modulus (GPa) = 43.75750 49.34137 46.54944
#
# Velocity S-wave (km/s) = 4.08187 4.33450 4.21008
# Velocity P-wave (km/s) = 6.80359 7.31986 7.06644
#
# Compressibility (1/GPa) = 0.01581728
#
# Stress axis : x y z
#
# Youngs Moduli (GPa) = 73.47581 119.02248 160.10521
#
# Poissons Ratio (x) = 0.23457 0.35440
# Poissons Ratio (y) = 0.14481 0.32594
# Poissons Ratio (z) = 0.16264 0.24230
#
# Static dielectric constant tensor:
#      x y z
#    x 2.105430 0.000000 -0.002870 
#    y 0.000000 2.049960 0.000000 
#    z -0.002870 0.000000 2.029060 
# 
# From -- ./inp_files/3935.got.cif
#   From: 2010.05.17/outbox.cif.g08.bks.cpg/sg4_2_cif.got.tgz:3935.got - 2010.06.03 18:43:04.
