data_PCOD9119333
_publ_section_title
;
Structure prediction by ZEFSAII (Michael W. Deem and Ramdas Pophale) SiO2 
 PCOD9119333
Probable space group: P 21
;
_chemical_formula_sum "Si O2"
_cell_formula_units_Z 16
_cell_length_a 9.171972
_cell_length_b 11.472100
_cell_length_c 6.729759
_cell_angle_alpha 90.000000
_cell_angle_beta 72.518167
_cell_angle_gamma 90.000000
_cell_volume 675.410879
_symmetry_space_group_name_H-M "P 21"
_symmetry_group_IT_number 4
_symmetry_cell_setting 'monoclinic'
loop_
_space_group_symop_operation_xyz
x,y,z
-x,1/2+y,-z
loop_
_atom_site_type_symbol
_atom_site_label
_atom_site_fract_x
_atom_site_fract_y
_atom_site_fract_z
Si Si1 0.855195 0.200870 0.932786
Si Si2 0.308795 0.163637 0.709516
Si Si3 0.242682 0.889094 0.699945
Si Si4 0.009085 0.836692 0.460311
Si Si5 0.792793 0.730582 0.841329
Si Si6 0.346883 0.599683 0.315259
Si Si7 0.934545 0.067650 0.280784
Si Si8 0.583964 0.828616 0.665532
O O1 0.965728 0.230514 0.702733
O O2 0.708585 0.155090 0.869589
O O3 0.833709 0.315235 0.085039
O O4 0.904742 0.100313 0.064975
O O5 0.488622 0.147904 0.688024
O O6 0.311824 0.254773 0.528920
O O7 0.247699 0.030313 0.716428
O O8 0.216542 0.225716 0.921649
O O9 0.164807 0.863763 0.518812
O O10 0.415792 0.842169 0.645974
O O11 0.892191 0.828603 0.692510
O O12 0.953480 0.937362 0.339403
O O13 0.619230 0.747892 0.841392
O O14 0.899214 0.622258 0.735559
O O15 0.212414 0.615374 0.536241
O O16 0.371278 0.460156 0.296873
#
# Coordination Sequence:
#
# PCOD9119333 Si02
#       8
#     2   2   2   2   2   2   2   2
#     4  12  24  45  73 105 151 199 250 299 391 446
#     4  11  26  46  76 110 150 200 253 310 383 455
#     4  11  25  50  77 108 153 202 245 311 390 445
#     4  12  26  47  72 111 149 194 253 315 374 448
#     4  12  25  46  71 110 147 188 256 308 363 452
#     4  11  25  47  72 109 152 197 252 314 373 453
#     4  12  26  45  74 109 148 199 245 315 375 444
#     4  11  25  46  75 108 150 195 252 314 373 451
#
# _framework density 23.689284000000001
#
# number of rings (size 3 to 8) (size 9 to 14) (size 15 to 20)
#    0.000    0.500    3.750    3.750    1.750    4.000 
#    2.250    5.000    0.000    0.000    0.000    0.000 
#    0.000    0.000    0.000    0.000    0.000    0.000 
#
# Total GULP energy -89269.523431 kJ/mol
# GULP energy per Si atom -5579.345214 kJ/mol
# Density = 2.363537 g / cm^3
# Si number density = 23.689284 Si / 1000 Ang^3
#
#
#
# Elastic Constant Matrix: (Units=GPa)
#
#
# Indices 1 2 3 4 5 6 
#
# 1 105.8336 34.3071 35.1166 0.0000 16.6859 0.0000
# 2 34.3071 53.9936 31.2291 0.0000 21.8460 0.0000
# 3 35.1166 31.2291 128.2824 0.0000 19.6033 0.0000
# 4 0.0000 0.0000 0.0000 23.2928 0.0000 10.5039
# 5 16.6859 21.8460 19.6033 0.0000 37.2636 0.0000
# 6 0.0000 0.0000 0.0000 10.5039 0.0000 41.2856
#
#
#
# Elastic Compliance Matrix: (Units=1/GPa)
#
#
# Indices 1 2 3 4 5 6 
#
# 1 0.012225 -0.006492 -0.001643 0.000000 -0.000804 0.000000
# 2 -0.006492 0.029844 -0.003543 0.000000 -0.012725 0.000000
# 3 -0.001643 -0.003543 0.009436 0.000000 -0.002151 0.000000
# 4 0.000000 0.000000 0.000000 0.048496 0.000000 -0.012338
# 5 -0.000804 -0.012725 -0.002151 0.000000 0.035787 0.000000
# 6 0.000000 0.000000 0.000000 -0.012338 0.000000 0.027361
#
#
# Mechanical properties :
#
#
# Convention : Reuss Voigt Hill
#
# Bulk Modulus (GPa) = 35.52697 54.37948 44.95322
# Shear Modulus (GPa) = 25.52454 32.86551 29.19502
#
# Velocity S-wave (km/s) = 3.28605 3.72877 3.51439
# Velocity P-wave (km/s) = 5.42468 6.44542 5.95695
#
# Compressibility (1/GPa) = 0.02814763
#
# Stress axis : x y z
#
# Youngs Moduli (GPa) = 81.79764 33.50774 105.97169
#
# Poissons Ratio (x) = 0.21754 0.17415
# Poissons Ratio (y) = 0.53105 0.37550
# Poissons Ratio (z) = 0.13442 0.11873
#
# Static dielectric constant tensor:
#      x y z
#    x 2.007220 0.000000 0.005560 
#    y 0.000000 1.944420 0.000000 
#    z 0.005560 0.000000 1.868330 
# 
# From -- ./inp_files/1406.got.cif
#   From: 2010.05.17/outbox.cif.g08.bks.cpg/sg4_1_cif.got.tgz:1406.got - 2010.06.03 18:43:04.
