data_PCOD9119033
_publ_section_title
;
Structure prediction by ZEFSAII (Michael W. Deem and Ramdas Pophale) SiO2 
 PCOD9119033
Probable space group: P 21
;
_chemical_formula_sum "Si O2"
_cell_formula_units_Z 12
_cell_length_a 5.162717
_cell_length_b 9.413768
_cell_length_c 11.751363
_cell_angle_alpha 90.000000
_cell_angle_beta 127.931041
_cell_angle_gamma 90.000000
_cell_volume 450.474351
_symmetry_space_group_name_H-M "P 21"
_symmetry_group_IT_number 4
_symmetry_cell_setting 'monoclinic'
loop_
_space_group_symop_operation_xyz
x,y,z
-x,1/2+y,-z
loop_
_atom_site_type_symbol
_atom_site_label
_atom_site_fract_x
_atom_site_fract_y
_atom_site_fract_z
Si Si1 0.416380 0.339290 0.480138
Si Si2 0.133458 0.223709 0.059473
Si Si3 0.781430 0.395565 0.164945
Si Si4 0.452085 0.476942 0.736764
Si Si5 0.574265 0.685043 0.190795
Si Si6 0.786465 0.571999 0.486152
O O1 0.495824 0.401709 0.626263
O O2 0.661045 0.412147 0.458889
O O3 0.443627 0.170971 0.497849
O O4 0.052235 0.378559 0.338616
O O5 0.451055 0.303855 0.095833
O O6 0.974635 0.328044 0.111105
O O7 0.250618 0.075278 0.145654
O O8 0.819186 0.187495 0.896928
O O9 0.671191 0.561419 0.128439
O O10 0.353954 0.352952 0.800041
O O11 0.142246 0.577672 0.635235
O O12 0.752803 0.634623 0.353065
#
# Coordination Sequence:
#
# PCOD9119033 Si02
#       6
#     2   2   2   2   2   2
#     4  11  24  41  74 111 147 205 260 327 391 467
#     4  12  28  52  77 114 159 212 264 327 403 480
#     4  12  26  48  79 110 157 208 264 327 396 476
#     4  11  25  48  75 112 157 205 270 328 395 480
#     4  11  27  49  78 114 159 210 268 329 405 482
#     4  11  24  46  75 111 157 202 270 326 402 469
#
# _framework density 26.638590000000001
#
# number of rings (size 3 to 8) (size 9 to 14) (size 15 to 20)
#    0.000    0.667    3.333    3.000    2.333    4.000 
#    3.000    0.000    0.000    0.000    0.000    0.000 
#    0.000    0.000    0.000    0.000    0.000    0.000 
#
# Total GULP energy -67257.526455 kJ/mol
# GULP energy per Si atom -5604.793871 kJ/mol
# Density = 2.657796 g / cm^3
# Si number density = 26.638590 Si / 1000 Ang^3
#
#
#
# Elastic Constant Matrix: (Units=GPa)
#
#
# Indices 1 2 3 4 5 6 
#
# 1 88.7675 29.8671 12.2753 0.0000 8.3454 0.0000
# 2 29.8671 123.2385 52.6197 0.0000 -13.2525 0.0000
# 3 12.2753 52.6197 135.1710 0.0000 26.7789 0.0000
# 4 0.0000 0.0000 0.0000 49.0792 0.0000 11.2450
# 5 8.3454 -13.2525 26.7789 0.0000 26.9165 0.0000
# 6 0.0000 0.0000 0.0000 11.2450 0.0000 44.6887
#
#
#
# Elastic Compliance Matrix: (Units=1/GPa)
#
#
# Indices 1 2 3 4 5 6 
#
# 1 0.013687 -0.005625 0.002909 0.000000 -0.009908 0.000000
# 2 -0.005625 0.015330 -0.009089 0.000000 0.018334 0.000000
# 3 0.002909 -0.009089 0.014619 0.000000 -0.019921 0.000000
# 4 0.000000 0.000000 0.000000 0.021622 0.000000 -0.005441
# 5 -0.009908 0.018334 -0.019921 0.000000 0.069070 0.000000
# 6 0.000000 0.000000 0.000000 -0.005441 0.000000 0.023746
#
#
# Mechanical properties :
#
#
# Convention : Reuss Voigt Hill
#
# Bulk Modulus (GPa) = 49.93317 59.63347 54.78332
# Shear Modulus (GPa) = 26.54524 40.96454 33.75489
#
# Velocity S-wave (km/s) = 3.16016 3.92572 3.56356
# Velocity P-wave (km/s) = 5.66576 6.55615 6.12715
#
# Compressibility (1/GPa) = 0.02002677
#
# Stress axis : x y z
#
# Youngs Moduli (GPa) = 73.06186 65.23189 68.40589
#
# Poissons Ratio (x) = 0.36691 -0.19902
# Poissons Ratio (y) = 0.41096 0.62175
# Poissons Ratio (z) = -0.21257 0.59290
#
# Static dielectric constant tensor:
#      x y z
#    x 2.076410 0.000000 -0.048720 
#    y 0.000000 2.061590 0.000000 
#    z -0.048720 0.000000 2.052090 
# 
# From -- ./inp_files/3595.got.cif
#   From: 2010.05.17/outbox.cif.g08.bks.cpg/sg4_2_cif.got.tgz:3595.got - 2010.06.03 18:43:04.
