data_PCOD9119565
_publ_section_title
;
Structure prediction by ZEFSAII (Michael W. Deem and Ramdas Pophale) SiO2 
 PCOD9119565
Probable space group: P 21
;
_chemical_formula_sum "Si O2"
_cell_formula_units_Z 10
_cell_length_a 15.336038
_cell_length_b 5.149855
_cell_length_c 5.210062
_cell_angle_alpha 90.000000
_cell_angle_beta 72.102342
_cell_angle_gamma 90.000000
_cell_volume 391.569342
_symmetry_space_group_name_H-M "P 21"
_symmetry_group_IT_number 4
_symmetry_cell_setting 'monoclinic'
loop_
_space_group_symop_operation_xyz
x,y,z
-x,1/2+y,-z
loop_
_atom_site_type_symbol
_atom_site_label
_atom_site_fract_x
_atom_site_fract_y
_atom_site_fract_z
Si Si1 0.813433 0.582980 0.343886
Si Si2 0.989210 0.007548 0.662175
Si Si3 0.786283 0.094347 0.044196
Si Si4 0.675585 0.733332 0.836011
Si Si5 0.558878 0.612673 0.438018
O O1 0.922857 0.555962 0.240645
O O2 0.770066 0.586785 0.668313
O O3 0.771123 0.349982 0.221368
O O4 0.787740 0.855109 0.241940
O O5 0.009526 0.204961 0.409678
O O6 0.889099 0.091522 0.841121
O O7 0.711608 0.014522 0.899071
O O8 0.615050 0.711345 0.635476
O O9 0.616713 0.625368 0.124056
O O10 0.522459 0.323087 0.517606
#
# Coordination Sequence:
#
# PCOD9119565 Si02
#       5
#     2   2   2   2   2
#     4  12  27  47  76 114 162 217 269 332 394 480
#     4  12  24  44  72 110 164 218 272 326 390 464
#     4  12  27  47  76 114 162 217 269 332 394 480
#     4  12  28  54  84 120 160 208 272 336 410 490
#     4  12  30  54  84 116 158 204 264 342 424 496
#
# _framework density 25.538259
#
# number of rings (size 3 to 8) (size 9 to 14) (size 15 to 20)
#    0.000    0.000    4.000    4.800    2.800    3.200 
#    0.000    0.000    0.000    0.000    0.000    0.000 
#    0.000    0.000    0.000    0.000    0.000    0.000 
#
# Total GULP energy -56084.945060 kJ/mol
# GULP energy per Si atom -5608.494506 kJ/mol
# Density = 2.548013 g / cm^3
# Si number density = 25.538259 Si / 1000 Ang^3
#
#
#
# Elastic Constant Matrix: (Units=GPa)
#
#
# Indices 1 2 3 4 5 6 
#
# 1 84.7158 -5.6627 27.8811 0.0000 11.8063 0.0000
# 2 -5.6627 90.8320 35.0154 0.0000 -2.8890 0.0000
# 3 27.8811 35.0154 176.2608 0.0000 -14.7037 0.0000
# 4 0.0000 0.0000 0.0000 42.4645 0.0000 3.2089
# 5 11.8063 -2.8890 -14.7037 0.0000 51.7076 0.0000
# 6 0.0000 0.0000 0.0000 3.2089 0.0000 50.0781
#
#
#
# Elastic Compliance Matrix: (Units=1/GPa)
#
#
# Indices 1 2 3 4 5 6 
#
# 1 0.013360 0.001786 -0.002780 0.000000 -0.003741 0.000000
# 2 0.001786 0.012161 -0.002741 0.000000 -0.000508 0.000000
# 3 -0.002780 -0.002741 0.006861 0.000000 0.002433 0.000000
# 4 0.000000 0.000000 0.000000 0.023664 0.000000 -0.001516
# 5 -0.003741 -0.000508 0.002433 0.000000 0.020857 0.000000
# 6 0.000000 0.000000 0.000000 -0.001516 0.000000 0.020066
#
#
# Mechanical properties :
#
#
# Convention : Reuss Voigt Hill
#
# Bulk Modulus (GPa) = 40.14266 51.80847 45.97556
# Shear Modulus (GPa) = 44.34896 48.48835 46.41865
#
# Velocity S-wave (km/s) = 4.17174 4.36208 4.26797
# Velocity P-wave (km/s) = 6.24158 6.76025 6.50609
#
# Compressibility (1/GPa) = 0.02491116
#
# Stress axis : x y z
#
# Youngs Moduli (GPa) = 74.85097 82.22986 145.76107
#
# Poissons Ratio (x) = -0.14683 0.40523
# Poissons Ratio (y) = -0.13365 0.39948
# Poissons Ratio (z) = 0.20809 0.22536
#
# Static dielectric constant tensor:
#      x y z
#    x 2.057030 0.000000 0.004430 
#    y 0.000000 1.965010 0.000000 
#    z 0.004430 0.000000 2.040050 
# 
# From -- ./inp_files/3352.got.cif
#   From: 2010.05.17/outbox.cif.g08.bks.cpg/sg4_2_cif.got.tgz:3352.got - 2010.06.03 18:43:04.
