data_PCOD9119318
_publ_section_title
;
Structure prediction by ZEFSAII (Michael W. Deem and Ramdas Pophale) SiO2 
 PCOD9119318
Probable space group: P 21
;
_chemical_formula_sum "Si O2"
_cell_formula_units_Z 16
_cell_length_a 6.528834
_cell_length_b 14.768059
_cell_length_c 7.862097
_cell_angle_alpha 90.000000
_cell_angle_beta 119.059260
_cell_angle_gamma 90.000000
_cell_volume 662.624381
_symmetry_space_group_name_H-M "P 21"
_symmetry_group_IT_number 4
_symmetry_cell_setting 'monoclinic'
loop_
_space_group_symop_operation_xyz
x,y,z
-x,1/2+y,-z
loop_
_atom_site_type_symbol
_atom_site_label
_atom_site_fract_x
_atom_site_fract_y
_atom_site_fract_z
Si Si1 0.246325 0.858800 0.213761
Si Si2 0.063636 0.036051 0.582761
Si Si3 0.231922 0.333417 0.093334
Si Si4 0.442485 0.159142 0.160049
Si Si5 0.572216 0.022860 0.922033
Si Si6 0.898464 0.223058 0.544020
Si Si7 0.761472 0.854495 0.514402
Si Si8 0.056613 0.060452 0.188103
O O1 0.176610 0.795983 0.345452
O O2 0.524119 0.857122 0.307470
O O3 0.174603 0.963074 0.206842
O O4 0.050375 0.828123 0.999467
O O5 0.343645 0.021474 0.710911
O O6 0.000436 0.058737 0.363590
O O7 0.998441 0.127920 0.656152
O O8 0.913793 0.947554 0.571343
O O9 0.330578 0.247984 0.031179
O O10 0.327745 0.421139 0.032295
O O11 0.317013 0.341129 0.321852
O O12 0.673949 0.193363 0.344949
O O13 0.250665 0.132570 0.221840
O O14 0.482222 0.073911 0.054121
O O15 0.818195 0.074169 0.983741
O O16 0.081928 0.273658 0.495671
#
# Coordination Sequence:
#
# PCOD9119318 Si02
#       8
#     2   2   2   2   2   2   2   2
#     4  11  25  46  70 103 144 190 243 292 364 427
#     4  12  25  45  75 104 146 191 239 296 367 430
#     4  11  26  48  74 107 145 193 242 294 368 427
#     4  12  25  50  75 105 150 188 245 305 351 430
#     4  11  27  47  71 109 147 186 243 300 361 428
#     4  12  25  47  72 108 143 193 242 298 363 430
#     4  12  26  49  72 105 151 186 238 306 357 429
#     4  11  25  48  71 105 142 191 240 299 357 423
#
# _framework density 24.146409999999999
#
# number of rings (size 3 to 8) (size 9 to 14) (size 15 to 20)
#    0.000    0.500    3.750    3.750    3.500    1.000 
#    2.250    0.000    0.000    0.000    0.000    0.000 
#    0.000    0.000    0.000    0.000    0.000    0.000 
#
# Total GULP energy -89451.120272 kJ/mol
# GULP energy per Si atom -5590.695017 kJ/mol
# Density = 2.409145 g / cm^3
# Si number density = 24.146410 Si / 1000 Ang^3
#
#
#
# Elastic Constant Matrix: (Units=GPa)
#
#
# Indices 1 2 3 4 5 6 
#
# 1 108.1953 59.8375 41.5622 0.0000 33.9811 0.0000
# 2 59.8375 126.4534 22.3430 0.0000 14.7340 0.0000
# 3 41.5622 22.3430 84.5630 0.0000 42.3969 0.0000
# 4 0.0000 0.0000 0.0000 27.4792 0.0000 5.3626
# 5 33.9811 14.7340 42.3969 0.0000 61.2580 0.0000
# 6 0.0000 0.0000 0.0000 5.3626 0.0000 52.4013
#
#
#
# Elastic Compliance Matrix: (Units=1/GPa)
#
#
# Indices 1 2 3 4 5 6 
#
# 1 0.015497 -0.006147 -0.003712 0.000000 -0.004549 0.000000
# 2 -0.006147 0.010755 -0.000357 0.000000 0.001070 0.000000
# 3 -0.003712 -0.000357 0.019401 0.000000 -0.011282 0.000000
# 4 0.000000 0.000000 0.000000 0.037133 0.000000 -0.003800
# 5 -0.004549 0.001070 -0.011282 0.000000 0.026399 0.000000
# 6 0.000000 0.000000 0.000000 -0.003800 0.000000 0.019472
#
#
# Mechanical properties :
#
#
# Convention : Reuss Voigt Hill
#
# Bulk Modulus (GPa) = 39.64929 62.96635 51.30782
# Shear Modulus (GPa) = 31.74691 41.25897 36.50294
#
# Velocity S-wave (km/s) = 3.62991 4.13813 3.89232
# Velocity P-wave (km/s) = 5.83304 6.99754 6.44166
#
# Compressibility (1/GPa) = 0.02522113
#
# Stress axis : x y z
#
# Youngs Moduli (GPa) = 64.52962 92.97768 51.54449
#
# Poissons Ratio (x) = 0.57155 0.19132
# Poissons Ratio (y) = 0.39668 0.01840
# Poissons Ratio (z) = 0.23951 0.03319
#
# Static dielectric constant tensor:
#      x y z
#    x 1.934540 0.000000 0.036540 
#    y 0.000000 1.945570 0.000000 
#    z 0.036540 0.000000 1.945100 
# 
# From -- ./inp_files/4804.got.cif
#   From: 2010.05.17/outbox.cif.g08.bks.cpg/sg4_3_cif.got.tgz:4804.got - 2010.06.03 18:43:04.
