data_PCOD9119681
_publ_section_title
;
Structure prediction by ZEFSAII (Michael W. Deem and Ramdas Pophale) SiO2 
 PCOD9119681
Probable space group: P 21
;
_chemical_formula_sum "Si O2"
_cell_formula_units_Z 16
_cell_length_a 9.332816
_cell_length_b 7.833792
_cell_length_c 9.109605
_cell_angle_alpha 90.000000
_cell_angle_beta 79.901764
_cell_angle_gamma 90.000000
_cell_volume 655.697897
_symmetry_space_group_name_H-M "P 21"
_symmetry_group_IT_number 4
_symmetry_cell_setting 'monoclinic'
loop_
_space_group_symop_operation_xyz
x,y,z
-x,1/2+y,-z
loop_
_atom_site_type_symbol
_atom_site_label
_atom_site_fract_x
_atom_site_fract_y
_atom_site_fract_z
Si Si1 0.288915 0.404310 0.468588
Si Si2 0.797411 0.475927 0.772682
Si Si3 0.159645 0.953542 0.570594
Si Si4 0.710983 0.045418 0.053941
Si Si5 0.572290 0.676245 0.021420
Si Si6 0.132011 0.577980 0.246877
Si Si7 0.433834 0.102608 0.632225
Si Si8 0.896388 0.091020 0.298388
O O1 0.230899 0.434186 0.312422
O O2 0.370467 0.256300 0.544129
O O3 0.408465 0.554593 0.455715
O O4 0.141672 0.440365 0.583086
O O5 0.801155 0.522240 0.598663
O O6 0.803881 0.270121 0.755577
O O7 0.950179 0.550653 0.802544
O O8 0.672639 0.558512 0.896241
O O9 0.103769 0.761032 0.603983
O O10 0.311205 0.960645 0.629293
O O11 0.031633 0.064708 0.666094
O O12 0.639272 0.862774 0.033986
O O13 0.766742 0.084255 0.205075
O O14 0.585924 0.176281 0.025980
O O15 0.853868 0.045274 0.927351
O O16 0.555355 0.619609 0.194109
#
# Coordination Sequence:
#
# PCOD9119681 Si02
#       8
#     2   2   2   2   2   2   2   2
#     4  12  25  50  75 110 150 201 257 308 378 447
#     4  12  27  48  77 110 156 196 254 316 381 453
#     4  12  27  47  78 112 148 201 256 316 377 451
#     4  12  29  48  77 107 158 202 252 315 382 460
#     4  12  29  50  74 111 154 202 250 316 388 448
#     4  12  27  48  77 109 153 201 253 311 381 449
#     4  12  29  47  78 111 151 200 257 313 380 457
#     4  12  27  48  78 110 152 205 253 313 379 455
#
# _framework density 24.401482000000001
#
# number of rings (size 3 to 8) (size 9 to 14) (size 15 to 20)
#    0.000    0.000    5.000    3.000   10.500    0.000 
#    0.000    0.000    0.000    0.000    0.000    0.000 
#    0.000    0.000    0.000    0.000    0.000    0.000 
#
# Total GULP energy -89387.978497 kJ/mol
# GULP energy per Si atom -5586.748656 kJ/mol
# Density = 2.434594 g / cm^3
# Si number density = 24.401482 Si / 1000 Ang^3
#
#
#
# Elastic Constant Matrix: (Units=GPa)
#
#
# Indices 1 2 3 4 5 6 
#
# 1 92.9382 16.9627 44.4321 0.0000 -2.4123 0.0000
# 2 16.9627 79.8659 36.9146 0.0000 -9.8766 0.0000
# 3 44.4321 36.9146 141.7881 0.0000 -0.4382 0.0000
# 4 0.0000 0.0000 0.0000 23.9612 0.0000 1.3218
# 5 -2.4123 -9.8766 -0.4382 0.0000 49.0758 0.0000
# 6 0.0000 0.0000 0.0000 1.3218 0.0000 40.2268
#
#
#
# Elastic Compliance Matrix: (Units=1/GPa)
#
#
# Indices 1 2 3 4 5 6 
#
# 1 0.012731 -0.000921 -0.003748 0.000000 0.000407 0.000000
# 2 -0.000921 0.014705 -0.003531 0.000000 0.002883 0.000000
# 3 -0.003748 -0.003531 0.009144 0.000000 -0.000813 0.000000
# 4 0.000000 0.000000 0.000000 0.041810 0.000000 -0.001374
# 5 0.000407 0.002883 -0.000813 0.000000 0.020970 0.000000
# 6 0.000000 0.000000 0.000000 -0.001374 0.000000 0.024904
#
#
# Mechanical properties :
#
#
# Convention : Reuss Voigt Hill
#
# Bulk Modulus (GPa) = 49.55592 56.80121 53.17857
# Shear Modulus (GPa) = 33.92351 37.07161 35.49756
#
# Velocity S-wave (km/s) = 3.73261 3.90197 3.81823
# Velocity P-wave (km/s) = 6.23933 6.60521 6.42487
#
# Compressibility (1/GPa) = 0.02017923
#
# Stress axis : x y z
#
# Youngs Moduli (GPa) = 78.55149 68.00353 109.35938
#
# Poissons Ratio (x) = 0.06263 0.40991
# Poissons Ratio (y) = 0.07235 0.38614
# Poissons Ratio (z) = 0.29444 0.24012
#
# Static dielectric constant tensor:
#      x y z
#    x 1.910860 0.000000 0.009410 
#    y 0.000000 2.060070 0.000000 
#    z 0.009410 0.000000 1.901040 
# 
# From -- ./inp_files/5600.got.cif
#   From: 2010.05.17/outbox.cif.g08.bks.cpg/sg4_3_cif.got.tgz:5600.got - 2010.06.03 18:43:04.
