data_PCOD9119690
_publ_section_title
;
Structure prediction by ZEFSAII (Michael W. Deem and Ramdas Pophale) SiO2 
 PCOD9119690
Probable space group: P 21
;
_chemical_formula_sum "Si O2"
_cell_formula_units_Z 16
_cell_length_a 8.297113
_cell_length_b 8.902034
_cell_length_c 11.545005
_cell_angle_alpha 90.000000
_cell_angle_beta 46.711344
_cell_angle_gamma 90.000000
_cell_volume 620.707777
_symmetry_space_group_name_H-M "P 21"
_symmetry_group_IT_number 4
_symmetry_cell_setting 'monoclinic'
loop_
_space_group_symop_operation_xyz
x,y,z
-x,1/2+y,-z
loop_
_atom_site_type_symbol
_atom_site_label
_atom_site_fract_x
_atom_site_fract_y
_atom_site_fract_z
Si Si1 0.422241 0.278490 0.053465
Si Si2 0.492125 0.133211 0.632025
Si Si3 0.074224 0.304537 0.593714
Si Si4 0.791442 0.466229 0.915866
Si Si5 0.405427 0.414232 0.824929
Si Si6 0.833118 0.998512 0.653795
Si Si7 0.431209 0.692536 0.658778
Si Si8 0.102905 0.949317 0.881510
O O1 0.249625 0.387376 0.204091
O O2 0.334985 0.110406 0.077900
O O3 0.641627 0.318242 0.016929
O O4 0.512233 0.341174 0.885730
O O5 0.435708 0.297583 0.706425
O O6 0.614037 0.133596 0.448985
O O7 0.633415 0.057066 0.667342
O O8 0.252941 0.056673 0.729028
O O9 0.018261 0.397258 0.504344
O O10 0.338465 0.282459 0.466606
O O11 0.987375 0.404163 0.741598
O O12 0.957966 0.142679 0.641804
O O13 0.864643 0.516656 0.006136
O O14 0.478122 0.569666 0.733984
O O15 0.156869 0.431083 0.996419
O O16 0.224423 0.792064 0.799293
#
# Coordination Sequence:
#
# PCOD9119690 Si02
#       8
#     2   2   2   2   2   2   2   2
#     4  12  26  49  77 113 151 201 256 316 372 454
#     4  12  25  53  70 111 151 198 248 316 378 443
#     4  12  28  48  76 113 152 200 250 312 388 451
#     4  12  26  48  79 108 156 198 257 313 375 452
#     4  12  28  46  78 110 147 200 258 306 376 458
#     4  12  28  49  75 112 152 200 249 313 386 452
#     4  12  29  47  78 107 155 196 254 316 379 452
#     4  12  26  50  73 110 146 203 252 310 380 440
#
# _framework density 25.777028000000001
#
# number of rings (size 3 to 8) (size 9 to 14) (size 15 to 20)
#    0.000    0.000    3.750    4.500   12.250    1.000 
#    0.000    0.000    0.000    0.000    0.000    0.000 
#    0.000    0.000    0.000    0.000    0.000    0.000 
#
# Total GULP energy -89616.893283 kJ/mol
# GULP energy per Si atom -5601.055830 kJ/mol
# Density = 2.571836 g / cm^3
# Si number density = 25.777028 Si / 1000 Ang^3
#
#
#
# Elastic Constant Matrix: (Units=GPa)
#
#
# Indices 1 2 3 4 5 6 
#
# 1 67.3379 17.0214 18.7214 0.0000 6.4841 0.0000
# 2 17.0214 136.0181 57.2640 0.0000 6.9600 0.0000
# 3 18.7214 57.2640 139.1666 0.0000 16.5322 0.0000
# 4 0.0000 0.0000 0.0000 61.7602 0.0000 -6.2014
# 5 6.4841 6.9600 16.5322 0.0000 44.8740 0.0000
# 6 0.0000 0.0000 0.0000 -6.2014 0.0000 26.4180
#
#
#
# Elastic Compliance Matrix: (Units=1/GPa)
#
#
# Indices 1 2 3 4 5 6 
#
# 1 0.015717 -0.001300 -0.001395 0.000000 -0.001556 0.000000
# 2 -0.001300 0.009000 -0.003540 0.000000 0.000096 0.000000
# 3 -0.001395 -0.003540 0.009141 0.000000 -0.002617 0.000000
# 4 0.000000 0.000000 0.000000 0.016583 0.000000 0.003893
# 5 -0.001556 0.000096 -0.002617 0.000000 0.023459 0.000000
# 6 0.000000 0.000000 0.000000 0.003893 0.000000 0.038767
#
#
# Mechanical properties :
#
#
# Convention : Reuss Voigt Hill
#
# Bulk Modulus (GPa) = 46.75427 58.72626 52.74026
# Shear Modulus (GPa) = 37.80331 43.24484 40.52407
#
# Velocity S-wave (km/s) = 3.83371 4.10036 3.96927
# Velocity P-wave (km/s) = 6.14604 6.72674 6.44294
#
# Compressibility (1/GPa) = 0.02138842
#
# Stress axis : x y z
#
# Youngs Moduli (GPa) = 63.62693 111.11093 109.40111
#
# Poissons Ratio (x) = 0.14445 0.15256
# Poissons Ratio (y) = 0.08272 0.38726
# Poissons Ratio (z) = 0.08873 0.39331
#
# Static dielectric constant tensor:
#      x y z
#    x 2.140230 0.000000 -0.029740 
#    y 0.000000 2.059350 0.000000 
#    z -0.029740 0.000000 1.986380 
# 
# From -- ./inp_files/11009.got.cif
#   From: 2010.05.17/outbox.cif.g08.bks.cpg/sg4_6_cif.got.tgz:11009.got - 2010.06.03 18:43:04.
