data_PCOD9119487
_publ_section_title
;
Structure prediction by ZEFSAII (Michael W. Deem and Ramdas Pophale) SiO2 
 PCOD9119487
Probable space group: P 21
;
_chemical_formula_sum "Si O2"
_cell_formula_units_Z 16
_cell_length_a 11.752255
_cell_length_b 11.250469
_cell_length_c 6.708941
_cell_angle_alpha 90.000000
_cell_angle_beta 54.904291
_cell_angle_gamma 90.000000
_cell_volume 725.774070
_symmetry_space_group_name_H-M "P 21"
_symmetry_group_IT_number 4
_symmetry_cell_setting 'monoclinic'
loop_
_space_group_symop_operation_xyz
x,y,z
-x,1/2+y,-z
loop_
_atom_site_type_symbol
_atom_site_label
_atom_site_fract_x
_atom_site_fract_y
_atom_site_fract_z
Si Si1 0.232546 0.334330 0.165608
Si Si2 0.984538 0.820872 0.948871
Si Si3 0.490439 0.819003 0.345973
Si Si4 0.145354 0.148322 0.588293
Si Si5 0.853177 0.483745 0.904574
Si Si6 0.090245 0.562086 0.413348
Si Si7 0.790366 0.297760 0.619828
Si Si8 0.604113 0.572776 0.404895
O O1 0.180059 0.227222 0.358290
O O2 0.187892 0.449326 0.334695
O O3 0.153917 0.353451 0.034482
O O4 0.390744 0.326246 0.941806
O O5 0.087437 0.791900 0.664518
O O6 0.080187 0.907054 0.985769
O O7 0.923597 0.726251 0.168086
O O8 0.348284 0.804304 0.367967
O O9 0.522711 0.697321 0.441615
O O10 0.477822 0.947279 0.475551
O O11 0.289818 0.093218 0.517068
O O12 0.021854 0.059174 0.652802
O O13 0.811485 0.400349 0.760929
O O14 0.984263 0.561886 0.705332
O O15 0.715484 0.551026 0.114603
O O16 0.187850 0.674574 0.286284
#
# Coordination Sequence:
#
# PCOD9119487 Si02
#       8
#     2   2   2   2   2   2   2   2
#     4  12  26  46  72 112 153 195 259 311 387 457
#     4  12  20  48  76 106 144 200 262 312 380 456
#     4  12  30  50  74 114 156 208 252 312 392 476
#     4  12  24  47  77 110 151 200 252 331 382 444
#     4  12  24  47  77 110 151 200 252 331 382 444
#     4  12  22  42  76 112 142 198 256 320 378 448
#     4  12  26  46  72 112 153 195 259 311 387 457
#     4  12  28  50  80 108 160 206 256 312 394 460
#
# _framework density 22.045428000000001
#
# number of rings (size 3 to 8) (size 9 to 14) (size 15 to 20)
#    0.000    0.000    7.500    3.000    0.000    7.000 
#    0.000    0.000    0.000    0.000    0.000    0.000 
#    0.000    0.000    0.000    0.000    0.000    0.000 
#
# Total GULP energy -89316.001330 kJ/mol
# GULP energy per Si atom -5582.250083 kJ/mol
# Density = 2.199525 g / cm^3
# Si number density = 22.045428 Si / 1000 Ang^3
#
#
#
# Elastic Constant Matrix: (Units=GPa)
#
#
# Indices 1 2 3 4 5 6 
#
# 1 56.7089 41.7222 -22.1153 0.0000 10.5831 0.0000
# 2 41.7222 144.1064 28.9216 0.0000 -1.3510 0.0000
# 3 -22.1153 28.9216 59.4805 0.0000 4.2624 0.0000
# 4 0.0000 0.0000 0.0000 22.8171 0.0000 -2.6689
# 5 10.5831 -1.3510 4.2624 0.0000 34.8683 0.0000
# 6 0.0000 0.0000 0.0000 -2.6689 0.0000 31.9654
#
#
#
# Elastic Compliance Matrix: (Units=1/GPa)
#
#
# Indices 1 2 3 4 5 6 
#
# 1 0.045484 -0.018824 0.027346 0.000000 -0.017877 0.000000
# 2 -0.018824 0.015501 -0.015121 0.000000 0.008163 0.000000
# 3 0.027346 -0.015121 0.035278 0.000000 -0.013198 0.000000
# 4 0.000000 0.000000 0.000000 0.044259 0.000000 0.003695
# 5 -0.017877 0.008163 -0.013198 0.000000 0.036035 0.000000
# 6 0.000000 0.000000 0.000000 0.003695 0.000000 0.031592
#
#
# Mechanical properties :
#
#
# Convention : Reuss Voigt Hill
#
# Bulk Modulus (GPa) = 12.03912 39.70586 25.87249
# Shear Modulus (GPa) = 20.07742 32.04798 26.06270
#
# Velocity S-wave (km/s) = 3.02110 3.81691 3.44208
# Velocity P-wave (km/s) = 4.20028 6.12169 5.24964
#
# Compressibility (1/GPa) = 0.08306256
#
# Stress axis : x y z
#
# Youngs Moduli (GPa) = 21.98575 64.51331 28.34654
#
# Poissons Ratio (x) = 1.21443 -0.77515
# Poissons Ratio (y) = 0.41387 0.42863
# Poissons Ratio (z) = -0.60121 0.97551
#
# Static dielectric constant tensor:
#      x y z
#    x 1.784240 0.000000 0.026400 
#    y 0.000000 1.930980 0.000000 
#    z 0.026400 0.000000 1.820880 
# 
# From -- ./inp_files/2808.got.cif
#   From: 2010.05.17/outbox.cif.g08.bks.cpg/sg4_2_cif.got.tgz:2808.got - 2010.06.03 18:43:04.
