data_PCOD9119839
_publ_section_title
;
Structure prediction by ZEFSAII (Michael W. Deem and Ramdas Pophale) SiO2 
 PCOD9119839
Probable space group: P 21
;
_chemical_formula_sum "Si O2"
_cell_formula_units_Z 16
_cell_length_a 9.000000
_cell_length_b 18.000000
_cell_length_c 9.000000
_cell_angle_alpha 90.000000
_cell_angle_beta 150.000000
_cell_angle_gamma 90.000000
_cell_volume 729.000000
_symmetry_space_group_name_H-M "P 21"
_symmetry_group_IT_number 4
_symmetry_cell_setting 'monoclinic'
loop_
_space_group_symop_operation_xyz
x,y,z
-x,1/2+y,-z
loop_
_atom_site_type_symbol
_atom_site_label
_atom_site_fract_x
_atom_site_fract_y
_atom_site_fract_z
Si Si1 0.527044 0.591020 0.821119
Si Si2 0.420814 0.983687 0.392423
Si Si3 0.927087 0.016850 0.337170
Si Si4 0.000433 0.372527 0.774552
Si Si5 0.742195 0.239261 0.851158
Si Si6 0.246177 0.345464 0.294930
Si Si7 0.477048 0.585733 0.239541
Si Si8 0.046460 0.698753 0.270897
O O1 0.667804 0.528915 0.832205
O O2 0.300853 0.547028 0.735721
O O3 0.328921 0.650268 0.559635
O O4 0.776930 0.648027 0.098977
O O5 0.690974 0.927363 0.586700
O O6 0.212430 0.924579 0.302690
O O7 0.494074 0.047453 0.575185
O O8 0.254741 0.052983 0.629373
O O9 0.934083 0.928217 0.306348
O O10 0.814662 0.052319 0.086132
O O11 0.933053 0.286824 0.666432
O O12 0.245767 0.356221 0.114904
O O13 0.497750 0.286947 0.554143
O O14 0.577975 0.174096 0.798667
O O15 0.952610 0.201198 0.908743
O O16 0.949948 0.304195 0.098302
#
# Coordination Sequence:
#
# PCOD9119839 Si02
#       8
#     2   2   2   2   2   2   2   2
#     4  12  27  42  67 100 139 170 218 279 335 384
#     4  11  23  39  67 102 127 167 222 280 325 382
#     4  11  25  45  64  96 134 178 220 263 329 405
#     4  10  23  41  70  93 128 177 228 261 328 406
#     4  11  22  37  66 100 126 160 219 282 320 377
#     4  11  20  38  61 101 129 158 216 277 329 375
#     4  11  23  41  68  92 128 171 224 267 321 393
#     4  11  23  41  67  98 133 171 221 273 335 390
#
# _framework density 21.947873999999999
#
# number of rings (size 3 to 8) (size 9 to 14) (size 15 to 20)
#    0.000    1.000    5.000    3.000    5.250    0.000 
#    0.000    3.750    0.000    0.000    0.000    0.000 
#    0.000    0.000    0.000    0.000    0.000    0.000 
#
# Total GULP energy -89125.468520 kJ/mol
# GULP energy per Si atom -5570.341782 kJ/mol
# Density = 2.189792 g / cm^3
# Si number density = 21.947874 Si / 1000 Ang^3
#
#
#
# Elastic Constant Matrix: (Units=GPa)
#
#
# Indices 1 2 3 4 5 6 
#
# 1 32.5185 62.1664 -1.4305 0.0000 -6.1864 0.0000
# 2 62.1664 169.7598 45.7059 0.0000 19.6451 0.0000
# 3 -1.4305 45.7059 71.3674 0.0000 17.9696 0.0000
# 4 0.0000 0.0000 0.0000 43.6959 0.0000 6.7410
# 5 -6.1864 19.6451 17.9696 0.0000 13.7945 0.0000
# 6 0.0000 0.0000 0.0000 6.7410 0.0000 35.2591
#
#
#
# Elastic Compliance Matrix: (Units=1/GPa)
#
#
# Indices 1 2 3 4 5 6 
#
# 1 -0.165304 0.084541 -0.012612 0.000000 -0.178101 0.000000
# 2 0.084541 -0.035737 0.003305 0.000000 0.084503 0.000000
# 3 -0.012612 0.003305 0.021208 0.000000 -0.037989 0.000000
# 4 0.000000 0.000000 0.000000 0.023581 0.000000 -0.004508
# 5 -0.178101 0.084503 -0.037989 0.000000 -0.078235 0.000000
# 6 0.000000 0.000000 0.000000 -0.004508 0.000000 0.029223
#
#
# Mechanical properties :
#
#
# Convention : Reuss Voigt Hill
#
# Bulk Modulus (GPa) = -34.05339 54.05881 10.00271
# Shear Modulus (GPa) = -13.67917 29.69682 8.00882
#
# Velocity S-wave (km/s) = -2.49922 3.68239 1.91231
# Velocity P-wave (km/s) = 4.88645 6.53942 3.07300
#
# Compressibility (1/GPa) = -0.02936565
#
# Stress axis : x y z
#
# Youngs Moduli (GPa) = -6.04946 -27.98228 47.15158
#
# Poissons Ratio (x) = 2.36564 0.59466
# Poissons Ratio (y) = 0.51143 -0.15582
# Poissons Ratio (z) = -0.07629 0.09247
#
# Static dielectric constant tensor:
#      x y z
#    x 1.830400 0.000000 0.044020 
#    y 0.000000 1.841250 0.000000 
#    z 0.044020 0.000000 1.931340 
# 
# From -- ./inp_files/6942.got.cif
#   From: 2010.05.17/outbox.ucp.g08.bks.cvg/sg4_4_cif.got.tgz:6942.got - 2010.06.11 12:51:24.
