data_PCOD9119944
_publ_section_title
;
Structure prediction by ZEFSAII (Michael W. Deem and Ramdas Pophale) SiO2 
 PCOD9119944
Probable space group: C 2
;
_chemical_formula_sum "Si O2"
_cell_formula_units_Z 32
_cell_length_a 33.148553
_cell_length_b 7.169461
_cell_length_c 5.422165
_cell_angle_alpha 90.000000
_cell_angle_beta 100.757251
_cell_angle_gamma 90.000000
_cell_volume 1265.971724
_symmetry_space_group_name_H-M "C 2"
_symmetry_group_IT_number 5
_symmetry_cell_setting 'monoclinic'
loop_
_space_group_symop_operation_xyz
x,y,z
-x,y,-z
1/2+x,1/2+y,z
1/2-x,1/2+y,-z
loop_
_atom_site_type_symbol
_atom_site_label
_atom_site_fract_x
_atom_site_fract_y
_atom_site_fract_z
Si Si1 0.020899 0.634930 0.774205
Si Si2 0.603983 0.903027 0.373486
Si Si3 0.349560 0.930067 0.073334
Si Si4 0.607869 0.316406 0.882544
Si Si5 0.622976 0.341236 0.400907
Si Si6 0.280320 0.327660 0.407944
Si Si7 0.013082 0.225891 0.264426
Si Si8 0.242004 0.442581 0.881602
O O1 0.067334 0.694165 0.834300
O O2 0.000000 0.699886 0.500000
O O3 0.016007 0.410954 0.767548
O O4 0.000000 0.700061 0.000000
O O5 0.626280 0.862665 0.657131
O O6 0.559347 0.807765 0.312214
O O7 0.602893 0.132579 0.371702
O O8 0.631689 0.862263 0.164197
O O9 0.302198 0.881030 0.060170
O O10 0.355976 0.158545 0.075979
O O11 0.608241 0.432441 0.634643
O O12 0.610594 0.433026 0.132587
O O13 0.671666 0.329696 0.476481
O O14 0.259331 0.339415 0.655575
O O15 0.267136 0.138889 0.258843
O O16 0.269957 0.462319 0.160893
O O17 0.000000 0.124660 0.500000
O O18 0.000000 0.123461 0.000000
#
# Coordination Sequence:
#
# PCOD9119944 Si02
#       8
#     4   4   4   4   4   4   4   4
#     4  10  16  23  34  60  93 133 181 220 254 314
#     4  10  17  27  47  63 100 137 188 226 262 330
#     4  10  18  31  48  69  95 132 188 228 266 337
#     4  10  17  27  47  63 100 137 188 226 262 330
#     4  10  18  31  48  69  95 132 188 228 266 337
#     4  12  25  41  62  86 115 148 194 258 309 356
#     4  10  16  23  34  60  93 133 181 220 254 314
#     4  12  25  41  62  86 115 148 194 258 309 356
#
# _framework density 25.277028000000001
#
# number of rings (size 3 to 8) (size 9 to 14) (size 15 to 20)
#    0.000    1.500    2.500    9.750    3.500    0.000 
#    0.000    0.000    0.000    0.000    0.000    0.000 
#    0.000    0.000    0.000    0.000    0.000  851.250 
#
# Total GULP energy -89450.237985 kJ/mol
# GULP energy per Si atom -5590.639874 kJ/mol
# Density = 2.521950 g / cm^3
# Si number density = 25.277028 Si / 1000 Ang^3
#
#
#
# Elastic Constant Matrix: (Units=GPa)
#
#
# Indices 1 2 3 4 5 6 
#
# 1 92.1621 -4.6196 44.2497 0.0000 -16.6241 0.0000
# 2 -4.6196 58.8506 -0.7758 0.0000 -6.4001 0.0000
# 3 44.2497 -0.7758 252.7275 0.0000 -25.5866 0.0000
# 4 0.0000 0.0000 0.0000 0.4989 0.0000 -2.9502
# 5 -16.6241 -6.4001 -25.5866 0.0000 59.3393 0.0000
# 6 0.0000 0.0000 0.0000 -2.9502 0.0000 -0.0797
#
#
#
# Elastic Compliance Matrix: (Units=1/GPa)
#
#
# Indices 1 2 3 4 5 6 
#
# 1 0.012312 0.001244 -0.001871 0.000000 0.002777 0.000000
# 2 0.001244 0.017335 0.000063 0.000000 0.002245 0.000000
# 3 -0.001871 0.000063 0.004425 0.000000 0.001391 0.000000
# 4 0.000000 0.000000 0.000000 0.009111 0.000000 -0.337415
# 5 0.002777 0.002245 0.001391 0.000000 0.018472 0.000000
# 6 0.000000 0.000000 0.000000 -0.337415 0.000000 -0.057061
#
#
# Mechanical properties :
#
#
# Convention : Reuss Voigt Hill
#
# Bulk Modulus (GPa) = 30.35492 53.49430 41.92461
# Shear Modulus (GPa) = 299.33352 36.27745 167.80549
#
# Velocity S-wave (km/s) = 10.89395 3.79251 8.15663
# Velocity P-wave (km/s) = 13.04886 6.35505 10.26302
#
# Compressibility (1/GPa) = 0.03294359
#
# Stress axis : x y z
#
# Youngs Moduli (GPa) = 81.22263 57.68742 225.96934
#
# Poissons Ratio (x) = -0.07175 0.42273
# Poissons Ratio (y) = -0.10102 -0.01418
# Poissons Ratio (z) = 0.15195 -0.00362
#
# Static dielectric constant tensor:
#      x y z
#    x 1.961480 0.000000 -0.047300 
#    y 0.000000 2.049140 0.000000 
#    z -0.047300 0.000000 2.169770 
# 
# From -- ./inp_files/11237.got.cif
#   From: 2010.05.17/outbox.cif.g08.bks.cpg/sg5_6_cif.got.tgz:11237.got - 2010.06.03 18:56:24.
