data_PCOD9119885
_publ_section_title
;
Structure prediction by ZEFSAII (Michael W. Deem and Ramdas Pophale) SiO2 
 PCOD9119885
Probable space group: P 21
;
_chemical_formula_sum "Si O2"
_cell_formula_units_Z 14
_cell_length_a 21.000000
_cell_length_b 6.000000
_cell_length_c 24.000000
_cell_angle_alpha 90.000000
_cell_angle_beta 10.000000
_cell_angle_gamma 90.000000
_cell_volume 525.112089
_symmetry_space_group_name_H-M "P 21"
_symmetry_group_IT_number 4
_symmetry_cell_setting 'monoclinic'
loop_
_space_group_symop_operation_xyz
x,y,z
-x,1/2+y,-z
loop_
_atom_site_type_symbol
_atom_site_label
_atom_site_fract_x
_atom_site_fract_y
_atom_site_fract_z
Si Si1 0.481796 0.101370 0.542003
Si Si2 0.661097 0.935283 0.874809
Si Si3 0.391566 0.653326 0.453552
Si Si4 0.620286 0.132549 0.122451
Si Si5 0.275813 0.649197 0.838734
Si Si6 0.020806 0.923454 0.278979
Si Si7 0.525275 0.304345 0.847464
O O1 0.513060 0.342447 0.483088
O O2 0.766215 0.123465 0.347855
O O3 0.048108 0.125244 0.927210
O O4 0.047115 0.862456 0.515762
O O5 0.567691 0.197456 0.939580
O O6 0.671059 0.939020 0.933813
O O7 0.606870 0.411127 0.267129
O O8 0.184537 0.630702 0.573533
O O9 0.514658 0.912231 0.350862
O O10 0.792808 0.123568 0.035254
O O11 0.553353 0.901028 0.147155
O O12 0.256404 0.292012 0.441864
O O13 0.891991 0.258848 0.846739
O O14 0.401361 0.047780 0.966233
#
# Coordination Sequence:
#
# PCOD9119885 Si02
#       7
#     2   2   2   2   2   2   2
#     4  12  24  40  68  98 142 202 262 320 388 458
#     4  12  30  54  82 120 160 208 260 318 390 482
#     4  11  25  44  68 101 148 199 260 323 389 457
#     4  11  27  46  76 115 158 204 264 326 394 466
#     4  11  25  44  68 101 148 199 260 323 389 457
#     4  11  27  46  76 115 158 204 264 326 394 466
#     4  12  28  48  86 112 164 206 262 322 398 466
#
# _framework density 26.660974
#
# number of rings (size 3 to 8) (size 9 to 14) (size 15 to 20)
#    0.000    0.571    0.000    6.000   18.000    0.000 
#    0.000    0.000    0.000    0.000    0.000    0.000 
#    0.000    0.000    0.000    0.000    0.000    0.000 
#
# Total GULP energy -77997.592690 kJ/mol
# GULP energy per Si atom -5571.256621 kJ/mol
# Density = 2.660029 g / cm^3
# Si number density = 26.660974 Si / 1000 Ang^3
#
#
#
# Elastic Constant Matrix: (Units=GPa)
#
#
# Indices 1 2 3 4 5 6 
#
# 1 105.9918 12.2118 -10.1833 0.0000 19.2113 0.0000
# 2 12.2118 190.4076 44.2752 0.0000 12.5335 0.0000
# 3 -10.1833 44.2752 93.6678 0.0000 12.0521 0.0000
# 4 0.0000 0.0000 0.0000 68.2645 0.0000 3.9083
# 5 19.2113 12.5335 12.0521 0.0000 36.7098 0.0000
# 6 0.0000 0.0000 0.0000 3.9083 0.0000 65.5797
#
#
#
# Elastic Compliance Matrix: (Units=1/GPa)
#
#
# Indices 1 2 3 4 5 6 
#
# 1 0.010882 -0.000844 0.002378 0.000000 -0.006187 0.000000
# 2 -0.000844 0.006012 -0.002847 0.000000 -0.000677 0.000000
# 3 0.002378 -0.002847 0.012858 0.000000 -0.004494 0.000000
# 4 0.000000 0.000000 0.000000 0.014699 0.000000 -0.000876
# 5 -0.006187 -0.000677 -0.004494 0.000000 0.032185 0.000000
# 6 0.000000 0.000000 0.000000 -0.000876 0.000000 0.015301
#
#
# Mechanical properties :
#
#
# Convention : Reuss Voigt Hill
#
# Bulk Modulus (GPa) = 36.86216 53.63053 45.24635
# Shear Modulus (GPa) = 48.26020 57.02834 52.64427
#
# Velocity S-wave (km/s) = 4.25919 4.62997 4.44845
# Velocity P-wave (km/s) = 6.16798 6.98152 6.58732
#
# Compressibility (1/GPa) = 0.02712809
#
# Stress axis : x y z
#
# Youngs Moduli (GPa) = 91.89628 166.32127 77.77060
#
# Poissons Ratio (x) = 0.14030 -0.18493
# Poissons Ratio (y) = 0.07752 0.22138
# Poissons Ratio (z) = -0.21852 0.47345
#
# Static dielectric constant tensor:
#      x y z
#    x 2.184000 0.000000 -0.090620 
#    y 0.000000 2.010190 0.000000 
#    z -0.090620 0.000000 2.250050 
# 
# From -- ./inp_files/15447.got.cif
#   From: 2010.05.17/outbox.ucp.g08.bks.cvg/sg4_8_cif.got.tgz:15447.got - 2010.06.11 12:51:24.
