data_PCOD9119633
_publ_section_title
;
Structure prediction by ZEFSAII (Michael W. Deem and Ramdas Pophale) SiO2 
 PCOD9119633
Probable space group: P 21
;
_chemical_formula_sum "Si O2"
_cell_formula_units_Z 12
_cell_length_a 13.973210
_cell_length_b 7.667384
_cell_length_c 14.686561
_cell_angle_alpha 90.000000
_cell_angle_beta 160.790922
_cell_angle_gamma 90.000000
_cell_volume 517.703247
_symmetry_space_group_name_H-M "P 21"
_symmetry_group_IT_number 4
_symmetry_cell_setting 'monoclinic'
loop_
_space_group_symop_operation_xyz
x,y,z
-x,1/2+y,-z
loop_
_atom_site_type_symbol
_atom_site_label
_atom_site_fract_x
_atom_site_fract_y
_atom_site_fract_z
Si Si1 0.921826 0.213020 0.875770
Si Si2 0.299320 0.331441 0.370534
Si Si3 0.312290 0.137061 0.570364
Si Si4 0.083089 0.812743 0.632544
Si Si5 0.829846 0.899844 0.069858
Si Si6 0.704446 0.698002 0.134738
O O1 0.622652 0.317927 0.620575
O O2 0.130059 0.306643 0.990449
O O3 0.831396 0.023202 0.759209
O O4 0.089451 0.207709 0.122252
O O5 0.318160 0.268553 0.490971
O O6 0.134899 0.221140 0.493373
O O7 0.143448 0.964656 0.385269
O O8 0.629271 0.071091 0.883432
O O9 0.915933 0.817262 0.386262
O O10 0.171089 0.003816 0.745730
O O11 0.382426 0.708757 0.886931
O O12 0.701270 0.770403 0.029851
#
# Coordination Sequence:
#
# PCOD9119633 Si02
#       6
#     2   2   2   2   2   2
#     4  12  25  44  69 100 136 178 224 276 333 396
#     4  12  25  44  69 100 136 178 224 276 333 396
#     4  12  25  44  69 100 135 176 223 276 333 396
#     4  12  25  44  69 100 136 178 224 276 333 396
#     4  12  25  44  69 100 135 176 223 276 333 396
#     4  12  25  44  69 100 136 178 224 276 333 396
#
# _framework density 23.179300999999999
#
# number of rings (size 3 to 8) (size 9 to 14) (size 15 to 20)
#    0.000    0.000    0.000   13.000    0.000    0.000 
#    0.000   10.000    0.000    0.000    0.000    0.000 
#    0.000    0.000    0.000    0.000    0.000    0.000 
#
# Total GULP energy -67338.874349 kJ/mol
# GULP energy per Si atom -5611.572862 kJ/mol
# Density = 2.312654 g / cm^3
# Si number density = 23.179301 Si / 1000 Ang^3
#
#
#
# Elastic Constant Matrix: (Units=GPa)
#
#
# Indices 1 2 3 4 5 6 
#
# 1 122.4199 18.8698 26.4737 0.0000 19.7986 0.0000
# 2 18.8698 79.6545 2.3129 0.0000 21.7629 0.0000
# 3 26.4737 2.3129 102.8898 0.0000 10.5257 0.0000
# 4 0.0000 0.0000 0.0000 47.2797 0.0000 -3.1035
# 5 19.7986 21.7629 10.5257 0.0000 27.1627 0.0000
# 6 0.0000 0.0000 0.0000 -3.1035 0.0000 34.3712
#
#
#
# Elastic Compliance Matrix: (Units=1/GPa)
#
#
# Indices 1 2 3 4 5 6 
#
# 1 0.009603 -0.000648 -0.001867 0.000000 -0.005757 0.000000
# 2 -0.000648 0.016215 0.001128 0.000000 -0.012956 0.000000
# 3 -0.001867 0.001128 0.010546 0.000000 -0.003629 0.000000
# 4 0.000000 0.000000 0.000000 0.021277 0.000000 0.001921
# 5 -0.005757 -0.012956 -0.003629 0.000000 0.052798 0.000000
# 6 0.000000 0.000000 0.000000 0.001921 0.000000 0.029268
#
#
# Mechanical properties :
#
#
# Convention : Reuss Voigt Hill
#
# Bulk Modulus (GPa) = 29.77232 44.47525 37.12379
# Shear Modulus (GPa) = 32.53566 38.91658 35.72612
#
# Velocity S-wave (km/s) = 3.75060 4.10193 3.93019
# Velocity P-wave (km/s) = 5.62390 6.45473 6.05358
#
# Compressibility (1/GPa) = 0.03358824
#
# Stress axis : x y z
#
# Youngs Moduli (GPa) = 104.12994 61.67230 94.82707
#
# Poissons Ratio (x) = 0.03995 0.17708
# Poissons Ratio (y) = 0.06746 -0.10693
# Poissons Ratio (z) = 0.19446 -0.06954
#
# Static dielectric constant tensor:
#      x y z
#    x 1.830670 0.000000 -0.008670 
#    y 0.000000 1.853110 0.000000 
#    z -0.008670 0.000000 1.824750 
# 
# From -- ./inp_files/107.got.cif
#   From: 2010.05.17/outbox.cif.g08.bks.cpg/sg4_1_cif.got.tgz:107.got - 2010.06.03 18:43:04.
