data_PCOD9119745
_publ_section_title
;
Structure prediction by ZEFSAII (Michael W. Deem and Ramdas Pophale) SiO2 
 PCOD9119745
Probable space group: P 21
;
_chemical_formula_sum "Si O2"
_cell_formula_units_Z 14
_cell_length_a 11.821933
_cell_length_b 5.208740
_cell_length_c 9.046196
_cell_angle_alpha 90.000000
_cell_angle_beta 99.004451
_cell_angle_gamma 90.000000
_cell_volume 550.176136
_symmetry_space_group_name_H-M "P 21"
_symmetry_group_IT_number 4
_symmetry_cell_setting 'monoclinic'
loop_
_space_group_symop_operation_xyz
x,y,z
-x,1/2+y,-z
loop_
_atom_site_type_symbol
_atom_site_label
_atom_site_fract_x
_atom_site_fract_y
_atom_site_fract_z
Si Si1 0.153989 0.672990 0.117297
Si Si2 0.314834 0.343161 0.872599
Si Si3 0.622423 0.829746 0.796946
Si Si4 0.937021 0.722019 0.463556
Si Si5 0.899468 0.574014 0.126305
Si Si6 0.240552 0.984250 0.381584
Si Si7 0.367077 0.846495 0.691453
O O1 0.270503 0.524367 0.182295
O O2 0.144656 0.849555 0.263191
O O3 0.027718 0.550497 0.088282
O O4 0.167787 0.857325 0.978646
O O5 0.183551 0.323502 0.908792
O O6 0.343785 0.596628 0.787056
O O7 0.326471 0.099299 0.769306
O O8 0.395618 0.299579 0.030891
O O9 0.668557 0.585641 0.717954
O O10 0.502364 0.894573 0.698838
O O11 0.913802 0.574519 0.304765
O O12 0.826056 0.709186 0.545177
O O13 0.028167 0.517877 0.550366
O O14 0.302029 0.824590 0.522486
#
# Coordination Sequence:
#
# PCOD9119745 Si02
#       7
#     2   2   2   2   2   2   2
#     4  12  28  49  79 122 158 220 260 349 404 503
#     4  12  27  52  80 119 154 219 268 338 401 497
#     4  12  29  52  79 113 167 207 282 330 407 489
#     4  12  28  48  78 112 161 208 260 329 405 491
#     4  12  26  49  83 116 169 206 277 331 425 489
#     4  12  29  48  76 118 156 213 270 333 409 476
#     4  12  31  50  85 114 163 215 277 332 413 467
#
# _framework density 25.446397999999999
#
# number of rings (size 3 to 8) (size 9 to 14) (size 15 to 20)
#    0.000    0.000    4.286    3.429   10.000    0.000 
#    0.000    0.000    0.000    0.000    0.000    0.000 
#    0.000    0.000    0.000    0.000    0.000    0.000 
#
# Total GULP energy -78304.479365 kJ/mol
# GULP energy per Si atom -5593.177097 kJ/mol
# Density = 2.538848 g / cm^3
# Si number density = 25.446398 Si / 1000 Ang^3
#
#
#
# Elastic Constant Matrix: (Units=GPa)
#
#
# Indices 1 2 3 4 5 6 
#
# 1 108.6477 27.2428 -20.1331 0.0000 13.3801 0.0000
# 2 27.2428 115.9115 26.3413 0.0000 -4.0615 0.0000
# 3 -20.1331 26.3413 93.3343 0.0000 4.3709 0.0000
# 4 0.0000 0.0000 0.0000 29.6033 0.0000 -5.7250
# 5 13.3801 -4.0615 4.3709 0.0000 25.7767 0.0000
# 6 0.0000 0.0000 0.0000 -5.7250 0.0000 41.4205
#
#
#
# Elastic Compliance Matrix: (Units=1/GPa)
#
#
# Indices 1 2 3 4 5 6 
#
# 1 0.011864 -0.003965 0.004028 0.000000 -0.007466 0.000000
# 2 -0.003965 0.010638 -0.004065 0.000000 0.004424 0.000000
# 3 0.004028 -0.004065 0.012961 0.000000 -0.004929 0.000000
# 4 0.000000 0.000000 0.000000 0.034708 0.000000 0.004797
# 5 -0.007466 0.004424 -0.004929 0.000000 0.044203 0.000000
# 6 0.000000 0.000000 0.000000 0.004797 0.000000 0.024806
#
#
# Mechanical properties :
#
#
# Convention : Reuss Voigt Hill
#
# Bulk Modulus (GPa) = 36.41818 42.75506 39.58662
# Shear Modulus (GPa) = 31.98206 38.32294 35.15250
#
# Velocity S-wave (km/s) = 3.54904 3.88497 3.72080
# Velocity P-wave (km/s) = 5.58006 6.07967 5.83521
#
# Compressibility (1/GPa) = 0.02745882
#
# Stress axis : x y z
#
# Youngs Moduli (GPa) = 84.28656 94.00220 77.15387
#
# Poissons Ratio (x) = 0.37276 -0.31078
# Poissons Ratio (y) = 0.33424 0.31362
# Poissons Ratio (z) = -0.33951 0.38211
#
# Static dielectric constant tensor:
#      x y z
#    x 2.104020 0.000000 -0.012600 
#    y 0.000000 2.093450 0.000000 
#    z -0.012600 0.000000 2.069130 
# 
# From -- ./inp_files/7406.got.cif
#   From: 2010.05.17/outbox.cif.g08.bks.cpg/sg4_4_cif.got.tgz:7406.got - 2010.06.03 18:43:04.
