data_PCOD9119057
_publ_section_title
;
Structure prediction by ZEFSAII (Michael W. Deem and Ramdas Pophale) SiO2 
 PCOD9119057
Probable space group: P 21
;
_chemical_formula_sum "Si O2"
_cell_formula_units_Z 16
_cell_length_a 12.473705
_cell_length_b 8.422393
_cell_length_c 6.764733
_cell_angle_alpha 90.000000
_cell_angle_beta 77.271094
_cell_angle_gamma 90.000000
_cell_volume 693.226009
_symmetry_space_group_name_H-M "P 21"
_symmetry_group_IT_number 4
_symmetry_cell_setting 'monoclinic'
loop_
_space_group_symop_operation_xyz
x,y,z
-x,1/2+y,-z
loop_
_atom_site_type_symbol
_atom_site_label
_atom_site_fract_x
_atom_site_fract_y
_atom_site_fract_z
Si Si1 0.118141 0.913020 0.162131
Si Si2 0.572600 0.627752 0.424359
Si Si3 0.415974 0.796088 0.788166
Si Si4 0.416741 0.339990 0.958964
Si Si5 0.766027 0.111676 0.979183
Si Si6 0.000120 0.963585 0.808456
Si Si7 0.736857 0.667277 0.679349
Si Si8 0.944936 0.771701 0.479000
O O1 0.001292 0.896884 0.314068
O O2 0.185198 0.051486 0.233629
O O3 0.185299 0.750656 0.181184
O O4 0.087119 0.942740 0.947938
O O5 0.482245 0.672203 0.624518
O O6 0.555647 0.465557 0.317175
O O7 0.681500 0.599932 0.507830
O O8 0.582897 0.770351 0.261703
O O9 0.461688 0.827783 0.993784
O O10 0.291575 0.731684 0.838885
O O11 0.352561 0.221780 0.129896
O O12 0.340751 0.498231 0.013085
O O13 0.877419 0.004671 0.947965
O O14 0.995399 0.805814 0.675118
O O15 0.036493 0.107398 0.647476
O O16 0.816634 0.804685 0.566899
#
# Coordination Sequence:
#
# PCOD9119057 Si02
#       8
#     2   2   2   2   2   2   2   2
#     4  11  27  45  68 103 146 190 243 296 356 435
#     4  11  26  46  74 103 147 183 236 305 357 436
#     4  11  25  47  70 107 139 186 240 295 367 435
#     4  11  24  45  72 102 140 182 240 298 363 429
#     4  11  25  43  72 101 138 190 235 295 364 427
#     4  11  26  46  69 105 143 192 239 306 355 436
#     4  11  25  43  69 103 137 189 235 291 359 423
#     4  11  24  43  68  98 142 182 244 288 357 427
#
# _framework density 23.080496
#
# number of rings (size 3 to 8) (size 9 to 14) (size 15 to 20)
#    0.000    1.000    2.500    2.250    8.750    4.000 
#    0.000    2.500    0.000    0.000    0.000    0.000 
#    0.000    0.000    0.000    0.000    0.000    0.000 
#
# Total GULP energy -89139.478423 kJ/mol
# GULP energy per Si atom -5571.217401 kJ/mol
# Density = 2.302796 g / cm^3
# Si number density = 23.080496 Si / 1000 Ang^3
#
#
#
# Elastic Constant Matrix: (Units=GPa)
#
#
# Indices 1 2 3 4 5 6 
#
# 1 81.4964 23.6823 50.6875 0.0000 2.4007 0.0000
# 2 23.6823 74.6743 13.9432 0.0000 12.9244 0.0000
# 3 50.6875 13.9432 91.9111 0.0000 11.6796 0.0000
# 4 0.0000 0.0000 0.0000 25.7616 0.0000 -8.3702
# 5 2.4007 12.9244 11.6796 0.0000 41.5493 0.0000
# 6 0.0000 0.0000 0.0000 -8.3702 0.0000 30.3428
#
#
#
# Elastic Compliance Matrix: (Units=1/GPa)
#
#
# Indices 1 2 3 4 5 6 
#
# 1 0.020443 -0.005038 -0.010950 0.000000 0.003464 0.000000
# 2 -0.005038 0.015640 0.001024 0.000000 -0.004862 0.000000
# 3 -0.010950 0.001024 0.017343 0.000000 -0.004561 0.000000
# 4 0.000000 0.000000 0.000000 0.042639 0.000000 0.011762
# 5 0.003464 -0.004862 -0.004561 0.000000 0.026662 0.000000
# 6 0.000000 0.000000 0.000000 0.011762 0.000000 0.036201
#
#
# Mechanical properties :
#
#
# Convention : Reuss Voigt Hill
#
# Bulk Modulus (GPa) = 42.55899 47.18975 44.87437
# Shear Modulus (GPa) = 25.42088 30.18201 27.80145
#
# Velocity S-wave (km/s) = 3.32234 3.62012 3.47442
# Velocity P-wave (km/s) = 5.76165 6.16147 5.96491
#
# Compressibility (1/GPa) = 0.02349680
#
# Stress axis : x y z
#
# Youngs Moduli (GPa) = 48.91695 63.94031 57.66025
#
# Poissons Ratio (x) = 0.32215 0.63137
# Poissons Ratio (y) = 0.24646 -0.05903
# Poissons Ratio (z) = 0.53563 -0.06546
#
# Static dielectric constant tensor:
#      x y z
#    x 1.952690 0.000000 -0.000400 
#    y 0.000000 1.928230 0.000000 
#    z -0.000400 0.000000 1.863480 
# 
# From -- ./inp_files/2614.got.cif
#   From: 2010.05.17/outbox.cif.g08.bks.cpg/sg4_2_cif.got.tgz:2614.got - 2010.06.03 18:43:04.
