data_PCOD9119069
_publ_section_title
;
Structure prediction by ZEFSAII (Michael W. Deem and Ramdas Pophale) SiO2 
 PCOD9119069
Probable space group: P 21
;
_chemical_formula_sum "Si O2"
_cell_formula_units_Z 16
_cell_length_a 6.626382
_cell_length_b 7.566709
_cell_length_c 23.426884
_cell_angle_alpha 90.000000
_cell_angle_beta 40.541021
_cell_angle_gamma 90.000000
_cell_volume 763.495070
_symmetry_space_group_name_H-M "P 21"
_symmetry_group_IT_number 4
_symmetry_cell_setting 'monoclinic'
loop_
_space_group_symop_operation_xyz
x,y,z
-x,1/2+y,-z
loop_
_atom_site_type_symbol
_atom_site_label
_atom_site_fract_x
_atom_site_fract_y
_atom_site_fract_z
Si Si1 0.205065 0.736490 0.026641
Si Si2 0.244503 0.674050 0.387932
Si Si3 0.065127 0.219601 0.146134
Si Si4 0.820340 0.328948 0.471321
Si Si5 0.170018 0.578864 0.910702
Si Si6 0.941944 0.597800 0.200989
Si Si7 0.853519 0.965158 0.402945
Si Si8 0.849192 0.423274 0.782038
O O1 0.087907 0.936320 0.050427
O O2 0.050124 0.639448 0.113302
O O3 0.576624 0.730237 0.950385
O O4 0.111041 0.655610 0.985850
O O5 0.253027 0.746025 0.450794
O O6 0.588022 0.651536 0.288795
O O7 0.071597 0.484819 0.422893
O O8 0.054647 0.819237 0.392866
O O9 0.992738 0.390853 0.199434
O O10 0.030035 0.044551 0.191793
O O11 0.849316 0.217556 0.136687
O O12 0.508604 0.416595 0.512842
O O13 0.918903 0.161644 0.411945
O O14 0.503770 0.486479 0.841503
O O15 0.145018 0.721985 0.198413
O O16 0.939611 0.951616 0.318166
#
# Coordination Sequence:
#
# PCOD9119069 Si02
#       8
#     2   2   2   2   2   2   2   2
#     4  11  24  43  71  98 145 187 239 292 356 422
#     4  12  27  47  73 109 143 188 238 302 360 427
#     4  11  26  46  68 102 144 189 241 293 355 422
#     4  12  26  47  77 104 146 189 238 293 365 431
#     4  11  24  44  69 103 140 192 235 292 360 417
#     4  12  26  45  73 104 143 186 240 296 354 427
#     4  12  26  47  74 107 143 186 240 293 362 434
#     4  11  27  45  69 103 144 185 233 299 352 426
#
# _framework density 20.95626
#
# number of rings (size 3 to 8) (size 9 to 14) (size 15 to 20)
#    0.000    0.500    5.000    2.250    7.000    3.000 
#    2.250    0.000    0.000    0.000    0.000    0.000 
#    0.000    0.000    0.000    0.000    0.000    0.000 
#
# Total GULP energy -89564.692936 kJ/mol
# GULP energy per Si atom -5597.793308 kJ/mol
# Density = 2.090856 g / cm^3
# Si number density = 20.956260 Si / 1000 Ang^3
#
#
#
# Elastic Constant Matrix: (Units=GPa)
#
#
# Indices 1 2 3 4 5 6 
#
# 1 79.0605 19.4765 20.2579 0.0000 7.6065 0.0000
# 2 19.4765 102.6332 13.5539 0.0000 -6.3717 0.0000
# 3 20.2579 13.5539 58.8892 0.0000 10.3722 0.0000
# 4 0.0000 0.0000 0.0000 15.9884 0.0000 0.0608
# 5 7.6065 -6.3717 10.3722 0.0000 15.5436 0.0000
# 6 0.0000 0.0000 0.0000 0.0608 0.0000 29.8895
#
#
#
# Elastic Compliance Matrix: (Units=1/GPa)
#
#
# Indices 1 2 3 4 5 6 
#
# 1 0.014775 -0.002736 -0.003379 0.000000 -0.006097 0.000000
# 2 -0.002736 0.011154 -0.003022 0.000000 0.007928 0.000000
# 3 -0.003379 -0.003022 0.021265 0.000000 -0.013776 0.000000
# 4 0.000000 0.000000 0.000000 0.062546 0.000000 -0.000127
# 5 -0.006097 0.007928 -0.013776 0.000000 0.079762 0.000000
# 6 0.000000 0.000000 0.000000 -0.000127 0.000000 0.033457
#
#
# Mechanical properties :
#
#
# Convention : Reuss Voigt Hill
#
# Bulk Modulus (GPa) = 34.57872 38.57328 36.57600
# Shear Modulus (GPa) = 19.93038 24.77060 22.35049
#
# Velocity S-wave (km/s) = 3.08725 3.44177 3.26932
# Velocity P-wave (km/s) = 5.40781 5.85157 5.63406
#
# Compressibility (1/GPa) = 0.02891952
#
# Stress axis : x y z
#
# Youngs Moduli (GPa) = 67.68181 89.65398 47.02489
#
# Poissons Ratio (x) = 0.24531 0.15889
# Poissons Ratio (y) = 0.18519 0.14213
# Poissons Ratio (z) = 0.22869 0.27097
#
# Static dielectric constant tensor:
#      x y z
#    x 1.747050 0.000000 0.010490 
#    y 0.000000 1.759840 0.000000 
#    z 0.010490 0.000000 1.728730 
# 
# From -- ./inp_files/4055.got.cif
#   From: 2010.05.17/outbox.cif.g08.bks.cpg/sg4_3_cif.got.tgz:4055.got - 2010.06.03 18:43:04.
