data_PCOD9119301
_publ_section_title
;
Structure prediction by ZEFSAII (Michael W. Deem and Ramdas Pophale) SiO2 
 PCOD9119301
Probable space group: P 21
;
_chemical_formula_sum "Si O2"
_cell_formula_units_Z 16
_cell_length_a 5.051669
_cell_length_b 16.332290
_cell_length_c 7.244193
_cell_angle_alpha 90.000000
_cell_angle_beta 70.589819
_cell_angle_gamma 90.000000
_cell_volume 563.714262
_symmetry_space_group_name_H-M "P 21"
_symmetry_group_IT_number 4
_symmetry_cell_setting 'monoclinic'
loop_
_space_group_symop_operation_xyz
x,y,z
-x,1/2+y,-z
loop_
_atom_site_type_symbol
_atom_site_label
_atom_site_fract_x
_atom_site_fract_y
_atom_site_fract_z
Si Si1 0.140379 0.416790 0.897358
Si Si2 0.279065 0.998198 0.245819
Si Si3 0.629912 0.622225 0.067964
Si Si4 0.356549 0.767218 0.969380
Si Si5 0.850284 0.060298 0.584954
Si Si6 0.187582 0.251376 0.711151
Si Si7 0.807781 0.884876 0.712410
Si Si8 0.778580 0.236542 0.395639
O O1 0.397326 0.478137 0.812384
O O2 0.262535 0.325792 0.832485
O O3 0.907941 0.424888 0.791723
O O4 0.046913 0.419550 0.132493
O O5 0.171080 0.037544 0.460169
O O6 0.212720 0.056642 0.087749
O O7 0.767874 0.660371 0.216399
O O8 0.331232 0.584756 0.196323
O O9 0.581444 0.696957 0.943294
O O10 0.518620 0.847294 0.859797
O O11 0.180213 0.737324 0.833394
O O12 0.152686 0.759420 0.195121
O O13 0.823055 0.145494 0.470450
O O14 0.745769 0.963080 0.596107
O O15 0.448787 0.257479 0.508682
O O16 0.012091 0.811628 0.590957
#
# Coordination Sequence:
#
# PCOD9119301 Si02
#       8
#     2   2   2   2   2   2   2   2
#     4  12  26  49  80 110 160 209 271 333 411 487
#     4  12  28  50  75 116 158 209 267 339 404 492
#     4  11  26  47  75 108 156 210 267 340 408 495
#     4  12  24  47  78 111 159 212 274 347 419 495
#     4  11  27  50  75 118 161 217 276 338 420 498
#     4  11  25  45  73 110 148 209 264 332 418 476
#     4  12  25  50  79 114 165 218 277 345 421 505
#     4  11  27  48  77 117 161 216 280 348 415 500
#
# _framework density 28.383175000000001
#
# number of rings (size 3 to 8) (size 9 to 14) (size 15 to 20)
#    0.000    0.500    3.750    3.000    5.250    3.000 
#    4.500    0.000    0.000    0.000    0.000    0.000 
#    0.000    0.000    0.000    0.000    0.000    0.000 
#
# Total GULP energy -89246.302018 kJ/mol
# GULP energy per Si atom -5577.893876 kJ/mol
# Density = 2.831857 g / cm^3
# Si number density = 28.383175 Si / 1000 Ang^3
#
#
#
# Elastic Constant Matrix: (Units=GPa)
#
#
# Indices 1 2 3 4 5 6 
#
# 1 109.2856 33.7456 14.7739 0.0000 -21.1391 0.0000
# 2 33.7456 159.0563 40.3847 0.0000 -14.9050 0.0000
# 3 14.7739 40.3847 139.5534 0.0000 -26.6535 0.0000
# 4 0.0000 0.0000 0.0000 59.0372 0.0000 -9.9535
# 5 -21.1391 -14.9050 -26.6535 0.0000 34.9569 0.0000
# 6 0.0000 0.0000 0.0000 -9.9535 0.0000 33.5811
#
#
#
# Elastic Compliance Matrix: (Units=1/GPa)
#
#
# Indices 1 2 3 4 5 6 
#
# 1 0.010849 -0.001867 0.000577 0.000000 0.006204 0.000000
# 2 -0.001867 0.007188 -0.001770 0.000000 0.000586 0.000000
# 3 0.000577 -0.001770 0.008825 0.000000 0.006322 0.000000
# 4 0.000000 0.000000 0.000000 0.017829 0.000000 0.005285
# 5 0.006204 0.000586 0.006322 0.000000 0.037429 0.000000
# 6 0.000000 0.000000 0.000000 0.005285 0.000000 0.031345
#
#
# Mechanical properties :
#
#
# Convention : Reuss Voigt Hill
#
# Bulk Modulus (GPa) = 48.21633 65.07819 56.64726
# Shear Modulus (GPa) = 39.52612 46.78111 43.15361
#
# Velocity S-wave (km/s) = 3.73579 4.06421 3.90345
# Velocity P-wave (km/s) = 5.96931 6.70835 6.34959
#
# Compressibility (1/GPa) = 0.02073986
#
# Stress axis : x y z
#
# Youngs Moduli (GPa) = 92.17535 139.12936 113.32083
#
# Poissons Ratio (x) = 0.25972 -0.06535
# Poissons Ratio (y) = 0.17207 0.20063
# Poissons Ratio (z) = -0.05315 0.24632
#
# Static dielectric constant tensor:
#      x y z
#    x 2.309620 0.000000 0.115250 
#    y 0.000000 2.263400 0.000000 
#    z 0.115250 0.000000 2.175680 
# 
# From -- ./inp_files/4921.got.cif
#   From: 2010.05.17/outbox.cif.g08.bks.cpg/sg4_3_cif.got.tgz:4921.got - 2010.06.03 18:43:04.
