data_PCOD9119218
_publ_section_title
;
Structure prediction by ZEFSAII (Michael W. Deem and Ramdas Pophale) SiO2 
 PCOD9119218
Probable space group: P 21
;
_chemical_formula_sum "Si O2"
_cell_formula_units_Z 16
_cell_length_a 27.837183
_cell_length_b 5.969715
_cell_length_c 22.805510
_cell_angle_alpha 90.000000
_cell_angle_beta 11.398411
_cell_angle_gamma 90.000000
_cell_volume 748.982863
_symmetry_space_group_name_H-M "P 21"
_symmetry_group_IT_number 4
_symmetry_cell_setting 'monoclinic'
loop_
_space_group_symop_operation_xyz
x,y,z
-x,1/2+y,-z
loop_
_atom_site_type_symbol
_atom_site_label
_atom_site_fract_x
_atom_site_fract_y
_atom_site_fract_z
Si Si1 0.665396 0.510040 0.946611
Si Si2 0.841384 0.808476 0.633580
Si Si3 0.582365 0.238006 0.646255
Si Si4 0.422225 0.142942 0.163125
Si Si5 0.642729 0.770272 0.208348
Si Si6 0.891739 0.330589 0.109347
Si Si7 0.950240 0.446856 0.909085
Si Si8 0.138998 0.053809 0.614426
O O1 0.805279 0.683962 0.738049
O O2 0.877399 0.347721 0.714889
O O3 0.536734 0.621665 0.155151
O O4 0.485561 0.375771 0.119239
O O5 0.733564 0.672452 0.708452
O O6 0.671287 0.025973 0.845198
O O7 0.409659 0.221662 0.797188
O O8 0.667584 0.480907 0.567074
O O9 0.838669 0.120442 0.326137
O O10 0.269972 0.014989 0.395539
O O11 0.386639 0.864817 0.537190
O O12 0.713126 0.563253 0.165949
O O13 0.885308 0.920503 0.921055
O O14 0.900228 0.313994 0.028480
O O15 0.018323 0.577039 0.975837
O O16 0.063003 0.303524 0.721263
#
# Coordination Sequence:
#
# PCOD9119218 Si02
#       8
#     2   2   2   2   2   2   2   2
#     4  12  25  42  69  99 137 181 237 295 362 434
#     4  12  26  42  69  99 134 182 237 291 365 432
#     4  11  24  48  69 102 144 183 238 300 359 440
#     4  12  25  44  67 100 140 183 234 305 360 428
#     4  11  28  45  74 111 143 189 247 296 365 442
#     4  12  28  51  81 110 158 204 246 310 377 443
#     4  11  26  46  74 107 147 190 244 293 368 434
#     4  11  26  44  73 102 143 190 237 302 364 433
#
# _framework density 21.362304999999999
#
# number of rings (size 3 to 8) (size 9 to 14) (size 15 to 20)
#    0.000    0.500    6.250    0.750    7.000    4.000 
#    0.000    0.000    0.000    0.000    0.000    0.000 
#    0.000    0.000    0.000    0.000    0.000    0.000 
#
# Total GULP energy -89279.273373 kJ/mol
# GULP energy per Si atom -5579.954586 kJ/mol
# Density = 2.131368 g / cm^3
# Si number density = 21.362305 Si / 1000 Ang^3
#
#
#
# Elastic Constant Matrix: (Units=GPa)
#
#
# Indices 1 2 3 4 5 6 
#
# 1 106.7962 14.5634 28.6110 0.0000 -12.8381 0.0000
# 2 14.5634 40.2614 9.8409 0.0000 -8.7955 0.0000
# 3 28.6110 9.8409 81.5906 0.0000 3.9178 0.0000
# 4 0.0000 0.0000 0.0000 15.6160 0.0000 13.2443
# 5 -12.8381 -8.7955 3.9178 0.0000 38.4350 0.0000
# 6 0.0000 0.0000 0.0000 13.2443 0.0000 26.7661
#
#
#
# Elastic Compliance Matrix: (Units=1/GPa)
#
#
# Indices 1 2 3 4 5 6 
#
# 1 0.011125 -0.002317 -0.003793 0.000000 0.003573 0.000000
# 2 -0.002317 0.027635 -0.002801 0.000000 0.005836 0.000000
# 3 -0.003793 -0.002801 0.014085 0.000000 -0.003344 0.000000
# 4 0.000000 0.000000 0.000000 0.110345 0.000000 -0.054601
# 5 0.003573 0.005836 -0.003344 0.000000 0.028888 0.000000
# 6 0.000000 0.000000 0.000000 -0.054601 0.000000 0.064378
#
#
# Mechanical properties :
#
#
# Convention : Reuss Voigt Hill
#
# Bulk Modulus (GPa) = 28.55239 37.18655 32.86947
# Shear Modulus (GPa) = 17.48538 27.87227 22.67882
#
# Velocity S-wave (km/s) = 2.86407 3.61604 3.26180
# Velocity P-wave (km/s) = 4.93275 5.90590 5.44113
#
# Compressibility (1/GPa) = 0.03502334
#
# Stress axis : x y z
#
# Youngs Moduli (GPa) = 89.88550 36.18579 70.99788
#
# Poissons Ratio (x) = 0.08383 0.26932
# Poissons Ratio (y) = 0.20823 0.19887
# Poissons Ratio (z) = 0.34097 0.10136
#
# Static dielectric constant tensor:
#      x y z
#    x 1.987890 0.000000 -0.213470 
#    y 0.000000 1.858930 0.000000 
#    z -0.213470 0.000000 1.960360 
# 
# From -- ./inp_files/3950.got.cif
#   From: 2010.05.17/outbox.cif.g08.bks.cpg/sg4_2_cif.got.tgz:3950.got - 2010.06.03 18:43:04.
