data_PCOD9119993
_publ_section_title
;
Structure prediction by ZEFSAII (Michael W. Deem and Ramdas Pophale) SiO2 
 PCOD9119993
Probable space group: C 2
;
_chemical_formula_sum "Si O2"
_cell_formula_units_Z 32
_cell_length_a 26.155161
_cell_length_b 4.965010
_cell_length_c 17.070901
_cell_angle_alpha 90.000000
_cell_angle_beta 33.314299
_cell_angle_gamma 90.000000
_cell_volume 1217.557046
_symmetry_space_group_name_H-M "C 2"
_symmetry_group_IT_number 5
_symmetry_cell_setting 'monoclinic'
loop_
_space_group_symop_operation_xyz
x,y,z
-x,y,-z
1/2+x,1/2+y,z
1/2-x,1/2+y,-z
loop_
_atom_site_type_symbol
_atom_site_label
_atom_site_fract_x
_atom_site_fract_y
_atom_site_fract_z
Si Si1 0.466530 0.755370 0.301046
Si Si2 0.197556 0.889793 0.036376
Si Si3 0.233383 0.724893 0.814427
Si Si4 0.952457 0.439802 0.957534
Si Si5 0.438117 0.442774 0.186589
Si Si6 0.855488 0.701911 0.645937
Si Si7 0.460734 0.104392 0.669426
Si Si8 0.739333 0.931351 0.460677
O O1 0.537049 0.906482 0.150320
O O2 0.445319 0.493688 0.273123
O O3 0.513248 0.820472 0.324148
O O4 0.363425 0.885416 0.440545
O O5 0.100759 0.789432 0.195411
O O6 0.225893 0.191190 0.022637
O O7 0.201559 0.843904 0.938828
O O8 0.281493 0.979734 0.711869
O O9 0.307969 0.484568 0.726506
O O10 0.143609 0.572949 0.895504
O O11 0.034856 0.645060 0.871315
O O12 0.980790 0.142469 0.946555
O O13 0.333811 0.522130 0.295792
O O14 0.901019 0.578794 0.666688
O O15 0.941151 0.740303 0.477818
O O16 0.770005 0.646383 0.457827
#
# Coordination Sequence:
#
# PCOD9119993 Si02
#       8
#     4   4   4   4   4   4   4   4
#     4   9  20  32  55  88 114 150 188 239 287 343
#     4  12  22  37  60  85 108 143 193 245 284 330
#     4  12  22  43  58  85 113 157 199 245 293 340
#     4  10  19  31  57  83 111 143 189 234 281 341
#     4   9  17  32  50  87 118 144 174 237 301 341
#     4  11  27  42  58  80 122 163 196 240 292 342
#     4  11  23  44  58  88 116 160 199 241 289 346
#     4  10  16  30  49  81 128 142 173 228 310 347
#
# _framework density 26.282138
#
# number of rings (size 3 to 8) (size 9 to 14) (size 15 to 20)
#    0.750    0.750    5.000    0.750    0.000    4.000 
#    4.500    0.000    0.000    0.000    0.000    5.250 
#    0.000    0.000    0.000    0.000    0.000    0.000 
#
# Total GULP energy -89451.551267 kJ/mol
# GULP energy per Si atom -5590.721954 kJ/mol
# Density = 2.622232 g / cm^3
# Si number density = 26.282138 Si / 1000 Ang^3
#
#
#
# Elastic Constant Matrix: (Units=GPa)
#
#
# Indices 1 2 3 4 5 6 
#
# 1 64.4291 -0.0509 10.2274 0.2187 1.3661 0.0458
# 2 -0.0509 90.5317 8.1290 0.2292 -14.3911 0.0560
# 3 10.2274 8.1290 152.1749 0.3721 -15.1183 0.0798
# 4 0.2187 0.2292 0.3721 26.0302 -0.1569 -25.3168
# 5 1.3661 -14.3911 -15.1183 -0.1569 37.3932 -0.0258
# 6 0.0458 0.0560 0.0798 -25.3168 -0.0258 -12.5931
#
#
#
# Elastic Compliance Matrix: (Units=1/GPa)
#
#
# Indices 1 2 3 4 5 6 
#
# 1 0.015728 -0.000056 -0.001160 -0.000024 -0.001065 0.000100
# 2 -0.000056 0.011771 -0.000182 -0.000011 0.004459 0.000064
# 3 -0.001160 -0.000182 0.006935 -0.000013 0.002776 0.000060
# 4 -0.000024 -0.000011 -0.000013 0.013000 0.000028 -0.026134
# 5 -0.001065 0.004459 0.002776 0.000028 0.029620 -0.000083
# 6 0.000100 0.000064 0.000060 -0.026134 -0.000083 -0.026868
#
#
# Mechanical properties :
#
#
# Convention : Reuss Voigt Hill
#
# Bulk Modulus (GPa) = 31.60868 38.19409 34.90138
# Shear Modulus (GPa) = 78.70625 29.42141 54.06383
#
# Velocity S-wave (km/s) = 5.47829 3.34944 4.54040
# Velocity P-wave (km/s) = 7.21584 5.43344 6.38712
#
# Compressibility (1/GPa) = 0.03163688
#
# Stress axis : x y z
#
# Youngs Moduli (GPa) = 63.58250 84.95530 144.19899
#
# Poissons Ratio (x) = 0.00479 0.16725
# Poissons Ratio (y) = 0.00358 0.02625
# Poissons Ratio (z) = 0.07374 0.01547
#
# Static dielectric constant tensor:
#      x y z
#    x 2.171170 -0.000120 0.023430 
#    y -0.000120 2.008320 0.000030 
#    z 0.023430 0.000030 2.097180 
# 
# From -- ./inp_files/67651.got.cif
#   From: 2010.05.17/outbox.cif.g08.bks.cpg/sg5_34_cif.got.tgz:67651.got - 2010.06.03 18:56:24.
