data_PCOD9119413
_publ_section_title
;
Structure prediction by ZEFSAII (Michael W. Deem and Ramdas Pophale) SiO2 
 PCOD9119413
Probable space group: P 21
;
_chemical_formula_sum "Si O2"
_cell_formula_units_Z 16
_cell_length_a 9.227919
_cell_length_b 15.975979
_cell_length_c 5.442694
_cell_angle_alpha 90.000000
_cell_angle_beta 53.494653
_cell_angle_gamma 90.000000
_cell_volume 644.961665
_symmetry_space_group_name_H-M "P 21"
_symmetry_group_IT_number 4
_symmetry_cell_setting 'monoclinic'
loop_
_space_group_symop_operation_xyz
x,y,z
-x,1/2+y,-z
loop_
_atom_site_type_symbol
_atom_site_label
_atom_site_fract_x
_atom_site_fract_y
_atom_site_fract_z
Si Si1 0.389218 0.924940 0.781996
Si Si2 0.826900 0.684853 0.631218
Si Si3 0.320377 0.112378 0.725093
Si Si4 0.706601 0.129790 0.466461
Si Si5 0.788043 0.854722 0.460591
Si Si6 0.896724 0.302217 0.180461
Si Si7 0.855854 0.086188 0.817393
Si Si8 0.907039 0.439767 0.567660
O O1 0.594342 0.893438 0.590762
O O2 0.257377 0.850345 0.823324
O O3 0.358202 0.012470 0.671210
O O4 0.294736 0.950741 0.133636
O O5 0.719422 0.645388 0.507563
O O6 0.767720 0.781974 0.687837
O O7 0.033683 0.672573 0.330816
O O8 0.810777 0.636482 0.910796
O O9 0.501549 0.155470 0.640807
O O10 0.829488 0.210888 0.312981
O O11 0.732984 0.084089 0.699187
O O12 0.754825 0.077625 0.174356
O O13 0.935912 0.924172 0.388913
O O14 0.902335 0.807805 0.133856
O O15 0.904030 0.356606 0.416011
O O16 0.011648 0.016938 0.660928
#
# Coordination Sequence:
#
# PCOD9119413 Si02
#       8
#     2   2   2   2   2   2   2   2
#     4  11  26  46  68 105 144 189 236 297 360 429
#     4  12  25  47  73 102 142 190 238 294 359 423
#     4  12  27  46  73 105 143 190 243 297 356 427
#     4  12  27  47  76 106 142 190 246 295 355 431
#     4  11  26  45  72 104 143 189 240 293 362 430
#     4  11  26  46  71 104 144 188 235 299 359 425
#     4  12  25  47  74 102 144 189 238 297 356 423
#     4  11  26  44  71 102 146 187 238 298 361 424
#
# _framework density 24.807673999999999
#
# number of rings (size 3 to 8) (size 9 to 14) (size 15 to 20)
#    0.000    0.500    2.500    4.500   10.500    1.000 
#    0.000    0.000    0.000    0.000    0.000    0.000 
#    0.000    0.000    0.000    0.000    0.000    0.000 
#
# Total GULP energy -89427.058274 kJ/mol
# GULP energy per Si atom -5589.191142 kJ/mol
# Density = 2.475121 g / cm^3
# Si number density = 24.807674 Si / 1000 Ang^3
#
#
#
# Elastic Constant Matrix: (Units=GPa)
#
#
# Indices 1 2 3 4 5 6 
#
# 1 99.3948 0.1344 32.8353 0.0000 -6.9926 0.0000
# 2 0.1344 76.1975 14.6808 0.0000 0.7030 0.0000
# 3 32.8353 14.6808 81.8048 0.0000 -13.7961 0.0000
# 4 0.0000 0.0000 0.0000 33.6798 0.0000 -0.7145
# 5 -6.9926 0.7030 -13.7961 0.0000 43.0443 0.0000
# 6 0.0000 0.0000 0.0000 -0.7145 0.0000 38.9687
#
#
#
# Elastic Compliance Matrix: (Units=1/GPa)
#
#
# Indices 1 2 3 4 5 6 
#
# 1 0.011665 0.000898 -0.004785 0.000000 0.000347 0.000000
# 2 0.000898 0.013709 -0.002996 0.000000 -0.001038 0.000000
# 3 -0.004785 -0.002996 0.015392 0.000000 0.004205 0.000000
# 4 0.000000 0.000000 0.000000 0.029703 0.000000 0.000545
# 5 0.000347 -0.001038 0.004205 0.000000 0.024653 0.000000
# 6 0.000000 0.000000 0.000000 0.000545 0.000000 0.025672
#
#
# Mechanical properties :
#
#
# Convention : Reuss Voigt Hill
#
# Bulk Modulus (GPa) = 37.03667 39.18870 38.11268
# Shear Modulus (GPa) = 34.82921 37.12166 35.97543
#
# Velocity S-wave (km/s) = 3.75102 3.87250 3.81225
# Velocity P-wave (km/s) = 5.80708 5.98551 5.89697
#
# Compressibility (1/GPa) = 0.02700027
#
# Stress axis : x y z
#
# Youngs Moduli (GPa) = 85.72863 72.94490 64.97088
#
# Poissons Ratio (x) = -0.06551 0.31087
# Poissons Ratio (y) = -0.07699 0.19464
# Poissons Ratio (z) = 0.41019 0.21853
#
# Static dielectric constant tensor:
#      x y z
#    x 2.014220 0.000000 0.048300 
#    y 0.000000 2.056270 0.000000 
#    z 0.048300 0.000000 1.988260 
# 
# From -- ./inp_files/1909.got.cif
#   From: 2010.05.17/outbox.cif.g08.bks.cpg/sg4_1_cif.got.tgz:1909.got - 2010.06.03 18:43:04.
