data_PCOD9119836
_publ_section_title
;
Structure prediction by ZEFSAII (Michael W. Deem and Ramdas Pophale) SiO2 
 PCOD9119836
Probable space group: P 21
;
_chemical_formula_sum "Si O2"
_cell_formula_units_Z 14
_cell_length_a 12.000000
_cell_length_b 9.000000
_cell_length_c 9.000000
_cell_angle_alpha 90.000000
_cell_angle_beta 140.000000
_cell_angle_gamma 90.000000
_cell_volume 624.789557
_symmetry_space_group_name_H-M "P 21"
_symmetry_group_IT_number 4
_symmetry_cell_setting 'monoclinic'
loop_
_space_group_symop_operation_xyz
x,y,z
-x,1/2+y,-z
loop_
_atom_site_type_symbol
_atom_site_label
_atom_site_fract_x
_atom_site_fract_y
_atom_site_fract_z
Si Si1 0.955044 0.964390 0.523496
Si Si2 0.932967 0.432054 0.701497
Si Si3 0.438441 0.563219 0.859506
Si Si4 0.979549 0.762658 0.799554
Si Si5 0.757647 0.787266 0.833073
Si Si6 0.530591 0.389743 0.242591
Si Si7 0.266723 0.985010 0.049411
O O1 0.944444 0.802568 0.591747
O O2 0.769412 0.040464 0.359987
O O3 0.006612 0.946972 0.406909
O O4 0.118119 0.035118 0.778094
O O5 0.983861 0.588315 0.829424
O O6 0.728020 0.405358 0.498955
O O7 0.054969 0.309426 0.898487
O O8 0.482024 0.732383 0.858568
O O9 0.557580 0.465934 0.866706
O O10 0.490516 0.516353 0.079879
O O11 0.814447 0.823524 0.723428
O O12 0.164226 0.845030 0.016699
O O13 0.611531 0.881981 0.770119
O O14 0.704061 0.616242 0.803488
#
# Coordination Sequence:
#
# PCOD9119836 Si02
#       7
#     2   2   2   2   2   2   2
#     4  10  23  38  67  93 125 166 216 273 314 374
#     4  12  24  42  70  97 129 169 226 267 326 389
#     4  11  22  39  66  98 130 164 218 272 326 371
#     4  10  25  44  65  96 130 171 217 265 332 389
#     4  11  23  46  63  95 136 173 209 271 335 394
#     4  11  25  39  67  99 131 173 217 270 325 391
#     4   9  22  40  66  88 133 162 219 264 324 376
#
# _framework density 22.407544999999999
#
# number of rings (size 3 to 8) (size 9 to 14) (size 15 to 20)
#    0.857    0.571    2.857    1.714    8.000    0.000 
#    7.714    0.000    0.000    0.000    0.000    0.000 
#    0.000    0.000    0.000    0.000    0.000    0.000 
#
# Total GULP energy -78169.619347 kJ/mol
# GULP energy per Si atom -5583.544239 kJ/mol
# Density = 2.235654 g / cm^3
# Si number density = 22.407545 Si / 1000 Ang^3
#
#
#
# Elastic Constant Matrix: (Units=GPa)
#
#
# Indices 1 2 3 4 5 6 
#
# 1 160.2282 0.7601 19.8390 0.0000 15.9897 0.0000
# 2 0.7601 52.2521 -3.2076 0.0000 -6.7270 0.0000
# 3 19.8390 -3.2076 52.8040 0.0000 24.7464 0.0000
# 4 0.0000 0.0000 0.0000 22.4200 0.0000 4.8398
# 5 15.9897 -6.7270 24.7464 0.0000 36.0039 0.0000
# 6 0.0000 0.0000 0.0000 4.8398 0.0000 31.2343
#
#
#
# Elastic Compliance Matrix: (Units=1/GPa)
#
#
# Indices 1 2 3 4 5 6 
#
# 1 0.006635 -0.000443 -0.001623 0.000000 -0.001914 0.000000
# 2 -0.000443 0.019661 -0.000668 0.000000 0.004329 0.000000
# 3 -0.001623 -0.000668 0.028364 0.000000 -0.018900 0.000000
# 4 0.000000 0.000000 0.000000 0.046147 0.000000 -0.007150
# 5 -0.001914 0.004329 -0.018900 0.000000 0.042424 0.000000
# 6 0.000000 0.000000 0.000000 -0.007150 0.000000 0.033124
#
#
# Mechanical properties :
#
#
# Convention : Reuss Voigt Hill
#
# Bulk Modulus (GPa) = 20.32814 33.34082 26.83448
# Shear Modulus (GPa) = 25.22452 34.45782 29.84117
#
# Velocity S-wave (km/s) = 3.35881 3.92570 3.65327
# Velocity P-wave (km/s) = 4.91262 5.95481 5.45865
#
# Compressibility (1/GPa) = 0.04919288
#
# Stress axis : x y z
#
# Youngs Moduli (GPa) = 150.71289 50.86276 35.25554
#
# Poissons Ratio (x) = 0.02251 0.05721
# Poissons Ratio (y) = 0.06670 0.02356
# Poissons Ratio (z) = 0.24457 0.03399
#
# Static dielectric constant tensor:
#      x y z
#    x 1.831930 0.000000 -0.039700 
#    y 0.000000 1.859760 0.000000 
#    z -0.039700 0.000000 1.824740 
# 
# From -- ./inp_files/7607.got.cif
#   From: 2010.05.17/outbox.ucp.g08.bks.cvg/sg4_4_cif.got.tgz:7607.got - 2010.06.11 12:51:24.
