data_PCOD9119865
_publ_section_title
;
Structure prediction by ZEFSAII (Michael W. Deem and Ramdas Pophale) SiO2 
 PCOD9119865
Probable space group: P 21
;
_chemical_formula_sum "Si O2"
_cell_formula_units_Z 16
_cell_length_a 9.000000
_cell_length_b 12.000000
_cell_length_c 12.000000
_cell_angle_alpha 90.000000
_cell_angle_beta 40.000000
_cell_angle_gamma 90.000000
_cell_volume 833.052742
_symmetry_space_group_name_H-M "P 21"
_symmetry_group_IT_number 4
_symmetry_cell_setting 'monoclinic'
loop_
_space_group_symop_operation_xyz
x,y,z
-x,1/2+y,-z
loop_
_atom_site_type_symbol
_atom_site_label
_atom_site_fract_x
_atom_site_fract_y
_atom_site_fract_z
Si Si1 0.612973 0.796870 0.390372
Si Si2 0.796812 0.157695 0.107574
Si Si3 0.908285 0.300101 0.827650
Si Si4 0.762162 0.914020 0.077546
Si Si5 0.926624 0.565744 0.832446
Si Si6 0.686776 0.386737 0.268005
Si Si7 0.513339 0.219105 0.883352
Si Si8 0.628975 0.095960 0.586504
O O1 0.715092 0.860210 0.224917
O O2 0.400991 0.870607 0.555963
O O3 0.520083 0.676982 0.408075
O O4 0.820566 0.794129 0.360861
O O5 0.651971 0.262070 0.238340
O O6 0.962240 0.115578 0.115268
O O7 0.685298 0.042944 0.127920
O O8 0.905967 0.218349 0.937008
O O9 0.869278 0.432882 0.874566
O O10 0.716293 0.253788 0.852574
O O11 0.622098 0.832340 0.075862
O O12 0.039580 0.912170 0.896076
O O13 0.124334 0.578993 0.620701
O O14 0.689179 0.636451 0.953548
O O15 0.521585 0.482659 0.313559
O O16 0.624891 0.159386 0.708867
#
# Coordination Sequence:
#
# PCOD9119865 Si02
#       8
#     2   2   2   2   2   2   2   2
#     4  11  21  40  67  99 126 164 229 279 322 385
#     4  12  21  41  70 100 128 170 232 279 327 387
#     4  12  25  43  67 101 140 174 216 280 336 404
#     4  11  22  41  63  96 131 172 221 272 326 392
#     4  12  23  48  71  97 134 180 226 283 332 392
#     4  12  21  37  72  98 121 171 227 275 331 378
#     4  11  26  44  66  95 140 181 218 267 347 412
#     4  11  23  44  72  94 134 178 225 285 333 392
#
# _framework density 19.206467
#
# number of rings (size 3 to 8) (size 9 to 14) (size 15 to 20)
#    0.000    0.500    6.250    3.000    1.750    0.000 
#    2.250    0.000    2.750    0.000    0.000    0.000 
#    0.000    0.000    0.000    0.000    0.000    0.000 
#
# Total GULP energy -89251.087370 kJ/mol
# GULP energy per Si atom -5578.192961 kJ/mol
# Density = 1.916275 g / cm^3
# Si number density = 19.206467 Si / 1000 Ang^3
#
#
#
# Elastic Constant Matrix: (Units=GPa)
#
#
# Indices 1 2 3 4 5 6 
#
# 1 82.4613 46.7359 52.3927 0.0000 -2.4072 0.0000
# 2 46.7359 161.5184 26.9344 0.0000 -1.1038 0.0000
# 3 52.3927 26.9344 122.0554 0.0000 -6.7907 0.0000
# 4 0.0000 0.0000 0.0000 36.7476 0.0000 -2.7841
# 5 -2.4072 -1.1038 -6.7907 0.0000 18.8243 0.0000
# 6 0.0000 0.0000 0.0000 -2.7841 0.0000 29.6818
#
#
#
# Elastic Compliance Matrix: (Units=1/GPa)
#
#
# Indices 1 2 3 4 5 6 
#
# 1 0.019227 -0.004346 -0.007319 0.000000 -0.000436 0.000000
# 2 -0.004346 0.007410 0.000228 0.000000 -0.000039 0.000000
# 3 -0.007319 0.000228 0.011463 0.000000 0.003213 0.000000
# 4 0.000000 0.000000 0.000000 0.027407 0.000000 0.002571
# 5 -0.000436 -0.000039 0.003213 0.000000 0.054224 0.000000
# 6 0.000000 0.000000 0.000000 0.002571 0.000000 0.033932
#
#
# Mechanical properties :
#
#
# Convention : Reuss Voigt Hill
#
# Bulk Modulus (GPa) = 65.67012 68.68456 67.17734
# Shear Modulus (GPa) = 27.53113 33.04889 30.29001
#
# Velocity S-wave (km/s) = 3.79017 4.15265 3.97555
# Velocity P-wave (km/s) = 7.30888 7.67017 7.49170
#
# Compressibility (1/GPa) = 0.01522763
#
# Stress axis : x y z
#
# Youngs Moduli (GPa) = 52.00942 134.94398 87.23766
#
# Poissons Ratio (x) = 0.58647 0.63846
# Poissons Ratio (y) = 0.22603 -0.01990
# Poissons Ratio (z) = 0.38064 -0.03078
#
# Static dielectric constant tensor:
#      x y z
#    x 1.667820 0.000000 0.016780 
#    y 0.000000 1.702080 0.000000 
#    z 0.016780 0.000000 1.761580 
# 
# From -- ./inp_files/11136.got.cif
#   From: 2010.05.17/outbox.ucp.g08.bks.cvg/sg4_6_cif.got.tgz:11136.got - 2010.06.11 12:51:24.
