data_PCOD9119636
_publ_section_title
;
Structure prediction by ZEFSAII (Michael W. Deem and Ramdas Pophale) SiO2 
 PCOD9119636
Probable space group: P 21
;
_chemical_formula_sum "Si O2"
_cell_formula_units_Z 14
_cell_length_a 9.192013
_cell_length_b 4.901508
_cell_length_c 14.730594
_cell_angle_alpha 90.000000
_cell_angle_beta 127.327455
_cell_angle_gamma 90.000000
_cell_volume 527.749340
_symmetry_space_group_name_H-M "P 21"
_symmetry_group_IT_number 4
_symmetry_cell_setting 'monoclinic'
loop_
_space_group_symop_operation_xyz
x,y,z
-x,1/2+y,-z
loop_
_atom_site_type_symbol
_atom_site_label
_atom_site_fract_x
_atom_site_fract_y
_atom_site_fract_z
Si Si1 0.683001 0.118160 0.710917
Si Si2 0.622640 0.232689 0.180985
Si Si3 0.937745 0.651812 0.238550
Si Si4 0.563572 0.099909 0.361227
Si Si5 0.881546 0.370225 0.959933
Si Si6 0.698699 0.011189 0.025433
Si Si7 0.053871 0.867156 0.463303
O O1 0.519418 0.330372 0.623748
O O2 0.763055 0.262813 0.831443
O O3 0.857888 0.068212 0.712694
O O4 0.590461 0.830026 0.691734
O O5 0.799854 0.422375 0.226577
O O6 0.615264 0.076931 0.273413
O O7 0.596299 0.048674 0.082109
O O8 0.442097 0.416765 0.103921
O O9 0.855501 0.810638 0.121280
O O10 0.962514 0.864777 0.330520
O O11 0.747286 0.230930 0.471473
O O12 0.936121 0.682174 0.969308
O O13 0.787163 0.283211 0.017993
O O14 0.943892 0.660510 0.488370
#
# Coordination Sequence:
#
# PCOD9119636 Si02
#       7
#     2   2   2   2   2   2   2
#     4  12  28  47  76 110 155 203 247 309 383 455
#     4  12  26  44  73 108 148 195 256 313 372 450
#     4  12  28  49  74 110 148 200 255 309 385 455
#     4  12  28  50  76 112 151 199 256 314 377 449
#     4  12  25  45  70 105 155 201 246 297 379 456
#     4  12  26  40  74 105 146 194 252 308 371 448
#     4  12  27  51  83 112 147 194 254 320 379 447
#
# _framework density 26.527743999999998
#
# number of rings (size 3 to 8) (size 9 to 14) (size 15 to 20)
#    0.000    0.000    5.714    3.429    6.000    1.143 
#    0.000    0.000    0.000    0.000    0.000    0.000 
#    0.000    0.000    0.000    0.000    0.000    0.000 
#
# Total GULP energy -78493.895537 kJ/mol
# GULP energy per Si atom -5606.706824 kJ/mol
# Density = 2.646737 g / cm^3
# Si number density = 26.527744 Si / 1000 Ang^3
#
#
#
# Elastic Constant Matrix: (Units=GPa)
#
#
# Indices 1 2 3 4 5 6 
#
# 1 167.5335 29.2746 22.2749 0.0000 23.0281 0.0000
# 2 29.2746 79.0040 10.1303 0.0000 6.8619 0.0000
# 3 22.2749 10.1303 83.4259 0.0000 -2.2617 0.0000
# 4 0.0000 0.0000 0.0000 25.3209 0.0000 12.2207
# 5 23.0281 6.8619 -2.2617 0.0000 38.3073 0.0000
# 6 0.0000 0.0000 0.0000 12.2207 0.0000 58.6020
#
#
#
# Elastic Compliance Matrix: (Units=1/GPa)
#
#
# Indices 1 2 3 4 5 6 
#
# 1 0.007114 -0.002062 -0.001758 0.000000 -0.004011 0.000000
# 2 -0.002062 0.013680 -0.001145 0.000000 -0.001278 0.000000
# 3 -0.001758 -0.001145 0.012650 0.000000 0.002009 0.000000
# 4 0.000000 0.000000 0.000000 0.043913 0.000000 -0.009157
# 5 -0.004011 -0.001278 0.002009 0.000000 0.028863 0.000000
# 6 0.000000 0.000000 0.000000 -0.009157 0.000000 0.018974
#
#
# Mechanical properties :
#
#
# Convention : Reuss Voigt Hill
#
# Bulk Modulus (GPa) = 42.52990 50.36921 46.44956
# Shear Modulus (GPa) = 34.97428 42.33162 38.65295
#
# Velocity S-wave (km/s) = 3.63492 3.99902 3.82131
# Velocity P-wave (km/s) = 5.80379 6.35228 6.08422
#
# Compressibility (1/GPa) = 0.02351287
#
# Stress axis : x y z
#
# Youngs Moduli (GPa) = 140.55995 73.10130 79.05427
#
# Poissons Ratio (x) = 0.15077 0.13897
# Poissons Ratio (y) = 0.28989 0.09052
# Poissons Ratio (z) = 0.24709 0.08371
#
# Static dielectric constant tensor:
#      x y z
#    x 2.130910 0.000000 0.076570 
#    y 0.000000 2.087790 0.000000 
#    z 0.076570 0.000000 2.083310 
# 
# From -- ./inp_files/7119.got.cif
#   From: 2010.05.17/outbox.cif.g08.bks.cpg/sg4_4_cif.got.tgz:7119.got - 2010.06.03 18:43:04.
