data_PCOD9119870
_publ_section_title
;
Structure prediction by ZEFSAII (Michael W. Deem and Ramdas Pophale) SiO2 
 PCOD9119870
Probable space group: P 21
;
_chemical_formula_sum "Si O2"
_cell_formula_units_Z 16
_cell_length_a 9.000000
_cell_length_b 12.000000
_cell_length_c 9.000000
_cell_angle_alpha 90.000000
_cell_angle_beta 40.000000
_cell_angle_gamma 90.000000
_cell_volume 624.789557
_symmetry_space_group_name_H-M "P 21"
_symmetry_group_IT_number 4
_symmetry_cell_setting 'monoclinic'
loop_
_space_group_symop_operation_xyz
x,y,z
-x,1/2+y,-z
loop_
_atom_site_type_symbol
_atom_site_label
_atom_site_fract_x
_atom_site_fract_y
_atom_site_fract_z
Si Si1 0.091634 0.681360 0.861647
Si Si2 0.214080 0.385810 0.841599
Si Si3 0.357851 0.745890 0.378923
Si Si4 0.255456 0.400036 0.483616
Si Si5 0.869535 0.517968 0.622136
Si Si6 0.324292 0.033668 0.902688
Si Si7 0.099636 0.726943 0.313024
Si Si8 0.381646 0.577682 0.871743
O O1 0.989299 0.797199 0.999497
O O2 0.882565 0.590500 0.033851
O O3 0.158406 0.710414 0.643527
O O4 0.326309 0.644910 0.763614
O O5 0.455452 0.320562 0.679077
O O6 0.218653 0.446079 0.678590
O O7 0.213742 0.470867 0.979690
O O8 0.491401 0.634000 0.229201
O O9 0.251271 0.801479 0.311691
O O10 0.526124 0.424913 0.255369
O O11 0.118398 0.283528 0.600239
O O12 0.112006 0.448571 0.452712
O O13 0.977228 0.638494 0.510596
O O14 0.638204 0.530293 0.697254
O O15 0.773942 0.507467 0.861373
O O16 0.279690 0.661320 0.071869
#
# Coordination Sequence:
#
# PCOD9119870 Si02
#       8
#     2   2   2   2   2   2   2   2
#     4  11  25  47  78 107 153 195 254 319 383 463
#     4  11  27  45  77 113 148 206 253 318 388 460
#     4  11  23  47  72 108 147 196 253 314 385 455
#     4  12  26  48  76 117 150 209 253 316 397 465
#     4  12  25  46  75 109 150 203 245 324 375 464
#     4  11  22  46  73 102 151 198 249 308 386 450
#     4  12  26  48  74 112 153 200 263 317 388 465
#     4  12  26  47  73 114 152 199 258 318 386 456
#
# _framework density 25.608623000000001
#
# number of rings (size 3 to 8) (size 9 to 14) (size 15 to 20)
#    0.000    0.500    5.000    2.250    1.750    7.000 
#    0.000    0.000    0.000    0.000    0.000    0.000 
#    0.000    0.000    0.000    0.000    0.000    0.000 
#
# Total GULP energy -89231.325360 kJ/mol
# GULP energy per Si atom -5576.957835 kJ/mol
# Density = 2.555034 g / cm^3
# Si number density = 25.608623 Si / 1000 Ang^3
#
#
#
# Elastic Constant Matrix: (Units=GPa)
#
#
# Indices 1 2 3 4 5 6 
#
# 1 110.1811 22.7003 -10.3356 0.0000 5.3874 0.0000
# 2 22.7003 40.0515 -3.4015 0.0000 -3.5026 0.0000
# 3 -10.3356 -3.4015 36.2053 0.0000 11.5300 0.0000
# 4 0.0000 0.0000 0.0000 38.4020 0.0000 -9.0737
# 5 5.3874 -3.5026 11.5300 0.0000 35.2973 0.0000
# 6 0.0000 0.0000 0.0000 -9.0737 0.0000 47.3749
#
#
#
# Elastic Compliance Matrix: (Units=1/GPa)
#
#
# Indices 1 2 3 4 5 6 
#
# 1 0.010850 -0.006144 0.003618 0.000000 -0.003447 0.000000
# 2 -0.006144 0.028765 -0.000289 0.000000 0.003887 0.000000
# 3 0.003618 -0.000289 0.032156 0.000000 -0.011085 0.000000
# 4 0.000000 0.000000 0.000000 0.027275 0.000000 0.005224
# 5 -0.003447 0.003887 -0.011085 0.000000 0.032863 0.000000
# 6 0.000000 0.000000 0.000000 0.005224 0.000000 0.022109
#
#
# Mechanical properties :
#
#
# Convention : Reuss Voigt Hill
#
# Bulk Modulus (GPa) = 15.11909 22.70716 18.91313
# Shear Modulus (GPa) = 27.51876 36.04648 31.78262
#
# Velocity S-wave (km/s) = 3.28165 3.75586 3.52673
# Velocity P-wave (km/s) = 4.50285 5.26259 4.89748
#
# Compressibility (1/GPa) = 0.06614153
#
# Stress axis : x y z
#
# Youngs Moduli (GPa) = 92.16879 34.76422 31.09841
#
# Poissons Ratio (x) = 0.21358 -0.11251
# Poissons Ratio (y) = 0.56625 0.00899
# Poissons Ratio (z) = -0.33346 0.01005
#
# Static dielectric constant tensor:
#      x y z
#    x 2.055160 0.000000 -0.024230 
#    y 0.000000 2.151850 0.000000 
#    z -0.024230 0.000000 1.999240 
# 
# From -- ./inp_files/6340.got.cif
#   From: 2010.05.17/outbox.ucp.g08.bks.cvg/sg4_4_cif.got.tgz:6340.got - 2010.06.11 12:51:24.
