data_PCOD9119376
_publ_section_title
;
Structure prediction by ZEFSAII (Michael W. Deem and Ramdas Pophale) SiO2 
 PCOD9119376
Probable space group: P 21
;
_chemical_formula_sum "Si O2"
_cell_formula_units_Z 16
_cell_length_a 5.656400
_cell_length_b 10.357570
_cell_length_c 14.344454
_cell_angle_alpha 90.000000
_cell_angle_beta 127.213808
_cell_angle_gamma 90.000000
_cell_volume 669.275061
_symmetry_space_group_name_H-M "P 21"
_symmetry_group_IT_number 4
_symmetry_cell_setting 'monoclinic'
loop_
_space_group_symop_operation_xyz
x,y,z
-x,1/2+y,-z
loop_
_atom_site_type_symbol
_atom_site_label
_atom_site_fract_x
_atom_site_fract_y
_atom_site_fract_z
Si Si1 0.536853 0.019800 0.447616
Si Si2 0.547517 0.418486 0.861779
Si Si3 0.243754 0.764691 0.592883
Si Si4 0.640282 0.007199 0.677443
Si Si5 0.092171 0.652258 0.737362
Si Si6 0.575307 0.209630 0.005425
Si Si7 0.646456 0.776832 0.365482
Si Si8 0.021846 0.574674 0.054812
O O1 0.699270 0.114435 0.414144
O O2 0.717611 0.028441 0.587230
O O3 0.213268 0.085237 0.365908
O O4 0.504822 0.871636 0.409066
O O5 0.336915 0.539226 0.792409
O O6 0.479177 0.348260 0.942672
O O7 0.491237 0.323278 0.763319
O O8 0.883432 0.465045 0.954860
O O9 0.142084 0.765364 0.675223
O O10 0.991805 0.806964 0.460805
O O11 0.509420 0.863835 0.647809
O O12 0.407864 0.125730 0.634666
O O13 0.851829 0.025031 0.816423
O O14 0.156749 0.708894 0.855469
O O15 0.725991 0.140411 0.950365
O O16 0.276099 0.152957 0.982432
#
# Coordination Sequence:
#
# PCOD9119376 Si02
#       8
#     2   2   2   2   2   2   2   2
#     4  12  26  48  78 111 154 206 257 321 404 468
#     4  11  25  48  78 104 154 207 256 321 387 476
#     4  12  27  48  74 115 157 197 259 329 404 460
#     4  12  27  45  79 116 154 199 264 329 388 469
#     4  11  26  48  76 110 150 210 251 329 391 476
#     4  11  27  47  78 109 156 203 266 319 387 469
#     4  12  24  48  77 107 154 203 261 316 392 478
#     4  11  28  48  72 120 149 207 258 324 389 462
#
# _framework density 23.906462000000001
#
# number of rings (size 3 to 8) (size 9 to 14) (size 15 to 20)
#    0.000    0.500    3.750    3.000    7.000    5.000 
#    0.000    0.000    0.000    0.000    0.000    0.000 
#    0.000    0.000    0.000    0.000    0.000    0.000 
#
# Total GULP energy -89338.133526 kJ/mol
# GULP energy per Si atom -5583.633345 kJ/mol
# Density = 2.385205 g / cm^3
# Si number density = 23.906462 Si / 1000 Ang^3
#
#
#
# Elastic Constant Matrix: (Units=GPa)
#
#
# Indices 1 2 3 4 5 6 
#
# 1 66.2912 15.9138 29.9860 0.0000 -9.3485 0.0000
# 2 15.9138 55.6624 31.1276 0.0000 2.3021 0.0000
# 3 29.9860 31.1276 162.7497 0.0000 -21.5009 0.0000
# 4 0.0000 0.0000 0.0000 36.6200 0.0000 -8.6733
# 5 -9.3485 2.3021 -21.5009 0.0000 24.7659 0.0000
# 6 0.0000 0.0000 0.0000 -8.6733 0.0000 29.9184
#
#
#
# Elastic Compliance Matrix: (Units=1/GPa)
#
#
# Indices 1 2 3 4 5 6 
#
# 1 0.017682 -0.004345 -0.001685 0.000000 0.005616 0.000000
# 2 -0.004345 0.021974 -0.004393 0.000000 -0.007496 0.000000
# 3 -0.001685 -0.004393 0.008206 0.000000 0.006897 0.000000
# 4 0.000000 0.000000 0.000000 0.029321 0.000000 0.008500
# 5 0.005616 -0.007496 0.006897 0.000000 0.049182 0.000000
# 6 0.000000 0.000000 0.000000 0.008500 0.000000 0.035888
#
#
# Mechanical properties :
#
#
# Convention : Reuss Voigt Hill
#
# Bulk Modulus (GPa) = 37.01384 48.75092 42.88238
# Shear Modulus (GPa) = 26.02745 32.10591 29.06668
#
# Velocity S-wave (km/s) = 3.30316 3.66865 3.49069
# Velocity P-wave (km/s) = 5.48308 6.19531 5.85005
#
# Compressibility (1/GPa) = 0.02701692
#
# Stress axis : x y z
#
# Youngs Moduli (GPa) = 56.55414 45.50787 121.86110
#
# Poissons Ratio (x) = 0.19775 0.20532
# Poissons Ratio (y) = 0.24575 0.53528
# Poissons Ratio (z) = 0.09529 0.19990
#
# Static dielectric constant tensor:
#      x y z
#    x 1.956250 0.000000 -0.000880 
#    y 0.000000 1.959290 0.000000 
#    z -0.000880 0.000000 1.868750 
# 
# From -- ./inp_files/12077.got.cif
#   From: 2010.05.17/outbox.cif.g08.bks.cpg/sg4_7_cif.got.tgz:12077.got - 2010.06.03 18:43:04.
