data_PCOD9119752
_publ_section_title
;
Structure prediction by ZEFSAII (Michael W. Deem and Ramdas Pophale) SiO2 
 PCOD9119752
Probable space group: P 21
;
_chemical_formula_sum "Si O2"
_cell_formula_units_Z 16
_cell_length_a 8.850241
_cell_length_b 8.709289
_cell_length_c 8.933013
_cell_angle_alpha 90.000000
_cell_angle_beta 116.277765
_cell_angle_gamma 90.000000
_cell_volume 617.394479
_symmetry_space_group_name_H-M "P 21"
_symmetry_group_IT_number 4
_symmetry_cell_setting 'monoclinic'
loop_
_space_group_symop_operation_xyz
x,y,z
-x,1/2+y,-z
loop_
_atom_site_type_symbol
_atom_site_label
_atom_site_fract_x
_atom_site_fract_y
_atom_site_fract_z
Si Si1 0.640080 0.661080 0.154824
Si Si2 0.656543 0.318982 0.052384
Si Si3 0.646733 0.889211 0.559572
Si Si4 0.264171 0.833613 0.371872
Si Si5 0.236254 0.360698 0.063840
Si Si6 0.236262 0.638541 0.624852
Si Si7 0.860994 0.625649 0.549462
Si Si8 0.922993 0.186073 0.987338
O O1 0.618846 0.494862 0.069484
O O2 0.765611 0.631625 0.346799
O O3 0.459802 0.732522 0.120060
O O4 0.690926 0.796131 0.059835
O O5 0.649498 0.208337 0.194135
O O6 0.844763 0.302382 0.073847
O O7 0.465035 0.813925 0.450508
O O8 0.650145 0.906628 0.742432
O O9 0.812863 0.791869 0.592417
O O10 0.668153 0.027203 0.449231
O O11 0.193016 0.781587 0.501035
O O12 0.162646 0.737624 0.205805
O O13 0.225560 0.012997 0.368197
O O14 0.125824 0.513657 0.991776
O O15 0.117710 0.219298 0.056972
O O16 0.056739 0.584872 0.611056
#
# Coordination Sequence:
#
# PCOD9119752 Si02
#       8
#     2   2   2   2   2   2   2   2
#     4  12  28  50  76 112 154 201 256 320 387 473
#     4  12  28  47  77 110 154 202 258 316 394 462
#     4  12  28  47  79 111 151 204 258 321 393 460
#     4  12  26  51  76 108 155 202 260 323 385 464
#     4  12  28  50  76 112 154 201 256 320 387 473
#     4  12  26  51  76 108 155 202 260 323 385 464
#     4  12  28  47  79 111 151 204 258 321 393 460
#     4  12  28  47  77 110 154 202 258 316 394 462
#
# _framework density 25.915362999999999
#
# number of rings (size 3 to 8) (size 9 to 14) (size 15 to 20)
#    0.000    0.000    2.500    6.000   14.000    0.000 
#    0.000    0.000    0.000    0.000    0.000    0.000 
#    0.000    0.000    0.000    0.000    0.000    0.000 
#
# Total GULP energy -89531.524214 kJ/mol
# GULP energy per Si atom -5595.720263 kJ/mol
# Density = 2.585638 g / cm^3
# Si number density = 25.915363 Si / 1000 Ang^3
#
#
#
# Elastic Constant Matrix: (Units=GPa)
#
#
# Indices 1 2 3 4 5 6 
#
# 1 84.2691 6.9644 19.3156 0.0000 -1.5260 0.0000
# 2 6.9644 88.1386 29.4898 0.0000 1.4234 0.0000
# 3 19.3156 29.4898 159.2091 0.0000 -1.1603 0.0000
# 4 0.0000 0.0000 0.0000 36.8106 0.0000 -7.3862
# 5 -1.5260 1.4234 -1.1603 0.0000 26.5608 0.0000
# 6 0.0000 0.0000 0.0000 -7.3862 0.0000 54.7458
#
#
#
# Elastic Compliance Matrix: (Units=1/GPa)
#
#
# Indices 1 2 3 4 5 6 
#
# 1 0.012239 -0.000515 -0.001385 0.000000 0.000670 0.000000
# 2 -0.000515 0.012132 -0.002190 0.000000 -0.000775 0.000000
# 3 -0.001385 -0.002190 0.006857 0.000000 0.000337 0.000000
# 4 0.000000 0.000000 0.000000 0.027922 0.000000 0.003767
# 5 0.000670 -0.000775 0.000337 0.000000 0.037744 0.000000
# 6 0.000000 0.000000 0.000000 0.003767 0.000000 0.018774
#
#
# Mechanical properties :
#
#
# Convention : Reuss Voigt Hill
#
# Bulk Modulus (GPa) = 43.38654 49.23957 46.31306
# Shear Modulus (GPa) = 38.01395 42.01325 40.01360
#
# Velocity S-wave (km/s) = 3.83410 4.03075 3.93365
# Velocity P-wave (km/s) = 6.03145 6.37996 6.20816
#
# Compressibility (1/GPa) = 0.02304862
#
# Stress axis : x y z
#
# Youngs Moduli (GPa) = 81.70745 82.42794 145.83204
#
# Poissons Ratio (x) = 0.04242 0.20192
# Poissons Ratio (y) = 0.04205 0.31942
# Poissons Ratio (z) = 0.11313 0.18055
#
# Static dielectric constant tensor:
#      x y z
#    x 2.034540 0.000000 -0.026650 
#    y 0.000000 2.052870 0.000000 
#    z -0.026650 0.000000 2.068700 
# 
# From -- ./inp_files/5855.got.cif
#   From: 2010.05.17/outbox.cif.g08.bks.cpg/sg4_3_cif.got.tgz:5855.got - 2010.06.03 18:43:04.
