data_PCOD9119997
_publ_section_title
;
Structure prediction by ZEFSAII (Michael W. Deem and Ramdas Pophale) SiO2 
 PCOD9119997
Probable space group: C 2
;
_chemical_formula_sum "Si O2"
_cell_formula_units_Z 28
_cell_length_a 7.918576
_cell_length_b 33.341812
_cell_length_c 5.414802
_cell_angle_alpha 90.000000
_cell_angle_beta 122.246516
_cell_angle_gamma 90.000000
_cell_volume 1209.110931
_symmetry_space_group_name_H-M "C 2"
_symmetry_group_IT_number 5
_symmetry_cell_setting 'monoclinic'
loop_
_space_group_symop_operation_xyz
x,y,z
-x,y,-z
1/2+x,1/2+y,z
1/2-x,1/2+y,-z
loop_
_atom_site_type_symbol
_atom_site_label
_atom_site_fract_x
_atom_site_fract_y
_atom_site_fract_z
Si Si1 0.237255 0.261350 0.657362
Si Si2 0.229025 0.226365 0.149866
Si Si3 0.631795 0.140894 0.852615
Si Si4 0.249140 0.465703 0.947078
Si Si5 0.866360 0.552737 0.144047
Si Si6 0.129486 0.850473 0.349851
Si Si7 0.291876 0.932883 0.580311
O O1 0.311144 0.233064 0.490223
O O2 0.274066 0.307057 0.612220
O O3 0.000000 0.254026 0.500000
O O4 0.317581 0.252453 0.995039
O O5 0.235939 0.180452 0.066684
O O6 0.000000 0.239360 0.000000
O O7 0.500000 0.141187 0.500000
O O8 0.732034 0.096853 0.931456
O O9 0.500000 0.144008 0.000000
O O10 0.267677 0.513375 0.984066
O O11 0.321124 0.453304 0.734544
O O12 0.010544 0.453310 0.755010
O O13 0.307093 0.441488 0.234589
O O14 0.000000 0.548836 0.500000
O O15 0.000000 0.552043 0.000000
O O16 0.289438 0.885851 0.518221
O O17 0.000000 0.849368 0.500000
O O18 0.000000 0.858921 0.000000
#
# Coordination Sequence:
#
# PCOD9119997 Si02
#       7
#     4   4   4   4   4   4   4
#     4  10  23  41  63  83 110 154 205 243 277 353
#     4  10  21  40  59  85 117 153 191 239 298 345
#     4  10  21  32  56  89 119 149 188 243 281 357
#     4  10  17  33  57  88 105 149 193 255 266 331
#     4  10  16  30  50  86 119 137 189 243 291 313
#     4  12  26  42  57  87 124 156 188 247 307 353
#     4  10  20  33  56  82 111 150 192 229 296 333
#
# _framework density 23.157511
#
# number of rings (size 3 to 8) (size 9 to 14) (size 15 to 20)
#    0.000    1.714    2.857    2.571    2.000    3.429 
#    5.143    0.000    0.000    2.571    0.000    0.000 
#    0.000    0.000    0.000    0.000    0.000    0.000 
#
# Total GULP energy -78200.966623 kJ/mol
# GULP energy per Si atom -5585.783330 kJ/mol
# Density = 2.310480 g / cm^3
# Si number density = 23.157511 Si / 1000 Ang^3
#
#
#
# Elastic Constant Matrix: (Units=GPa)
#
#
# Indices 1 2 3 4 5 6 
#
# 1 91.7558 20.3028 42.6174 0.0000 -38.5144 0.0000
# 2 20.3028 166.5581 9.7412 0.0000 -35.6035 0.0000
# 3 42.6174 9.7412 144.8712 0.0000 -46.9077 0.0000
# 4 0.0000 0.0000 0.0000 31.5396 0.0000 -19.5556
# 5 -38.5144 -35.6035 -46.9077 0.0000 48.4117 0.0000
# 6 0.0000 0.0000 0.0000 -19.5556 0.0000 11.4915
#
#
#
# Elastic Compliance Matrix: (Units=1/GPa)
#
#
# Indices 1 2 3 4 5 6 
#
# 1 0.016529 0.000825 -0.000676 0.000000 0.013103 0.000000
# 2 0.000825 0.007492 0.001822 0.000000 0.007932 0.000000
# 3 -0.000676 0.001822 0.010548 0.000000 0.011022 0.000000
# 4 0.000000 0.000000 0.000000 -0.574999 0.000000 -0.978502
# 5 0.013103 0.007932 0.011022 0.000000 0.047593 0.000000
# 6 0.000000 0.000000 0.000000 -0.978502 0.000000 -1.578143
#
#
# Mechanical properties :
#
#
# Convention : Reuss Voigt Hill
#
# Bulk Modulus (GPa) = 25.96551 60.94532 43.45541
# Shear Modulus (GPa) = -2.42473 40.32346 18.94936
#
# Velocity S-wave (km/s) = -1.02437 4.17738 2.86367
# Velocity P-wave (km/s) = 3.13653 7.04572 5.45344
#
# Compressibility (1/GPa) = 0.03851263
#
# Stress axis : x y z
#
# Youngs Moduli (GPa) = 60.49816 133.47117 94.80593
#
# Poissons Ratio (x) = -0.11018 0.06404
# Poissons Ratio (y) = -0.04994 -0.17270
# Poissons Ratio (z) = 0.04087 -0.24313
#
# Static dielectric constant tensor:
#      x y z
#    x 1.841340 0.000000 -0.011180 
#    y 0.000000 1.830530 0.000000 
#    z -0.011180 0.000000 1.906910 
# 
# From -- ./inp_files/3985.got.cif
#   From: 2010.05.17/outbox.cif.g08.bks.cpg/sg5_2_cif.got.tgz:3985.got - 2010.06.03 18:56:24.
