data_PCOD9119018
_publ_section_title
;
Structure prediction by ZEFSAII (Michael W. Deem and Ramdas Pophale) SiO2 
 PCOD9119018
Probable space group: P 21
;
_chemical_formula_sum "Si O2"
_cell_formula_units_Z 14
_cell_length_a 8.866818
_cell_length_b 8.760891
_cell_length_c 7.957169
_cell_angle_alpha 90.000000
_cell_angle_beta 118.800879
_cell_angle_gamma 90.000000
_cell_volume 541.660433
_symmetry_space_group_name_H-M "P 21"
_symmetry_group_IT_number 4
_symmetry_cell_setting 'monoclinic'
loop_
_space_group_symop_operation_xyz
x,y,z
-x,1/2+y,-z
loop_
_atom_site_type_symbol
_atom_site_label
_atom_site_fract_x
_atom_site_fract_y
_atom_site_fract_z
Si Si1 0.132865 0.404220 0.757942
Si Si2 0.109722 0.709712 0.534485
Si Si3 0.625664 0.740012 0.651245
Si Si4 0.744032 0.438581 0.138675
Si Si5 0.037767 0.056578 0.054887
Si Si6 0.542027 0.730153 0.986545
Si Si7 0.308948 0.601828 0.312469
O O1 0.124094 0.566775 0.664526
O O2 0.317799 0.363149 0.924276
O O3 0.081809 0.260135 0.616834
O O4 0.999728 0.417551 0.839259
O O5 0.172991 0.866982 0.652207
O O6 0.211006 0.662031 0.424722
O O7 0.815422 0.662301 0.778580
O O8 0.498233 0.681683 0.434415
O O9 0.653577 0.920762 0.652744
O O10 0.530406 0.703138 0.779097
O O11 0.615304 0.576921 0.103565
O O12 0.877923 0.495854 0.072196
O O13 0.625358 0.297442 0.017014
O O14 0.845136 0.117173 0.909326
#
# Coordination Sequence:
#
# PCOD9119018 Si02
#       7
#     2   2   2   2   2   2   2
#     4  12  27  49  78 114 158 213 270 334 408 479
#     4  12  27  48  75 114 159 209 270 334 400 483
#     4  11  27  50  78 120 160 213 266 335 404 483
#     4  11  25  49  77 116 156 207 269 330 404 479
#     4  11  28  50  85 115 158 214 272 332 408 480
#     4  11  23  51  74 113 156 206 271 326 404 479
#     4  12  27  53  77 120 165 208 272 333 406 483
#
# _framework density 25.846450999999998
#
# number of rings (size 3 to 8) (size 9 to 14) (size 15 to 20)
#    0.000    0.571    2.857    4.286    8.000    0.000 
#    7.714    0.000    0.000    0.000    0.000    0.000 
#    0.000    0.000    0.000    0.000    0.000    0.000 
#
# Total GULP energy -78353.540970 kJ/mol
# GULP energy per Si atom -5596.681498 kJ/mol
# Density = 2.578762 g / cm^3
# Si number density = 25.846451 Si / 1000 Ang^3
#
#
#
# Elastic Constant Matrix: (Units=GPa)
#
#
# Indices 1 2 3 4 5 6 
#
# 1 84.7452 52.4951 39.5101 0.0000 28.6112 0.0000
# 2 52.4951 127.6644 60.0168 0.0000 22.1208 0.0000
# 3 39.5101 60.0168 122.8394 0.0000 34.3002 0.0000
# 4 0.0000 0.0000 0.0000 63.2594 0.0000 4.1331
# 5 28.6112 22.1208 34.3002 0.0000 44.9608 0.0000
# 6 0.0000 0.0000 0.0000 4.1331 0.0000 47.3517
#
#
#
# Elastic Compliance Matrix: (Units=1/GPa)
#
#
# Indices 1 2 3 4 5 6 
#
# 1 0.018605 -0.005824 -0.000804 0.000000 -0.008361 0.000000
# 2 -0.005824 0.012076 -0.004324 0.000000 0.001063 0.000000
# 3 -0.000804 -0.004324 0.012421 0.000000 -0.006837 0.000000
# 4 0.000000 0.000000 0.000000 0.015899 0.000000 -0.001388
# 5 -0.008361 0.001063 -0.006837 0.000000 0.032255 0.000000
# 6 0.000000 0.000000 0.000000 -0.001388 0.000000 0.021240
#
#
# Mechanical properties :
#
#
# Convention : Reuss Voigt Hill
#
# Bulk Modulus (GPa) = 47.17272 71.03256 59.10264
# Shear Modulus (GPa) = 35.34441 43.32951 39.33696
#
# Velocity S-wave (km/s) = 3.70195 4.09885 3.90545
# Velocity P-wave (km/s) = 6.04676 7.06703 6.57671
#
# Compressibility (1/GPa) = 0.02119869
#
# Stress axis : x y z
#
# Youngs Moduli (GPa) = 53.74856 82.80760 80.50897
#
# Poissons Ratio (x) = 0.48223 0.06476
# Poissons Ratio (y) = 0.31301 0.34811
# Poissons Ratio (z) = 0.04323 0.35805
#
# Static dielectric constant tensor:
#      x y z
#    x 2.000860 0.000000 0.061410 
#    y 0.000000 1.973630 0.000000 
#    z 0.061410 0.000000 2.090580 
# 
# From -- ./inp_files/5289.got.cif
#   From: 2010.05.17/outbox.cif.g08.bks.cpg/sg4_3_cif.got.tgz:5289.got - 2010.06.03 18:43:04.
