data_PCOD9119043
_publ_section_title
;
Structure prediction by ZEFSAII (Michael W. Deem and Ramdas Pophale) SiO2 
 PCOD9119043
Probable space group: P 21
;
_chemical_formula_sum "Si O2"
_cell_formula_units_Z 12
_cell_length_a 5.909572
_cell_length_b 17.239727
_cell_length_c 5.008575
_cell_angle_alpha 90.000000
_cell_angle_beta 95.641899
_cell_angle_gamma 90.000000
_cell_volume 507.798789
_symmetry_space_group_name_H-M "P 21"
_symmetry_group_IT_number 4
_symmetry_cell_setting 'monoclinic'
loop_
_space_group_symop_operation_xyz
x,y,z
-x,1/2+y,-z
loop_
_atom_site_type_symbol
_atom_site_label
_atom_site_fract_x
_atom_site_fract_y
_atom_site_fract_z
Si Si1 0.816514 0.704250 0.806438
Si Si2 0.944305 0.146168 0.689363
Si Si3 0.590934 0.269667 0.553501
Si Si4 0.928178 0.362748 0.212073
Si Si5 0.533715 0.417166 0.831756
Si Si6 0.706702 0.981850 0.671217
O O1 0.967652 0.661562 0.598802
O O2 0.917406 0.790590 0.857137
O O3 0.571337 0.717976 0.649100
O O4 0.846641 0.657461 0.082693
O O5 0.761502 0.213808 0.728767
O O6 0.814786 0.065958 0.704014
O O7 0.738347 0.325639 0.381128
O O8 0.462794 0.329674 0.732876
O O9 0.088695 0.423555 0.378098
O O10 0.792296 0.405745 0.960430
O O11 0.485624 0.472873 0.576616
O O12 0.393189 0.450774 0.062484
#
# Coordination Sequence:
#
# PCOD9119043 Si02
#       6
#     2   2   2   2   2   2
#     4  11  24  43  71  96 136 181 235 281 337 410
#     4  11  27  46  67 104 142 180 227 286 351 405
#     4  11  25  44  76 100 134 185 241 280 334 414
#     4  11  24  42  72 102 133 183 232 283 342 404
#     4  12  24  43  70 102 133 183 232 285 332 416
#     4  12  28  44  70 104 146 176 227 291 350 403
#
# _framework density 23.631409000000001
#
# number of rings (size 3 to 8) (size 9 to 14) (size 15 to 20)
#    0.000    0.667    5.000    1.000    7.000    2.667 
#    0.000    0.000    0.000    0.000    0.000    0.000 
#    0.000    0.000    0.000    0.000    0.000    0.000 
#
# Total GULP energy -67217.119224 kJ/mol
# GULP energy per Si atom -5601.426602 kJ/mol
# Density = 2.357762 g / cm^3
# Si number density = 23.631409 Si / 1000 Ang^3
#
#
#
# Elastic Constant Matrix: (Units=GPa)
#
#
# Indices 1 2 3 4 5 6 
#
# 1 20.6220 -23.1972 12.8778 0.0000 2.0470 0.0000
# 2 -23.1972 32.1333 5.6397 0.0000 -12.4205 0.0000
# 3 12.8778 5.6397 97.5140 0.0000 4.0175 0.0000
# 4 0.0000 0.0000 0.0000 25.7313 0.0000 7.2542
# 5 2.0470 -12.4205 4.0175 0.0000 40.8319 0.0000
# 6 0.0000 0.0000 0.0000 7.2542 0.0000 10.0114
#
#
#
# Elastic Compliance Matrix: (Units=1/GPa)
#
#
# Indices 1 2 3 4 5 6 
#
# 1 -1.111349 -0.935887 0.211182 0.000000 -0.249747 0.000000
# 2 -0.935887 -0.752247 0.175305 0.000000 -0.199153 0.000000
# 3 0.211182 0.175305 -0.029654 0.000000 0.045656 0.000000
# 4 0.000000 0.000000 0.000000 0.048840 0.000000 -0.035389
# 5 -0.249747 -0.199153 0.045656 0.000000 -0.028060 0.000000
# 6 0.000000 0.000000 0.000000 -0.035389 0.000000 0.125528
#
#
# Mechanical properties :
#
#
# Convention : Reuss Voigt Hill
#
# Bulk Modulus (GPa) = -0.33422 15.65667 7.66123
# Shear Modulus (GPa) = -3.03861 25.64486 11.30313
#
# Velocity S-wave (km/s) = -1.13518 3.29781 2.18940
# Velocity P-wave (km/s) = 1.36378 4.59788 3.10488
#
# Compressibility (1/GPa) = -2.99204813
#
# Stress axis : x y z
#
# Youngs Moduli (GPa) = -0.89981 -1.32935 -33.72261
#
# Poissons Ratio (x) = -1.24412 7.12161
# Poissons Ratio (y) = -0.84212 5.91175
# Poissons Ratio (z) = 0.19002 0.23304
#
# Static dielectric constant tensor:
#      x y z
#    x 1.886590 0.000000 -0.009680 
#    y 0.000000 1.847170 0.000000 
#    z -0.009680 0.000000 1.905670 
# 
# From -- ./inp_files/266.got.cif
#   From: 2010.05.17/outbox.cif.g08.bks.cpg/sg4_1_cif.got.tgz:266.got - 2010.06.03 18:43:04.
