data_PCOD9119039
_publ_section_title
;
Structure prediction by ZEFSAII (Michael W. Deem and Ramdas Pophale) SiO2 
 PCOD9119039
Probable space group: P 21
;
_chemical_formula_sum "Si O2"
_cell_formula_units_Z 14
_cell_length_a 15.034704
_cell_length_b 5.329174
_cell_length_c 8.157164
_cell_angle_alpha 90.000000
_cell_angle_beta 78.673878
_cell_angle_gamma 90.000000
_cell_volume 640.844625
_symmetry_space_group_name_H-M "P 21"
_symmetry_group_IT_number 4
_symmetry_cell_setting 'monoclinic'
loop_
_space_group_symop_operation_xyz
x,y,z
-x,1/2+y,-z
loop_
_atom_site_type_symbol
_atom_site_label
_atom_site_fract_x
_atom_site_fract_y
_atom_site_fract_z
Si Si1 0.147302 0.254200 0.023102
Si Si2 0.775063 0.748602 0.656057
Si Si3 0.947227 0.561628 0.468958
Si Si4 0.416529 0.252760 0.385488
Si Si5 0.794930 0.027456 0.301905
Si Si6 0.939979 0.391003 0.132717
Si Si7 0.391516 0.757272 0.607112
O O1 0.190200 0.330606 0.179001
O O2 0.044566 0.360134 0.053133
O O3 0.208238 0.332950 0.847350
O O4 0.121654 0.962795 0.000438
O O5 0.846988 0.528710 0.583480
O O6 0.667152 0.707623 0.706620
O O7 0.786872 0.920752 0.488950
O O8 0.937796 0.597412 0.277731
O O9 0.991644 0.816534 0.522095
O O10 0.406203 0.528468 0.471191
O O11 0.522763 0.230655 0.300801
O O12 0.399360 0.030912 0.523491
O O13 0.889728 0.166642 0.242439
O O14 0.710890 0.214425 0.300523
#
# Coordination Sequence:
#
# PCOD9119039 Si02
#       7
#     2   2   2   2   2   2   2
#     4  12  26  41  62  94 132 178 224 276 325 399
#     4  11  24  42  68  95 132 171 223 275 333 393
#     4  12  25  40  65  95 126 174 224 268 326 396
#     4   9  19  40  66 103 124 168 214 269 333 386
#     4  11  24  45  65  95 130 177 222 270 337 399
#     4  12  25  42  62  91 138 177 224 277 338 385
#     4   9  19  38  72  95 130 165 217 267 326 402
#
# _framework density 21.846167999999999
#
# number of rings (size 3 to 8) (size 9 to 14) (size 15 to 20)
#    0.000    1.143    4.286    1.714    4.000    1.143 
#    5.143    0.000    3.143    0.000    0.000    0.000 
#    0.000    0.000    0.000    0.000    0.000    0.000 
#
# Total GULP energy -78009.543833 kJ/mol
# GULP energy per Si atom -5572.110274 kJ/mol
# Density = 2.179644 g / cm^3
# Si number density = 21.846168 Si / 1000 Ang^3
#
#
#
# Elastic Constant Matrix: (Units=GPa)
#
#
# Indices 1 2 3 4 5 6 
#
# 1 133.2645 4.7503 39.6305 0.0000 24.2653 0.0000
# 2 4.7503 49.7082 21.4076 0.0000 4.0131 0.0000
# 3 39.6305 21.4076 104.2181 0.0000 19.1567 0.0000
# 4 0.0000 0.0000 0.0000 17.3890 0.0000 4.2748
# 5 24.2653 4.0131 19.1567 0.0000 17.9031 0.0000
# 6 0.0000 0.0000 0.0000 4.2748 0.0000 9.4225
#
#
#
# Elastic Compliance Matrix: (Units=1/GPa)
#
#
# Indices 1 2 3 4 5 6 
#
# 1 0.010217 0.000785 -0.001828 0.000000 -0.012067 0.000000
# 2 0.000785 0.022130 -0.004652 0.000000 -0.001047 0.000000
# 3 -0.001828 -0.004652 0.013194 0.000000 -0.010597 0.000000
# 4 0.000000 0.000000 0.000000 0.064727 0.000000 -0.029365
# 5 -0.012067 -0.001047 -0.010597 0.000000 0.083786 0.000000
# 6 0.000000 0.000000 0.000000 -0.029365 0.000000 0.119451
#
#
# Mechanical properties :
#
#
# Convention : Reuss Voigt Hill
#
# Bulk Modulus (GPa) = 29.28154 46.52973 37.90563
# Shear Modulus (GPa) = 14.86863 23.70308 19.28586
#
# Velocity S-wave (km/s) = 2.61167 3.29751 2.97442
# Velocity P-wave (km/s) = 4.74627 5.98691 5.40232
#
# Compressibility (1/GPa) = 0.03415121
#
# Stress axis : x y z
#
# Youngs Moduli (GPa) = 97.87758 45.18690 75.79240
#
# Poissons Ratio (x) = -0.03548 0.13857
# Poissons Ratio (y) = -0.07686 0.35258
# Poissons Ratio (z) = 0.17895 0.21021
#
# Static dielectric constant tensor:
#      x y z
#    x 1.863390 0.000000 0.013200 
#    y 0.000000 1.954470 0.000000 
#    z 0.013200 0.000000 1.849730 
# 
# From -- ./inp_files/8635.got.cif
#   From: 2010.05.17/outbox.cif.g08.bks.cpg/sg4_5_cif.got.tgz:8635.got - 2010.06.03 18:43:04.
