data_PCOD9119273
_publ_section_title
;
Structure prediction by ZEFSAII (Michael W. Deem and Ramdas Pophale) SiO2 
 PCOD9119273
Probable space group: P 21
;
_chemical_formula_sum "Si O2"
_cell_formula_units_Z 16
_cell_length_a 11.108234
_cell_length_b 11.080324
_cell_length_c 6.020284
_cell_angle_alpha 90.000000
_cell_angle_beta 62.947486
_cell_angle_gamma 90.000000
_cell_volume 659.921529
_symmetry_space_group_name_H-M "P 21"
_symmetry_group_IT_number 4
_symmetry_cell_setting 'monoclinic'
loop_
_space_group_symop_operation_xyz
x,y,z
-x,1/2+y,-z
loop_
_atom_site_type_symbol
_atom_site_label
_atom_site_fract_x
_atom_site_fract_y
_atom_site_fract_z
Si Si1 0.689384 0.890450 0.407692
Si Si2 0.531887 0.312277 0.113813
Si Si3 0.293366 0.215603 0.985690
Si Si4 0.937427 0.507820 0.228996
Si Si5 0.158238 0.552172 0.422338
Si Si6 0.614265 0.072018 0.113463
Si Si7 0.683890 0.489567 0.755127
Si Si8 0.999566 0.735071 0.849597
O O1 0.549765 0.901962 0.659328
O O2 0.688429 0.762567 0.281588
O O3 0.811737 0.931515 0.459501
O O4 0.693954 0.987665 0.210155
O O5 0.585926 0.205108 0.221131
O O6 0.413411 0.268629 0.041236
O O7 0.661440 0.358596 0.874268
O O8 0.140851 0.257449 0.165707
O O9 0.290659 0.076240 0.055181
O O10 0.792822 0.507952 0.474185
O O11 0.960164 0.626816 0.056671
O O12 0.045454 0.524561 0.335480
O O13 0.956359 0.370856 0.113308
O O14 0.299270 0.579713 0.182079
O O15 0.109524 0.666402 0.607122
O O16 0.466769 0.017889 0.201582
#
# Coordination Sequence:
#
# PCOD9119273 Si02
#       8
#     2   2   2   2   2   2   2   2
#     4  12  24  45  77 108 151 208 258 314 403 481
#     4  11  25  45  75 108 157 199 255 328 393 468
#     4  11  25  47  73 113 152 206 255 319 401 464
#     4  12  29  53  83 120 160 212 276 332 408 475
#     4  12  25  52  75 112 161 206 266 334 396 480
#     4  11  25  46  73 111 150 202 256 319 402 459
#     4  11  24  52  75 115 158 201 258 340 384 468
#     4  12  27  50  83 115 159 216 272 326 403 491
#
# _framework density 24.245304000000001
#
# number of rings (size 3 to 8) (size 9 to 14) (size 15 to 20)
#    0.000    0.500    3.750    3.750    5.250    2.000 
#   11.250    0.000    0.000    0.000    0.000    0.000 
#    0.000    0.000    0.000    0.000    0.000    0.000 
#
# Total GULP energy -89362.373125 kJ/mol
# GULP energy per Si atom -5585.148320 kJ/mol
# Density = 2.419012 g / cm^3
# Si number density = 24.245304 Si / 1000 Ang^3
#
#
#
# Elastic Constant Matrix: (Units=GPa)
#
#
# Indices 1 2 3 4 5 6 
#
# 1 82.1595 32.4711 39.4319 0.0000 -7.2004 0.0000
# 2 32.4711 141.3703 82.4600 0.0000 -0.9986 0.0000
# 3 39.4319 82.4600 116.9521 0.0000 -26.4724 0.0000
# 4 0.0000 0.0000 0.0000 44.0943 0.0000 -5.2177
# 5 -7.2004 -0.9986 -26.4724 0.0000 41.7612 0.0000
# 6 0.0000 0.0000 0.0000 -5.2177 0.0000 31.6740
#
#
#
# Elastic Compliance Matrix: (Units=1/GPa)
#
#
# Indices 1 2 3 4 5 6 
#
# 1 0.014580 -0.000747 -0.004465 0.000000 -0.000334 0.000000
# 2 -0.000747 0.013460 -0.010735 0.000000 -0.006612 0.000000
# 3 -0.004465 -0.010735 0.020306 0.000000 0.011846 0.000000
# 4 0.000000 0.000000 0.000000 0.023130 0.000000 0.003810
# 5 -0.000334 -0.006612 0.011846 0.000000 0.031239 0.000000
# 6 0.000000 0.000000 0.000000 0.003810 0.000000 0.032199
#
#
# Mechanical properties :
#
#
# Convention : Reuss Voigt Hill
#
# Bulk Modulus (GPa) = 60.78067 72.13420 66.45743
# Shear Modulus (GPa) = 29.02025 35.91381 32.46703
#
# Velocity S-wave (km/s) = 3.46344 3.85290 3.66335
# Velocity P-wave (km/s) = 6.41228 7.04340 6.73524
#
# Compressibility (1/GPa) = 0.01645260
#
# Stress axis : x y z
#
# Youngs Moduli (GPa) = 68.58578 74.29257 49.24541
#
# Poissons Ratio (x) = 0.05549 0.21988
# Poissons Ratio (y) = 0.05123 0.52867
# Poissons Ratio (z) = 0.30623 0.79756
#
# Static dielectric constant tensor:
#      x y z
#    x 1.907510 0.000000 0.020850 
#    y 0.000000 2.047720 0.000000 
#    z 0.020850 0.000000 1.952450 
# 
# From -- ./inp_files/3041.got.cif
#   From: 2010.05.17/outbox.cif.g08.bks.cpg/sg4_2_cif.got.tgz:3041.got - 2010.06.03 18:43:04.
