data_PCOD9119396
_publ_section_title
;
Structure prediction by ZEFSAII (Michael W. Deem and Ramdas Pophale) SiO2 
 PCOD9119396
Probable space group: P 21
;
_chemical_formula_sum "Si O2"
_cell_formula_units_Z 14
_cell_length_a 18.781276
_cell_length_b 4.829653
_cell_length_c 9.010475
_cell_angle_alpha 90.000000
_cell_angle_beta 43.785195
_cell_angle_gamma 90.000000
_cell_volume 565.545561
_symmetry_space_group_name_H-M "P 21"
_symmetry_group_IT_number 4
_symmetry_cell_setting 'monoclinic'
loop_
_space_group_symop_operation_xyz
x,y,z
-x,1/2+y,-z
loop_
_atom_site_type_symbol
_atom_site_label
_atom_site_fract_x
_atom_site_fract_y
_atom_site_fract_z
Si Si1 0.068980 0.376670 0.882878
Si Si2 0.936569 0.530140 0.640370
Si Si3 0.272887 0.331202 0.079451
Si Si4 0.259817 0.505423 0.426308
Si Si5 0.814145 0.216333 0.048401
Si Si6 0.483184 0.229373 0.627329
Si Si7 0.329202 0.000605 0.501365
O O1 0.140066 0.429083 0.632960
O O2 0.967122 0.563719 0.047794
O O3 0.859294 0.988259 0.091947
O O4 0.990184 0.295945 0.460210
O O5 0.826168 0.635838 0.751938
O O6 0.090823 0.881781 0.165036
O O7 0.241601 0.558534 0.002817
O O8 0.373671 0.179560 0.867261
O O9 0.293464 0.460218 0.208397
O O10 0.279575 0.816982 0.445968
O O11 0.321379 0.309183 0.450393
O O12 0.738730 0.421480 0.251376
O O13 0.471859 0.448080 0.508681
O O14 0.559114 0.383380 0.626737
#
# Coordination Sequence:
#
# PCOD9119396 Si02
#       7
#     2   2   2   2   2   2   2
#     4  11  26  44  70 103 144 199 256 303 376 446
#     4  12  28  45  71 107 152 192 246 311 382 435
#     4  12  29  48  79 114 153 195 262 315 379 454
#     4  11  28  46  70 108 156 193 246 318 381 449
#     4  11  26  48  76 105 148 198 259 311 370 462
#     4  12  26  47  83 115 145 196 259 310 376 460
#     4  11  25  50  73 108 152 195 248 312 384 446
#
# _framework density 24.754857000000001
#
# number of rings (size 3 to 8) (size 9 to 14) (size 15 to 20)
#    0.000    0.571    2.857    3.429   12.000    2.286 
#    2.571    0.000    0.000    0.000    0.000    0.000 
#    0.000    0.000    0.000    0.000    0.000    0.000 
#
# Total GULP energy -78531.222716 kJ/mol
# GULP energy per Si atom -5609.373051 kJ/mol
# Density = 2.469851 g / cm^3
# Si number density = 24.754857 Si / 1000 Ang^3
#
#
#
# Elastic Constant Matrix: (Units=GPa)
#
#
# Indices 1 2 3 4 5 6 
#
# 1 82.8624 3.7890 39.2769 0.0000 1.2579 0.0000
# 2 3.7890 84.1315 16.1396 0.0000 -0.5864 0.0000
# 3 39.2769 16.1396 135.3022 0.0000 -6.2464 0.0000
# 4 0.0000 0.0000 0.0000 22.2728 0.0000 2.5116
# 5 1.2579 -0.5864 -6.2464 0.0000 45.4192 0.0000
# 6 0.0000 0.0000 0.0000 2.5116 0.0000 38.2656
#
#
#
# Elastic Compliance Matrix: (Units=1/GPa)
#
#
# Indices 1 2 3 4 5 6 
#
# 1 0.014037 0.000155 -0.004137 0.000000 -0.000956 0.000000
# 2 0.000155 0.012166 -0.001499 0.000000 -0.000053 0.000000
# 3 -0.004137 -0.001499 0.008831 0.000000 0.001310 0.000000
# 4 0.000000 0.000000 0.000000 0.045233 0.000000 -0.002969
# 5 -0.000956 -0.000053 0.001310 0.000000 0.022223 0.000000
# 6 0.000000 0.000000 0.000000 -0.002969 0.000000 0.026328
#
#
# Mechanical properties :
#
#
# Convention : Reuss Voigt Hill
#
# Bulk Modulus (GPa) = 41.54223 46.74522 44.14372
# Shear Modulus (GPa) = 33.82859 37.39757 35.61308
#
# Velocity S-wave (km/s) = 3.70069 3.89101 3.79704
# Velocity P-wave (km/s) = 5.92267 6.25387 6.09052
#
# Compressibility (1/GPa) = 0.02407189
#
# Stress axis : x y z
#
# Youngs Moduli (GPa) = 71.24173 82.19417 113.23586
#
# Poissons Ratio (x) = -0.01273 0.46849
# Poissons Ratio (y) = -0.01103 0.16970
# Poissons Ratio (z) = 0.29475 0.12318
#
# Static dielectric constant tensor:
#      x y z
#    x 1.998260 0.000000 -0.001240 
#    y 0.000000 1.922620 0.000000 
#    z -0.001240 0.000000 1.922250 
# 
# From -- ./inp_files/9825.got.cif
#   From: 2010.05.17/outbox.cif.g08.bks.cpg/sg4_5_cif.got.tgz:9825.got - 2010.06.03 18:43:04.
