data_PCOD9119233
_publ_section_title
;
Structure prediction by ZEFSAII (Michael W. Deem and Ramdas Pophale) SiO2 
 PCOD9119233
Probable space group: P 21
;
_chemical_formula_sum "Si O2"
_cell_formula_units_Z 14
_cell_length_a 9.848145
_cell_length_b 5.225000
_cell_length_c 21.365422
_cell_angle_alpha 90.000000
_cell_angle_beta 150.871405
_cell_angle_gamma 90.000000
_cell_volume 535.152129
_symmetry_space_group_name_H-M "P 21"
_symmetry_group_IT_number 4
_symmetry_cell_setting 'monoclinic'
loop_
_space_group_symop_operation_xyz
x,y,z
-x,1/2+y,-z
loop_
_atom_site_type_symbol
_atom_site_label
_atom_site_fract_x
_atom_site_fract_y
_atom_site_fract_z
Si Si1 0.361388 0.869190 0.340401
Si Si2 0.454789 0.681861 0.698091
Si Si3 0.854713 0.415590 0.955309
Si Si4 0.847657 0.555719 0.084281
Si Si5 0.161638 0.048708 0.509826
Si Si6 0.998973 0.881907 0.317363
Si Si7 0.662303 0.383235 0.142633
O O1 0.677020 0.768227 0.463340
O O2 0.241982 0.904479 0.362264
O O3 0.142635 0.665471 0.224200
O O4 0.374923 0.096085 0.295124
O O5 0.619095 0.571059 0.823043
O O6 0.373551 0.973608 0.650737
O O7 0.139234 0.579916 0.580513
O O8 0.824270 0.371914 0.016211
O O9 0.904468 0.134940 0.948056
O O10 0.726182 0.408656 0.094710
O O11 0.659043 0.798031 0.986487
O O12 0.118241 0.851487 0.435063
O O13 0.789657 0.645343 0.220703
O O14 0.825981 0.144969 0.239638
#
# Coordination Sequence:
#
# PCOD9119233 Si02
#       7
#     2   2   2   2   2   2   2
#     4  11  26  47  72 109 144 202 250 312 374 453
#     4  12  27  48  75 105 155 202 255 312 389 445
#     4  12  28  47  76 112 149 201 253 312 377 464
#     4  11  24  48  76 110 156 190 255 308 388 451
#     4  12  28  50  75 110 154 207 257 322 375 461
#     4  11  29  48  81 114 154 199 265 312 390 450
#     4  11  26  48  77 120 150 201 241 328 389 456
#
# _framework density 26.160782999999999
#
# number of rings (size 3 to 8) (size 9 to 14) (size 15 to 20)
#    0.000    0.571    2.857    3.429   10.000    4.571 
#    0.000    0.000    0.000    0.000    0.000    0.000 
#    0.000    0.000    0.000    0.000    0.000    0.000 
#
# Total GULP energy -78294.474385 kJ/mol
# GULP energy per Si atom -5592.462456 kJ/mol
# Density = 2.610124 g / cm^3
# Si number density = 26.160783 Si / 1000 Ang^3
#
#
#
# Elastic Constant Matrix: (Units=GPa)
#
#
# Indices 1 2 3 4 5 6 
#
# 1 88.2625 15.9552 24.5286 0.0000 10.8379 0.0000
# 2 15.9552 103.6946 23.2213 0.0000 1.1672 0.0000
# 3 24.5286 23.2213 100.7217 0.0000 -3.3842 0.0000
# 4 0.0000 0.0000 0.0000 35.9977 0.0000 1.7892
# 5 10.8379 1.1672 -3.3842 0.0000 44.9040 0.0000
# 6 0.0000 0.0000 0.0000 1.7892 0.0000 32.6275
#
#
#
# Elastic Compliance Matrix: (Units=1/GPa)
#
#
# Indices 1 2 3 4 5 6 
#
# 1 0.012775 -0.001273 -0.002927 0.000000 -0.003271 0.000000
# 2 -0.001273 0.010304 -0.002069 0.000000 -0.000117 0.000000
# 3 -0.002927 -0.002069 0.011172 0.000000 0.001602 0.000000
# 4 0.000000 0.000000 0.000000 0.027855 0.000000 -0.001528
# 5 -0.003271 -0.000117 0.001602 0.000000 0.023183 0.000000
# 6 0.000000 0.000000 0.000000 -0.001528 0.000000 0.030733
#
#
# Mechanical properties :
#
#
# Convention : Reuss Voigt Hill
#
# Bulk Modulus (GPa) = 46.05896 46.67655 46.36775
# Shear Modulus (GPa) = 36.81869 37.97078 37.39474
#
# Velocity S-wave (km/s) = 3.75560 3.81391 3.78487
# Velocity P-wave (km/s) = 6.03742 6.10536 6.07148
#
# Compressibility (1/GPa) = 0.02171130
#
# Stress axis : x y z
#
# Youngs Moduli (GPa) = 78.27655 97.04620 89.50767
#
# Poissons Ratio (x) = 0.12357 0.26203
# Poissons Ratio (y) = 0.09967 0.18524
# Poissons Ratio (z) = 0.22915 0.20084
#
# Static dielectric constant tensor:
#      x y z
#    x 2.044060 0.000000 0.034940 
#    y 0.000000 2.128220 0.000000 
#    z 0.034940 0.000000 2.075400 
# 
# From -- ./inp_files/13861.got.cif
#   From: 2010.05.17/outbox.cif.g08.bks.cpg/sg4_7_cif.got.tgz:13861.got - 2010.06.03 18:43:04.
