data_PCOD9119832
_publ_section_title
;
Structure prediction by ZEFSAII (Michael W. Deem and Ramdas Pophale) SiO2 
 PCOD9119832
Probable space group: P 21
;
_chemical_formula_sum "Si O2"
_cell_formula_units_Z 16
_cell_length_a 9.000000
_cell_length_b 9.000000
_cell_length_c 18.000000
_cell_angle_alpha 90.000000
_cell_angle_beta 150.000000
_cell_angle_gamma 90.000000
_cell_volume 729.000000
_symmetry_space_group_name_H-M "P 21"
_symmetry_group_IT_number 4
_symmetry_cell_setting 'monoclinic'
loop_
_space_group_symop_operation_xyz
x,y,z
-x,1/2+y,-z
loop_
_atom_site_type_symbol
_atom_site_label
_atom_site_fract_x
_atom_site_fract_y
_atom_site_fract_z
Si Si1 0.735243 0.951300 0.109417
Si Si2 0.157961 0.154042 0.658288
Si Si3 0.902855 0.317186 0.865866
Si Si4 0.311232 0.737705 0.001234
Si Si5 0.772380 0.655345 0.860734
Si Si6 0.123675 0.804709 0.599562
Si Si7 0.287669 0.845750 0.445755
Si Si8 0.395263 0.169415 0.542684
O O1 0.451455 0.886472 0.029172
O O2 0.834940 0.864483 0.077718
O O3 0.024830 0.926071 0.285337
O O4 0.673439 0.117110 0.057382
O O5 0.462443 0.185223 0.834850
O O6 0.095336 0.269329 0.564416
O O7 0.880602 0.205818 0.588945
O O8 0.149694 0.981440 0.628235
O O9 0.789488 0.476422 0.852209
O O10 0.637680 0.233947 0.706870
O O11 0.050966 0.206378 0.989146
O O12 0.974501 0.732882 0.884392
O O13 0.441346 0.725250 0.721590
O O14 0.940889 0.717881 0.583636
O O15 0.522561 0.762697 0.495449
O O16 0.414831 0.988891 0.545635
#
# Coordination Sequence:
#
# PCOD9119832 Si02
#       8
#     2   2   2   2   2   2   2   2
#     4   9  21  41  65  96 129 165 215 270 328 393
#     4  11  24  44  67  97 133 173 222 276 337 401
#     4  10  23  44  66  97 135 175 223 278 333 397
#     4  10  22  43  67  94 131 170 216 270 327 393
#     4  11  24  42  67  99 135 177 225 277 334 399
#     4  12  24  41  66  97 134 178 224 276 335 400
#     4  10  23  42  68 100 132 171 221 278 338 400
#     4  11  23  43  68  96 135 177 222 277 334 401
#
# _framework density 21.947873999999999
#
# number of rings (size 3 to 8) (size 9 to 14) (size 15 to 20)
#    0.000    1.500    0.000    4.500    0.000    8.000 
#    0.000    5.000    0.000    0.000    0.000    0.000 
#    0.000    0.000    0.000    0.000    0.000    0.000 
#
# Total GULP energy -89417.985300 kJ/mol
# GULP energy per Si atom -5588.624081 kJ/mol
# Density = 2.189792 g / cm^3
# Si number density = 21.947874 Si / 1000 Ang^3
#
#
#
# Elastic Constant Matrix: (Units=GPa)
#
#
# Indices 1 2 3 4 5 6 
#
# 1 101.5869 30.7979 40.1772 0.0000 27.2031 0.0000
# 2 30.7979 106.8680 43.0050 0.0000 1.8396 0.0000
# 3 40.1772 43.0050 55.6599 0.0000 17.9808 0.0000
# 4 0.0000 0.0000 0.0000 39.2458 0.0000 -10.3035
# 5 27.2031 1.8396 17.9808 0.0000 42.6240 0.0000
# 6 0.0000 0.0000 0.0000 -10.3035 0.0000 47.5528
#
#
#
# Elastic Compliance Matrix: (Units=1/GPa)
#
#
# Indices 1 2 3 4 5 6 
#
# 1 0.014968 -0.000948 -0.008104 0.000000 -0.006093 0.000000
# 2 -0.000948 0.014408 -0.012091 0.000000 0.005083 0.000000
# 3 -0.008104 -0.012091 0.036259 0.000000 -0.009602 0.000000
# 4 0.000000 0.000000 0.000000 0.027017 0.000000 0.005854
# 5 -0.006093 0.005083 -0.009602 0.000000 0.031181 0.000000
# 6 0.000000 0.000000 0.000000 0.005854 0.000000 0.022298
#
#
# Mechanical properties :
#
#
# Convention : Reuss Voigt Hill
#
# Bulk Modulus (GPa) = 42.82333 54.67500 48.74917
# Shear Modulus (GPa) = 25.48438 35.89350 30.68894
#
# Velocity S-wave (km/s) = 3.41124 4.04839 3.74339
# Velocity P-wave (km/s) = 5.92192 6.84237 6.39872
#
# Compressibility (1/GPa) = 0.02335175
#
# Stress axis : x y z
#
# Youngs Moduli (GPa) = 66.81070 69.40454 27.57912
#
# Poissons Ratio (x) = 0.06577 0.22349
# Poissons Ratio (y) = 0.06331 0.33345
# Poissons Ratio (z) = 0.54141 0.83914
#
# Static dielectric constant tensor:
#      x y z
#    x 1.958320 0.000000 -0.048910 
#    y 0.000000 1.749870 0.000000 
#    z -0.048910 0.000000 1.782800 
# 
# From -- ./inp_files/5756.got.cif
#   From: 2010.05.17/outbox.ucp.g08.bks.cvg/sg4_3_cif.got.tgz:5756.got - 2010.06.11 12:51:24.
