data_PCOD9119067
_publ_section_title
;
Structure prediction by ZEFSAII (Michael W. Deem and Ramdas Pophale) SiO2 
 PCOD9119067
Probable space group: P 21
;
_chemical_formula_sum "Si O2"
_cell_formula_units_Z 14
_cell_length_a 16.687184
_cell_length_b 7.854907
_cell_length_c 5.095075
_cell_angle_alpha 90.000000
_cell_angle_beta 126.762612
_cell_angle_gamma 90.000000
_cell_volume 535.024156
_symmetry_space_group_name_H-M "P 21"
_symmetry_group_IT_number 4
_symmetry_cell_setting 'monoclinic'
loop_
_space_group_symop_operation_xyz
x,y,z
-x,1/2+y,-z
loop_
_atom_site_type_symbol
_atom_site_label
_atom_site_fract_x
_atom_site_fract_y
_atom_site_fract_z
Si Si1 0.004380 0.554560 0.834484
Si Si2 0.095531 0.409516 0.506379
Si Si3 0.789777 0.441658 0.534352
Si Si4 0.717968 0.792305 0.441446
Si Si5 0.665642 0.138874 0.522432
Si Si6 0.532917 0.218335 0.769988
Si Si7 0.391757 0.066730 0.125259
O O1 0.969302 0.739640 0.673193
O O2 0.902442 0.444708 0.659256
O O3 0.076854 0.473537 0.760974
O O4 0.054707 0.546771 0.217477
O O5 0.207216 0.364117 0.636402
O O6 0.771817 0.621019 0.654359
O O7 0.750901 0.278810 0.617038
O O8 0.714551 0.475582 0.140552
O O9 0.570972 0.632645 0.521707
O O10 0.703459 0.946204 0.610025
O O11 0.603710 0.194150 0.653423
O O12 0.592610 0.144509 0.128494
O O13 0.380552 0.227559 0.908656
O O14 0.530059 0.420814 0.800120
#
# Coordination Sequence:
#
# PCOD9119067 Si02
#       7
#     2   2   2   2   2   2   2
#     4  11  24  45  69 100 139 179 234 283 353 410
#     4  11  25  44  69 103 134 187 226 290 347 421
#     4   8  22  44  66  99 140 178 225 290 339 408
#     4   9  22  46  65 102 138 181 226 286 343 415
#     4  11  24  44  67 103 135 184 229 279 345 408
#     4  11  24  43  71 102 135 184 229 284 343 415
#     4   9  21  46  67 103 139 181 229 290 342 417
#
# _framework density 26.16704
#
# number of rings (size 3 to 8) (size 9 to 14) (size 15 to 20)
#    0.857    1.143    0.000    1.714    4.000    8.000 
#   10.286    0.000    0.000    0.000    0.000    0.000 
#    0.000    0.000    0.000    0.000    0.000    0.000 
#
# Total GULP energy -78405.470943 kJ/mol
# GULP energy per Si atom -5600.390782 kJ/mol
# Density = 2.610748 g / cm^3
# Si number density = 26.167040 Si / 1000 Ang^3
#
#
#
# Elastic Constant Matrix: (Units=GPa)
#
#
# Indices 1 2 3 4 5 6 
#
# 1 110.3488 27.5617 26.2316 0.0000 -8.5309 0.0000
# 2 27.5617 146.4439 20.7760 0.0000 -0.2876 0.0000
# 3 26.2316 20.7760 97.7447 0.0000 -8.3270 0.0000
# 4 0.0000 0.0000 0.0000 34.3183 0.0000 3.0954
# 5 -8.5309 -0.2876 -8.3270 0.0000 34.5306 0.0000
# 6 0.0000 0.0000 0.0000 3.0954 0.0000 33.7900
#
#
#
# Elastic Compliance Matrix: (Units=1/GPa)
#
#
# Indices 1 2 3 4 5 6 
#
# 1 0.010137 -0.001590 -0.002216 0.000000 0.001957 0.000000
# 2 -0.001590 0.007293 -0.001176 0.000000 -0.000616 0.000000
# 3 -0.002216 -0.001176 0.011259 0.000000 0.002158 0.000000
# 4 0.000000 0.000000 0.000000 0.029382 0.000000 -0.002692
# 5 0.001957 -0.000616 0.002158 0.000000 0.029958 0.000000
# 6 0.000000 0.000000 0.000000 -0.002692 0.000000 0.029841
#
#
# Mechanical properties :
#
#
# Convention : Reuss Voigt Hill
#
# Bulk Modulus (GPa) = 53.40014 55.96399 54.68207
# Shear Modulus (GPa) = 37.29206 39.19231 38.24219
#
# Velocity S-wave (km/s) = 3.77922 3.87431 3.82706
# Velocity P-wave (km/s) = 6.28451 6.43796 6.36169
#
# Compressibility (1/GPa) = 0.01872654
#
# Stress axis : x y z
#
# Youngs Moduli (GPa) = 98.64596 137.11062 88.81602
#
# Poissons Ratio (x) = 0.21796 0.19681
# Poissons Ratio (y) = 0.15682 0.10445
# Poissons Ratio (z) = 0.21859 0.16125
#
# Static dielectric constant tensor:
#      x y z
#    x 2.046640 0.000000 0.047360 
#    y 0.000000 2.083200 0.000000 
#    z 0.047360 0.000000 2.012230 
# 
# From -- ./inp_files/3647.got.cif
#   From: 2010.05.17/outbox.cif.g08.bks.cpg/sg4_2_cif.got.tgz:3647.got - 2010.06.03 18:43:04.
