data_PCOD9119988
_publ_section_title
;
Structure prediction by ZEFSAII (Michael W. Deem and Ramdas Pophale) SiO2 
 PCOD9119988
Probable space group: C 2
;
_chemical_formula_sum "Si O2"
_cell_formula_units_Z 30
_cell_length_a 22.069984
_cell_length_b 8.080864
_cell_length_c 17.957948
_cell_angle_alpha 90.000000
_cell_angle_beta 150.858723
_cell_angle_gamma 90.000000
_cell_volume 1559.602917
_symmetry_space_group_name_H-M "C 2"
_symmetry_group_IT_number 5
_symmetry_cell_setting 'monoclinic'
loop_
_space_group_symop_operation_xyz
x,y,z
-x,y,-z
1/2+x,1/2+y,z
1/2-x,1/2+y,-z
loop_
_atom_site_type_symbol
_atom_site_label
_atom_site_fract_x
_atom_site_fract_y
_atom_site_fract_z
Si Si1 0.208248 0.468970 0.343144
Si Si2 0.765837 0.553170 0.786460
Si Si3 0.985058 0.959016 0.130100
Si Si4 0.440829 0.840675 0.057990
Si Si5 0.863504 0.734128 0.606197
Si Si6 0.500000 0.281791 0.000000
Si Si7 0.106285 0.536528 0.840239
Si Si8 0.231615 0.258239 0.890565
O O1 0.284385 0.524595 0.351119
O O2 0.189663 0.613192 0.385696
O O3 0.264296 0.306189 0.442336
O O4 0.070144 0.417416 0.167485
O O5 0.696969 0.643349 0.782207
O O6 0.824062 0.383056 0.880577
O O7 0.884309 0.671885 0.900163
O O8 0.079008 0.897795 0.293698
O O9 0.039492 0.894988 0.110829
O O10 0.958244 0.150505 0.094806
O O11 0.858009 0.857934 0.007352
O O12 0.417738 0.939800 0.108930
O O13 0.981027 0.642199 0.694035
O O14 0.134362 0.399175 0.808772
O O15 0.225947 0.649461 0.991513
#
# Coordination Sequence:
#
# PCOD9119988 Si02
#       8
#     4   4   4   4   4   2   4   4
#     4  11  19  35  50  77 119 153 181 228 287 340
#     4  10  18  33  52  80 116 150 179 236 278 332
#     4  10  19  30  49  85 108 147 179 226 284 333
#     4  10  19  30  54  82 115 144 182 228 284 330
#     4  10  21  34  53  80 119 149 188 228 279 344
#     4  10  16  30  48  72 122 136 174 232 272 324
#     4   9  18  34  53  84 112 142 184 235 273 341
#     4   9  18  32  55  80 112 145 182 233 288 323
#
# _framework density 19.235665000000001
#
# number of rings (size 3 to 8) (size 9 to 14) (size 15 to 20)
#    0.000    2.133    2.667    3.200    1.867    0.000 
#    0.000    0.000    0.000    0.000    0.000   97.067 
#    0.000    0.000    0.000    0.000    0.000    0.000 
#
# Total GULP energy -83564.838925 kJ/mol
# GULP energy per Si atom -5570.989262 kJ/mol
# Density = 1.919188 g / cm^3
# Si number density = 19.235665 Si / 1000 Ang^3
#
#
#
# Elastic Constant Matrix: (Units=GPa)
#
#
# Indices 1 2 3 4 5 6 
#
# 1 68.3173 19.5415 24.0504 0.0000 -9.9798 0.0000
# 2 19.5415 103.3033 22.6063 0.0000 -5.7927 0.0000
# 3 24.0504 22.6063 36.2189 0.0000 -12.2926 0.0000
# 4 0.0000 0.0000 0.0000 -1.7436 0.0000 -3.5999
# 5 -9.9798 -5.7927 -12.2926 0.0000 13.0082 0.0000
# 6 0.0000 0.0000 0.0000 -3.5999 0.0000 26.5987
#
#
#
# Elastic Compliance Matrix: (Units=1/GPa)
#
#
# Indices 1 2 3 4 5 6 
#
# 1 0.019342 -0.001071 -0.010748 0.000000 0.004206 0.000000
# 2 -0.001071 0.011321 -0.007247 0.000000 -0.002629 0.000000
# 3 -0.010748 -0.007247 0.052080 0.000000 0.037741 0.000000
# 4 0.000000 0.000000 0.000000 -0.448273 0.000000 -0.060670
# 5 0.004206 -0.002629 0.037741 0.000000 0.114595 0.000000
# 6 0.000000 0.000000 0.000000 -0.060670 0.000000 0.029384
#
#
# Mechanical properties :
#
#
# Convention : Reuss Voigt Hill
#
# Bulk Modulus (GPa) = 22.41620 37.80398 30.11009
# Shear Modulus (GPa) = -29.66503 17.01543 -6.32480
#
# Velocity S-wave (km/s) = -3.93133 2.97741 -1.81527
# Velocity P-wave (km/s) = 2.98804 5.61388 3.36060
#
# Compressibility (1/GPa) = 0.04461060
#
# Stress axis : x y z
#
# Youngs Moduli (GPa) = 51.70115 88.32824 19.20141
#
# Poissons Ratio (x) = 0.09460 0.20637
# Poissons Ratio (y) = 0.05537 0.13916
# Poissons Ratio (z) = 0.55567 0.64015
#
# Static dielectric constant tensor:
#      x y z
#    x 1.725750 0.000000 0.007080 
#    y 0.000000 1.698290 0.000000 
#    z 0.007080 0.000000 1.708700 
# 
# From -- ./inp_files/44141.got.cif
#   From: 2010.05.17/outbox.cif.g08.bks.cpg/sg5_23_cif.got.tgz:44141.got - 2010.06.03 18:56:24.
