data_PCOD9119098
_publ_section_title
;
Structure prediction by ZEFSAII (Michael W. Deem and Ramdas Pophale) SiO2 
 PCOD9119098
Probable space group: P 21
;
_chemical_formula_sum "Si O2"
_cell_formula_units_Z 14
_cell_length_a 11.281621
_cell_length_b 9.804300
_cell_length_c 5.214002
_cell_angle_alpha 90.000000
_cell_angle_beta 82.333991
_cell_angle_gamma 90.000000
_cell_volume 571.558043
_symmetry_space_group_name_H-M "P 21"
_symmetry_group_IT_number 4
_symmetry_cell_setting 'monoclinic'
loop_
_space_group_symop_operation_xyz
x,y,z
-x,1/2+y,-z
loop_
_atom_site_type_symbol
_atom_site_label
_atom_site_fract_x
_atom_site_fract_y
_atom_site_fract_z
Si Si1 0.897675 0.897320 0.275593
Si Si2 0.793598 0.185473 0.155326
Si Si3 0.643043 0.541084 0.796441
Si Si4 0.849837 0.337196 0.632054
Si Si5 0.462649 0.726439 0.550289
Si Si6 0.562535 0.978818 0.761433
Si Si7 0.213647 0.296330 0.179980
O O1 0.840550 0.806681 0.519321
O O2 0.033877 0.921854 0.318055
O O3 0.824418 0.035751 0.250885
O O4 0.884151 0.825595 0.006281
O O5 0.859805 0.280753 0.343688
O O6 0.652479 0.215227 0.232462
O O7 0.835083 0.220961 0.856067
O O8 0.730435 0.427164 0.665575
O O9 0.572709 0.635089 0.617083
O O10 0.726475 0.653080 0.909147
O O11 0.545276 0.476516 0.008566
O O12 0.517995 0.878125 0.542701
O O13 0.421286 0.636797 0.319598
O O14 0.680600 0.910306 0.844999
#
# Coordination Sequence:
#
# PCOD9119098 Si02
#       7
#     2   2   2   2   2   2   2
#     4  12  27  51  73 105 147 196 246 303 355 440
#     4  12  26  49  75 108 141 198 242 302 363 439
#     4  11  27  44  74 108 147 191 238 311 367 441
#     4  12  29  47  76 107 149 188 250 298 367 429
#     4  11  24  44  73 105 151 187 247 301 378 432
#     4  11  24  44  73 109 147 194 241 313 370 447
#     4  11  27  47  76 106 146 194 246 298 372 428
#
# _framework density 24.494450000000001
#
# number of rings (size 3 to 8) (size 9 to 14) (size 15 to 20)
#    0.000    0.571    2.857    3.429   10.000    1.143 
#    0.000    0.000    0.000    0.000    0.000    0.000 
#    0.000    0.000    0.000    0.000    0.000    0.000 
#
# Total GULP energy -78376.953726 kJ/mol
# GULP energy per Si atom -5598.353838 kJ/mol
# Density = 2.443870 g / cm^3
# Si number density = 24.494450 Si / 1000 Ang^3
#
#
#
# Elastic Constant Matrix: (Units=GPa)
#
#
# Indices 1 2 3 4 5 6 
#
# 1 94.7284 8.3338 33.6259 0.0000 2.1248 0.0000
# 2 8.3338 58.7302 23.5915 0.0000 15.9801 0.0000
# 3 33.6259 23.5915 97.2742 0.0000 6.8889 0.0000
# 4 0.0000 0.0000 0.0000 21.4691 0.0000 3.8661
# 5 2.1248 15.9801 6.8889 0.0000 37.4148 0.0000
# 6 0.0000 0.0000 0.0000 3.8661 0.0000 19.8847
#
#
#
# Elastic Compliance Matrix: (Units=1/GPa)
#
#
# Indices 1 2 3 4 5 6 
#
# 1 0.012034 -0.000071 -0.004151 0.000000 0.000111 0.000000
# 2 -0.000071 0.021069 -0.004507 0.000000 -0.008165 0.000000
# 3 -0.004151 -0.004507 0.012822 0.000000 -0.000200 0.000000
# 4 0.000000 0.000000 0.000000 0.048269 0.000000 -0.009385
# 5 0.000111 -0.008165 -0.000200 0.000000 0.030245 0.000000
# 6 0.000000 0.000000 0.000000 -0.009385 0.000000 0.052114
#
#
# Mechanical properties :
#
#
# Convention : Reuss Voigt Hill
#
# Bulk Modulus (GPa) = 35.12658 42.42614 38.77636
# Shear Modulus (GPa) = 24.57011 28.09915 26.33463
#
# Velocity S-wave (km/s) = 3.17059 3.39066 3.28247
# Velocity P-wave (km/s) = 5.27023 5.71726 5.49829
#
# Compressibility (1/GPa) = 0.02846847
#
# Stress axis : x y z
#
# Youngs Moduli (GPa) = 83.10109 47.46273 77.98939
#
# Poissons Ratio (x) = 0.00335 0.32370
# Poissons Ratio (y) = 0.00586 0.35151
# Poissons Ratio (z) = 0.34491 0.21392
#
# Static dielectric constant tensor:
#      x y z
#    x 1.928250 0.000000 0.030090 
#    y 0.000000 1.971120 0.000000 
#    z 0.030090 0.000000 1.964810 
# 
# From -- ./inp_files/2461.got.cif
#   From: 2010.05.17/outbox.cif.g08.bks.cpg/sg4_2_cif.got.tgz:2461.got - 2010.06.03 18:43:04.
