data_PCOD9119193
_publ_section_title
;
Structure prediction by ZEFSAII (Michael W. Deem and Ramdas Pophale) SiO2 
 PCOD9119193
Probable space group: P 21
;
_chemical_formula_sum "Si O2"
_cell_formula_units_Z 16
_cell_length_a 9.370647
_cell_length_b 7.813360
_cell_length_c 9.783668
_cell_angle_alpha 90.000000
_cell_angle_beta 67.314832
_cell_angle_gamma 90.000000
_cell_volume 660.907130
_symmetry_space_group_name_H-M "P 21"
_symmetry_group_IT_number 4
_symmetry_cell_setting 'monoclinic'
loop_
_space_group_symop_operation_xyz
x,y,z
-x,1/2+y,-z
loop_
_atom_site_type_symbol
_atom_site_label
_atom_site_fract_x
_atom_site_fract_y
_atom_site_fract_z
Si Si1 0.491130 0.031000 0.354582
Si Si2 0.536363 0.212645 0.046156
Si Si3 0.879735 0.934827 0.575846
Si Si4 0.721036 0.759965 0.378270
Si Si5 0.196441 0.834015 0.388512
Si Si6 0.184689 0.927644 0.079457
Si Si7 0.973340 0.612338 0.081933
Si Si8 0.250046 0.400064 0.095585
O O1 0.505693 0.137165 0.208356
O O2 0.417686 0.151036 0.499992
O O3 0.647130 0.927495 0.332167
O O4 0.363702 0.885686 0.376143
O O5 0.385149 0.262660 0.014447
O O6 0.639639 0.383627 0.023612
O O7 0.649433 0.076213 0.933613
O O8 0.831117 0.132248 0.593601
O O9 0.827026 0.835819 0.460436
O O10 0.801328 0.848449 0.734286
O O11 0.062968 0.922546 0.525544
O O12 0.830184 0.647673 0.238493
O O13 0.174806 0.910991 0.245044
O O14 0.083585 0.774228 0.054357
O O15 0.103640 0.086896 0.037573
O O16 0.094803 0.460351 0.075438
#
# Coordination Sequence:
#
# PCOD9119193 Si02
#       8
#     2   2   2   2   2   2   2   2
#     4  12  28  47  73 108 146 197 248 306 389 441
#     4  11  25  45  73 106 146 191 244 307 380 446
#     4  12  23  48  78 103 151 192 257 306 364 456
#     4  12  27  52  72 110 149 197 251 309 374 448
#     4  12  25  49  73 110 145 198 252 310 372 449
#     4  11  26  48  71 110 148 193 251 305 380 442
#     4  11  26  50  75 107 150 196 252 307 373 447
#     4  11  24  47  73 108 147 194 247 306 370 449
#
# _framework density 24.209147999999999
#
# number of rings (size 3 to 8) (size 9 to 14) (size 15 to 20)
#    0.000    0.500    5.000    3.000    5.250    3.000 
#    6.750    0.000    0.000    0.000    0.000    0.000 
#    0.000    0.000    0.000    0.000    0.000    0.000 
#
# Total GULP energy -89532.722457 kJ/mol
# GULP energy per Si atom -5595.795154 kJ/mol
# Density = 2.415405 g / cm^3
# Si number density = 24.209148 Si / 1000 Ang^3
#
#
#
# Elastic Constant Matrix: (Units=GPa)
#
#
# Indices 1 2 3 4 5 6 
#
# 1 126.9703 18.4005 27.9226 0.0000 -8.1699 0.0000
# 2 18.4005 82.5678 16.9018 0.0000 -7.1378 0.0000
# 3 27.9226 16.9018 41.2341 0.0000 -13.2661 0.0000
# 4 0.0000 0.0000 0.0000 21.5132 0.0000 0.6695
# 5 -8.1699 -7.1378 -13.2661 0.0000 39.4415 0.0000
# 6 0.0000 0.0000 0.0000 0.6695 0.0000 60.3628
#
#
#
# Elastic Compliance Matrix: (Units=1/GPa)
#
#
# Indices 1 2 3 4 5 6 
#
# 1 0.009311 -0.000862 -0.006035 0.000000 -0.000257 0.000000
# 2 -0.000862 0.013315 -0.004661 0.000000 0.000663 0.000000
# 3 -0.006035 -0.004661 0.033164 0.000000 0.009061 0.000000
# 4 0.000000 0.000000 0.000000 0.046499 0.000000 -0.000516
# 5 -0.000257 0.000663 0.009061 0.000000 0.028469 0.000000
# 6 0.000000 0.000000 0.000000 -0.000516 0.000000 0.016572
#
#
# Mechanical properties :
#
#
# Convention : Reuss Voigt Hill
#
# Bulk Modulus (GPa) = 30.60399 41.91356 36.25877
# Shear Modulus (GPa) = 27.57306 36.76665 32.16985
#
# Velocity S-wave (km/s) = 3.37850 3.90129 3.64927
# Velocity P-wave (km/s) = 5.28090 6.13548 5.72416
#
# Compressibility (1/GPa) = 0.03267548
#
# Stress axis : x y z
#
# Youngs Moduli (GPa) = 107.39560 75.10475 30.15323
#
# Poissons Ratio (x) = 0.06474 0.18197
# Poissons Ratio (y) = 0.09257 0.14053
# Poissons Ratio (z) = 0.64811 0.35003
#
# Static dielectric constant tensor:
#      x y z
#    x 1.924540 0.000000 -0.016430 
#    y 0.000000 2.016720 0.000000 
#    z -0.016430 0.000000 1.904060 
# 
# From -- ./inp_files/5421.got.cif
#   From: 2010.05.17/outbox.cif.g08.bks.cpg/sg4_3_cif.got.tgz:5421.got - 2010.06.03 18:43:04.
