data_PCOD9119530
_publ_section_title
;
Structure prediction by ZEFSAII (Michael W. Deem and Ramdas Pophale) SiO2 
 PCOD9119530
Probable space group: P 21
;
_chemical_formula_sum "Si O2"
_cell_formula_units_Z 10
_cell_length_a 12.031328
_cell_length_b 5.015325
_cell_length_c 22.219788
_cell_angle_alpha 90.000000
_cell_angle_beta 160.773998
_cell_angle_gamma 90.000000
_cell_volume 441.507358
_symmetry_space_group_name_H-M "P 21"
_symmetry_group_IT_number 4
_symmetry_cell_setting 'monoclinic'
loop_
_space_group_symop_operation_xyz
x,y,z
-x,1/2+y,-z
loop_
_atom_site_type_symbol
_atom_site_label
_atom_site_fract_x
_atom_site_fract_y
_atom_site_fract_z
Si Si1 0.209954 0.342300 0.502942
Si Si2 0.405299 0.757588 0.989134
Si Si3 0.705777 0.928902 0.594373
Si Si4 0.214778 0.331331 0.690803
Si Si5 0.772323 0.211928 0.875203
O O1 0.198128 0.360703 0.424953
O O2 0.940156 0.125203 0.387392
O O3 0.580458 0.257384 0.714148
O O4 0.095618 0.624985 0.471189
O O5 0.428587 0.463232 0.973396
O O6 0.598325 0.777938 0.150409
O O7 0.019616 0.852139 0.796571
O O8 0.602067 0.235860 0.545591
O O9 0.483571 0.276728 0.776362
O O10 0.077035 0.419374 0.039385
#
# Coordination Sequence:
#
# PCOD9119530 Si02
#       5
#     2   2   2   2   2
#     4  12  25  47  69  97 133 180 224 262 333 401
#     4  12  23  44  67 101 132 172 224 264 326 400
#     4  12  26  41  67 101 139 171 213 277 331 386
#     4  12  24  46  72  95 133 180 220 271 322 405
#     4  12  28  46  69 102 131 171 223 284 332 380
#
# _framework density 22.649678000000002
#
# number of rings (size 3 to 8) (size 9 to 14) (size 15 to 20)
#    0.000    0.000    4.000    6.000    5.600    0.000 
#    0.000    0.000    0.000    0.000    0.000    0.000 
#    0.000    0.000    0.000    0.000    0.000    0.000 
#
# Total GULP energy -56065.185524 kJ/mol
# GULP energy per Si atom -5606.518552 kJ/mol
# Density = 2.259813 g / cm^3
# Si number density = 22.649678 Si / 1000 Ang^3
#
#
#
# Elastic Constant Matrix: (Units=GPa)
#
#
# Indices 1 2 3 4 5 6 
#
# 1 36.2999 3.0189 -2.7836 0.0000 -4.8208 0.0000
# 2 3.0189 58.3320 -17.2531 0.0000 -0.5899 0.0000
# 3 -2.7836 -17.2531 97.6123 0.0000 -9.4413 0.0000
# 4 0.0000 0.0000 0.0000 47.7333 0.0000 20.3462
# 5 -4.8208 -0.5899 -9.4413 0.0000 33.9006 0.0000
# 6 0.0000 0.0000 0.0000 20.3462 0.0000 29.4620
#
#
#
# Elastic Compliance Matrix: (Units=1/GPa)
#
#
# Indices 1 2 3 4 5 6 
#
# 1 0.028289 -0.001118 0.001024 0.000000 0.004289 0.000000
# 2 -0.001118 0.018184 0.003286 0.000000 0.001073 0.000000
# 3 0.001024 0.003286 0.011175 0.000000 0.003315 0.000000
# 4 0.000000 0.000000 0.000000 0.029689 0.000000 -0.020503
# 5 0.004289 0.001073 0.003315 0.000000 0.031050 0.000000
# 6 0.000000 0.000000 0.000000 -0.020503 0.000000 0.048101
#
#
# Mechanical properties :
#
#
# Convention : Reuss Voigt Hill
#
# Bulk Modulus (GPa) = 15.61712 17.57873 16.59792
# Shear Modulus (GPa) = 27.55603 36.16999 31.86301
#
# Velocity S-wave (km/s) = 3.49179 4.00050 3.75477
# Velocity P-wave (km/s) = 4.81319 5.39598 5.11290
#
# Compressibility (1/GPa) = 0.06403231
#
# Stress axis : x y z
#
# Youngs Moduli (GPa) = 35.34902 54.99390 89.48361
#
# Poissons Ratio (x) = 0.06148 -0.09163
# Poissons Ratio (y) = 0.03952 -0.29403
# Poissons Ratio (z) = -0.03620 -0.18070
#
# Static dielectric constant tensor:
#      x y z
#    x 1.815450 0.000000 0.001890 
#    y 0.000000 1.783420 0.000000 
#    z 0.001890 0.000000 1.826510 
# 
# From -- ./inp_files/12780.got.cif
#   From: 2010.05.17/outbox.cif.g08.bks.cpg/sg4_7_cif.got.tgz:12780.got - 2010.06.03 18:43:04.
