data_PCOD9119591
_publ_section_title
;
Structure prediction by ZEFSAII (Michael W. Deem and Ramdas Pophale) SiO2 
 PCOD9119591
Probable space group: P 21
;
_chemical_formula_sum "Si O2"
_cell_formula_units_Z 14
_cell_length_a 9.363953
_cell_length_b 5.672634
_cell_length_c 17.883422
_cell_angle_alpha 90.000000
_cell_angle_beta 142.211283
_cell_angle_gamma 90.000000
_cell_volume 582.075010
_symmetry_space_group_name_H-M "P 21"
_symmetry_group_IT_number 4
_symmetry_cell_setting 'monoclinic'
loop_
_space_group_symop_operation_xyz
x,y,z
-x,1/2+y,-z
loop_
_atom_site_type_symbol
_atom_site_label
_atom_site_fract_x
_atom_site_fract_y
_atom_site_fract_z
Si Si1 0.202390 0.381360 0.763044
Si Si2 0.047479 0.727440 0.478721
Si Si3 0.790667 0.732938 0.597529
Si Si4 0.906607 0.403936 0.886308
Si Si5 0.260243 0.778597 0.019624
Si Si6 0.996446 0.067456 0.798418
Si Si7 0.510259 0.543467 0.616860
O O1 0.477974 0.372651 0.870003
O O2 0.136007 0.273177 0.815300
O O3 0.115083 0.210769 0.661040
O O4 0.041647 0.613474 0.686242
O O5 0.312150 0.729867 0.557177
O O6 0.011686 0.480383 0.508118
O O7 0.645855 0.571220 0.594674
O O8 0.644379 0.808906 0.464379
O O9 0.832683 0.961095 0.667342
O O10 0.854019 0.378142 0.951408
O O11 0.704562 0.555509 0.761981
O O12 0.881113 0.171454 0.825050
O O13 0.166673 0.509598 0.984829
O O14 0.161191 0.867753 0.899744
#
# Coordination Sequence:
#
# PCOD9119591 Si02
#       7
#     2   2   2   2   2   2   2
#     4  12  28  49  77 114 155 209 263 329 394 478
#     4  12  28  51  76 117 165 211 264 327 415 480
#     4  12  25  48  75 119 149 200 267 328 410 465
#     4  12  26  50  73 114 150 205 261 317 404 469
#     4  12  28  48  77 108 158 204 264 322 392 485
#     4  12  25  48  76 109 151 199 266 321 386 482
#     4  12  24  46  80 109 154 200 259 338 389 485
#
# _framework density 24.051884999999999
#
# number of rings (size 3 to 8) (size 9 to 14) (size 15 to 20)
#    0.000    0.000    5.714    3.429    4.000    3.429 
#    0.000    0.000    0.000    0.000    0.000    0.000 
#    0.000    0.000    0.000    0.000    0.000    0.000 
#
# Total GULP energy -78183.095389 kJ/mol
# GULP energy per Si atom -5584.506813 kJ/mol
# Density = 2.399714 g / cm^3
# Si number density = 24.051885 Si / 1000 Ang^3
#
#
#
# Elastic Constant Matrix: (Units=GPa)
#
#
# Indices 1 2 3 4 5 6 
#
# 1 87.3630 37.5470 38.8550 0.0000 -3.8140 0.0000
# 2 37.5470 78.8094 24.2469 0.0000 5.8693 0.0000
# 3 38.8550 24.2469 67.6549 0.0000 -2.4721 0.0000
# 4 0.0000 0.0000 0.0000 39.5121 0.0000 -9.5954
# 5 -3.8140 5.8693 -2.4721 0.0000 50.8431 0.0000
# 6 0.0000 0.0000 0.0000 -9.5954 0.0000 27.2396
#
#
#
# Elastic Compliance Matrix: (Units=1/GPa)
#
#
# Indices 1 2 3 4 5 6 
#
# 1 0.017651 -0.006105 -0.007889 0.000000 0.001645 0.000000
# 2 -0.006105 0.016558 -0.002519 0.000000 -0.002492 0.000000
# 3 -0.007889 -0.002519 0.020240 0.000000 0.000683 0.000000
# 4 0.000000 0.000000 0.000000 0.027676 0.000000 0.009749
# 5 0.001645 -0.002492 0.000683 0.000000 0.020113 0.000000
# 6 0.000000 0.000000 0.000000 0.009749 0.000000 0.040146
#
#
# Mechanical properties :
#
#
# Convention : Reuss Voigt Hill
#
# Bulk Modulus (GPa) = 46.68055 48.34724 47.51389
# Shear Modulus (GPa) = 27.38988 32.39753 29.89370
#
# Velocity S-wave (km/s) = 3.37825 3.67411 3.52928
# Velocity P-wave (km/s) = 5.88788 6.17605 6.03369
#
# Compressibility (1/GPa) = 0.02142220
#
# Stress axis : x y z
#
# Youngs Moduli (GPa) = 56.65517 60.39408 49.40823
#
# Poissons Ratio (x) = 0.36868 0.38978
# Poissons Ratio (y) = 0.34586 0.12447
# Poissons Ratio (z) = 0.44696 0.15215
#
# Static dielectric constant tensor:
#      x y z
#    x 1.944110 0.000000 0.042610 
#    y 0.000000 2.058790 0.000000 
#    z 0.042610 0.000000 1.907490 
# 
# From -- ./inp_files/7073.got.cif
#   From: 2010.05.17/outbox.cif.g08.bks.cpg/sg4_4_cif.got.tgz:7073.got - 2010.06.03 18:43:04.
