data_PCOD9119756
_publ_section_title
;
Structure prediction by ZEFSAII (Michael W. Deem and Ramdas Pophale) SiO2 
 PCOD9119756
Probable space group: P 21
;
_chemical_formula_sum "Si O2"
_cell_formula_units_Z 16
_cell_length_a 12.750925
_cell_length_b 5.440207
_cell_length_c 8.973321
_cell_angle_alpha 90.000000
_cell_angle_beta 82.859389
_cell_angle_gamma 90.000000
_cell_volume 617.630646
_symmetry_space_group_name_H-M "P 21"
_symmetry_group_IT_number 4
_symmetry_cell_setting 'monoclinic'
loop_
_space_group_symop_operation_xyz
x,y,z
-x,1/2+y,-z
loop_
_atom_site_type_symbol
_atom_site_label
_atom_site_fract_x
_atom_site_fract_y
_atom_site_fract_z
Si Si1 0.364029 0.559240 0.176987
Si Si2 0.734827 0.664191 0.605738
Si Si3 0.784968 0.553207 0.253989
Si Si4 0.955417 0.909051 0.138970
Si Si5 0.589753 0.819365 0.137251
Si Si6 0.514751 0.527409 0.593904
Si Si7 0.178698 0.724478 0.011991
Si Si8 0.974345 0.649740 0.594657
O O1 0.311551 0.426700 0.329357
O O2 0.482469 0.662123 0.173050
O O3 0.272157 0.721642 0.114267
O O4 0.384720 0.363531 0.038956
O O5 0.759043 0.592139 0.430707
O O6 0.631359 0.498005 0.645390
O O7 0.850005 0.641871 0.656240
O O8 0.693091 0.706135 0.190044
O O9 0.900973 0.669722 0.215530
O O10 0.780096 0.308092 0.156652
O O11 0.956675 0.110539 0.269788
O O12 0.881694 0.970129 0.011160
O O13 0.076933 0.881973 0.075125
O O14 0.562345 0.048579 0.250739
O O15 0.490299 0.279148 0.502695
O O16 0.000429 0.406922 0.490830
#
# Coordination Sequence:
#
# PCOD9119756 Si02
#       8
#     2   2   2   2   2   2   2   2
#     4  12  29  50  81 126 164 225 279 368 422 521
#     4  12  29  49  83 119 172 210 289 344 447 486
#     4  12  26  51  80 118 157 226 273 356 416 535
#     4  12  27  48  80 115 160 217 285 335 432 504
#     4  12  27  50  80 116 167 213 288 337 445 497
#     4  12  28  51  83 120 162 220 279 344 415 521
#     4  12  28  48  82 114 169 218 287 345 432 513
#     4  12  30  51  81 120 171 215 276 353 431 511
#
# _framework density 25.905453000000001
#
# number of rings (size 3 to 8) (size 9 to 14) (size 15 to 20)
#    0.000    0.000    5.000    3.000    8.750    2.000 
#    0.000    0.000    0.000    0.000    0.000    0.000 
#    0.000    0.000    0.000    0.000    0.000    0.000 
#
# Total GULP energy -89421.583950 kJ/mol
# GULP energy per Si atom -5588.848997 kJ/mol
# Density = 2.584649 g / cm^3
# Si number density = 25.905453 Si / 1000 Ang^3
#
#
#
# Elastic Constant Matrix: (Units=GPa)
#
#
# Indices 1 2 3 4 5 6 
#
# 1 186.6116 36.4428 40.1982 0.0000 3.8165 0.0000
# 2 36.4428 73.0149 20.8615 0.0000 -10.0935 0.0000
# 3 40.1982 20.8615 75.1333 0.0000 -4.3136 0.0000
# 4 0.0000 0.0000 0.0000 46.0594 0.0000 -7.7158
# 5 3.8165 -10.0935 -4.3136 0.0000 47.9205 0.0000
# 6 0.0000 0.0000 0.0000 -7.7158 0.0000 50.7066
#
#
#
# Elastic Compliance Matrix: (Units=1/GPa)
#
#
# Indices 1 2 3 4 5 6 
#
# 1 0.006508 -0.002623 -0.002830 0.000000 -0.001325 0.000000
# 2 -0.002623 0.016310 -0.002931 0.000000 0.003380 0.000000
# 3 -0.002830 -0.002931 0.015696 0.000000 0.001021 0.000000
# 4 0.000000 0.000000 0.000000 0.022279 0.000000 0.003390
# 5 -0.001325 0.003380 0.001021 0.000000 0.021777 0.000000
# 6 0.000000 0.000000 0.000000 0.003390 0.000000 0.020237
#
#
# Mechanical properties :
#
#
# Convention : Reuss Voigt Hill
#
# Bulk Modulus (GPa) = 45.98509 58.86278 52.42393
# Shear Modulus (GPa) = 39.42514 44.75445 42.08979
#
# Velocity S-wave (km/s) = 3.90537 4.16096 4.03519
# Velocity P-wave (km/s) = 6.17459 6.77172 6.48004
#
# Compressibility (1/GPa) = 0.02174618
#
# Stress axis : x y z
#
# Youngs Moduli (GPa) = 153.66781 61.31320 63.71029
#
# Poissons Ratio (x) = 0.16081 0.18027
# Poissons Ratio (y) = 0.40304 0.18675
# Poissons Ratio (z) = 0.43481 0.17972
#
# Static dielectric constant tensor:
#      x y z
#    x 1.976120 0.000000 -0.017240 
#    y 0.000000 2.166230 0.000000 
#    z -0.017240 0.000000 2.106860 
# 
# From -- ./inp_files/7371.got.cif
#   From: 2010.05.17/outbox.cif.g08.bks.cpg/sg4_4_cif.got.tgz:7371.got - 2010.06.03 18:43:04.
