data_PCOD9119953
_publ_section_title
;
Structure prediction by ZEFSAII (Michael W. Deem and Ramdas Pophale) SiO2 
 PCOD9119953
Probable space group: C 2
;
_chemical_formula_sum "Si O2"
_cell_formula_units_Z 26
_cell_length_a 13.951248
_cell_length_b 5.172522
_cell_length_c 13.944998
_cell_angle_alpha 90.000000
_cell_angle_beta 105.932783
_cell_angle_gamma 90.000000
_cell_volume 967.656618
_symmetry_space_group_name_H-M "C 2"
_symmetry_group_IT_number 5
_symmetry_cell_setting 'monoclinic'
loop_
_space_group_symop_operation_xyz
x,y,z
-x,y,-z
1/2+x,1/2+y,z
1/2-x,1/2+y,-z
loop_
_atom_site_type_symbol
_atom_site_label
_atom_site_fract_x
_atom_site_fract_y
_atom_site_fract_z
Si Si1 0.298012 0.996250 0.017047
Si Si2 0.244865 0.845144 0.704124
Si Si3 0.888713 0.959574 0.514806
Si Si4 0.073658 0.378526 0.125939
Si Si5 0.000000 0.888603 0.000000
Si Si6 0.949402 0.459875 0.592587
Si Si7 0.352485 0.845203 0.239977
O O1 0.351653 0.929112 0.129875
O O2 0.200123 0.806326 0.001020
O O3 0.342496 0.861665 0.935813
O O4 0.188557 0.900133 0.589423
O O5 0.189051 0.058065 0.756761
O O6 0.361650 0.881087 0.759324
O O7 0.217592 0.552973 0.726052
O O8 0.870662 0.232773 0.558065
O O9 0.000000 0.991817 0.500000
O O10 0.897522 0.733284 0.594322
O O11 0.025517 0.653709 0.086140
O O12 0.011747 0.119608 0.086874
O O13 0.000000 0.497321 0.500000
O O14 0.039226 0.380828 0.685261
#
# Coordination Sequence:
#
# PCOD9119953 Si02
#       7
#     4   4   4   4   2   4   4
#     4  12  22  34  52  81 115 140 170 215 276 342
#     4  12  19  29  52  74 107 141 175 203 262 325
#     4  10  16  27  41  68 102 149 157 201 244 313
#     4  11  22  39  56  77 103 142 186 232 264 313
#     4  10  24  42  58  68  98 142 198 244 264 278
#     4  10  16  26  41  61 106 150 166 187 235 308
#     4  12  19  29  45  76 109 150 163 195 254 336
#
# _framework density 26.869035
#
# number of rings (size 3 to 8) (size 9 to 14) (size 15 to 20)
#    0.000    0.923    9.231    1.846    0.000    0.000 
#    0.000    0.000    0.000    0.000    0.000    0.000 
#    0.000   24.615    0.000    0.000    0.000    0.000 
#
# Total GULP energy -72526.471843 kJ/mol
# GULP energy per Si atom -5578.959373 kJ/mol
# Density = 2.680788 g / cm^3
# Si number density = 26.869035 Si / 1000 Ang^3
#
#
#
# Elastic Constant Matrix: (Units=GPa)
#
#
# Indices 1 2 3 4 5 6 
#
# 1 54.5020 16.7108 35.7398 0.0000 22.0443 0.0000
# 2 16.7108 164.2092 -4.4670 0.0000 8.2278 0.0000
# 3 35.7398 -4.4670 168.6769 0.0000 13.7503 0.0000
# 4 0.0000 0.0000 0.0000 47.4536 0.0000 1.4766
# 5 22.0443 8.2278 13.7503 0.0000 20.6415 0.0000
# 6 0.0000 0.0000 0.0000 1.4766 0.0000 22.2145
#
#
#
# Elastic Compliance Matrix: (Units=1/GPa)
#
#
# Indices 1 2 3 4 5 6 
#
# 1 0.036169 -0.002084 -0.004904 0.000000 -0.034529 0.000000
# 2 -0.002084 0.006358 0.000672 0.000000 -0.000756 0.000000
# 3 -0.004904 0.000672 0.006958 0.000000 0.000334 0.000000
# 4 0.000000 0.000000 0.000000 0.021117 0.000000 -0.001404
# 5 -0.034529 -0.000756 0.000334 0.000000 0.085400 0.000000
# 6 0.000000 0.000000 0.000000 -0.001404 0.000000 0.045109
#
#
# Mechanical properties :
#
#
# Convention : Reuss Voigt Hill
#
# Bulk Modulus (GPa) = 27.13563 53.70616 40.42090
# Shear Modulus (GPa) = 22.12120 40.68889 31.40504
#
# Velocity S-wave (km/s) = 2.87243 3.89568 3.42251
# Velocity P-wave (km/s) = 4.59590 6.34559 5.54025
#
# Compressibility (1/GPa) = 0.03685191
#
# Stress axis : x y z
#
# Youngs Moduli (GPa) = 27.64831 157.28155 143.71771
#
# Poissons Ratio (x) = 0.32778 0.70478
# Poissons Ratio (y) = 0.05762 -0.09652
# Poissons Ratio (z) = 0.13559 -0.10563
#
# Static dielectric constant tensor:
#      x y z
#    x 0.803680 0.000000 0.520640 
#    y 0.000000 2.103910 0.000000 
#    z 0.520640 0.000000 1.954530 
# 
# From -- ./inp_files/66864.got.cif
#   From: 2010.05.17/outbox.cif.g08.bks.cpg/sg5_34_cif.got.tgz:66864.got - 2010.06.03 18:56:24.
