data_PCOD9119456
_publ_section_title
;
Structure prediction by ZEFSAII (Michael W. Deem and Ramdas Pophale) SiO2 
 PCOD9119456
Probable space group: P 21
;
_chemical_formula_sum "Si O2"
_cell_formula_units_Z 16
_cell_length_a 9.524022
_cell_length_b 5.215869
_cell_length_c 21.128099
_cell_angle_alpha 90.000000
_cell_angle_beta 36.011820
_cell_angle_gamma 90.000000
_cell_volume 617.091355
_symmetry_space_group_name_H-M "P 21"
_symmetry_group_IT_number 4
_symmetry_cell_setting 'monoclinic'
loop_
_space_group_symop_operation_xyz
x,y,z
-x,1/2+y,-z
loop_
_atom_site_type_symbol
_atom_site_label
_atom_site_fract_x
_atom_site_fract_y
_atom_site_fract_z
Si Si1 0.343104 0.510500 0.073505
Si Si2 0.375071 0.203850 0.518349
Si Si3 0.629871 0.472093 0.617367
Si Si4 0.084598 0.371042 0.805720
Si Si5 0.090095 0.085890 0.999075
Si Si6 0.969902 0.534990 0.712669
Si Si7 0.356841 0.653784 0.204670
Si Si8 0.101219 0.309352 0.386658
O O1 0.297506 0.475888 0.165255
O O2 0.092122 0.624584 0.138145
O O3 0.468179 0.249015 0.004051
O O4 0.526833 0.453704 0.482128
O O5 0.624175 0.654116 0.556702
O O6 0.118663 0.277239 0.638985
O O7 0.371150 0.333422 0.710179
O O8 0.693435 0.636444 0.656310
O O9 0.873824 0.314401 0.515829
O O10 0.987726 0.513460 0.902300
O O11 0.042591 0.552533 0.758988
O O12 0.365228 0.139393 0.889831
O O13 0.960330 0.340068 0.024891
O O14 0.704554 0.436410 0.797357
O O15 0.017179 0.713259 0.635879
O O16 0.231495 0.566343 0.315070
#
# Coordination Sequence:
#
# PCOD9119456 Si02
#       8
#     2   2   2   2   2   2   2   2
#     4  11  26  51  83 118 162 205 272 339 409 483
#     4  12  25  50  76 113 158 207 264 327 385 470
#     4  12  27  50  80 118 162 221 268 334 408 488
#     4  11  27  49  82 122 154 221 268 341 399 493
#     4  12  30  53  77 117 165 211 271 337 407 485
#     4  11  26  49  78 118 158 208 273 333 405 478
#     4  11  27  47  81 110 155 214 261 337 405 479
#     4  12  28  51  79 118 168 215 273 334 416 486
#
# _framework density 25.928090000000001
#
# number of rings (size 3 to 8) (size 9 to 14) (size 15 to 20)
#    0.000    0.500    3.750    2.250    8.750    0.000 
#    9.000    0.000    0.000    0.000    0.000    0.000 
#    0.000    0.000    0.000    0.000    0.000    0.000 
#
# Total GULP energy -89566.267065 kJ/mol
# GULP energy per Si atom -5597.891692 kJ/mol
# Density = 2.586908 g / cm^3
# Si number density = 25.928090 Si / 1000 Ang^3
#
#
#
# Elastic Constant Matrix: (Units=GPa)
#
#
# Indices 1 2 3 4 5 6 
#
# 1 127.8433 43.3631 47.6533 0.0000 -22.2244 0.0000
# 2 43.3631 104.4787 22.4020 0.0000 -1.6368 0.0000
# 3 47.6533 22.4020 139.2460 0.0000 -14.7619 0.0000
# 4 0.0000 0.0000 0.0000 20.6217 0.0000 21.2577
# 5 -22.2244 -1.6368 -14.7619 0.0000 52.5219 0.0000
# 6 0.0000 0.0000 0.0000 21.2577 0.0000 25.1691
#
#
#
# Elastic Compliance Matrix: (Units=1/GPa)
#
#
# Indices 1 2 3 4 5 6 
#
# 1 0.010760 -0.003835 -0.002675 0.000000 0.003682 0.000000
# 2 -0.003835 0.011281 -0.000657 0.000000 -0.001456 0.000000
# 3 -0.002675 -0.000657 0.008329 0.000000 0.001188 0.000000
# 4 0.000000 0.000000 0.000000 0.374865 0.000000 -0.316608
# 5 0.003682 -0.001456 0.001188 0.000000 0.020886 0.000000
# 6 0.000000 0.000000 0.000000 -0.316608 0.000000 0.307136
#
#
# Mechanical properties :
#
#
# Convention : Reuss Voigt Hill
#
# Bulk Modulus (GPa) = 62.35833 66.48941 64.42387
# Shear Modulus (GPa) = 6.64068 36.87252 21.75660
#
# Velocity S-wave (km/s) = 1.60211 3.77517 2.89989
# Velocity P-wave (km/s) = 5.24643 6.68596 6.00945
#
# Compressibility (1/GPa) = 0.01603635
#
# Stress axis : x y z
#
# Youngs Moduli (GPa) = 92.93802 88.64552 120.06691
#
# Poissons Ratio (x) = 0.33992 0.32119
# Poissons Ratio (y) = 0.35638 0.07887
# Poissons Ratio (z) = 0.24862 0.05823
#
# Static dielectric constant tensor:
#      x y z
#    x 2.057870 0.000000 -0.052300 
#    y 0.000000 2.106230 0.000000 
#    z -0.052300 0.000000 2.101620 
# 
# From -- ./inp_files/15552.got.cif
#   From: 2010.05.17/outbox.cif.g08.bks.cpg/sg4_8_cif.got.tgz:15552.got - 2010.06.03 18:43:04.
