data_PCOD9119294
_publ_section_title
;
Structure prediction by ZEFSAII (Michael W. Deem and Ramdas Pophale) SiO2 
 PCOD9119294
Probable space group: P 21
;
_chemical_formula_sum "Si O2"
_cell_formula_units_Z 14
_cell_length_a 9.090832
_cell_length_b 7.932761
_cell_length_c 12.293013
_cell_angle_alpha 90.000000
_cell_angle_beta 137.969668
_cell_angle_gamma 90.000000
_cell_volume 593.543353
_symmetry_space_group_name_H-M "P 21"
_symmetry_group_IT_number 4
_symmetry_cell_setting 'monoclinic'
loop_
_space_group_symop_operation_xyz
x,y,z
-x,1/2+y,-z
loop_
_atom_site_type_symbol
_atom_site_label
_atom_site_fract_x
_atom_site_fract_y
_atom_site_fract_z
Si Si1 0.981944 0.337460 0.707823
Si Si2 0.346449 0.086018 0.153690
Si Si3 0.346664 0.144334 0.517167
Si Si4 0.698325 0.024665 0.533876
Si Si5 0.434191 0.622709 0.133611
Si Si6 0.484379 0.435117 0.957389
Si Si7 0.939192 0.895246 0.001138
O O1 0.101466 0.653912 0.375391
O O2 0.225253 0.392309 0.806148
O O3 0.981148 0.329599 0.838245
O O4 0.817718 0.487324 0.584667
O O5 0.535320 0.038122 0.341425
O O6 0.440990 0.083543 0.083892
O O7 0.148506 0.951665 0.049525
O O8 0.236760 0.258760 0.134349
O O9 0.557712 0.095242 0.559067
O O10 0.415949 0.161429 0.681119
O O11 0.253260 0.325727 0.426825
O O12 0.401961 0.772888 0.031358
O O13 0.531380 0.478445 0.107859
O O14 0.203354 0.560940 0.053116
#
# Coordination Sequence:
#
# PCOD9119294 Si02
#       7
#     2   2   2   2   2   2   2
#     4  11  26  47  71 109 151 192 251 301 384 448
#     4  12  24  46  75 108 150 190 250 311 369 434
#     4  12  24  47  78 108 152 190 254 313 373 449
#     4  12  25  46  76 112 143 198 243 320 370 447
#     4  11  25  48  71 105 147 195 248 305 374 446
#     4  11  25  50  69 105 153 191 244 312 369 453
#     4  11  25  44  76 111 142 198 254 306 365 447
#
# _framework density 23.587156
#
# number of rings (size 3 to 8) (size 9 to 14) (size 15 to 20)
#    0.000    0.571    4.286    3.429    2.000    1.143 
#   12.857    0.000    0.000    0.000    0.000    0.000 
#    0.000    0.000    0.000    0.000    0.000    0.000 
#
# Total GULP energy -78368.198654 kJ/mol
# GULP energy per Si atom -5597.728475 kJ/mol
# Density = 2.353347 g / cm^3
# Si number density = 23.587156 Si / 1000 Ang^3
#
#
#
# Elastic Constant Matrix: (Units=GPa)
#
#
# Indices 1 2 3 4 5 6 
#
# 1 129.4023 23.2786 23.9970 0.0000 2.0566 0.0000
# 2 23.2786 132.9960 27.6440 0.0000 3.1340 0.0000
# 3 23.9970 27.6440 64.2227 0.0000 -8.8653 0.0000
# 4 0.0000 0.0000 0.0000 21.6532 0.0000 -1.8109
# 5 2.0566 3.1340 -8.8653 0.0000 28.4134 0.0000
# 6 0.0000 0.0000 0.0000 -1.8109 0.0000 41.4225
#
#
#
# Elastic Compliance Matrix: (Units=1/GPa)
#
#
# Indices 1 2 3 4 5 6 
#
# 1 0.008456 -0.000820 -0.003008 0.000000 -0.001460 0.000000
# 2 -0.000820 0.008460 -0.003611 0.000000 -0.002001 0.000000
# 3 -0.003008 -0.003611 0.019160 0.000000 0.006594 0.000000
# 4 0.000000 0.000000 0.000000 0.046352 0.000000 0.002026
# 5 -0.001460 -0.002001 0.006594 0.000000 0.037578 0.000000
# 6 0.000000 0.000000 0.000000 0.002026 0.000000 0.024230
#
#
# Mechanical properties :
#
#
# Convention : Reuss Voigt Hill
#
# Bulk Modulus (GPa) = 47.17757 52.94004 50.05880
# Shear Modulus (GPa) = 30.08743 35.07791 32.58267
#
# Velocity S-wave (km/s) = 3.57541 3.86056 3.72072
# Velocity P-wave (km/s) = 6.09012 6.50884 6.30296
#
# Compressibility (1/GPa) = 0.02119651
#
# Stress axis : x y z
#
# Youngs Moduli (GPa) = 118.25224 118.19773 52.19340
#
# Poissons Ratio (x) = 0.09698 0.15701
# Poissons Ratio (y) = 0.09702 0.18848
# Poissons Ratio (z) = 0.35573 0.42684
#
# Static dielectric constant tensor:
#      x y z
#    x 1.872070 0.000000 0.010890 
#    y 0.000000 2.041960 0.000000 
#    z 0.010890 0.000000 1.846770 
# 
# From -- ./inp_files/11068.got.cif
#   From: 2010.05.17/outbox.cif.g08.bks.cpg/sg4_6_cif.got.tgz:11068.got - 2010.06.03 18:43:04.
