data_PCOD9119117
_publ_section_title
;
Structure prediction by ZEFSAII (Michael W. Deem and Ramdas Pophale) SiO2 
 PCOD9119117
Probable space group: P 21
;
_chemical_formula_sum "Si O2"
_cell_formula_units_Z 16
_cell_length_a 18.689226
_cell_length_b 8.678621
_cell_length_c 6.646415
_cell_angle_alpha 90.000000
_cell_angle_beta 44.662866
_cell_angle_gamma 90.000000
_cell_volume 757.781448
_symmetry_space_group_name_H-M "P 21"
_symmetry_group_IT_number 4
_symmetry_cell_setting 'monoclinic'
loop_
_space_group_symop_operation_xyz
x,y,z
-x,1/2+y,-z
loop_
_atom_site_type_symbol
_atom_site_label
_atom_site_fract_x
_atom_site_fract_y
_atom_site_fract_z
Si Si1 0.784001 0.433230 0.589903
Si Si2 0.598916 0.424077 0.685424
Si Si3 0.901083 0.924076 0.581089
Si Si4 0.471592 0.254921 0.266811
Si Si5 0.843354 0.760930 0.306473
Si Si6 0.715998 0.933230 0.225906
Si Si7 0.656646 0.260931 0.179892
Si Si8 0.028408 0.754920 0.653179
O O1 0.705963 0.379265 0.574054
O O2 0.796449 0.614884 0.518750
O O3 0.894046 0.354348 0.368510
O O4 0.732897 0.372509 0.901273
O O5 0.585974 0.606326 0.699693
O O6 0.599323 0.360329 0.461403
O O7 0.511394 0.356016 0.001457
O O8 0.900676 0.860331 0.358696
O O9 0.988605 0.856014 0.547034
O O10 0.914027 0.106326 0.543588
O O11 0.794036 0.879265 0.897904
O O12 0.394047 0.354348 0.555308
O O13 0.571200 0.205005 0.192767
O O14 0.767103 0.872507 0.332858
O O15 0.928801 0.705005 0.977564
O O16 0.703552 0.114884 0.204542
#
# Coordination Sequence:
#
# PCOD9119117 Si02
#       8
#     2   2   2   2   2   2   2   2
#     4  11  24  45  66 107 139 183 236 287 355 426
#     4  11  25  44  72  99 140 183 228 293 352 421
#     4  11  25  44  72  99 140 183 228 293 352 421
#     4  11  24  45  68 106 138 182 235 286 353 425
#     4  11  25  42  72 100 139 188 233 290 356 418
#     4  11  24  45  66 107 139 183 236 287 355 426
#     4  11  25  42  72 100 139 188 233 290 356 418
#     4  11  24  45  68 106 138 182 235 286 353 425
#
# _framework density 21.114269
#
# number of rings (size 3 to 8) (size 9 to 14) (size 15 to 20)
#    0.000    1.000    2.500    3.000    3.500    6.000 
#    0.000    0.000    0.000    0.000    0.000    0.000 
#    0.000    0.000    0.000    0.000    0.000    0.000 
#
# Total GULP energy -89351.364060 kJ/mol
# GULP energy per Si atom -5584.460254 kJ/mol
# Density = 2.106621 g / cm^3
# Si number density = 21.114269 Si / 1000 Ang^3
#
#
#
# Elastic Constant Matrix: (Units=GPa)
#
#
# Indices 1 2 3 4 5 6 
#
# 1 81.3569 43.0015 35.7780 0.0000 -2.6136 0.0000
# 2 43.0015 113.1978 46.3240 0.0000 11.7028 0.0000
# 3 35.7780 46.3240 80.1786 0.0000 -1.5423 0.0000
# 4 0.0000 0.0000 0.0000 38.3124 0.0000 1.8216
# 5 -2.6136 11.7028 -1.5423 0.0000 26.1908 0.0000
# 6 0.0000 0.0000 0.0000 1.8216 0.0000 37.7952
#
#
#
# Elastic Compliance Matrix: (Units=1/GPa)
#
#
# Indices 1 2 3 4 5 6 
#
# 1 0.017088 -0.004945 -0.004698 0.000000 0.003638 0.000000
# 2 -0.004945 0.013873 -0.005944 0.000000 -0.007042 0.000000
# 3 -0.004698 -0.005944 0.018066 0.000000 0.003251 0.000000
# 4 0.000000 0.000000 0.000000 0.026161 0.000000 -0.001261
# 5 0.003638 -0.007042 0.003251 0.000000 0.041883 0.000000
# 6 0.000000 0.000000 0.000000 -0.001261 0.000000 0.026519
#
#
# Mechanical properties :
#
#
# Convention : Reuss Voigt Hill
#
# Bulk Modulus (GPa) = 56.01609 58.32669 57.17139
# Shear Modulus (GPa) = 27.66779 30.43501 29.05140
#
# Velocity S-wave (km/s) = 3.62385 3.80075 3.71335
# Velocity P-wave (km/s) = 6.64058 6.85166 6.74694
#
# Compressibility (1/GPa) = 0.01785201
#
# Stress axis : x y z
#
# Youngs Moduli (GPa) = 58.52003 72.08136 55.35390
#
# Poissons Ratio (x) = 0.35643 0.26007
# Poissons Ratio (y) = 0.28937 0.32904
# Poissons Ratio (z) = 0.27494 0.42847
#
# Static dielectric constant tensor:
#      x y z
#    x 1.753700 0.000000 -0.020210 
#    y 0.000000 1.747990 0.000000 
#    z -0.020210 0.000000 1.747960 
# 
# From -- ./inp_files/3496.got.cif
#   From: 2010.05.17/outbox.cif.g08.bks.cpg/sg4_2_cif.got.tgz:3496.got - 2010.06.03 18:43:04.
