data_PCOD9119940
_publ_section_title
;
Structure prediction by ZEFSAII (Michael W. Deem and Ramdas Pophale) SiO2 
 PCOD9119940
Probable space group: C 2
;
_chemical_formula_sum "Si O2"
_cell_formula_units_Z 26
_cell_length_a 10.876399
_cell_length_b 14.188576
_cell_length_c 8.097136
_cell_angle_alpha 90.000000
_cell_angle_beta 66.881727
_cell_angle_gamma 90.000000
_cell_volume 1149.211139
_symmetry_space_group_name_H-M "C 2"
_symmetry_group_IT_number 5
_symmetry_cell_setting 'monoclinic'
loop_
_space_group_symop_operation_xyz
x,y,z
-x,y,-z
1/2+x,1/2+y,z
1/2-x,1/2+y,-z
loop_
_atom_site_type_symbol
_atom_site_label
_atom_site_fract_x
_atom_site_fract_y
_atom_site_fract_z
Si Si1 0.000000 0.840380 0.500000
Si Si2 0.500000 0.663182 0.500000
Si Si3 0.304185 0.054985 0.903223
Si Si4 0.272704 0.811740 0.219881
Si Si5 0.000000 0.421918 0.000000
Si Si6 0.784600 0.215849 0.863909
Si Si7 0.720195 0.603384 0.617022
Si Si8 0.563843 0.179436 0.720292
O O1 0.854499 0.872944 0.648803
O O2 0.954572 0.773407 0.374100
O O3 0.399024 0.725076 0.665342
O O4 0.589152 0.599085 0.574686
O O5 0.241993 0.032401 0.757464
O O6 0.420988 0.131712 0.808842
O O7 0.194810 0.112297 0.065168
O O8 0.385471 0.980920 0.967810
O O9 0.414336 0.861343 0.173782
O O10 0.279066 0.709601 0.305041
O O11 0.273815 0.788230 0.021589
O O12 0.645414 0.206462 0.839242
O O13 0.845535 0.605141 0.428059
#
# Coordination Sequence:
#
# PCOD9119940 Si02
#       8
#     2   2   4   4   2   4   4   4
#     4  10  18  34  65  91 118 162 226 264 296 364
#     4  10  20  32  57  93 124 152 208 276 310 348
#     4  11  19  34  60  91 115 164 211 252 303 375
#     4  10  21  37  59  92 130 168 204 265 316 378
#     4  12  24  36  60  92 140 164 200 260 342 374
#     4  10  19  33  61  89 121 164 213 255 303 370
#     4   9  19  35  63  91 120 155 218 262 304 364
#     4  10  15  32  63  93 107 149 219 268 282 354
#
# _framework density 22.624216000000001
#
# number of rings (size 3 to 8) (size 9 to 14) (size 15 to 20)
#    0.000    1.846    6.154    0.923    0.000    1.846 
#    0.000    0.769   27.077    1.846    0.000    0.000 
#    0.000    0.000    0.000    0.000    0.000    0.000 
#
# Total GULP energy -72448.134772 kJ/mol
# GULP energy per Si atom -5572.933444 kJ/mol
# Density = 2.257272 g / cm^3
# Si number density = 22.624216 Si / 1000 Ang^3
#
#
#
# Elastic Constant Matrix: (Units=GPa)
#
#
# Indices 1 2 3 4 5 6 
#
# 1 102.7487 5.1239 41.4096 0.0000 9.1992 0.0000
# 2 5.1239 28.8090 9.7652 0.0000 -3.2518 0.0000
# 3 41.4096 9.7652 114.3630 0.0000 -15.1182 0.0000
# 4 0.0000 0.0000 0.0000 -1.0746 0.0000 1.7323
# 5 9.1992 -3.2518 -15.1182 0.0000 61.0731 0.0000
# 6 0.0000 0.0000 0.0000 1.7323 0.0000 10.5216
#
#
#
# Elastic Compliance Matrix: (Units=1/GPa)
#
#
# Indices 1 2 3 4 5 6 
#
# 1 0.011911 -0.000886 -0.004632 0.000000 -0.002988 0.000000
# 2 -0.000886 0.035895 -0.002558 0.000000 0.001411 0.000000
# 3 -0.004632 -0.002558 0.011076 0.000000 0.003303 0.000000
# 4 0.000000 0.000000 0.000000 -0.735387 0.000000 0.121078
# 5 -0.002988 0.001411 0.003303 0.000000 0.017717 0.000000
# 6 0.000000 0.000000 0.000000 0.121078 0.000000 0.075108
#
#
# Mechanical properties :
#
#
# Convention : Reuss Voigt Hill
#
# Bulk Modulus (GPa) = 23.40190 39.83534 31.61862
# Shear Modulus (GPa) = -9.03694 26.74549 8.85427
#
# Velocity S-wave (km/s) = -2.00076 3.44199 1.98043
# Velocity P-wave (km/s) = 2.24250 5.78290 4.38582
#
# Compressibility (1/GPa) = 0.04273157
#
# Stress axis : x y z
#
# Youngs Moduli (GPa) = 83.95577 27.85890 90.28146
#
# Poissons Ratio (x) = 0.02467 0.41820
# Poissons Ratio (y) = 0.07435 0.23092
# Poissons Ratio (z) = 0.38890 0.07126
#
# Static dielectric constant tensor:
#      x y z
#    x 1.856820 0.000000 0.011770 
#    y 0.000000 1.874070 0.000000 
#    z 0.011770 0.000000 1.946050 
# 
# From -- ./inp_files/20295.got.cif
#   From: 2010.05.17/outbox.cif.g08.bks.cpg/sg5_11_cif.got.tgz:20295.got - 2010.06.03 18:56:24.
