data_PCOD9119345
_publ_section_title
;
Structure prediction by ZEFSAII (Michael W. Deem and Ramdas Pophale) SiO2 
 PCOD9119345
Probable space group: P 21
;
_chemical_formula_sum "Si O2"
_cell_formula_units_Z 16
_cell_length_a 8.503209
_cell_length_b 10.966695
_cell_length_c 9.104954
_cell_angle_alpha 90.000000
_cell_angle_beta 129.033504
_cell_angle_gamma 90.000000
_cell_volume 659.527938
_symmetry_space_group_name_H-M "P 21"
_symmetry_group_IT_number 4
_symmetry_cell_setting 'monoclinic'
loop_
_space_group_symop_operation_xyz
x,y,z
-x,1/2+y,-z
loop_
_atom_site_type_symbol
_atom_site_label
_atom_site_fract_x
_atom_site_fract_y
_atom_site_fract_z
Si Si1 0.700125 0.608780 0.106253
Si Si2 0.292967 0.119964 0.410956
Si Si3 0.013626 0.040014 0.468853
Si Si4 0.284471 0.942965 0.146619
Si Si5 0.762232 0.117833 0.733237
Si Si6 0.746144 0.886505 0.517462
Si Si7 0.061354 0.315301 0.884855
Si Si8 0.246432 0.577538 0.934527
O O1 0.863050 0.607477 0.331839
O O2 0.754023 0.718924 0.027337
O O3 0.713338 0.484723 0.019679
O O4 0.480000 0.609090 0.049732
O O5 0.192404 0.017249 0.456171
O O6 0.268038 0.064185 0.236914
O O7 0.525347 0.135754 0.582939
O O8 0.207185 0.253821 0.391290
O O9 0.859268 0.119592 0.279366
O O10 0.890085 0.929698 0.468908
O O11 0.508795 0.892449 0.323945
O O12 0.081523 0.868046 0.066806
O O13 0.882223 0.224775 0.720875
O O14 0.786583 0.988556 0.665999
O O15 0.815900 0.118430 0.938110
O O16 0.173196 0.436302 0.891725
#
# Coordination Sequence:
#
# PCOD9119345 Si02
#       8
#     2   2   2   2   2   2   2   2
#     4  12  28  50  73 115 157 203 255 315 388 460
#     4  11  25  46  78 115 155 200 260 318 380 466
#     4  12  26  46  74 112 154 200 254 306 384 452
#     4  11  25  49  78 113 150 207 261 311 391 458
#     4  11  25  49  78 113 150 207 261 311 391 458
#     4  11  25  46  78 115 155 200 260 318 380 466
#     4  12  26  48  82 108 156 202 260 324 376 472
#     4  12  28  50  73 115 157 203 255 315 388 460
#
# _framework density 24.259775999999999
#
# number of rings (size 3 to 8) (size 9 to 14) (size 15 to 20)
#    0.000    0.500    6.250    0.750    3.500    1.000 
#    2.250    0.000    0.000    0.000    0.000    0.000 
#    0.000    0.000    0.000    0.000    0.000    0.000 
#
# Total GULP energy -89149.171437 kJ/mol
# GULP energy per Si atom -5571.823215 kJ/mol
# Density = 2.420456 g / cm^3
# Si number density = 24.259776 Si / 1000 Ang^3
#
#
#
# Elastic Constant Matrix: (Units=GPa)
#
#
# Indices 1 2 3 4 5 6 
#
# 1 121.8482 42.4340 34.5330 0.0000 32.4622 0.0000
# 2 42.4340 108.9578 19.6892 0.0000 6.0833 0.0000
# 3 34.5330 19.6892 121.1293 0.0000 -8.1047 0.0000
# 4 0.0000 0.0000 0.0000 0.1102 0.0000 -3.0186
# 5 32.4622 6.0833 -8.1047 0.0000 46.1587 0.0000
# 6 0.0000 0.0000 0.0000 -3.0186 0.0000 39.9242
#
#
#
# Elastic Compliance Matrix: (Units=1/GPa)
#
#
# Indices 1 2 3 4 5 6 
#
# 1 0.013124 -0.003914 -0.003732 0.000000 -0.009369 0.000000
# 2 -0.003914 0.010731 -0.000545 0.000000 0.001242 0.000000
# 3 -0.003732 -0.000545 0.009703 0.000000 0.004400 0.000000
# 4 0.000000 0.000000 0.000000 -8.471574 0.000000 -0.640528
# 5 -0.009369 0.001242 0.004400 0.000000 0.028862 0.000000
# 6 0.000000 0.000000 0.000000 -0.640528 0.000000 -0.023382
#
#
# Mechanical properties :
#
#
# Convention : Reuss Voigt Hill
#
# Bulk Modulus (GPa) = 58.22358 60.58308 59.40333
# Shear Modulus (GPa) = -0.59450 34.25724 16.83137
#
# Velocity S-wave (km/s) = -0.49557 3.76187 2.63686
# Velocity P-wave (km/s) = 4.87080 6.62539 5.81466
#
# Compressibility (1/GPa) = 0.01717517
#
# Stress axis : x y z
#
# Youngs Moduli (GPa) = 76.19851 93.18603 103.06367
#
# Poissons Ratio (x) = 0.36469 0.38465
# Poissons Ratio (y) = 0.29821 0.05622
# Poissons Ratio (z) = 0.28439 0.05083
#
# Static dielectric constant tensor:
#      x y z
#    x 1.965660 0.000000 -0.019490 
#    y 0.000000 1.961820 0.000000 
#    z -0.019490 0.000000 1.990390 
# 
# From -- ./inp_files/6465.got.cif
#   From: 2010.05.17/outbox.cif.g08.bks.cpg/sg4_4_cif.got.tgz:6465.got - 2010.06.03 18:43:04.
