data_PCOD9119099
_publ_section_title
;
Structure prediction by ZEFSAII (Michael W. Deem and Ramdas Pophale) SiO2 
 PCOD9119099
Probable space group: P 21
;
_chemical_formula_sum "Si O2"
_cell_formula_units_Z 16
_cell_length_a 9.644918
_cell_length_b 8.168770
_cell_length_c 9.809429
_cell_angle_alpha 90.000000
_cell_angle_beta 71.068005
_cell_angle_gamma 90.000000
_cell_volume 731.048431
_symmetry_space_group_name_H-M "P 21"
_symmetry_group_IT_number 4
_symmetry_cell_setting 'monoclinic'
loop_
_space_group_symop_operation_xyz
x,y,z
-x,1/2+y,-z
loop_
_atom_site_type_symbol
_atom_site_label
_atom_site_fract_x
_atom_site_fract_y
_atom_site_fract_z
Si Si1 0.945739 0.536940 0.942443
Si Si2 0.607620 0.992885 0.883550
Si Si3 0.410898 0.209101 0.595921
Si Si4 0.218286 0.700886 0.966368
Si Si5 0.317310 0.830430 0.650754
Si Si6 0.344592 0.210738 0.913111
Si Si7 0.032257 0.684849 0.629888
Si Si8 0.786907 0.894305 0.561251
O O1 0.103554 0.558602 0.961428
O O2 0.963011 0.596668 0.782710
O O3 0.882905 0.356098 0.970009
O O4 0.822289 0.652831 0.048794
O O5 0.676976 0.949708 0.716010
O O6 0.441522 0.051649 0.919330
O O7 0.631060 0.840187 0.975526
O O8 0.690364 0.141696 0.933638
O O9 0.570642 0.229048 0.478930
O O10 0.402928 0.279649 0.751151
O O11 0.301201 0.306204 0.531791
O O12 0.366477 0.018931 0.626665
O O13 0.313186 0.750879 0.803138
O O14 0.151665 0.813849 0.648509
O O15 0.123880 0.550905 0.518528
O O16 0.905549 0.769502 0.584907
#
# Coordination Sequence:
#
# PCOD9119099 Si02
#       8
#     2   2   2   2   2   2   2   2
#     4  11  24  44  73 106 143 187 235 294 361 422
#     4  12  28  48  74 106 148 187 246 299 362 432
#     4  12  27  47  76 104 150 190 242 298 365 432
#     4  11  26  44  75 105 148 186 242 297 357 429
#     4  11  25  46  73 107 144 191 242 295 360 430
#     4  12  26  47  73 107 141 191 235 301 362 426
#     4  11  26  46  71 107 144 189 238 293 364 425
#     4  12  28  48  73 106 148 191 242 297 361 436
#
# _framework density 21.886375000000001
#
# number of rings (size 3 to 8) (size 9 to 14) (size 15 to 20)
#    0.000    0.500    2.500    4.500   12.250    0.000 
#    4.500    0.000    0.000    0.000    0.000    0.000 
#    0.000    0.000    0.000    0.000    0.000    0.000 
#
# Total GULP energy -89650.918791 kJ/mol
# GULP energy per Si atom -5603.182424 kJ/mol
# Density = 2.183656 g / cm^3
# Si number density = 21.886375 Si / 1000 Ang^3
#
#
#
# Elastic Constant Matrix: (Units=GPa)
#
#
# Indices 1 2 3 4 5 6 
#
# 1 33.2464 -7.4452 18.0807 0.0000 4.5261 0.0000
# 2 -7.4452 64.2373 26.0703 0.0000 -10.7783 0.0000
# 3 18.0807 26.0703 105.6469 0.0000 -11.3009 0.0000
# 4 0.0000 0.0000 0.0000 35.9064 0.0000 -6.4929
# 5 4.5261 -10.7783 -11.3009 0.0000 35.3444 0.0000
# 6 0.0000 0.0000 0.0000 -6.4929 0.0000 45.6686
#
#
#
# Elastic Compliance Matrix: (Units=1/GPa)
#
#
# Indices 1 2 3 4 5 6 
#
# 1 0.037040 0.006884 -0.008615 0.000000 -0.005399 0.000000
# 2 0.006884 0.019157 -0.005565 0.000000 0.003181 0.000000
# 3 -0.008615 -0.005565 0.012684 0.000000 0.003462 0.000000
# 4 0.000000 0.000000 0.000000 0.028585 0.000000 0.004064
# 5 -0.005399 0.003181 0.003462 0.000000 0.031061 0.000000
# 6 0.000000 0.000000 0.000000 0.004064 0.000000 0.022475
#
#
# Mechanical properties :
#
#
# Convention : Reuss Voigt Hill
#
# Bulk Modulus (GPa) = 18.42048 30.72692 24.57370
# Shear Modulus (GPa) = 27.21947 34.47888 30.84918
#
# Velocity S-wave (km/s) = 3.53040 3.97338 3.75842
# Velocity P-wave (km/s) = 5.00530 5.92623 5.48512
#
# Compressibility (1/GPa) = 0.05428739
#
# Stress axis : x y z
#
# Youngs Moduli (GPa) = 26.99763 52.19897 78.84234
#
# Poissons Ratio (x) = -0.35932 0.67925
# Poissons Ratio (y) = -0.18584 0.43878
# Poissons Ratio (z) = 0.23259 0.29050
#
# Static dielectric constant tensor:
#      x y z
#    x 1.792330 0.000000 -0.002420 
#    y 0.000000 1.814520 0.000000 
#    z -0.002420 0.000000 1.767720 
# 
# From -- ./inp_files/5430.got.cif
#   From: 2010.05.17/outbox.cif.g08.bks.cpg/sg4_3_cif.got.tgz:5430.got - 2010.06.03 18:43:04.
