data_PCOD9119407
_publ_section_title
;
Structure prediction by ZEFSAII (Michael W. Deem and Ramdas Pophale) SiO2 
 PCOD9119407
Probable space group: P 21
;
_chemical_formula_sum "Si O2"
_cell_formula_units_Z 16
_cell_length_a 13.319733
_cell_length_b 8.096206
_cell_length_c 10.415570
_cell_angle_alpha 90.000000
_cell_angle_beta 33.400568
_cell_angle_gamma 90.000000
_cell_volume 618.313558
_symmetry_space_group_name_H-M "P 21"
_symmetry_group_IT_number 4
_symmetry_cell_setting 'monoclinic'
loop_
_space_group_symop_operation_xyz
x,y,z
-x,1/2+y,-z
loop_
_atom_site_type_symbol
_atom_site_label
_atom_site_fract_x
_atom_site_fract_y
_atom_site_fract_z
Si Si1 0.069630 0.552250 0.842497
Si Si2 0.764465 0.483669 0.607164
Si Si3 0.185204 0.502621 0.225440
Si Si4 0.335462 0.867190 0.025563
Si Si5 0.281891 0.983562 0.624194
Si Si6 0.228960 0.192870 0.007085
Si Si7 0.740643 0.869809 0.576787
Si Si8 0.552031 0.184951 0.454945
O O1 0.120913 0.407389 0.687233
O O2 0.263146 0.591642 0.701759
O O3 0.958897 0.688494 0.875546
O O4 0.920748 0.520907 0.111995
O O5 0.644336 0.399826 0.843622
O O6 0.725052 0.410148 0.509714
O O7 0.741296 0.680146 0.619898
O O8 0.972198 0.470033 0.428805
O O9 0.250358 0.683276 0.105901
O O10 0.264278 0.349237 0.060288
O O11 0.219132 0.482009 0.341125
O O12 0.220566 0.021154 0.094416
O O13 0.533860 0.899282 0.756535
O O14 0.367249 0.867284 0.642144
O O15 0.434976 0.124999 0.459800
O O16 0.397244 0.192020 0.729210
#
# Coordination Sequence:
#
# PCOD9119407 Si02
#       8
#     2   2   2   2   2   2   2   2
#     4  11  26  51  80 108 157 205 262 324 387 461
#     4  12  27  49  74 115 155 205 261 319 399 467
#     4  12  27  47  80 116 156 206 256 322 397 476
#     4  12  27  49  76 118 159 199 257 323 399 474
#     4  11  30  49  79 112 153 207 264 322 386 461
#     4  11  25  52  79 117 155 204 259 324 394 467
#     4  12  27  47  78 110 157 206 257 321 399 471
#     4  11  27  52  78 108 156 202 262 327 383 459
#
# _framework density 25.876839
#
# number of rings (size 3 to 8) (size 9 to 14) (size 15 to 20)
#    0.000    0.500    2.500    3.750   10.500    2.000 
#    0.000    0.000    0.000    0.000    0.000    0.000 
#    0.000    0.000    0.000    0.000    0.000    0.000 
#
# Total GULP energy -89580.867531 kJ/mol
# GULP energy per Si atom -5598.804221 kJ/mol
# Density = 2.581794 g / cm^3
# Si number density = 25.876839 Si / 1000 Ang^3
#
#
#
# Elastic Constant Matrix: (Units=GPa)
#
#
# Indices 1 2 3 4 5 6 
#
# 1 106.1989 17.6256 53.0791 0.0000 -7.0140 0.0000
# 2 17.6256 99.3861 11.8145 0.0000 -0.2648 0.0000
# 3 53.0791 11.8145 121.4310 0.0000 -27.2229 0.0000
# 4 0.0000 0.0000 0.0000 34.3418 0.0000 -0.6429
# 5 -7.0140 -0.2648 -27.2229 0.0000 38.2905 0.0000
# 6 0.0000 0.0000 0.0000 -0.6429 0.0000 47.7215
#
#
#
# Elastic Compliance Matrix: (Units=1/GPa)
#
#
# Indices 1 2 3 4 5 6 
#
# 1 0.012382 -0.001528 -0.005660 0.000000 -0.001766 0.000000
# 2 -0.001528 0.010386 -0.000463 0.000000 -0.000537 0.000000
# 3 -0.005660 -0.000463 0.012516 0.000000 0.007858 0.000000
# 4 0.000000 0.000000 0.000000 0.029126 0.000000 0.000392
# 5 -0.001766 -0.000537 0.007858 0.000000 0.031376 0.000000
# 6 0.000000 0.000000 0.000000 0.000392 0.000000 0.020960
#
#
# Mechanical properties :
#
#
# Convention : Reuss Voigt Hill
#
# Bulk Modulus (GPa) = 50.04277 54.67270 52.35773
# Shear Modulus (GPa) = 36.04681 40.37055 38.20868
#
# Velocity S-wave (km/s) = 3.73636 3.95410 3.84677
# Velocity P-wave (km/s) = 6.16398 6.48232 6.32515
#
# Compressibility (1/GPa) = 0.01998291
#
# Stress axis : x y z
#
# Youngs Moduli (GPa) = 80.76291 96.28031 79.89916
#
# Poissons Ratio (x) = 0.14710 0.45220
# Poissons Ratio (y) = 0.12339 0.03701
# Poissons Ratio (z) = 0.45709 0.04459
#
# Static dielectric constant tensor:
#      x y z
#    x 2.025720 0.000000 -0.007390 
#    y 0.000000 2.187960 0.000000 
#    z -0.007390 0.000000 2.058730 
# 
# From -- ./inp_files/12618.got.cif
#   From: 2010.05.17/outbox.cif.g08.bks.cpg/sg4_7_cif.got.tgz:12618.got - 2010.06.03 18:43:04.
