data_PCOD9119736
_publ_section_title
;
Structure prediction by ZEFSAII (Michael W. Deem and Ramdas Pophale) SiO2 
 PCOD9119736
Probable space group: P 21
;
_chemical_formula_sum "Si O2"
_cell_formula_units_Z 12
_cell_length_a 7.805277
_cell_length_b 5.451568
_cell_length_c 13.737420
_cell_angle_alpha 90.000000
_cell_angle_beta 53.728323
_cell_angle_gamma 90.000000
_cell_volume 471.269080
_symmetry_space_group_name_H-M "P 21"
_symmetry_group_IT_number 4
_symmetry_cell_setting 'monoclinic'
loop_
_space_group_symop_operation_xyz
x,y,z
-x,1/2+y,-z
loop_
_atom_site_type_symbol
_atom_site_label
_atom_site_fract_x
_atom_site_fract_y
_atom_site_fract_z
Si Si1 0.801949 0.526830 0.220131
Si Si2 0.150290 0.752592 0.977600
Si Si3 0.726600 0.542235 0.793737
Si Si4 0.358132 0.252728 0.977637
Si Si5 0.943429 0.689643 0.379694
Si Si6 0.675446 0.894704 0.640004
O O1 0.937920 0.731921 0.115070
O O2 0.871144 0.537881 0.309120
O O3 0.545545 0.540795 0.299422
O O4 0.041063 0.945300 0.308020
O O5 0.268328 0.505869 0.966344
O O6 0.130418 0.788745 0.867731
O O7 0.275725 0.997455 0.963715
O O8 0.696622 0.731337 0.891152
O O9 0.637820 0.673907 0.728444
O O10 0.604193 0.297100 0.870819
O O11 0.753982 0.766294 0.514837
O O12 0.128785 0.553998 0.380629
#
# Coordination Sequence:
#
# PCOD9119736 Si02
#       6
#     2   2   2   2   2   2
#     4  12  28  54  82 130 174 236 296 374 458 546
#     4  12  26  52  80 127 181 220 297 379 444 527
#     4  12  26  50  88 128 176 238 304 374 472 536
#     4  12  26  48  84 129 175 230 287 383 444 539
#     4  12  28  56  86 123 177 239 308 375 447 546
#     4  12  28  56  86 123 177 239 308 375 447 546
#
# _framework density 25.463160999999999
#
# number of rings (size 3 to 8) (size 9 to 14) (size 15 to 20)
#    0.000    0.000    5.000    4.000    2.333    1.333 
#   12.000    0.000    0.000    0.000    0.000    0.000 
#    0.000    0.000    0.000    0.000    0.000    0.000 
#
# Total GULP energy -67197.204798 kJ/mol
# GULP energy per Si atom -5599.767066 kJ/mol
# Density = 2.540521 g / cm^3
# Si number density = 25.463161 Si / 1000 Ang^3
#
#
#
# Elastic Constant Matrix: (Units=GPa)
#
#
# Indices 1 2 3 4 5 6 
#
# 1 121.2168 41.1431 62.4322 0.0000 8.2674 0.0000
# 2 41.1431 146.3615 50.7153 0.0000 5.8913 0.0000
# 3 62.4322 50.7153 214.9781 0.0000 13.6059 0.0000
# 4 0.0000 0.0000 0.0000 42.4793 0.0000 0.2132
# 5 8.2674 5.8913 13.6059 0.0000 48.0571 0.0000
# 6 0.0000 0.0000 0.0000 0.2132 0.0000 62.5288
#
#
#
# Elastic Compliance Matrix: (Units=1/GPa)
#
#
# Indices 1 2 3 4 5 6 
#
# 1 0.010247 -0.001998 -0.002452 0.000000 -0.000824 0.000000
# 2 -0.001998 0.007838 -0.001252 0.000000 -0.000263 0.000000
# 3 -0.002452 -0.001252 0.005725 0.000000 -0.001046 0.000000
# 4 0.000000 0.000000 0.000000 0.023541 0.000000 -0.000080
# 5 -0.000824 -0.000263 -0.001046 0.000000 0.021278 0.000000
# 6 0.000000 0.000000 0.000000 -0.000080 0.000000 0.015993
#
#
# Mechanical properties :
#
#
# Convention : Reuss Voigt Hill
#
# Bulk Modulus (GPa) = 80.60582 87.90418 84.25500
# Shear Modulus (GPa) = 49.91817 52.49741 51.20779
#
# Velocity S-wave (km/s) = 4.43245 4.54552 4.48934
# Velocity P-wave (km/s) = 7.61053 7.88328 7.74810
#
# Compressibility (1/GPa) = 0.01240605
#
# Stress axis : x y z
#
# Youngs Moduli (GPa) = 97.58957 127.57593 174.65726
#
# Poissons Ratio (x) = 0.25484 0.42834
# Poissons Ratio (y) = 0.19494 0.21875
# Poissons Ratio (z) = 0.23934 0.15978
#
# Static dielectric constant tensor:
#      x y z
#    x 2.254780 0.000000 -0.032190 
#    y 0.000000 1.996220 0.000000 
#    z -0.032190 0.000000 1.996040 
# 
# From -- ./inp_files/13183.got.cif
#   From: 2010.05.17/outbox.cif.g08.bks.cpg/sg4_7_cif.got.tgz:13183.got - 2010.06.03 18:43:04.
