data_PCOD9119790
_publ_section_title
;
Structure prediction by ZEFSAII (Michael W. Deem and Ramdas Pophale) SiO2 
 PCOD9119790
Probable space group: P 21
;
_chemical_formula_sum "Si O2"
_cell_formula_units_Z 16
_cell_length_a 9.157399
_cell_length_b 5.120358
_cell_length_c 26.704445
_cell_angle_alpha 90.000000
_cell_angle_beta 149.174444
_cell_angle_gamma 90.000000
_cell_volume 641.633644
_symmetry_space_group_name_H-M "P 21"
_symmetry_group_IT_number 4
_symmetry_cell_setting 'monoclinic'
loop_
_space_group_symop_operation_xyz
x,y,z
-x,1/2+y,-z
loop_
_atom_site_type_symbol
_atom_site_label
_atom_site_fract_x
_atom_site_fract_y
_atom_site_fract_z
Si Si1 0.808787 0.585900 0.319019
Si Si2 0.734231 0.316343 0.190878
Si Si3 0.894826 0.759572 0.995179
Si Si4 0.330067 0.832257 0.432632
Si Si5 0.330065 0.971365 0.932631
Si Si6 0.105176 0.544051 0.504821
Si Si7 0.265769 0.987273 0.309122
Si Si8 0.808785 0.217718 0.819018
O O1 0.782746 0.425716 0.260233
O O2 0.500001 0.651810 0.250000
O O3 0.015399 0.824759 0.363997
O O4 0.986247 0.453736 0.416127
O O5 0.431971 0.168520 0.101880
O O6 0.691301 0.524356 0.133169
O O7 0.999998 0.151806 0.250000
O O8 0.076881 0.510488 0.031862
O O9 0.013755 0.849883 0.083874
O O10 0.519594 0.606287 0.512932
O O11 0.308703 0.779260 0.366833
O O12 0.015396 0.978859 0.863996
O O13 0.519588 0.197339 0.012930
O O14 0.431974 0.635102 0.601881
O O15 0.923121 0.793138 0.468138
O O16 0.217256 0.877902 0.239768
#
# Coordination Sequence:
#
# PCOD9119790 Si02
#       8
#     2   2   2   2   2   2   2   2
#     4  12  28  50  83 117 162 213 270 333 409 487
#     4  12  29  51  84 120 163 212 275 335 408 487
#     4  12  30  52  80 119 164 207 267 338 404 481
#     4  12  28  52  81 116 161 210 265 333 402 477
#     4  12  28  52  81 116 161 210 265 333 402 477
#     4  12  30  52  80 119 164 207 267 338 404 481
#     4  12  29  51  84 120 163 212 275 335 408 487
#     4  12  28  50  83 117 162 213 270 333 409 487
#
# _framework density 24.936349
#
# number of rings (size 3 to 8) (size 9 to 14) (size 15 to 20)
#    0.000    0.000    5.000    2.250    7.000    1.000 
#    0.000    0.000    0.000    0.000    0.000    0.000 
#    0.000    0.000    0.000    0.000    0.000    0.000 
#
# Total GULP energy -89674.305956 kJ/mol
# GULP energy per Si atom -5604.644122 kJ/mol
# Density = 2.487959 g / cm^3
# Si number density = 24.936349 Si / 1000 Ang^3
#
#
#
# Elastic Constant Matrix: (Units=GPa)
#
#
# Indices 1 2 3 4 5 6 
#
# 1 175.3249 41.6779 80.5112 0.0000 5.9197 0.0000
# 2 41.6779 77.9914 29.4640 0.0000 -1.2244 0.0000
# 3 80.5112 29.4640 171.5594 0.0000 0.5502 0.0000
# 4 0.0000 0.0000 0.0000 28.6958 0.0000 -2.7518
# 5 5.9197 -1.2244 0.5502 0.0000 59.1312 0.0000
# 6 0.0000 0.0000 0.0000 -2.7518 0.0000 41.1630
#
#
#
# Elastic Compliance Matrix: (Units=1/GPa)
#
#
# Indices 1 2 3 4 5 6 
#
# 1 0.007920 -0.003039 -0.003192 0.000000 -0.000826 0.000000
# 2 -0.003039 0.014884 -0.001132 0.000000 0.000623 0.000000
# 3 -0.003192 -0.001132 0.007521 0.000000 0.000226 0.000000
# 4 0.000000 0.000000 0.000000 0.035073 0.000000 0.002345
# 5 -0.000826 0.000623 0.000226 0.000000 0.017005 0.000000
# 6 0.000000 0.000000 0.000000 0.002345 0.000000 0.024450
#
#
# Mechanical properties :
#
#
# Convention : Reuss Voigt Hill
#
# Bulk Modulus (GPa) = 64.11299 80.90912 72.51105
# Shear Modulus (GPa) = 39.43890 44.01283 41.72586
#
# Velocity S-wave (km/s) = 3.98123 4.20576 4.09503
# Velocity P-wave (km/s) = 6.84836 7.49007 7.17639
#
# Compressibility (1/GPa) = 0.01559746
#
# Stress axis : x y z
#
# Youngs Moduli (GPa) = 126.26317 67.18848 132.96877
#
# Poissons Ratio (x) = 0.20421 0.42445
# Poissons Ratio (y) = 0.38376 0.15049
# Poissons Ratio (z) = 0.40305 0.07604
#
# Static dielectric constant tensor:
#      x y z
#    x 2.033960 0.000000 -0.002000 
#    y 0.000000 2.003980 0.000000 
#    z -0.002000 0.000000 1.978640 
# 
# From -- ./inp_files/16334.got.cif
#   From: 2010.05.17/outbox.cif.g08.bks.cpg/sg4_9_cif.got.tgz:16334.got - 2010.06.03 18:43:04.
