data_PCOD9119655
_publ_section_title
;
Structure prediction by ZEFSAII (Michael W. Deem and Ramdas Pophale) SiO2 
 PCOD9119655
Probable space group: P 21
;
_chemical_formula_sum "Si O2"
_cell_formula_units_Z 16
_cell_length_a 12.156728
_cell_length_b 8.234959
_cell_length_c 10.794766
_cell_angle_alpha 90.000000
_cell_angle_beta 37.318044
_cell_angle_gamma 90.000000
_cell_volume 655.141580
_symmetry_space_group_name_H-M "P 21"
_symmetry_group_IT_number 4
_symmetry_cell_setting 'monoclinic'
loop_
_space_group_symop_operation_xyz
x,y,z
-x,1/2+y,-z
loop_
_atom_site_type_symbol
_atom_site_label
_atom_site_fract_x
_atom_site_fract_y
_atom_site_fract_z
Si Si1 0.172447 0.991900 0.206434
Si Si2 0.577714 0.964280 0.487500
Si Si3 0.854437 0.158327 0.623845
Si Si4 0.681866 0.995157 0.998608
Si Si5 0.017399 0.600473 0.871032
Si Si6 0.507370 0.647119 0.193951
Si Si7 0.960172 0.487397 0.184586
Si Si8 0.603174 0.609834 0.582787
O O1 0.146428 0.818907 0.292731
O O2 0.051031 0.116158 0.395331
O O3 0.084747 0.009979 0.148697
O O4 0.384207 0.030295 0.997802
O O5 0.581489 0.783442 0.538059
O O6 0.783486 0.025195 0.292240
O O7 0.484838 0.075082 0.675782
O O8 0.480961 0.983299 0.442033
O O9 0.702805 0.173002 0.652463
O O10 0.772291 0.018428 0.785074
O O11 0.842059 0.040954 0.949321
O O12 0.615634 0.813810 0.082377
O O13 0.509613 0.104111 0.189549
O O14 0.035103 0.792474 0.829731
O O15 0.918336 0.566250 0.089392
O O16 0.809613 0.554185 0.413423
#
# Coordination Sequence:
#
# PCOD9119655 Si02
#       8
#     2   2   2   2   2   2   2   2
#     4  12  27  49  76 105 150 193 248 307 363 434
#     4  12  25  47  73 109 147 191 240 296 374 440
#     4  12  29  47  75 106 145 197 252 301 363 430
#     4  12  27  47  73 108 144 190 248 299 368 435
#     4  12  25  48  74 109 149 188 241 302 370 440
#     4  12  25  50  75 102 146 193 246 308 362 431
#     4  12  27  45  78 108 147 191 236 303 377 438
#     4  12  27  45  74 109 150 187 237 302 369 448
#
# _framework density 24.422201000000001
#
# number of rings (size 3 to 8) (size 9 to 14) (size 15 to 20)
#    0.000    0.000    3.750    6.000    3.500    1.000 
#    0.000    0.000    0.000    0.000    0.000    0.000 
#    0.000    0.000    0.000    0.000    0.000    0.000 
#
# Total GULP energy -89745.857414 kJ/mol
# GULP energy per Si atom -5609.116088 kJ/mol
# Density = 2.436662 g / cm^3
# Si number density = 24.422201 Si / 1000 Ang^3
#
#
#
# Elastic Constant Matrix: (Units=GPa)
#
#
# Indices 1 2 3 4 5 6 
#
# 1 47.2726 -3.3194 11.3878 0.0000 4.9543 0.0000
# 2 -3.3194 60.3241 -1.9764 0.0000 -8.2800 0.0000
# 3 11.3878 -1.9764 92.8848 0.0000 -6.1829 0.0000
# 4 0.0000 0.0000 0.0000 42.4381 0.0000 0.9328
# 5 4.9543 -8.2800 -6.1829 0.0000 38.1374 0.0000
# 6 0.0000 0.0000 0.0000 0.9328 0.0000 21.9012
#
#
#
# Elastic Compliance Matrix: (Units=1/GPa)
#
#
# Indices 1 2 3 4 5 6 
#
# 1 0.022244 0.000687 -0.002927 0.000000 -0.003215 0.000000
# 2 0.000687 0.017143 0.000528 0.000000 0.003718 0.000000
# 3 -0.002927 0.000528 0.011291 0.000000 0.002325 0.000000
# 4 0.000000 0.000000 0.000000 0.023586 0.000000 -0.001005
# 5 -0.003215 0.003718 0.002325 0.000000 0.027823 0.000000
# 6 0.000000 0.000000 0.000000 -0.001005 0.000000 0.045702
#
#
# Mechanical properties :
#
#
# Convention : Reuss Voigt Hill
#
# Bulk Modulus (GPa) = 21.16214 23.62950 22.39582
# Shear Modulus (GPa) = 29.94670 33.45464 31.70067
#
# Velocity S-wave (km/s) = 3.50552 3.70516 3.60672
# Velocity P-wave (km/s) = 5.00688 5.29157 5.15119
#
# Compressibility (1/GPa) = 0.04725420
#
# Stress axis : x y z
#
# Youngs Moduli (GPa) = 44.95580 58.33428 88.56738
#
# Poissons Ratio (x) = -0.04007 0.25920
# Poissons Ratio (y) = -0.03088 -0.04677
# Poissons Ratio (z) = 0.13156 -0.03080
#
# Static dielectric constant tensor:
#      x y z
#    x 1.925050 0.000000 0.008920 
#    y 0.000000 1.920220 0.000000 
#    z 0.008920 0.000000 1.957170 
# 
# From -- ./inp_files/7941.got.cif
#   From: 2010.05.17/outbox.cif.g08.bks.cpg/sg4_4_cif.got.tgz:7941.got - 2010.06.03 18:43:04.
