data_PCOD9119635
_publ_section_title
;
Structure prediction by ZEFSAII (Michael W. Deem and Ramdas Pophale) SiO2 
 PCOD9119635
Probable space group: P 21
;
_chemical_formula_sum "Si O2"
_cell_formula_units_Z 16
_cell_length_a 8.513190
_cell_length_b 5.120867
_cell_length_c 17.704696
_cell_angle_alpha 90.000000
_cell_angle_beta 50.790804
_cell_angle_gamma 90.000000
_cell_volume 598.050740
_symmetry_space_group_name_H-M "P 21"
_symmetry_group_IT_number 4
_symmetry_cell_setting 'monoclinic'
loop_
_space_group_symop_operation_xyz
x,y,z
-x,1/2+y,-z
loop_
_atom_site_type_symbol
_atom_site_label
_atom_site_fract_x
_atom_site_fract_y
_atom_site_fract_z
Si Si1 0.909690 0.521960 0.650640
Si Si2 0.049050 0.293933 0.208260
Si Si3 0.287159 0.149060 0.709780
Si Si4 0.334428 0.818790 0.905362
Si Si5 0.362967 0.494572 0.555225
Si Si6 0.080066 0.447151 0.894145
Si Si7 0.561023 0.015448 0.973150
Si Si8 0.338208 0.505754 0.312503
O O1 0.801979 0.253566 0.662126
O O2 0.871679 0.606068 0.749834
O O3 0.153358 0.512265 0.572599
O O4 0.804741 0.754095 0.635756
O O5 0.853850 0.455210 0.294955
O O6 0.995782 0.134362 0.149804
O O7 0.221948 0.498909 0.133429
O O8 0.305261 0.416652 0.658768
O O9 0.158774 0.193942 0.825397
O O10 0.508140 0.051480 0.664997
O O11 0.276275 0.563983 0.874912
O O12 0.424068 0.760367 0.962452
O O13 0.507107 0.955911 0.804309
O O14 0.108587 0.921605 0.992313
O O15 0.501753 0.746848 0.509003
O O16 0.562927 0.758656 0.029692
#
# Coordination Sequence:
#
# PCOD9119635 Si02
#       8
#     2   2   2   2   2   2   2   2
#     4  12  27  49  80 117 156 195 253 315 398 459
#     4  12  25  44  73 102 147 208 265 314 382 450
#     4  12  27  50  79 110 159 204 264 318 401 459
#     4  12  26  43  70 105 164 206 276 306 387 422
#     4  12  28  53  89 119 148 195 257 323 397 488
#     4  12  26  45  68 107 155 220 262 334 358 466
#     4  12  28  42  65 100 147 201 269 328 371 426
#     4  12  27  46  76 116 160 209 246 318 380 460
#
# _framework density 26.753579999999999
#
# number of rings (size 3 to 8) (size 9 to 14) (size 15 to 20)
#    0.000    0.000    5.000    4.500    3.500    0.000 
#    0.000    2.500    0.000    1.500    0.000    0.000 
#    0.000    0.000    0.000    0.000    0.000    0.000 
#
# Total GULP energy -89667.406291 kJ/mol
# GULP energy per Si atom -5604.212893 kJ/mol
# Density = 2.669269 g / cm^3
# Si number density = 26.753580 Si / 1000 Ang^3
#
#
#
# Elastic Constant Matrix: (Units=GPa)
#
#
# Indices 1 2 3 4 5 6 
#
# 1 119.6011 33.8918 13.4758 0.0000 -45.4470 0.0000
# 2 33.8918 196.0756 63.1610 0.0000 -42.4271 0.0000
# 3 13.4758 63.1610 130.7078 0.0000 -42.1706 0.0000
# 4 0.0000 0.0000 0.0000 56.4021 0.0000 -8.1682
# 5 -45.4470 -42.4271 -42.1706 0.0000 55.5507 0.0000
# 6 0.0000 0.0000 0.0000 -8.1682 0.0000 54.1921
#
#
#
# Elastic Compliance Matrix: (Units=1/GPa)
#
#
# Indices 1 2 3 4 5 6 
#
# 1 0.012866 -0.000483 0.002892 0.000000 0.012353 0.000000
# 2 -0.000483 0.006513 -0.002145 0.000000 0.002951 0.000000
# 3 0.002892 -0.002145 0.011421 0.000000 0.009398 0.000000
# 4 0.000000 0.000000 0.000000 0.018125 0.000000 0.002732
# 5 0.012353 0.002951 0.009398 0.000000 0.037496 0.000000
# 6 0.000000 0.000000 0.000000 0.002732 0.000000 0.018865
#
#
# Mechanical properties :
#
#
# Convention : Reuss Voigt Hill
#
# Bulk Modulus (GPa) = 31.91988 74.16019 53.04003
# Shear Modulus (GPa) = 43.40253 55.61939 49.51096
#
# Velocity S-wave (km/s) = 4.03216 4.56450 4.30656
# Velocity P-wave (km/s) = 5.79954 7.45382 6.67810
#
# Compressibility (1/GPa) = 0.03132844
#
# Stress axis : x y z
#
# Youngs Moduli (GPa) = 77.72467 153.53615 87.55606
#
# Poissons Ratio (x) = 0.07410 -0.25323
# Poissons Ratio (y) = 0.03751 0.18785
# Poissons Ratio (z) = -0.22479 0.32941
#
# Static dielectric constant tensor:
#      x y z
#    x 2.123900 0.000000 0.009950 
#    y 0.000000 2.155540 0.000000 
#    z 0.009950 0.000000 2.143380 
# 
# From -- ./inp_files/16050.got.cif
#   From: 2010.05.17/outbox.cif.g08.bks.cpg/sg4_9_cif.got.tgz:16050.got - 2010.06.03 18:43:04.
