data_PCOD9119401
_publ_section_title
;
Structure prediction by ZEFSAII (Michael W. Deem and Ramdas Pophale) SiO2 
 PCOD9119401
Probable space group: P 21
;
_chemical_formula_sum "Si O2"
_cell_formula_units_Z 16
_cell_length_a 11.733015
_cell_length_b 5.577982
_cell_length_c 9.369074
_cell_angle_alpha 90.000000
_cell_angle_beta 84.612539
_cell_angle_gamma 90.000000
_cell_volume 610.464865
_symmetry_space_group_name_H-M "P 21"
_symmetry_group_IT_number 4
_symmetry_cell_setting 'monoclinic'
loop_
_space_group_symop_operation_xyz
x,y,z
-x,1/2+y,-z
loop_
_atom_site_type_symbol
_atom_site_label
_atom_site_fract_x
_atom_site_fract_y
_atom_site_fract_z
Si Si1 0.867611 0.361750 0.504186
Si Si2 0.212035 0.133949 0.238881
Si Si3 0.142328 0.041874 0.947750
Si Si4 0.653784 0.923984 0.083168
Si Si5 0.595509 0.271271 0.846100
Si Si6 0.954422 0.050072 0.744054
Si Si7 0.508874 0.565094 0.413983
Si Si8 0.289274 0.773796 0.708294
O O1 0.807643 0.584283 0.590268
O O2 0.927565 0.257378 0.635489
O O3 0.771155 0.212293 0.433159
O O4 0.958048 0.402742 0.368809
O O5 0.161122 0.398741 0.224973
O O6 0.337414 0.021314 0.191363
O O7 0.139738 0.002535 0.117798
O O8 0.234846 0.257908 0.924615
O O9 0.022499 0.095411 0.883081
O O10 0.198377 0.835619 0.843293
O O11 0.532536 0.795545 0.077528
O O12 0.639252 0.060311 0.234696
O O13 0.660148 0.119476 0.957578
O O14 0.580866 0.126276 0.700817
O O15 0.484107 0.308733 0.493532
O O16 0.631328 0.503208 0.327639
#
# Coordination Sequence:
#
# PCOD9119401 Si02
#       8
#     2   2   2   2   2   2   2   2
#     4  11  26  49  77 110 149 219 271 341 427 503
#     4  12  27  50  75 122 156 210 279 348 429 508
#     4  11  27  48  81 115 157 217 275 356 424 508
#     4  12  25  50  80 116 169 214 288 340 439 513
#     4  12  26  48  80 120 164 221 278 354 425 515
#     4  11  27  50  80 110 162 209 277 352 430 515
#     4  12  27  51  80 124 175 229 283 351 423 524
#     4  11  25  50  77 115 158 221 271 346 421 500
#
# _framework density 26.209534999999999
#
# number of rings (size 3 to 8) (size 9 to 14) (size 15 to 20)
#    0.000    0.500    3.750    3.000    5.250    2.000 
#    6.750    0.000    0.000    0.000    0.000    0.000 
#    0.000    0.000    0.000    0.000    0.000    0.000 
#
# Total GULP energy -89425.034587 kJ/mol
# GULP energy per Si atom -5589.064662 kJ/mol
# Density = 2.614988 g / cm^3
# Si number density = 26.209535 Si / 1000 Ang^3
#
#
#
# Elastic Constant Matrix: (Units=GPa)
#
#
# Indices 1 2 3 4 5 6 
#
# 1 93.2722 36.4516 38.0902 0.0000 17.2671 0.0000
# 2 36.4516 59.4347 23.3173 0.0000 1.3012 0.0000
# 3 38.0902 23.3173 139.6006 0.0000 20.4108 0.0000
# 4 0.0000 0.0000 0.0000 14.8453 0.0000 -48.1316
# 5 17.2671 1.3012 20.4108 0.0000 55.5840 0.0000
# 6 0.0000 0.0000 0.0000 -48.1316 0.0000 -47.6095
#
#
#
# Elastic Compliance Matrix: (Units=1/GPa)
#
#
# Indices 1 2 3 4 5 6 
#
# 1 0.015763 -0.008686 -0.002287 0.000000 -0.003854 0.000000
# 2 -0.008686 0.022819 -0.001858 0.000000 0.002846 0.000000
# 3 -0.002287 -0.001858 0.008440 0.000000 -0.002346 0.000000
# 4 0.000000 0.000000 0.000000 0.015747 0.000000 -0.015920
# 5 -0.003854 0.002846 -0.002346 0.000000 0.019983 0.000000
# 6 0.000000 0.000000 0.000000 -0.015920 0.000000 -0.004910
#
#
# Mechanical properties :
#
#
# Convention : Reuss Voigt Hill
#
# Bulk Modulus (GPa) = 46.81273 54.22507 50.51890
# Shear Modulus (GPa) = 45.19843 17.52718 31.36281
#
# Velocity S-wave (km/s) = 4.15722 2.58879 3.46297
# Velocity P-wave (km/s) = 6.39867 5.44700 5.94192
#
# Compressibility (1/GPa) = 0.02136171
#
# Stress axis : x y z
#
# Youngs Moduli (GPa) = 63.43883 43.82337 118.47744
#
# Poissons Ratio (x) = 0.38066 0.27092
# Poissons Ratio (y) = 0.55104 0.22007
# Poissons Ratio (z) = 0.14507 0.08140
#
# Static dielectric constant tensor:
#      x y z
#    x 3.677430 0.000000 -1.654850 
#    y 0.000000 2.216210 0.000000 
#    z -1.654850 0.000000 3.625130 
# 
# From -- ./inp_files/7310.got.cif
#   From: 2010.05.17/outbox.cif.g08.bks.cpg/sg4_4_cif.got.tgz:7310.got - 2010.06.03 18:43:04.
