data_PCOD9119149
_publ_section_title
;
Structure prediction by ZEFSAII (Michael W. Deem and Ramdas Pophale) SiO2 
 PCOD9119149
Probable space group: P 21
;
_chemical_formula_sum "Si O2"
_cell_formula_units_Z 14
_cell_length_a 9.411748
_cell_length_b 5.851143
_cell_length_c 14.197750
_cell_angle_alpha 90.000000
_cell_angle_beta 47.442825
_cell_angle_gamma 90.000000
_cell_volume 575.922300
_symmetry_space_group_name_H-M "P 21"
_symmetry_group_IT_number 4
_symmetry_cell_setting 'monoclinic'
loop_
_space_group_symop_operation_xyz
x,y,z
-x,1/2+y,-z
loop_
_atom_site_type_symbol
_atom_site_label
_atom_site_fract_x
_atom_site_fract_y
_atom_site_fract_z
Si Si1 0.842876 0.773190 0.479724
Si Si2 0.727894 0.412847 0.682837
Si Si3 0.858335 0.312320 0.189203
Si Si4 0.482281 0.627529 0.357406
Si Si5 0.778481 0.874571 0.312757
Si Si6 0.901215 0.206976 0.953230
Si Si7 0.602677 0.436965 0.948436
O O1 0.735453 0.613565 0.602242
O O2 0.851314 0.716124 0.365016
O O3 0.060152 0.801876 0.416706
O O4 0.715977 0.003020 0.528855
O O5 0.561484 0.242016 0.723060
O O6 0.694604 0.483295 0.804592
O O7 0.654380 0.446396 0.283452
O O8 0.061348 0.450605 0.101273
O O9 0.841054 0.135896 0.282617
O O10 0.859849 0.216483 0.081476
O O11 0.554121 0.825030 0.396515
O O12 0.887107 0.799997 0.168092
O O13 0.755147 0.363078 0.960329
O O14 0.506146 0.685869 0.014241
#
# Coordination Sequence:
#
# PCOD9119149 Si02
#       7
#     2   2   2   2   2   2   2
#     4  12  27  49  75 108 154 204 266 333 400 489
#     4  12  27  51  77 111 158 211 269 329 410 478
#     4  11  24  45  78 112 155 201 261 333 400 481
#     4  11  27  45  75 110 151 202 262 327 404 474
#     4  11  26  47  75 112 152 199 265 330 402 482
#     4  11  24  45  77 113 154 204 261 327 406 469
#     4  12  31  50  83 120 166 213 274 333 406 493
#
# _framework density 24.308834000000001
#
# number of rings (size 3 to 8) (size 9 to 14) (size 15 to 20)
#    0.000    0.571    4.286    1.714   12.000    1.143 
#    0.000    0.000    0.000    0.000    0.000    0.000 
#    0.000    0.000    0.000    0.000    0.000    0.000 
#
# Total GULP energy -78057.208331 kJ/mol
# GULP energy per Si atom -5575.514881 kJ/mol
# Density = 2.425351 g / cm^3
# Si number density = 24.308834 Si / 1000 Ang^3
#
#
#
# Elastic Constant Matrix: (Units=GPa)
#
#
# Indices 1 2 3 4 5 6 
#
# 1 74.4155 25.6190 15.9156 0.0000 0.4475 0.0000
# 2 25.6190 79.2027 47.2145 0.0000 0.2986 0.0000
# 3 15.9156 47.2145 104.2652 0.0000 26.8469 0.0000
# 4 0.0000 0.0000 0.0000 41.4957 0.0000 -1.7284
# 5 0.4475 0.2986 26.8469 0.0000 42.4727 0.0000
# 6 0.0000 0.0000 0.0000 -1.7284 0.0000 30.8293
#
#
#
# Elastic Compliance Matrix: (Units=1/GPa)
#
#
# Indices 1 2 3 4 5 6 
#
# 1 0.015123 -0.004827 -0.000108 0.000000 -0.000057 0.000000
# 2 -0.004827 0.020105 -0.009966 0.000000 0.006209 0.000000
# 3 -0.000108 -0.009966 0.016843 0.000000 -0.010575 0.000000
# 4 0.000000 0.000000 0.000000 0.024155 0.000000 0.001354
# 5 -0.000057 0.006209 -0.010575 0.000000 0.030186 0.000000
# 6 0.000000 0.000000 0.000000 0.001354 0.000000 0.032513
#
#
# Mechanical properties :
#
#
# Convention : Reuss Voigt Hill
#
# Bulk Modulus (GPa) = 44.90483 48.37572 46.64027
# Shear Modulus (GPa) = 28.38480 34.23517 31.30998
#
# Velocity S-wave (km/s) = 3.42083 3.75686 3.59278
# Velocity P-wave (km/s) = 5.84085 6.22594 6.03647
#
# Compressibility (1/GPa) = 0.02226932
#
# Stress axis : x y z
#
# Youngs Moduli (GPa) = 66.12281 49.73940 59.37097
#
# Poissons Ratio (x) = 0.24011 0.00640
# Poissons Ratio (y) = 0.31920 0.59168
# Poissons Ratio (z) = 0.00713 0.49570
#
# Static dielectric constant tensor:
#      x y z
#    x 1.973630 0.000000 0.045600 
#    y 0.000000 2.246430 0.000000 
#    z 0.045600 0.000000 1.979270 
# 
# From -- ./inp_files/8568.got.cif
#   From: 2010.05.17/outbox.cif.g08.bks.cpg/sg4_5_cif.got.tgz:8568.got - 2010.06.03 18:43:04.
