data_PCOD9119882
_publ_section_title
;
Structure prediction by ZEFSAII (Michael W. Deem and Ramdas Pophale) SiO2 
 PCOD9119882
Probable space group: P 21
;
_chemical_formula_sum "Si O2"
_cell_formula_units_Z 16
_cell_length_a 6.000000
_cell_length_b 9.000000
_cell_length_c 15.000000
_cell_angle_alpha 90.000000
_cell_angle_beta 120.000000
_cell_angle_gamma 90.000000
_cell_volume 701.480577
_symmetry_space_group_name_H-M "P 21"
_symmetry_group_IT_number 4
_symmetry_cell_setting 'monoclinic'
loop_
_space_group_symop_operation_xyz
x,y,z
-x,1/2+y,-z
loop_
_atom_site_type_symbol
_atom_site_label
_atom_site_fract_x
_atom_site_fract_y
_atom_site_fract_z
Si Si1 0.197960 0.565630 0.438496
Si Si2 0.107674 0.292116 0.524771
Si Si3 0.290919 0.411276 0.276976
Si Si4 0.948411 0.879858 0.088839
Si Si5 0.749239 0.630870 0.615262
Si Si6 0.545191 0.229012 0.733810
Si Si7 0.239818 0.187985 0.112674
Si Si8 0.731254 0.990450 0.211521
O O1 0.063622 0.459683 0.485531
O O2 0.151954 0.506668 0.328755
O O3 0.501233 0.552976 0.522291
O O4 0.076209 0.725163 0.436447
O O5 0.081128 0.205609 0.427404
O O6 0.406089 0.265369 0.612480
O O7 0.378585 0.266535 0.352945
O O8 0.453893 0.546921 0.263283
O O9 0.166317 0.312920 0.172638
O O10 0.167650 0.785211 0.186038
O O11 0.727104 0.939837 0.108926
O O12 0.824173 0.773515 0.990715
O O13 0.083683 0.032455 0.082791
O O14 0.968630 0.535357 0.709845
O O15 0.370595 0.343581 0.757651
O O16 0.534273 0.128483 0.186492
#
# Coordination Sequence:
#
# PCOD9119882 Si02
#       8
#     2   2   2   2   2   2   2   2
#     4  11  26  44  70 104 150 200 244 301 367 439
#     4  11  25  41  71 105 144 194 249 292 359 446
#     4  11  25  46  70 106 150 192 241 311 370 434
#     4  11  25  51  76 105 148 194 239 318 379 448
#     4  11  24  47  73 101 156 199 244 299 376 438
#     4  11  25  45  71 111 145 189 249 305 365 443
#     4  11  26  49  78 107 148 187 251 307 385 445
#     4  11  26  47  77 107 145 199 245 311 371 455
#
# _framework density 22.808900000000001
#
# number of rings (size 3 to 8) (size 9 to 14) (size 15 to 20)
#    0.000    1.000    2.500    2.250    7.000    6.000 
#    2.250    0.000    0.000    0.000    0.000    0.000 
#    0.000    0.000    0.000    0.000    0.000    0.000 
#
# Total GULP energy -89169.256985 kJ/mol
# GULP energy per Si atom -5573.078562 kJ/mol
# Density = 2.275699 g / cm^3
# Si number density = 22.808900 Si / 1000 Ang^3
#
#
#
# Elastic Constant Matrix: (Units=GPa)
#
#
# Indices 1 2 3 4 5 6 
#
# 1 69.1099 45.1555 28.2466 0.0000 2.7554 0.0000
# 2 45.1555 141.2855 48.1645 0.0000 -11.6297 0.0000
# 3 28.2466 48.1645 93.0450 0.0000 -9.4040 0.0000
# 4 0.0000 0.0000 0.0000 53.8183 0.0000 -14.5225
# 5 2.7554 -11.6297 -9.4040 0.0000 24.4058 0.0000
# 6 0.0000 0.0000 0.0000 -14.5225 0.0000 40.9776
#
#
#
# Elastic Compliance Matrix: (Units=1/GPa)
#
#
# Indices 1 2 3 4 5 6 
#
# 1 0.019937 -0.005603 -0.003797 0.000000 -0.006384 0.000000
# 2 -0.005603 0.010316 -0.003203 0.000000 0.004314 0.000000
# 3 -0.003797 -0.003203 0.013992 0.000000 0.004294 0.000000
# 4 0.000000 0.000000 0.000000 0.020546 0.000000 0.007281
# 5 -0.006384 0.004314 0.004294 0.000000 0.045405 0.000000
# 6 0.000000 0.000000 0.000000 0.007281 0.000000 0.026984
#
#
# Mechanical properties :
#
#
# Convention : Reuss Voigt Hill
#
# Bulk Modulus (GPa) = 52.52504 60.73040 56.62772
# Shear Modulus (GPa) = 29.63268 35.96527 32.79897
#
# Velocity S-wave (km/s) = 3.60831 3.97521 3.79620
# Velocity P-wave (km/s) = 6.35910 6.91038 6.64046
#
# Compressibility (1/GPa) = 0.01903854
#
# Stress axis : x y z
#
# Youngs Moduli (GPa) = 50.15742 96.94089 71.46811
#
# Poissons Ratio (x) = 0.54316 0.27139
# Poissons Ratio (y) = 0.28103 0.22890
# Poissons Ratio (z) = 0.19047 0.31049
#
# Static dielectric constant tensor:
#      x y z
#    x 1.880600 0.000000 -0.046150 
#    y 0.000000 1.918630 0.000000 
#    z -0.046150 0.000000 1.866220 
# 
# From -- ./inp_files/13314.got.cif
#   From: 2010.05.17/outbox.ucp.g08.bks.cvg/sg4_7_cif.got.tgz:13314.got - 2010.06.11 12:51:24.
