data_PCOD9119066
_publ_section_title
;
Structure prediction by ZEFSAII (Michael W. Deem and Ramdas Pophale) SiO2 
 PCOD9119066
Probable space group: P 21
;
_chemical_formula_sum "Si O2"
_cell_formula_units_Z 16
_cell_length_a 4.996077
_cell_length_b 11.237848
_cell_length_c 11.640582
_cell_angle_alpha 90.000000
_cell_angle_beta 74.140418
_cell_angle_gamma 90.000000
_cell_volume 628.683982
_symmetry_space_group_name_H-M "P 21"
_symmetry_group_IT_number 4
_symmetry_cell_setting 'monoclinic'
loop_
_space_group_symop_operation_xyz
x,y,z
-x,1/2+y,-z
loop_
_atom_site_type_symbol
_atom_site_label
_atom_site_fract_x
_atom_site_fract_y
_atom_site_fract_z
Si Si1 0.792953 0.772290 0.229343
Si Si2 0.630300 0.078075 0.658037
Si Si3 0.591647 0.194441 0.331304
Si Si4 0.006555 0.379585 0.019069
Si Si5 0.230903 0.587470 0.127469
Si Si6 0.023609 0.772677 0.526221
Si Si7 0.273924 0.451460 0.566074
Si Si8 0.459504 0.238110 0.082796
O O1 0.605025 0.655938 0.254463
O O2 0.094483 0.709764 0.191705
O O3 0.684382 0.843736 0.351582
O O4 0.811221 0.857303 0.117277
O O5 0.739948 0.011985 0.758423
O O6 0.831841 0.171779 0.569717
O O7 0.545808 0.990755 0.565469
O O8 0.814649 0.276211 0.372408
O O9 0.710479 0.065608 0.354254
O O10 0.528641 0.199966 0.204030
O O11 0.291746 0.227054 0.420667
O O12 0.039662 0.510026 0.065820
O O13 0.155379 0.288383 0.090722
O O14 0.689569 0.342037 0.035083
O O15 0.475017 0.633043 0.015443
O O16 0.004749 0.901270 0.465617
#
# Coordination Sequence:
#
# PCOD9119066 Si02
#       8
#     2   2   2   2   2   2   2   2
#     4  11  24  50  69 107 152 189 244 305 352 447
#     4  11  25  44  71 104 147 189 243 298 362 436
#     4  11  26  45  69 104 142 189 246 300 359 437
#     4  11  26  44  77 105 142 196 236 298 379 413
#     4  11  25  46  73 107 144 189 243 300 362 436
#     4  11  25  46  68 106 147 187 247 301 354 437
#     4  11  24  43  70  98 142 197 229 295 367 417
#     4  11  25  48  71 109 144 186 246 307 355 441
#
# _framework density 25.449988000000001
#
# number of rings (size 3 to 8) (size 9 to 14) (size 15 to 20)
#    0.000    1.000    2.500    3.000    5.250    4.000 
#    0.000    5.000    0.000    0.000    0.000    0.000 
#    0.000    0.000    0.000    0.000    0.000    0.000 
#
# Total GULP energy -89334.492130 kJ/mol
# GULP energy per Si atom -5583.405758 kJ/mol
# Density = 2.539206 g / cm^3
# Si number density = 25.449988 Si / 1000 Ang^3
#
#
#
# Elastic Constant Matrix: (Units=GPa)
#
#
# Indices 1 2 3 4 5 6 
#
# 1 81.5885 15.7475 20.5158 0.0000 4.9424 0.0000
# 2 15.7475 92.9509 42.0076 0.0000 1.6840 0.0000
# 3 20.5158 42.0076 196.3511 0.0000 19.6994 0.0000
# 4 0.0000 0.0000 0.0000 49.5261 0.0000 10.5276
# 5 4.9424 1.6840 19.6994 0.0000 39.7970 0.0000
# 6 0.0000 0.0000 0.0000 10.5276 0.0000 34.9326
#
#
#
# Elastic Compliance Matrix: (Units=1/GPa)
#
#
# Indices 1 2 3 4 5 6 
#
# 1 0.012881 -0.001776 -0.000856 0.000000 -0.001101 0.000000
# 2 -0.001776 0.012179 -0.002515 0.000000 0.000950 0.000000
# 3 -0.000856 -0.002515 0.005997 0.000000 -0.002756 0.000000
# 4 0.000000 0.000000 0.000000 0.021573 0.000000 -0.006502
# 5 -0.001101 0.000950 -0.002756 0.000000 0.026588 0.000000
# 6 0.000000 0.000000 0.000000 -0.006502 0.000000 0.030586
#
#
# Mechanical properties :
#
#
# Convention : Reuss Voigt Hill
#
# Bulk Modulus (GPa) = 48.16096 58.60359 53.38227
# Shear Modulus (GPa) = 39.36428 44.35913 41.86170
#
# Velocity S-wave (km/s) = 3.93712 4.17944 4.06009
# Velocity P-wave (km/s) = 6.29545 6.80935 6.55744
#
# Compressibility (1/GPa) = 0.02076371
#
# Stress axis : x y z
#
# Youngs Moduli (GPa) = 77.63254 82.11022 166.75224
#
# Poissons Ratio (x) = 0.14580 0.14266
# Poissons Ratio (y) = 0.13785 0.41944
# Poissons Ratio (z) = 0.06642 0.20653
#
# Static dielectric constant tensor:
#      x y z
#    x 2.097950 0.000000 0.036260 
#    y 0.000000 2.046700 0.000000 
#    z 0.036260 0.000000 2.008370 
# 
# From -- ./inp_files/10454.got.cif
#   From: 2010.05.17/outbox.cif.g08.bks.cpg/sg4_6_cif.got.tgz:10454.got - 2010.06.03 18:43:04.
