data_PCOD9119574
_publ_section_title
;
Structure prediction by ZEFSAII (Michael W. Deem and Ramdas Pophale) SiO2 
 PCOD9119574
Probable space group: P 21
;
_chemical_formula_sum "Si O2"
_cell_formula_units_Z 16
_cell_length_a 17.840247
_cell_length_b 6.627587
_cell_length_c 13.665962
_cell_angle_alpha 90.000000
_cell_angle_beta 24.686180
_cell_angle_gamma 90.000000
_cell_volume 674.849356
_symmetry_space_group_name_H-M "P 21"
_symmetry_group_IT_number 4
_symmetry_cell_setting 'monoclinic'
loop_
_space_group_symop_operation_xyz
x,y,z
-x,1/2+y,-z
loop_
_atom_site_type_symbol
_atom_site_label
_atom_site_fract_x
_atom_site_fract_y
_atom_site_fract_z
Si Si1 0.289031 0.104080 0.824135
Si Si2 0.102139 0.709373 0.043593
Si Si3 0.125100 0.587681 0.235929
Si Si4 0.303102 0.212344 0.478139
Si Si5 0.327168 0.456382 0.641874
Si Si6 0.225882 0.855714 0.288560
Si Si7 0.606824 0.023008 0.786884
Si Si8 0.437896 0.333067 0.837916
O O1 0.241321 0.273334 0.803532
O O2 0.360024 0.213299 0.837419
O O3 0.465398 0.987023 0.575995
O O4 0.128294 0.948282 0.026960
O O5 0.164269 0.620641 0.074318
O O6 0.899622 0.640286 0.270682
O O7 0.216281 0.644735 0.813647
O O8 0.170201 0.787163 0.244837
O O9 0.927435 0.500582 0.487682
O O10 0.266692 0.416763 0.099738
O O11 0.327496 0.386336 0.530292
O O12 0.325919 0.321402 0.346698
O O13 0.441071 0.029429 0.329426
O O14 0.250313 0.644718 0.317861
O O15 0.420971 0.960372 0.060013
O O16 0.549999 0.182802 0.771401
#
# Coordination Sequence:
#
# PCOD9119574 Si02
#       8
#     2   2   2   2   2   2   2   2
#     4  12  24  44  76 105 144 197 249 299 362 440
#     4  12  29  45  74 111 151 192 249 307 372 446
#     4  12  26  49  73 112 143 193 252 310 368 449
#     4  12  29  46  75 109 155 198 242 307 379 451
#     4  12  25  47  72 108 145 195 246 299 371 445
#     4  12  28  46  80 109 151 195 253 310 380 446
#     4  12  27  50  75 109 149 198 243 314 379 449
#     4  12  24  49  75 105 150 196 248 306 379 436
#
# _framework density 23.708994000000001
#
# number of rings (size 3 to 8) (size 9 to 14) (size 15 to 20)
#    0.000    0.000    5.000    4.500    7.000    1.000 
#    0.000    0.000    0.000    0.000    0.000    0.000 
#    0.000    0.000    0.000    0.000    0.000    0.000 
#
# Total GULP energy -89581.019325 kJ/mol
# GULP energy per Si atom -5598.813708 kJ/mol
# Density = 2.365503 g / cm^3
# Si number density = 23.708994 Si / 1000 Ang^3
#
#
#
# Elastic Constant Matrix: (Units=GPa)
#
#
# Indices 1 2 3 4 5 6 
#
# 1 51.0882 25.3558 -2.9241 0.0000 6.3290 0.0000
# 2 25.3558 77.2773 11.1224 0.0000 7.9231 0.0000
# 3 -2.9241 11.1224 63.2836 0.0000 -7.9587 0.0000
# 4 0.0000 0.0000 0.0000 38.5428 0.0000 3.1414
# 5 6.3290 7.9231 -7.9587 0.0000 32.1849 0.0000
# 6 0.0000 0.0000 0.0000 3.1414 0.0000 41.6775
#
#
#
# Elastic Compliance Matrix: (Units=1/GPa)
#
#
# Indices 1 2 3 4 5 6 
#
# 1 0.023915 -0.007942 0.002224 0.000000 -0.002198 0.000000
# 2 -0.007942 0.016424 -0.003680 0.000000 -0.003391 0.000000
# 3 0.002224 -0.003680 0.017143 0.000000 0.004708 0.000000
# 4 0.000000 0.000000 0.000000 0.026106 0.000000 -0.001968
# 5 -0.002198 -0.003391 0.004708 0.000000 0.033502 0.000000
# 6 0.000000 0.000000 0.000000 -0.001968 0.000000 0.024142
#
#
# Mechanical properties :
#
#
# Convention : Reuss Voigt Hill
#
# Bulk Modulus (GPa) = 25.84802 28.75081 27.29941
# Shear Modulus (GPa) = 28.91478 33.02071 30.96775
#
# Velocity S-wave (km/s) = 3.49602 3.73601 3.61800
# Velocity P-wave (km/s) = 5.21748 5.54646 5.38448
#
# Compressibility (1/GPa) = 0.03868769
#
# Stress axis : x y z
#
# Youngs Moduli (GPa) = 41.81448 60.88808 58.33116
#
# Poissons Ratio (x) = 0.48356 -0.12976
# Poissons Ratio (y) = 0.33208 0.21466
# Poissons Ratio (z) = -0.09302 0.22407
#
# Static dielectric constant tensor:
#      x y z
#    x 1.934890 0.000000 0.040640 
#    y 0.000000 1.996280 0.000000 
#    z 0.040640 0.000000 1.895680 
# 
# From -- ./inp_files/10751.got.cif
#   From: 2010.05.17/outbox.cif.g08.bks.cpg/sg4_6_cif.got.tgz:10751.got - 2010.06.03 18:43:04.
