data_PCOD9119268
_publ_section_title
;
Structure prediction by ZEFSAII (Michael W. Deem and Ramdas Pophale) SiO2 
 PCOD9119268
Probable space group: P 21
;
_chemical_formula_sum "Si O2"
_cell_formula_units_Z 16
_cell_length_a 16.641800
_cell_length_b 8.769462
_cell_length_c 11.269032
_cell_angle_alpha 90.000000
_cell_angle_beta 21.784139
_cell_angle_gamma 90.000000
_cell_volume 610.328211
_symmetry_space_group_name_H-M "P 21"
_symmetry_group_IT_number 4
_symmetry_cell_setting 'monoclinic'
loop_
_space_group_symop_operation_xyz
x,y,z
-x,1/2+y,-z
loop_
_atom_site_type_symbol
_atom_site_label
_atom_site_fract_x
_atom_site_fract_y
_atom_site_fract_z
Si Si1 0.602447 0.732690 0.104008
Si Si2 0.912773 0.206481 0.551357
Si Si3 0.827540 0.940551 0.503796
Si Si4 0.474454 0.518984 0.501131
Si Si5 0.798289 0.822524 0.288034
Si Si6 0.638736 0.476800 0.853732
Si Si7 0.064782 0.625977 0.217707
Si Si8 0.746524 0.468092 0.356234
O O1 0.543596 0.635691 0.303248
O O2 0.441794 0.873704 0.323523
O O3 0.595690 0.617810 0.001649
O O4 0.851584 0.781824 0.770544
O O5 0.723268 0.328549 0.806254
O O6 0.887472 0.114108 0.707691
O O7 0.916116 0.097309 0.432899
O O8 0.775465 0.925684 0.436559
O O9 0.987032 0.801059 0.310567
O O10 0.589927 0.933206 0.888576
O O11 0.380294 0.370860 0.562531
O O12 0.667299 0.479147 0.326877
O O13 0.269376 0.583252 0.857530
O O14 0.781297 0.644777 0.340742
O O15 0.038207 0.869287 0.919158
O O16 0.847969 0.526445 0.490633
#
# Coordination Sequence:
#
# PCOD9119268 Si02
#       8
#     2   2   2   2   2   2   2   2
#     4  11  24  50  79 115 159 212 270 331 411 490
#     4  11  26  49  80 113 160 214 271 330 406 496
#     4  12  25  49  79 111 163 211 269 337 411 480
#     4  12  26  52  84 121 167 216 276 344 416 484
#     4  12  28  50  79 127 165 211 279 346 407 496
#     4  11  25  48  73 112 158 208 270 331 403 482
#     4  11  25  47  75 118 157 215 270 336 408 487
#     4  12  27  47  79 119 169 213 267 345 422 485
#
# _framework density 26.215399999999999
#
# number of rings (size 3 to 8) (size 9 to 14) (size 15 to 20)
#    0.000    0.500    1.250    6.750    1.750    4.000 
#   13.500    0.000    0.000    0.000    0.000    0.000 
#    0.000    0.000    0.000    0.000    0.000    0.000 
#
# Total GULP energy -89805.278599 kJ/mol
# GULP energy per Si atom -5612.829912 kJ/mol
# Density = 2.615573 g / cm^3
# Si number density = 26.215400 Si / 1000 Ang^3
#
#
#
# Elastic Constant Matrix: (Units=GPa)
#
#
# Indices 1 2 3 4 5 6 
#
# 1 99.4275 33.5506 15.8724 0.0000 7.6367 0.0000
# 2 33.5506 142.3095 28.4642 0.0000 -5.3657 0.0000
# 3 15.8724 28.4642 98.7506 0.0000 11.8379 0.0000
# 4 0.0000 0.0000 0.0000 55.4807 0.0000 -5.7352
# 5 7.6367 -5.3657 11.8379 0.0000 48.0874 0.0000
# 6 0.0000 0.0000 0.0000 -5.7352 0.0000 33.3970
#
#
#
# Elastic Compliance Matrix: (Units=1/GPa)
#
#
# Indices 1 2 3 4 5 6 
#
# 1 0.011192 -0.002539 -0.000845 0.000000 -0.001853 0.000000
# 2 -0.002539 0.008126 -0.002155 0.000000 0.001840 0.000000
# 3 -0.000845 -0.002155 0.011227 0.000000 -0.002870 0.000000
# 4 0.000000 0.000000 0.000000 0.018350 0.000000 0.003151
# 5 -0.001853 0.001840 -0.002870 0.000000 0.022002 0.000000
# 6 0.000000 0.000000 0.000000 0.003151 0.000000 0.030484
#
#
# Mechanical properties :
#
#
# Convention : Reuss Voigt Hill
#
# Bulk Modulus (GPa) = 51.36832 55.14022 53.25427
# Shear Modulus (GPa) = 42.03532 44.89972 43.46752
#
# Velocity S-wave (km/s) = 4.00867 4.14300 4.07638
# Velocity P-wave (km/s) = 6.40805 6.63062 6.52028
#
# Compressibility (1/GPa) = 0.01946725
#
# Stress axis : x y z
#
# Youngs Moduli (GPa) = 89.35247 123.06187 89.06734
#
# Poissons Ratio (x) = 0.31250 0.07524
# Poissons Ratio (y) = 0.22690 0.19192
# Poissons Ratio (z) = 0.07548 0.26516
#
# Static dielectric constant tensor:
#      x y z
#    x 2.106990 0.000000 0.026220 
#    y 0.000000 2.006750 0.000000 
#    z 0.026220 0.000000 2.053410 
# 
# From -- ./inp_files/12901.got.cif
#   From: 2010.05.17/outbox.cif.g08.bks.cpg/sg4_7_cif.got.tgz:12901.got - 2010.06.03 18:43:04.
