data_PCOD9119430
_publ_section_title
;
Structure prediction by ZEFSAII (Michael W. Deem and Ramdas Pophale) SiO2 
 PCOD9119430
Probable space group: P 21
;
_chemical_formula_sum "Si O2"
_cell_formula_units_Z 16
_cell_length_a 9.461113
_cell_length_b 14.862979
_cell_length_c 5.157127
_cell_angle_alpha 90.000000
_cell_angle_beta 61.323817
_cell_angle_gamma 90.000000
_cell_volume 636.248361
_symmetry_space_group_name_H-M "P 21"
_symmetry_group_IT_number 4
_symmetry_cell_setting 'monoclinic'
loop_
_space_group_symop_operation_xyz
x,y,z
-x,1/2+y,-z
loop_
_atom_site_type_symbol
_atom_site_label
_atom_site_fract_x
_atom_site_fract_y
_atom_site_fract_z
Si Si1 0.316097 0.767200 0.867507
Si Si2 0.861015 0.633949 0.892843
Si Si3 0.782037 0.360796 0.530859
Si Si4 0.835690 0.074204 0.074373
Si Si5 0.111615 0.309773 0.438572
Si Si6 0.366585 0.037012 0.214583
Si Si7 0.709910 0.981025 0.699548
Si Si8 0.652218 0.719574 0.435494
O O1 0.201264 0.820587 0.771258
O O2 0.270135 0.664243 0.854093
O O3 0.497177 0.779943 0.604899
O O4 0.303597 0.796531 0.177470
O O5 0.931888 0.715400 0.663261
O O6 0.795665 0.546522 0.810136
O O7 0.985692 0.603065 0.999135
O O8 0.689874 0.678086 0.126952
O O9 0.675502 0.449459 0.582313
O O10 0.955958 0.368739 0.514656
O O11 0.764053 0.007964 0.360348
O O12 0.823691 0.033782 0.800471
O O13 0.259677 0.377208 0.246478
O O14 0.181625 0.271902 0.647166
O O15 0.372459 0.131010 0.364127
O O16 0.529035 0.014407 0.916538
#
# Coordination Sequence:
#
# PCOD9119430 Si02
#       8
#     2   2   2   2   2   2   2   2
#     4  12  26  48  76 103 145 190 240 295 357 428
#     4  11  26  46  75 103 149 189 240 293 363 424
#     4  12  28  47  75 107 144 188 244 295 358 423
#     4  12  26  48  76 103 145 190 240 295 357 428
#     4  11  27  46  71 108 143 189 238 300 355 429
#     4  11  27  46  71 108 143 189 238 300 355 429
#     4  12  28  47  75 107 144 188 244 295 358 423
#     4  11  26  46  75 103 149 189 240 293 363 424
#
# _framework density 25.147413
#
# number of rings (size 3 to 8) (size 9 to 14) (size 15 to 20)
#    0.000    0.500    2.500    3.750   14.000    0.000 
#    0.000    0.000    0.000    0.000    0.000    0.000 
#    0.000    0.000    0.000    0.000    0.000    0.000 
#
# Total GULP energy -89358.697250 kJ/mol
# GULP energy per Si atom -5584.918578 kJ/mol
# Density = 2.509018 g / cm^3
# Si number density = 25.147413 Si / 1000 Ang^3
#
#
#
# Elastic Constant Matrix: (Units=GPa)
#
#
# Indices 1 2 3 4 5 6 
#
# 1 84.9706 39.5807 -4.1471 0.0000 -7.9844 0.0000
# 2 39.5807 56.1253 0.2851 0.0000 1.3871 0.0000
# 3 -4.1471 0.2851 36.2094 0.0000 2.3050 0.0000
# 4 0.0000 0.0000 0.0000 35.1992 0.0000 -12.7440
# 5 -7.9844 1.3871 2.3050 0.0000 40.4413 0.0000
# 6 0.0000 0.0000 0.0000 -12.7440 0.0000 31.4773
#
#
#
# Elastic Compliance Matrix: (Units=1/GPa)
#
#
# Indices 1 2 3 4 5 6 
#
# 1 0.018295 -0.013009 0.001946 0.000000 0.003947 0.000000
# 2 -0.013009 0.027083 -0.001486 0.000000 -0.003413 0.000000
# 3 0.001946 -0.001486 0.027925 0.000000 -0.001156 0.000000
# 4 0.000000 0.000000 0.000000 0.033289 0.000000 0.013478
# 5 0.003947 -0.003413 -0.001156 0.000000 0.025689 0.000000
# 6 0.000000 0.000000 0.000000 0.013478 0.000000 0.037225
#
#
# Mechanical properties :
#
#
# Convention : Reuss Voigt Hill
#
# Bulk Modulus (GPa) = 20.74422 27.63807 24.19115
# Shear Modulus (GPa) = 23.73339 30.86267 27.29803
#
# Velocity S-wave (km/s) = 3.07542 3.50704 3.29830
# Velocity P-wave (km/s) = 4.56923 5.23578 4.91382
#
# Compressibility (1/GPa) = 0.04820619
#
# Stress axis : x y z
#
# Youngs Moduli (GPa) = 54.66116 36.92289 35.80969
#
# Poissons Ratio (x) = 0.48033 -0.06970
# Poissons Ratio (y) = 0.71109 0.05321
# Poissons Ratio (z) = -0.10639 0.05486
#
# Static dielectric constant tensor:
#      x y z
#    x 1.972050 0.000000 -0.006240 
#    y 0.000000 2.140030 0.000000 
#    z -0.006240 0.000000 2.012700 
# 
# From -- ./inp_files/1935.got.cif
#   From: 2010.05.17/outbox.cif.g08.bks.cpg/sg4_1_cif.got.tgz:1935.got - 2010.06.03 18:43:04.
