data_PCOD9119326
_publ_section_title
;
Structure prediction by ZEFSAII (Michael W. Deem and Ramdas Pophale) SiO2 
 PCOD9119326
Probable space group: P 21
;
_chemical_formula_sum "Si O2"
_cell_formula_units_Z 10
_cell_length_a 12.241679
_cell_length_b 6.987198
_cell_length_c 12.376875
_cell_angle_alpha 90.000000
_cell_angle_beta 22.490033
_cell_angle_gamma 90.000000
_cell_volume 404.960130
_symmetry_space_group_name_H-M "P 21"
_symmetry_group_IT_number 4
_symmetry_cell_setting 'monoclinic'
loop_
_space_group_symop_operation_xyz
x,y,z
-x,1/2+y,-z
loop_
_atom_site_type_symbol
_atom_site_label
_atom_site_fract_x
_atom_site_fract_y
_atom_site_fract_z
Si Si1 0.690167 0.649130 0.397640
Si Si2 0.197101 0.406329 0.909911
Si Si3 0.807261 0.670783 0.526177
Si Si4 0.663114 0.388171 0.912584
Si Si5 0.211771 0.322970 0.142380
O O1 0.368518 0.598410 0.722799
O O2 0.730464 0.764333 0.252243
O O3 0.825217 0.734931 0.383950
O O4 0.863969 0.452811 0.220726
O O5 0.291205 0.346519 0.943532
O O6 0.513338 0.762287 0.838429
O O7 0.921351 0.449842 0.420956
O O8 0.051092 0.772323 0.373891
O O9 0.448339 0.406214 0.008500
O O10 0.772929 0.596392 0.848723
#
# Coordination Sequence:
#
# PCOD9119326 Si02
#       5
#     2   2   2   2   2
#     4  11  25  46  73 102 149 183 249 307 366 444
#     4  11  26  45  74 105 145 189 245 304 372 444
#     4  11  27  47  72 109 148 198 255 310 369 455
#     4  12  27  45  79 104 152 202 248 309 388 440
#     4  11  27  49  74 112 152 198 253 310 377 459
#
# _framework density 24.693788999999999
#
# number of rings (size 3 to 8) (size 9 to 14) (size 15 to 20)
#    0.000    0.800    2.000    3.600    8.400    6.400 
#    0.000    0.000    0.000    0.000    0.000    0.000 
#    0.000    0.000    0.000    0.000    0.000    0.000 
#
# Total GULP energy -55907.194704 kJ/mol
# GULP energy per Si atom -5590.719470 kJ/mol
# Density = 2.463758 g / cm^3
# Si number density = 24.693789 Si / 1000 Ang^3
#
#
#
# Elastic Constant Matrix: (Units=GPa)
#
#
# Indices 1 2 3 4 5 6 
#
# 1 154.9473 53.3110 27.7208 0.0000 32.8482 0.0000
# 2 53.3110 128.4696 34.6413 0.0000 10.3380 0.0000
# 3 27.7208 34.6413 115.4119 0.0000 2.0838 0.0000
# 4 0.0000 0.0000 0.0000 43.1989 0.0000 7.1669
# 5 32.8482 10.3380 2.0838 0.0000 46.5002 0.0000
# 6 0.0000 0.0000 0.0000 7.1669 0.0000 47.8807
#
#
#
# Elastic Compliance Matrix: (Units=1/GPa)
#
#
# Indices 1 2 3 4 5 6 
#
# 1 0.008836 -0.002911 -0.001149 0.000000 -0.005543 0.000000
# 2 -0.002911 0.009577 -0.002176 0.000000 0.000025 0.000000
# 3 -0.001149 -0.002176 0.009578 0.000000 0.000866 0.000000
# 4 0.000000 0.000000 0.000000 0.023738 0.000000 -0.003553
# 5 -0.005543 0.000025 0.000866 0.000000 0.025377 0.000000
# 6 0.000000 0.000000 0.000000 -0.003553 0.000000 0.021417
#
#
# Mechanical properties :
#
#
# Convention : Reuss Voigt Hill
#
# Bulk Modulus (GPa) = 64.43238 70.01946 67.22592
# Shear Modulus (GPa) = 43.04181 46.39299 44.71740
#
# Velocity S-wave (km/s) = 4.17948 4.33914 4.26006
# Velocity P-wave (km/s) = 7.03135 7.31579 7.17498
#
# Compressibility (1/GPa) = 0.01552015
#
# Stress axis : x y z
#
# Youngs Moduli (GPa) = 113.17430 104.42164 104.40708
#
# Poissons Ratio (x) = 0.30396 0.11991
# Poissons Ratio (y) = 0.32944 0.22716
# Poissons Ratio (z) = 0.12998 0.22719
#
# Static dielectric constant tensor:
#      x y z
#    x 1.962930 0.000000 0.021440 
#    y 0.000000 1.993730 0.000000 
#    z 0.021440 0.000000 1.944610 
# 
# From -- ./inp_files/11799.got.cif
#   From: 2010.05.17/outbox.cif.g08.bks.cpg/sg4_6_cif.got.tgz:11799.got - 2010.06.03 18:43:04.
