data_PCOD9119124
_publ_section_title
;
Structure prediction by ZEFSAII (Michael W. Deem and Ramdas Pophale) SiO2 
 PCOD9119124
Probable space group: P 21
;
_chemical_formula_sum "Si O2"
_cell_formula_units_Z 16
_cell_length_a 21.604103
_cell_length_b 5.212030
_cell_length_c 9.454857
_cell_angle_alpha 90.000000
_cell_angle_beta 142.897248
_cell_angle_gamma 90.000000
_cell_volume 642.233233
_symmetry_space_group_name_H-M "P 21"
_symmetry_group_IT_number 4
_symmetry_cell_setting 'monoclinic'
loop_
_space_group_symop_operation_xyz
x,y,z
-x,1/2+y,-z
loop_
_atom_site_type_symbol
_atom_site_label
_atom_site_fract_x
_atom_site_fract_y
_atom_site_fract_z
Si Si1 0.191057 0.166150 0.083666
Si Si2 0.165310 0.356778 0.341883
Si Si3 0.723503 0.346864 0.385931
Si Si4 0.119660 0.541041 0.733542
Si Si5 0.330115 0.799474 0.209819
Si Si6 0.562925 0.186706 0.330637
Si Si7 0.003187 0.334723 0.267518
Si Si8 0.438894 0.709726 0.130271
O O1 0.181035 0.345800 0.201543
O O2 0.301255 0.048360 0.249909
O O3 0.155974 0.277489 0.869806
O O4 0.106144 0.955310 0.968151
O O5 0.184234 0.650568 0.417780
O O6 0.060392 0.269430 0.227038
O O7 0.244619 0.144254 0.549502
O O8 0.642160 0.290056 0.360780
O O9 0.668271 0.245932 0.145433
O O10 0.077497 0.515192 0.498970
O O11 0.027864 0.623776 0.672036
O O12 0.221738 0.711173 0.944586
O O13 0.375673 0.620402 0.414267
O O14 0.414373 0.811742 0.242614
O O15 0.481661 0.419775 0.207399
O O16 0.512079 0.920123 0.190236
#
# Coordination Sequence:
#
# PCOD9119124 Si02
#       8
#     2   2   2   2   2   2   2   2
#     4  11  26  45  70 100 148 187 233 298 353 423
#     4  12  28  45  76 104 147 191 244 290 355 436
#     4  12  26  49  71 107 144 191 236 300 360 422
#     4  11  24  45  70 101 146 185 236 297 356 418
#     4  11  26  44  71 105 139 187 235 295 362 421
#     4  12  25  48  71 105 144 185 237 296 362 427
#     4  11  26  44  72 107 142 194 243 292 357 428
#     4  12  27  44  77 105 140 186 240 296 357 435
#
# _framework density 24.913065
#
# number of rings (size 3 to 8) (size 9 to 14) (size 15 to 20)
#    0.000    0.500    2.500    4.500   10.500    0.000 
#    0.000    0.000    0.000    0.000    0.000    0.000 
#    0.000    0.000    0.000    0.000    0.000    0.000 
#
# Total GULP energy -89451.775025 kJ/mol
# GULP energy per Si atom -5590.735939 kJ/mol
# Density = 2.485636 g / cm^3
# Si number density = 24.913065 Si / 1000 Ang^3
#
#
#
# Elastic Constant Matrix: (Units=GPa)
#
#
# Indices 1 2 3 4 5 6 
#
# 1 112.1834 -2.8412 -9.0616 0.0000 -3.0205 0.0000
# 2 -2.8412 85.8673 13.7738 0.0000 6.5444 0.0000
# 3 -9.0616 13.7738 47.7473 0.0000 -13.6346 0.0000
# 4 0.0000 0.0000 0.0000 35.7938 0.0000 3.6358
# 5 -3.0205 6.5444 -13.6346 0.0000 31.0679 0.0000
# 6 0.0000 0.0000 0.0000 3.6358 0.0000 19.1686
#
#
#
# Elastic Compliance Matrix: (Units=1/GPa)
#
#
# Indices 1 2 3 4 5 6 
#
# 1 0.009153 -0.000227 0.002367 0.000000 0.001977 0.000000
# 2 -0.000227 0.012850 -0.005178 0.000000 -0.005002 0.000000
# 3 0.002367 -0.005178 0.026597 0.000000 0.012993 0.000000
# 4 0.000000 0.000000 0.000000 0.028487 0.000000 -0.005403
# 5 0.001977 -0.005002 0.012993 0.000000 0.039136 0.000000
# 6 0.000000 0.000000 0.000000 -0.005403 0.000000 0.053194
#
#
# Mechanical properties :
#
#
# Convention : Reuss Voigt Hill
#
# Bulk Modulus (GPa) = 23.51710 27.72667 25.62189
# Shear Modulus (GPa) = 26.36198 33.46786 29.91492
#
# Velocity S-wave (km/s) = 3.25646 3.66920 3.46898
# Velocity P-wave (km/s) = 4.85794 5.39483 5.13341
#
# Compressibility (1/GPa) = 0.04252225
#
# Stress axis : x y z
#
# Youngs Moduli (GPa) = 109.25826 77.81996 37.59827
#
# Poissons Ratio (x) = 0.01770 -0.08900
# Poissons Ratio (y) = 0.02486 0.19470
# Poissons Ratio (z) = -0.25862 0.40298
#
# Static dielectric constant tensor:
#      x y z
#    x 1.938280 0.000000 0.001300 
#    y 0.000000 2.049800 0.000000 
#    z 0.001300 0.000000 2.032830 
# 
# From -- ./inp_files/9873.got.cif
#   From: 2010.05.17/outbox.cif.g08.bks.cpg/sg4_5_cif.got.tgz:9873.got - 2010.06.03 18:43:04.
