data_PCOD9119093
_publ_section_title
;
Structure prediction by ZEFSAII (Michael W. Deem and Ramdas Pophale) SiO2 
 PCOD9119093
Probable space group: P 21
;
_chemical_formula_sum "Si O2"
_cell_formula_units_Z 14
_cell_length_a 11.090877
_cell_length_b 8.142624
_cell_length_c 8.547050
_cell_angle_alpha 90.000000
_cell_angle_beta 134.678220
_cell_angle_gamma 90.000000
_cell_volume 548.854109
_symmetry_space_group_name_H-M "P 21"
_symmetry_group_IT_number 4
_symmetry_cell_setting 'monoclinic'
loop_
_space_group_symop_operation_xyz
x,y,z
-x,1/2+y,-z
loop_
_atom_site_type_symbol
_atom_site_label
_atom_site_fract_x
_atom_site_fract_y
_atom_site_fract_z
Si Si1 0.413702 0.059710 0.610507
Si Si2 0.062446 0.584411 0.144326
Si Si3 0.488558 0.917700 0.020920
Si Si4 0.851718 0.767206 0.345501
Si Si5 0.870772 0.410362 0.205827
Si Si6 0.423634 0.449521 0.568966
Si Si7 0.026379 0.950286 0.239162
O O1 0.434473 0.253905 0.601828
O O2 0.486001 0.992842 0.842980
O O3 0.487279 0.984978 0.515936
O O4 0.215403 0.013377 0.438221
O O5 0.232576 0.514593 0.376491
O O6 0.037794 0.770286 0.170450
O O7 0.903866 0.473145 0.059872
O O8 0.073346 0.566257 0.969686
O O9 0.305171 0.836894 0.891378
O O10 0.654071 0.803751 0.179384
O O11 0.507694 0.023871 0.202118
O O12 0.877638 0.587858 0.298767
O O13 0.920693 0.908453 0.294671
O O14 0.973710 0.795156 0.604034
#
# Coordination Sequence:
#
# PCOD9119093 Si02
#       7
#     2   2   2   2   2   2   2
#     4  12  27  47  75 111 153 202 257 318 385 459
#     4  11  24  44  72 105 146 195 249 314 381 453
#     4  12  26  46  76 112 152 202 254 310 384 456
#     4  11  25  45  71 104 142 188 244 306 371 443
#     4  11  25  45  71 104 142 188 244 306 371 443
#     4  12  27  47  75 111 153 202 257 318 385 459
#     4  11  24  44  72 105 146 195 249 314 381 453
#
# _framework density 25.507691000000001
#
# number of rings (size 3 to 8) (size 9 to 14) (size 15 to 20)
#    0.000    0.571    2.857    4.286    0.000   10.286 
#    0.000    0.000    0.000    0.000    0.000    0.000 
#    0.000    0.000    0.000    0.000    0.000    0.000 
#
# Total GULP energy -78345.021617 kJ/mol
# GULP energy per Si atom -5596.072973 kJ/mol
# Density = 2.544963 g / cm^3
# Si number density = 25.507691 Si / 1000 Ang^3
#
#
#
# Elastic Constant Matrix: (Units=GPa)
#
#
# Indices 1 2 3 4 5 6 
#
# 1 134.6954 38.3855 25.7044 0.0000 -17.7245 0.0000
# 2 38.3855 86.4338 33.1502 0.0000 1.2203 0.0000
# 3 25.7044 33.1502 132.2371 0.0000 -18.3193 0.0000
# 4 0.0000 0.0000 0.0000 34.6212 0.0000 -5.6148
# 5 -17.7245 1.2203 -18.3193 0.0000 57.2784 0.0000
# 6 0.0000 0.0000 0.0000 -5.6148 0.0000 49.7341
#
#
#
# Elastic Compliance Matrix: (Units=1/GPa)
#
#
# Indices 1 2 3 4 5 6 
#
# 1 0.008960 -0.003867 -0.000394 0.000000 0.002729 0.000000
# 2 -0.003867 0.014571 -0.003254 0.000000 -0.002548 0.000000
# 3 -0.000394 -0.003254 0.008839 0.000000 0.002774 0.000000
# 4 0.000000 0.000000 0.000000 0.029423 0.000000 0.003322
# 5 0.002729 -0.002548 0.002774 0.000000 0.019245 0.000000
# 6 0.000000 0.000000 0.000000 0.003322 0.000000 0.020482
#
#
# Mechanical properties :
#
#
# Convention : Reuss Voigt Hill
#
# Bulk Modulus (GPa) = 57.67011 60.87181 59.27096
# Shear Modulus (GPa) = 40.87323 45.40182 43.13752
#
# Velocity S-wave (km/s) = 4.00733 4.22349 4.11683
# Velocity P-wave (km/s) = 6.63849 6.90650 6.77382
#
# Compressibility (1/GPa) = 0.01734000
#
# Stress axis : x y z
#
# Youngs Moduli (GPa) = 111.60173 68.63073 113.13621
#
# Poissons Ratio (x) = 0.26537 0.04462
# Poissons Ratio (y) = 0.43152 0.36815
# Poissons Ratio (z) = 0.04401 0.22333
#
# Static dielectric constant tensor:
#      x y z
#    x 2.059720 0.000000 -0.053340 
#    y 0.000000 2.005430 0.000000 
#    z -0.053340 0.000000 2.029990 
# 
# From -- ./inp_files/7458.got.cif
#   From: 2010.05.17/outbox.cif.g08.bks.cpg/sg4_4_cif.got.tgz:7458.got - 2010.06.03 18:43:04.
