data_PCOD9119608
_publ_section_title
;
Structure prediction by ZEFSAII (Michael W. Deem and Ramdas Pophale) SiO2 
 PCOD9119608
Probable space group: P 21
;
_chemical_formula_sum "Si O2"
_cell_formula_units_Z 16
_cell_length_a 22.402109
_cell_length_b 4.987939
_cell_length_c 10.698210
_cell_angle_alpha 90.000000
_cell_angle_beta 32.540621
_cell_angle_gamma 90.000000
_cell_volume 643.014274
_symmetry_space_group_name_H-M "P 21"
_symmetry_group_IT_number 4
_symmetry_cell_setting 'monoclinic'
loop_
_space_group_symop_operation_xyz
x,y,z
-x,1/2+y,-z
loop_
_atom_site_type_symbol
_atom_site_label
_atom_site_fract_x
_atom_site_fract_y
_atom_site_fract_z
Si Si1 0.273359 0.924940 0.903736
Si Si2 0.305009 0.585183 0.599048
Si Si3 0.434957 0.304248 0.560981
Si Si4 0.968864 0.209755 0.626274
Si Si5 0.283593 0.833172 0.155759
Si Si6 0.156751 0.343827 0.461239
Si Si7 0.570877 0.150053 0.872298
Si Si8 0.917559 0.936870 0.137759
O O1 0.301303 0.795400 0.720357
O O2 0.311080 0.233589 0.831592
O O3 0.147031 0.853969 0.150260
O O4 0.327230 0.819912 0.938180
O O5 0.401365 0.382648 0.479458
O O6 0.351823 0.694837 0.385444
O O7 0.178851 0.479756 0.796800
O O8 0.499570 0.534047 0.520639
O O9 0.033589 0.405394 0.415340
O O10 0.037857 0.231371 0.631319
O O11 0.180388 0.631877 0.358769
O O12 0.368132 0.738440 0.110197
O O13 0.244586 0.133307 0.253103
O O14 0.155540 0.365540 0.611357
O O15 0.464328 0.342046 0.051766
O O16 0.991641 0.200385 0.038664
#
# Coordination Sequence:
#
# PCOD9119608 Si02
#       8
#     2   2   2   2   2   2   2   2
#     4  12  29  49  86 120 161 212 272 333 406 479
#     4  12  31  54  88 120 168 207 286 337 405 500
#     4  12  30  52  79 120 161 206 273 351 409 466
#     4  12  25  45  73 116 162 209 259 319 396 480
#     4  12  27  49  77 113 155 211 262 324 397 475
#     4  12  24  49  74 107 168 206 260 325 393 475
#     4  12  31  54  82 115 157 214 265 333 412 480
#     4  12  29  50  81 121 166 219 271 334 408 487
#
# _framework density 24.882804
#
# number of rings (size 3 to 8) (size 9 to 14) (size 15 to 20)
#    0.000    0.000    5.000    2.250   10.500    1.000 
#    0.000    0.000    0.000    0.000    0.000    0.000 
#    0.000    0.000    0.000    0.000    0.000    0.000 
#
# Total GULP energy -89541.136367 kJ/mol
# GULP energy per Si atom -5596.321023 kJ/mol
# Density = 2.482617 g / cm^3
# Si number density = 24.882804 Si / 1000 Ang^3
#
#
#
# Elastic Constant Matrix: (Units=GPa)
#
#
# Indices 1 2 3 4 5 6 
#
# 1 191.5868 35.3194 23.5162 0.0000 4.2692 0.0000
# 2 35.3194 119.1098 20.1430 0.0000 -4.6410 0.0000
# 3 23.5162 20.1430 98.8942 0.0000 9.9923 0.0000
# 4 0.0000 0.0000 0.0000 49.7999 0.0000 -8.6085
# 5 4.2692 -4.6410 9.9923 0.0000 38.5564 0.0000
# 6 0.0000 0.0000 0.0000 -8.6085 0.0000 24.6738
#
#
#
# Elastic Compliance Matrix: (Units=1/GPa)
#
#
# Indices 1 2 3 4 5 6 
#
# 1 0.005633 -0.001528 -0.000972 0.000000 -0.000556 0.000000
# 2 -0.001528 0.009200 -0.001684 0.000000 0.001713 0.000000
# 3 -0.000972 -0.001684 0.010983 0.000000 -0.002941 0.000000
# 4 0.000000 0.000000 0.000000 0.021369 0.000000 0.007456
# 5 -0.000556 0.001713 -0.002941 0.000000 0.026966 0.000000
# 6 0.000000 0.000000 0.000000 0.007456 0.000000 0.043130
#
#
# Mechanical properties :
#
#
# Convention : Reuss Voigt Hill
#
# Bulk Modulus (GPa) = 57.30927 63.06088 60.18507
# Shear Modulus (GPa) = 38.03306 44.64682 41.33994
#
# Velocity S-wave (km/s) = 3.91383 4.24049 4.08043
# Velocity P-wave (km/s) = 6.59589 7.02666 6.81468
#
# Compressibility (1/GPa) = 0.01744918
#
# Stress axis : x y z
#
# Youngs Moduli (GPa) = 177.52893 108.69497 91.04869
#
# Poissons Ratio (x) = 0.16604 0.08852
# Poissons Ratio (y) = 0.27118 0.15330
# Poissons Ratio (z) = 0.17259 0.18301
#
# Static dielectric constant tensor:
#      x y z
#    x 2.037990 0.000000 -0.068430 
#    y 0.000000 1.968260 0.000000 
#    z -0.068430 0.000000 1.982530 
# 
# From -- ./inp_files/9769.got.cif
#   From: 2010.05.17/outbox.cif.g08.bks.cpg/sg4_5_cif.got.tgz:9769.got - 2010.06.03 18:43:04.
