data_PCOD9119640
_publ_section_title
;
Structure prediction by ZEFSAII (Michael W. Deem and Ramdas Pophale) SiO2 
 PCOD9119640
Probable space group: P 21
;
_chemical_formula_sum "Si O2"
_cell_formula_units_Z 14
_cell_length_a 12.071606
_cell_length_b 5.431283
_cell_length_c 7.858156
_cell_angle_alpha 90.000000
_cell_angle_beta 85.729826
_cell_angle_gamma 90.000000
_cell_volume 513.784343
_symmetry_space_group_name_H-M "P 21"
_symmetry_group_IT_number 4
_symmetry_cell_setting 'monoclinic'
loop_
_space_group_symop_operation_xyz
x,y,z
-x,1/2+y,-z
loop_
_atom_site_type_symbol
_atom_site_label
_atom_site_fract_x
_atom_site_fract_y
_atom_site_fract_z
Si Si1 0.312790 0.257950 0.955926
Si Si2 0.117212 0.799076 0.535976
Si Si3 0.946720 0.272276 0.075681
Si Si4 0.778234 0.163415 0.821374
Si Si5 0.447208 0.246663 0.442210
Si Si6 0.787175 0.792428 0.383402
Si Si7 0.441297 0.941220 0.138986
O O1 0.224848 0.258209 0.815277
O O2 0.427563 0.400372 0.893506
O O3 0.248074 0.380245 0.123045
O O4 0.376763 0.001639 0.974179
O O5 0.044993 0.760402 0.718993
O O6 0.129170 0.735995 0.331692
O O7 0.203081 0.579280 0.577870
O O8 0.127418 0.097091 0.546652
O O9 0.826350 0.268743 0.994685
O O10 0.000477 0.524159 0.005173
O O11 0.656012 0.264792 0.774284
O O12 0.483640 0.516649 0.491577
O O13 0.327131 0.199658 0.529678
O O14 0.441424 0.193254 0.244959
#
# Coordination Sequence:
#
# PCOD9119640 Si02
#       7
#     2   2   2   2   2   2   2
#     4  12  26  42  71 108 162 218 259 315 376 456
#     4  12  27  51  83 116 153 204 258 328 407 474
#     4  12  30  56  86 117 150 195 259 337 417 483
#     4  12  28  50  79 112 159 206 262 325 389 470
#     4  12  26  41  64 102 154 215 270 313 361 442
#     4  12  25  45  73 109 160 209 259 313 382 458
#     4  12  26  41  68 108 156 211 265 305 376 455
#
# _framework density 27.248788999999999
#
# number of rings (size 3 to 8) (size 9 to 14) (size 15 to 20)
#    0.000    0.000    5.714    3.429    6.000    1.143 
#    0.000    0.000    0.000    0.000    0.000    0.000 
#    0.000    0.000    0.000    0.000    0.000    0.000 
#
# Total GULP energy -77975.782839 kJ/mol
# GULP energy per Si atom -5569.698774 kJ/mol
# Density = 2.718677 g / cm^3
# Si number density = 27.248789 Si / 1000 Ang^3
#
#
#
# Elastic Constant Matrix: (Units=GPa)
#
#
# Indices 1 2 3 4 5 6 
#
# 1 42.0000 40.3885 35.5068 0.0000 5.0304 0.0000
# 2 40.3885 81.9972 38.6594 0.0000 -4.9166 0.0000
# 3 35.5068 38.6594 139.6715 0.0000 -17.8842 0.0000
# 4 0.0000 0.0000 0.0000 -21.5060 0.0000 -42.6181
# 5 5.0304 -4.9166 -17.8842 0.0000 43.1428 0.0000
# 6 0.0000 0.0000 0.0000 -42.6181 0.0000 36.6165
#
#
#
# Elastic Compliance Matrix: (Units=1/GPa)
#
#
# Indices 1 2 3 4 5 6 
#
# 1 0.056703 -0.024299 -0.009389 0.000000 -0.013273 0.000000
# 2 -0.024299 0.024439 0.000140 0.000000 0.005676 0.000000
# 3 -0.009389 0.000140 0.010191 0.000000 0.005335 0.000000
# 4 0.000000 0.000000 0.000000 -0.014063 0.000000 -0.016368
# 5 -0.013273 0.005676 0.005335 0.000000 0.027585 0.000000
# 6 0.000000 0.000000 0.000000 -0.016368 0.000000 0.008260
#
#
# Mechanical properties :
#
#
# Convention : Reuss Voigt Hill
#
# Bulk Modulus (GPa) = 41.25974 54.75313 48.00644
# Shear Modulus (GPa) = 26.55488 21.59160 24.07324
#
# Velocity S-wave (km/s) = 3.12514 2.81799 2.97553
# Velocity P-wave (km/s) = 5.31006 5.54306 5.42781
#
# Compressibility (1/GPa) = 0.02423670
#
# Stress axis : x y z
#
# Youngs Moduli (GPa) = 17.63571 40.91862 98.12685
#
# Poissons Ratio (x) = 0.99428 0.92128
# Poissons Ratio (y) = 0.42853 -0.01371
# Poissons Ratio (z) = 0.16558 -0.00572
#
# Static dielectric constant tensor:
#      x y z
#    x 2.389440 0.000000 -0.091800 
#    y 0.000000 2.247590 0.000000 
#    z -0.091800 0.000000 2.372470 
# 
# From -- ./inp_files/7350.got.cif
#   From: 2010.05.17/outbox.cif.g08.bks.cpg/sg4_4_cif.got.tgz:7350.got - 2010.06.03 18:43:04.
