data_PCOD9119881
_publ_section_title
;
Structure prediction by ZEFSAII (Michael W. Deem and Ramdas Pophale) SiO2 
 PCOD9119881
Probable space group: P 21
;
_chemical_formula_sum "Si O2"
_cell_formula_units_Z 16
_cell_length_a 12.000000
_cell_length_b 6.000000
_cell_length_c 9.000000
_cell_angle_alpha 90.000000
_cell_angle_beta 100.000000
_cell_angle_gamma 90.000000
_cell_volume 638.155424
_symmetry_space_group_name_H-M "P 21"
_symmetry_group_IT_number 4
_symmetry_cell_setting 'monoclinic'
loop_
_space_group_symop_operation_xyz
x,y,z
-x,1/2+y,-z
loop_
_atom_site_type_symbol
_atom_site_label
_atom_site_fract_x
_atom_site_fract_y
_atom_site_fract_z
Si Si1 0.553203 0.474130 0.491940
Si Si2 0.202205 0.839521 0.348848
Si Si3 0.125814 0.339381 0.448091
Si Si4 0.641454 0.679001 0.975192
Si Si5 0.594620 0.333169 0.198501
Si Si6 0.863584 0.594087 0.922701
Si Si7 0.765177 0.980546 0.235565
Si Si8 0.058808 0.834971 0.804627
O O1 0.518236 0.732218 0.530055
O O2 0.663455 0.386888 0.606871
O O3 0.576291 0.513061 0.321984
O O4 0.174092 0.584173 0.397102
O O5 0.157027 0.082710 0.405074
O O6 0.145549 0.865031 0.172225
O O7 0.167510 0.344530 0.626359
O O8 0.993480 0.360915 0.371628
O O9 0.521423 0.722551 0.877297
O O10 0.739361 0.694533 0.877877
O O11 0.641294 0.443069 0.059139
O O12 0.680517 0.853424 0.108183
O O13 0.683172 0.163731 0.290248
O O14 0.952426 0.764462 0.879190
O O15 0.887169 0.544521 0.100647
O O16 0.856668 0.128661 0.171799
#
# Coordination Sequence:
#
# PCOD9119881 Si02
#       8
#     2   2   2   2   2   2   2   2
#     4  12  27  45  75 108 147 195 252 315 377 448
#     4  11  24  47  73 105 150 195 245 317 374 453
#     4  11  26  47  75 106 149 198 253 309 383 449
#     4  12  26  46  77 107 152 201 253 319 383 453
#     4  12  26  48  74 109 150 199 257 310 385 459
#     4  11  24  45  72 110 148 193 254 309 386 449
#     4  12  26  47  76 107 153 198 254 316 380 458
#     4  11  25  45  74 112 147 199 250 315 380 457
#
# _framework density 25.072261999999998
#
# number of rings (size 3 to 8) (size 9 to 14) (size 15 to 20)
#    0.000    0.500    3.750    3.750    1.750    8.000 
#    0.000    0.000    0.000    0.000    0.000    0.000 
#    0.000    0.000    0.000    0.000    0.000    0.000 
#
# Total GULP energy -89256.207682 kJ/mol
# GULP energy per Si atom -5578.512980 kJ/mol
# Density = 2.501520 g / cm^3
# Si number density = 25.072262 Si / 1000 Ang^3
#
#
#
# Elastic Constant Matrix: (Units=GPa)
#
#
# Indices 1 2 3 4 5 6 
#
# 1 110.3029 35.4718 14.6674 0.0000 7.4669 0.0000
# 2 35.4718 102.8112 7.6197 0.0000 0.5638 0.0000
# 3 14.6674 7.6197 98.6781 0.0000 12.7992 0.0000
# 4 0.0000 0.0000 0.0000 41.1756 0.0000 2.4182
# 5 7.4669 0.5638 12.7992 0.0000 30.9699 0.0000
# 6 0.0000 0.0000 0.0000 2.4182 0.0000 42.8562
#
#
#
# Elastic Compliance Matrix: (Units=1/GPa)
#
#
# Indices 1 2 3 4 5 6 
#
# 1 0.010474 -0.003527 -0.001020 0.000000 -0.002040 0.000000
# 2 -0.003527 0.010971 -0.000430 0.000000 0.000828 0.000000
# 3 -0.001020 -0.000430 0.010868 0.000000 -0.004238 0.000000
# 4 0.000000 0.000000 0.000000 0.024367 0.000000 -0.001375
# 5 -0.002040 0.000828 -0.004238 0.000000 0.034518 0.000000
# 6 0.000000 0.000000 0.000000 -0.001375 0.000000 0.023411
#
#
# Mechanical properties :
#
#
# Convention : Reuss Voigt Hill
#
# Bulk Modulus (GPa) = 44.72530 47.47886 46.10208
# Shear Modulus (GPa) = 37.87408 39.93587 38.90498
#
# Velocity S-wave (km/s) = 3.89086 3.99536 3.94345
# Velocity P-wave (km/s) = 6.16947 6.34522 6.25796
#
# Compressibility (1/GPa) = 0.02235871
#
# Stress axis : x y z
#
# Youngs Moduli (GPa) = 95.47600 91.15132 92.00910
#
# Poissons Ratio (x) = 0.32148 0.09384
# Poissons Ratio (y) = 0.33673 0.03960
# Poissons Ratio (z) = 0.09738 0.03923
#
# Static dielectric constant tensor:
#      x y z
#    x 2.014980 0.000000 -0.080800 
#    y 0.000000 1.991700 0.000000 
#    z -0.080800 0.000000 2.103320 
# 
# From -- ./inp_files/7417.got.cif
#   From: 2010.05.17/outbox.ucp.g08.bks.cvg/sg4_4_cif.got.tgz:7417.got - 2010.06.11 12:51:24.
