data_PCOD9119267
_publ_section_title
;
Structure prediction by ZEFSAII (Michael W. Deem and Ramdas Pophale) SiO2 
 PCOD9119267
Probable space group: P 21
;
_chemical_formula_sum "Si O2"
_cell_formula_units_Z 16
_cell_length_a 14.604486
_cell_length_b 5.681422
_cell_length_c 14.163848
_cell_angle_alpha 90.000000
_cell_angle_beta 33.001403
_cell_angle_gamma 90.000000
_cell_volume 640.102794
_symmetry_space_group_name_H-M "P 21"
_symmetry_group_IT_number 4
_symmetry_cell_setting 'monoclinic'
loop_
_space_group_symop_operation_xyz
x,y,z
-x,1/2+y,-z
loop_
_atom_site_type_symbol
_atom_site_label
_atom_site_fract_x
_atom_site_fract_y
_atom_site_fract_z
Si Si1 0.106985 0.352550 0.323534
Si Si2 0.709911 0.862543 0.117662
Si Si3 0.801958 0.934766 0.380872
Si Si4 0.010122 0.642030 0.935903
Si Si5 0.428249 0.246664 0.564818
Si Si6 0.229015 0.579475 0.391882
Si Si7 0.836096 0.240320 0.883532
Si Si8 0.408898 0.123813 0.957143
O O1 0.129355 0.390265 0.415245
O O2 0.139595 0.575585 0.228726
O O3 0.915704 0.273649 0.469726
O O4 0.261062 0.184640 0.158653
O O5 0.621534 0.874296 0.293525
O O6 0.600343 0.806980 0.121560
O O7 0.843803 0.655544 0.015790
O O8 0.814717 0.088751 0.996889
O O9 0.711195 0.734877 0.397812
O O10 0.986736 0.871261 0.258841
O O11 0.709989 0.005946 0.556485
O O12 0.833793 0.131277 0.271958
O O13 0.999795 0.389674 0.998589
O O14 0.536827 0.475200 0.434455
O O15 0.396133 0.626849 0.185113
O O16 0.662545 0.379092 0.019957
#
# Coordination Sequence:
#
# PCOD9119267 Si02
#       8
#     2   2   2   2   2   2   2   2
#     4  11  27  51  76 117 154 204 267 341 406 516
#     4  11  25  45  74 105 152 199 264 324 400 482
#     4  12  25  47  79 110 156 204 273 328 404 487
#     4  12  25  43  76 111 151 214 267 326 400 472
#     4  12  31  46  69 110 163 209 268 338 398 480
#     4  12  27  49  81 112 158 206 262 338 414 490
#     4  11  24  50  79 110 152 201 272 334 405 497
#     4  11  26  49  78 113 156 207 267 331 419 490
#
# _framework density 24.995987
#
# number of rings (size 3 to 8) (size 9 to 14) (size 15 to 20)
#    0.000    0.500    3.750    3.000    7.000    2.000 
#    4.500    0.000    0.000    0.000    0.000    0.000 
#    0.000    0.000    0.000    0.000    0.000    0.000 
#
# Total GULP energy -89263.079260 kJ/mol
# GULP energy per Si atom -5578.942454 kJ/mol
# Density = 2.493909 g / cm^3
# Si number density = 24.995987 Si / 1000 Ang^3
#
#
#
# Elastic Constant Matrix: (Units=GPa)
#
#
# Indices 1 2 3 4 5 6 
#
# 1 60.8054 31.5151 -3.4184 0.0000 9.0299 0.0000
# 2 31.5151 91.1194 28.7268 0.0000 0.9739 0.0000
# 3 -3.4184 28.7268 85.1709 0.0000 -9.2485 0.0000
# 4 0.0000 0.0000 0.0000 17.1656 0.0000 8.3206
# 5 9.0299 0.9739 -9.2485 0.0000 44.7049 0.0000
# 6 0.0000 0.0000 0.0000 8.3206 0.0000 37.7806
#
#
#
# Elastic Compliance Matrix: (Units=1/GPa)
#
#
# Indices 1 2 3 4 5 6 
#
# 1 0.021538 -0.008466 0.003342 0.000000 -0.003474 0.000000
# 2 -0.008466 0.015666 -0.005601 0.000000 0.000210 0.000000
# 3 0.003342 -0.005601 0.014019 0.000000 0.002347 0.000000
# 4 0.000000 0.000000 0.000000 0.065218 0.000000 -0.014363
# 5 -0.003474 0.000210 0.002347 0.000000 0.023552 0.000000
# 6 0.000000 0.000000 0.000000 -0.014363 0.000000 0.029632
#
#
# Mechanical properties :
#
#
# Convention : Reuss Voigt Hill
#
# Bulk Modulus (GPa) = 33.58568 38.97141 36.27855
# Shear Modulus (GPa) = 24.87587 31.94836 28.41212
#
# Velocity S-wave (km/s) = 3.15809 3.57899 3.37511
# Velocity P-wave (km/s) = 5.17336 5.71872 5.45286
#
# Compressibility (1/GPa) = 0.02977459
#
# Stress axis : x y z
#
# Youngs Moduli (GPa) = 46.43060 63.83189 71.33061
#
# Poissons Ratio (x) = 0.54038 -0.23842
# Poissons Ratio (y) = 0.39307 0.39952
# Poissons Ratio (z) = -0.15519 0.35752
#
# Static dielectric constant tensor:
#      x y z
#    x 1.971540 0.000000 -0.001090 
#    y 0.000000 2.084310 0.000000 
#    z -0.001090 0.000000 2.115380 
# 
# From -- ./inp_files/14074.got.cif
#   From: 2010.05.17/outbox.cif.g08.bks.cpg/sg4_8_cif.got.tgz:14074.got - 2010.06.03 18:43:04.
