data_PCOD9119087
_publ_section_title
;
Structure prediction by ZEFSAII (Michael W. Deem and Ramdas Pophale) SiO2 
 PCOD9119087
Probable space group: P 21
;
_chemical_formula_sum "Si O2"
_cell_formula_units_Z 14
_cell_length_a 13.721258
_cell_length_b 4.934234
_cell_length_c 18.166718
_cell_angle_alpha 90.000000
_cell_angle_beta 24.783467
_cell_angle_gamma 90.000000
_cell_volume 515.586083
_symmetry_space_group_name_H-M "P 21"
_symmetry_group_IT_number 4
_symmetry_cell_setting 'monoclinic'
loop_
_space_group_symop_operation_xyz
x,y,z
-x,1/2+y,-z
loop_
_atom_site_type_symbol
_atom_site_label
_atom_site_fract_x
_atom_site_fract_y
_atom_site_fract_z
Si Si1 0.509114 0.670610 0.542699
Si Si2 0.729820 0.554128 0.893907
Si Si3 0.602716 0.173248 0.704027
Si Si4 0.122408 0.931698 0.607124
Si Si5 0.698591 0.178045 0.047724
Si Si6 0.059547 0.383674 0.914999
Si Si7 0.203159 0.743609 0.280631
O O1 0.530465 0.475616 0.456522
O O2 0.734430 0.627096 0.437978
O O3 0.291163 0.543588 0.735046
O O4 0.788449 0.529948 0.766946
O O5 0.735760 0.281132 0.938741
O O6 0.464349 0.642846 0.082482
O O7 0.933866 0.752615 0.780501
O O8 0.694891 0.240026 0.560617
O O9 0.505073 0.873278 0.780721
O O10 0.803700 0.220441 0.627648
O O11 0.398982 0.380631 0.869203
O O12 0.992516 0.093010 0.631331
O O13 0.925852 0.254354 0.937723
O O14 0.095114 0.125879 0.943717
#
# Coordination Sequence:
#
# PCOD9119087 Si02
#       7
#     2   2   2   2   2   2   2
#     4  12  29  50  74 111 150 194 251 311 370 429
#     4  11  24  44  71 103 142 192 240 296 353 454
#     4  11  28  46  74 110 146 190 241 302 370 444
#     4  12  28  45  74 107 151 192 242 307 370 425
#     4  11  25  47  74 103 146 192 246 295 368 431
#     4  12  25  47  77 106 147 194 252 306 364 440
#     4  11  25  43  72 100 146 186 240 289 365 443
#
# _framework density 27.153566999999999
#
# number of rings (size 3 to 8) (size 9 to 14) (size 15 to 20)
#    0.000    0.571    1.429    5.143   12.000    0.000 
#    0.000    0.000    0.000    0.000    0.000    0.000 
#    0.000    0.000    0.000    0.000    0.000    0.000 
#
# Total GULP energy -78565.865287 kJ/mol
# GULP energy per Si atom -5611.847520 kJ/mol
# Density = 2.709176 g / cm^3
# Si number density = 27.153567 Si / 1000 Ang^3
#
#
#
# Elastic Constant Matrix: (Units=GPa)
#
#
# Indices 1 2 3 4 5 6 
#
# 1 114.1968 6.9079 29.8898 0.0000 -14.0665 0.0000
# 2 6.9079 72.6886 10.9410 0.0000 4.4304 0.0000
# 3 29.8898 10.9410 115.4838 0.0000 1.2418 0.0000
# 4 0.0000 0.0000 0.0000 45.8914 0.0000 -4.7292
# 5 -14.0665 4.4304 1.2418 0.0000 42.5756 0.0000
# 6 0.0000 0.0000 0.0000 -4.7292 0.0000 43.3203
#
#
#
# Elastic Compliance Matrix: (Units=1/GPa)
#
#
# Indices 1 2 3 4 5 6 
#
# 1 0.009885 -0.000768 -0.002522 0.000000 0.003419 0.000000
# 2 -0.000768 0.014102 -0.001119 0.000000 -0.001689 0.000000
# 3 -0.002522 -0.001119 0.009429 0.000000 -0.000992 0.000000
# 4 0.000000 0.000000 0.000000 0.022039 0.000000 0.002406
# 5 0.003419 -0.001689 -0.000992 0.000000 0.024822 0.000000
# 6 0.000000 0.000000 0.000000 0.002406 0.000000 0.023347
#
#
# Mechanical properties :
#
#
# Convention : Reuss Voigt Hill
#
# Bulk Modulus (GPa) = 40.65697 44.20517 42.43107
# Shear Modulus (GPa) = 41.44570 43.33283 42.38926
#
# Velocity S-wave (km/s) = 3.91108 3.99913 3.95535
# Velocity P-wave (km/s) = 5.94987 6.13507 6.04318
#
# Compressibility (1/GPa) = 0.02459603
#
# Stress axis : x y z
#
# Youngs Moduli (GPa) = 101.16687 70.91364 106.05859
#
# Poissons Ratio (x) = 0.05447 0.26752
# Poissons Ratio (y) = 0.07771 0.11868
# Poissons Ratio (z) = 0.25518 0.07935
#
# Static dielectric constant tensor:
#      x y z
#    x 2.133650 0.000000 0.034640 
#    y 0.000000 2.120230 0.000000 
#    z 0.034640 0.000000 2.136940 
# 
# From -- ./inp_files/10038.got.cif
#   From: 2010.05.17/outbox.cif.g08.bks.cpg/sg4_6_cif.got.tgz:10038.got - 2010.06.03 18:43:04.
