data_PCOD9119778
_publ_section_title
;
Structure prediction by ZEFSAII (Michael W. Deem and Ramdas Pophale) SiO2 
 PCOD9119778
Probable space group: P 21
;
_chemical_formula_sum "Si O2"
_cell_formula_units_Z 16
_cell_length_a 9.234165
_cell_length_b 5.332984
_cell_length_c 12.740648
_cell_angle_alpha 90.000000
_cell_angle_beta 102.810623
_cell_angle_gamma 90.000000
_cell_volume 611.803932
_symmetry_space_group_name_H-M "P 21"
_symmetry_group_IT_number 4
_symmetry_cell_setting 'monoclinic'
loop_
_space_group_symop_operation_xyz
x,y,z
-x,1/2+y,-z
loop_
_atom_site_type_symbol
_atom_site_label
_atom_site_fract_x
_atom_site_fract_y
_atom_site_fract_z
Si Si1 0.098730 0.366000 0.519292
Si Si2 0.033490 0.857067 0.846751
Si Si3 0.792504 0.167708 0.732759
Si Si4 0.803152 0.534244 0.927239
Si Si5 0.494272 0.419505 0.939420
Si Si6 0.678510 0.569097 0.561226
Si Si7 0.256603 0.545876 0.752290
Si Si8 0.483724 0.871025 0.670821
O O1 0.220267 0.309512 0.448039
O O2 0.192170 0.418366 0.639226
O O3 0.995019 0.608629 0.488976
O O4 0.122903 0.642698 0.802018
O O5 0.899710 0.757306 0.897640
O O6 0.945966 0.016628 0.747439
O O7 0.144209 0.985005 0.946259
O O8 0.824600 0.314411 0.846764
O O9 0.774533 0.356992 0.632879
O O10 0.632699 0.027817 0.722443
O O11 0.627824 0.563062 0.902414
O O12 0.360685 0.370272 0.838818
O O13 0.551055 0.148374 0.989305
O O14 0.552651 0.624933 0.626385
O O15 0.604148 0.497878 0.439690
O O16 0.363071 0.779435 0.735466
#
# Coordination Sequence:
#
# PCOD9119778 Si02
#       8
#     2   2   2   2   2   2   2   2
#     4  12  32  56  85 129 186 229 290 361 437 523
#     4  12  28  53  85 122 174 227 292 357 433 534
#     4  12  28  50  88 117 172 227 285 357 440 505
#     4  12  28  52  83 120 167 229 288 355 433 526
#     4  12  30  53  86 125 164 217 285 360 420 510
#     4  12  27  52  85 123 168 232 289 352 422 531
#     4  12  30  53  85 126 169 232 286 363 441 507
#     4  12  27  51  83 124 168 225 289 355 426 518
#
# _framework density 26.152172
#
# number of rings (size 3 to 8) (size 9 to 14) (size 15 to 20)
#    0.000    0.000    3.750    3.750   12.250    2.000 
#    0.000    0.000    0.000    0.000    0.000    0.000 
#    0.000    0.000    0.000    0.000    0.000    0.000 
#
# Total GULP energy -89730.276403 kJ/mol
# GULP energy per Si atom -5608.142275 kJ/mol
# Density = 2.609265 g / cm^3
# Si number density = 26.152172 Si / 1000 Ang^3
#
#
#
# Elastic Constant Matrix: (Units=GPa)
#
#
# Indices 1 2 3 4 5 6 
#
# 1 107.4904 20.6107 30.0242 0.0000 18.1990 0.0000
# 2 20.6107 96.8268 32.6762 0.0000 23.5677 0.0000
# 3 30.0242 32.6762 117.9066 0.0000 47.7488 0.0000
# 4 0.0000 0.0000 0.0000 35.7727 0.0000 2.3147
# 5 18.1990 23.5677 47.7488 0.0000 62.0521 0.0000
# 6 0.0000 0.0000 0.0000 2.3147 0.0000 44.9944
#
#
#
# Elastic Compliance Matrix: (Units=1/GPa)
#
#
# Indices 1 2 3 4 5 6 
#
# 1 0.010244 -0.001301 -0.001789 0.000000 -0.001134 0.000000
# 2 -0.001301 0.011893 -0.001874 0.000000 -0.002693 0.000000
# 3 -0.001789 -0.001874 0.013010 0.000000 -0.008774 0.000000
# 4 0.000000 0.000000 0.000000 0.028048 0.000000 -0.001443
# 5 -0.001134 -0.002693 -0.008774 0.000000 0.024223 0.000000
# 6 0.000000 0.000000 0.000000 -0.001443 0.000000 0.022299
#
#
# Mechanical properties :
#
#
# Convention : Reuss Voigt Hill
#
# Bulk Modulus (GPa) = 39.65272 54.31623 46.98448
# Shear Modulus (GPa) = 39.04732 44.49136 41.76934
#
# Velocity S-wave (km/s) = 3.86823 4.12909 4.00079
# Velocity P-wave (km/s) = 5.92842 6.59901 6.27268
#
# Compressibility (1/GPa) = 0.02521895
#
# Stress axis : x y z
#
# Youngs Moduli (GPa) = 97.61572 84.08603 76.86679
#
# Poissons Ratio (x) = 0.10939 0.13751
# Poissons Ratio (y) = 0.12699 0.14404
# Poissons Ratio (z) = 0.17463 0.15756
#
# Static dielectric constant tensor:
#      x y z
#    x 2.023380 0.000000 -0.033460 
#    y 0.000000 2.136670 0.000000 
#    z -0.033460 0.000000 2.118650 
# 
# From -- ./inp_files/10762.got.cif
#   From: 2010.05.17/outbox.cif.g08.bks.cpg/sg4_6_cif.got.tgz:10762.got - 2010.06.03 18:43:04.
