data_PCOD9119297
_publ_section_title
;
Structure prediction by ZEFSAII (Michael W. Deem and Ramdas Pophale) SiO2 
 PCOD9119297
Probable space group: P 21
;
_chemical_formula_sum "Si O2"
_cell_formula_units_Z 12
_cell_length_a 22.206241
_cell_length_b 4.832346
_cell_length_c 15.503503
_cell_angle_alpha 90.000000
_cell_angle_beta 16.314252
_cell_angle_gamma 90.000000
_cell_volume 467.329362
_symmetry_space_group_name_H-M "P 21"
_symmetry_group_IT_number 4
_symmetry_cell_setting 'monoclinic'
loop_
_space_group_symop_operation_xyz
x,y,z
-x,1/2+y,-z
loop_
_atom_site_type_symbol
_atom_site_label
_atom_site_fract_x
_atom_site_fract_y
_atom_site_fract_z
Si Si1 0.001694 0.606340 0.264828
Si Si2 0.444232 0.904189 0.625702
Si Si3 0.710240 0.242539 0.550143
Si Si4 0.908720 0.090949 0.670291
Si Si5 0.434966 0.248605 0.352366
Si Si6 0.427278 0.432645 0.102370
O O1 0.911575 0.386923 0.319714
O O2 0.807212 0.814738 0.555371
O O3 0.052353 0.471022 0.287329
O O4 0.204817 0.784016 0.958170
O O5 0.552486 0.727578 0.399884
O O6 0.568204 0.830540 0.543083
O O7 0.632668 0.441492 0.580926
O O8 0.716315 0.948343 0.496043
O O9 0.541813 0.209672 0.863894
O O10 0.922359 0.826654 0.589733
O O11 0.685871 0.255772 0.983922
O O12 0.435165 0.703586 0.030011
#
# Coordination Sequence:
#
# PCOD9119297 Si02
#       6
#     2   2   2   2   2   2
#     4  11  28  45  74 106 147 193 253 291 366 438
#     4  11  27  52  81 102 142 195 250 309 374 429
#     4  12  24  43  71  99 152 181 237 299 363 427
#     4  11  27  39  65  99 148 189 243 289 348 432
#     4  11  25  45  69 108 138 188 242 306 363 434
#     4  12  25  38  66 104 147 196 235 276 364 436
#
# _framework density 25.677821999999999
#
# number of rings (size 3 to 8) (size 9 to 14) (size 15 to 20)
#    0.000    0.667    3.333    2.000   11.667    2.667 
#    0.000    3.333    0.000    0.000    0.000    0.000 
#    0.000    0.000    0.000    0.000    0.000    0.000 
#
# Total GULP energy -67060.803056 kJ/mol
# GULP energy per Si atom -5588.400255 kJ/mol
# Density = 2.561938 g / cm^3
# Si number density = 25.677822 Si / 1000 Ang^3
#
#
#
# Elastic Constant Matrix: (Units=GPa)
#
#
# Indices 1 2 3 4 5 6 
#
# 1 138.7909 4.6273 1.5235 0.0000 -3.1461 0.0000
# 2 4.6273 133.1170 -13.3929 0.0000 0.0512 0.0000
# 3 1.5235 -13.3929 60.8744 0.0000 -14.4692 0.0000
# 4 0.0000 0.0000 0.0000 33.7959 0.0000 1.1629
# 5 -3.1461 0.0512 -14.4692 0.0000 24.9185 0.0000
# 6 0.0000 0.0000 0.0000 1.1629 0.0000 46.2284
#
#
#
# Elastic Compliance Matrix: (Units=1/GPa)
#
#
# Indices 1 2 3 4 5 6 
#
# 1 0.007234 -0.000254 -0.000023 0.000000 0.000901 0.000000
# 2 -0.000254 0.007718 0.001964 0.000000 0.001093 0.000000
# 3 -0.000023 0.001964 0.019558 0.000000 0.011349 0.000000
# 4 0.000000 0.000000 0.000000 0.029615 0.000000 -0.000745
# 5 0.000901 0.001093 0.011349 0.000000 0.046832 0.000000
# 6 0.000000 0.000000 0.000000 -0.000745 0.000000 0.021650
#
#
# Mechanical properties :
#
#
# Convention : Reuss Voigt Hill
#
# Bulk Modulus (GPa) = 26.39622 35.36644 30.88133
# Shear Modulus (GPa) = 35.24561 43.65688 39.45125
#
# Velocity S-wave (km/s) = 3.70889 4.12780 3.92394
# Velocity P-wave (km/s) = 5.35194 6.04329 5.70809
#
# Compressibility (1/GPa) = 0.03788421
#
# Stress axis : x y z
#
# Youngs Moduli (GPa) = 138.23191 129.56369 51.13109
#
# Poissons Ratio (x) = 0.03292 0.00117
# Poissons Ratio (y) = 0.03513 -0.10043
# Poissons Ratio (z) = 0.00316 -0.25448
#
# Static dielectric constant tensor:
#      x y z
#    x 2.045710 0.000000 0.029710 
#    y 0.000000 2.090180 0.000000 
#    z 0.029710 0.000000 2.130470 
# 
# From -- ./inp_files/14426.got.cif
#   From: 2010.05.17/outbox.cif.g08.bks.cpg/sg4_8_cif.got.tgz:14426.got - 2010.06.03 18:43:04.
