data_PCOD9119810
_publ_section_title
;
Structure prediction by ZEFSAII (Michael W. Deem and Ramdas Pophale) SiO2 
 PCOD9119810
Probable space group: P 21
;
_chemical_formula_sum "Si O2"
_cell_formula_units_Z 14
_cell_length_a 9.000000
_cell_length_b 15.000000
_cell_length_c 9.000000
_cell_angle_alpha 90.000000
_cell_angle_beta 30.000000
_cell_angle_gamma 90.000000
_cell_volume 607.500000
_symmetry_space_group_name_H-M "P 21"
_symmetry_group_IT_number 4
_symmetry_cell_setting 'monoclinic'
loop_
_space_group_symop_operation_xyz
x,y,z
-x,1/2+y,-z
loop_
_atom_site_type_symbol
_atom_site_label
_atom_site_fract_x
_atom_site_fract_y
_atom_site_fract_z
Si Si1 0.697172 0.331150 0.612606
Si Si2 0.210312 0.228618 0.500236
Si Si3 0.808737 0.707582 0.833159
Si Si4 0.221310 0.623986 0.953617
Si Si5 0.025360 0.038177 0.134923
Si Si6 0.738539 0.952505 0.891207
Si Si7 0.551353 0.929146 0.726910
O O1 0.906536 0.260922 0.342407
O O2 0.965139 0.400122 0.416879
O O3 0.498142 0.262128 0.881911
O O4 0.428352 0.402466 0.826088
O O5 0.140130 0.206314 0.388407
O O6 0.332823 0.329118 0.399377
O O7 0.934495 0.212560 0.846919
O O8 0.442406 0.155179 0.357970
O O9 0.800078 0.613827 0.922722
O O10 0.200812 0.550654 0.102539
O O11 0.088876 0.582132 0.918469
O O12 0.770448 0.000348 0.462009
O O13 0.237989 0.953511 0.925011
O O14 0.537633 0.945632 0.917183
#
# Coordination Sequence:
#
# PCOD9119810 Si02
#       7
#     2   2   2   2   2   2   2
#     4  10  20  38  68 104 128 164 228 286 330 380
#     4  12  24  45  73 100 133 176 235 285 332 392
#     4  11  22  43  73  97 137 171 235 280 331 396
#     4  12  27  47  65 103 143 184 219 274 346 415
#     4  12  27  47  65 103 143 184 219 274 346 415
#     4  11  22  43  73  97 137 171 235 280 331 396
#     4  12  24  45  73 100 133 176 235 285 332 392
#
# _framework density 23.045266999999999
#
# number of rings (size 3 to 8) (size 9 to 14) (size 15 to 20)
#    0.000    0.571    2.857    6.857    0.000    0.000 
#   15.429    0.000    0.000    0.000    0.000    0.000 
#    0.000    0.000    0.000    0.000    0.000    0.000 
#
# Total GULP energy -78084.625346 kJ/mol
# GULP energy per Si atom -5577.473239 kJ/mol
# Density = 2.299282 g / cm^3
# Si number density = 23.045267 Si / 1000 Ang^3
#
#
#
# Elastic Constant Matrix: (Units=GPa)
#
#
# Indices 1 2 3 4 5 6 
#
# 1 52.8649 35.1582 -10.7914 0.0000 -3.5067 0.0000
# 2 35.1582 114.0246 16.9127 0.0000 5.9196 0.0000
# 3 -10.7914 16.9127 76.0567 0.0000 -26.1442 0.0000
# 4 0.0000 0.0000 0.0000 50.8078 0.0000 -8.6337
# 5 -3.5067 5.9196 -26.1442 0.0000 18.9948 0.0000
# 6 0.0000 0.0000 0.0000 -8.6337 0.0000 19.5088
#
#
#
# Elastic Compliance Matrix: (Units=1/GPa)
#
#
# Indices 1 2 3 4 5 6 
#
# 1 0.041344 -0.019714 0.028442 0.000000 0.052924 0.000000
# 2 -0.019714 0.019762 -0.020042 0.000000 -0.037384 0.000000
# 3 0.028442 -0.020042 0.048574 0.000000 0.078354 0.000000
# 4 0.000000 0.000000 0.000000 0.021283 0.000000 0.009419
# 5 0.052924 -0.037384 0.078354 0.000000 0.181912 0.000000
# 6 0.000000 0.000000 0.000000 0.009419 0.000000 0.055427
#
#
# Mechanical properties :
#
#
# Convention : Reuss Voigt Hill
#
# Bulk Modulus (GPa) = 11.48736 36.16725 23.82731
# Shear Modulus (GPa) = 11.90622 31.30672 21.60647
#
# Velocity S-wave (km/s) = 2.27545 3.68977 3.06529
# Velocity P-wave (km/s) = 3.44950 5.82070 4.78433
#
# Compressibility (1/GPa) = 0.08705217
#
# Stress axis : x y z
#
# Youngs Moduli (GPa) = 24.18742 50.60147 20.58695
#
# Poissons Ratio (x) = 0.99757 -0.58554
# Poissons Ratio (y) = 0.47683 0.41261
# Poissons Ratio (z) = -0.68795 1.01418
#
# Static dielectric constant tensor:
#      x y z
#    x 1.847730 0.000000 -0.042430 
#    y 0.000000 1.904590 0.000000 
#    z -0.042430 0.000000 1.859810 
# 
# From -- ./inp_files/6519.got.cif
#   From: 2010.05.17/outbox.ucp.g08.bks.cvg/sg4_4_cif.got.tgz:6519.got - 2010.06.11 12:51:24.
