data_PCOD9119609
_publ_section_title
;
Structure prediction by ZEFSAII (Michael W. Deem and Ramdas Pophale) SiO2 
 PCOD9119609
Probable space group: P 21
;
_chemical_formula_sum "Si O2"
_cell_formula_units_Z 16
_cell_length_a 18.144955
_cell_length_b 7.801065
_cell_length_c 8.961291
_cell_angle_alpha 90.000000
_cell_angle_beta 149.885647
_cell_angle_gamma 90.000000
_cell_volume 636.426468
_symmetry_space_group_name_H-M "P 21"
_symmetry_group_IT_number 4
_symmetry_cell_setting 'monoclinic'
loop_
_space_group_symop_operation_xyz
x,y,z
-x,1/2+y,-z
loop_
_atom_site_type_symbol
_atom_site_label
_atom_site_fract_x
_atom_site_fract_y
_atom_site_fract_z
Si Si1 0.399616 0.694730 0.777496
Si Si2 0.568433 0.118755 0.494221
Si Si3 0.105187 0.522038 0.341047
Si Si4 0.033740 0.776334 0.431668
Si Si5 0.958253 0.561501 0.765919
Si Si6 0.674857 0.592683 0.417553
Si Si7 0.299636 0.244566 0.214552
Si Si8 0.864284 0.301574 0.079981
O O1 0.471127 0.634293 0.747926
O O2 0.277416 0.553732 0.606433
O O3 0.345210 0.889297 0.649663
O O4 0.523681 0.688075 0.119914
O O5 0.425301 0.150428 0.341527
O O6 0.641560 0.935366 0.652810
O O7 0.696207 0.260369 0.749599
O O8 0.105704 0.596552 0.512519
O O9 0.965572 0.393877 0.133136
O O10 0.049298 0.574212 0.076351
O O11 0.114270 0.858354 0.712900
O O12 0.859309 0.753249 0.141495
O O13 0.063532 0.866193 0.323086
O O14 0.803861 0.651112 0.530317
O O15 0.048486 0.621833 0.779908
O O16 0.721666 0.645006 0.666056
#
# Coordination Sequence:
#
# PCOD9119609 Si02
#       8
#     2   2   2   2   2   2   2   2
#     4  12  27  49  74 112 148 202 260 317 388 459
#     4  12  28  50  73 110 156 201 254 318 395 465
#     4  12  25  46  80 106 154 203 258 317 375 459
#     4  12  26  48  73 113 150 199 255 314 386 458
#     4  12  24  49  74 108 150 199 259 314 379 461
#     4  12  28  47  77 110 149 201 258 321 389 458
#     4  12  28  49  76 108 157 199 253 321 396 464
#     4  12  28  44  77 111 154 200 255 320 386 452
#
# _framework density 25.140374999999999
#
# number of rings (size 3 to 8) (size 9 to 14) (size 15 to 20)
#    0.000    0.000    5.000    3.750    8.750    1.000 
#    0.000    0.000    0.000    0.000    0.000    0.000 
#    0.000    0.000    0.000    0.000    0.000    0.000 
#
# Total GULP energy -89284.137277 kJ/mol
# GULP energy per Si atom -5580.258580 kJ/mol
# Density = 2.508315 g / cm^3
# Si number density = 25.140375 Si / 1000 Ang^3
#
#
#
# Elastic Constant Matrix: (Units=GPa)
#
#
# Indices 1 2 3 4 5 6 
#
# 1 112.0271 29.4233 10.8404 0.0000 18.4535 0.0000
# 2 29.4233 43.9377 14.7286 0.0000 4.0532 0.0000
# 3 10.8404 14.7286 85.2257 0.0000 11.2443 0.0000
# 4 0.0000 0.0000 0.0000 28.8070 0.0000 0.6006
# 5 18.4535 4.0532 11.2443 0.0000 40.5573 0.0000
# 6 0.0000 0.0000 0.0000 0.6006 0.0000 47.0167
#
#
#
# Elastic Compliance Matrix: (Units=1/GPa)
#
#
# Indices 1 2 3 4 5 6 
#
# 1 0.011621 -0.007497 0.000432 0.000000 -0.004658 0.000000
# 2 -0.007497 0.029063 -0.004293 0.000000 0.001697 0.000000
# 3 0.000432 -0.004293 0.012860 0.000000 -0.003333 0.000000
# 4 0.000000 0.000000 0.000000 0.034723 0.000000 -0.000444
# 5 -0.004658 0.001697 -0.003333 0.000000 0.027530 0.000000
# 6 0.000000 0.000000 0.000000 -0.000444 0.000000 0.021275
#
#
# Mechanical properties :
#
#
# Convention : Reuss Voigt Hill
#
# Bulk Modulus (GPa) = 32.43821 39.01943 35.72882
# Shear Modulus (GPa) = 29.40074 35.68941 32.54507
#
# Velocity S-wave (km/s) = 3.42345 3.77185 3.60187
# Velocity P-wave (km/s) = 5.34392 5.87567 5.61609
#
# Compressibility (1/GPa) = 0.03082785
#
# Stress axis : x y z
#
# Youngs Moduli (GPa) = 86.05113 34.40851 77.75923
#
# Poissons Ratio (x) = 0.25797 -0.03360
# Poissons Ratio (y) = 0.64515 0.33381
# Poissons Ratio (z) = -0.03718 0.14771
#
# Static dielectric constant tensor:
#      x y z
#    x 1.861090 0.000000 0.037320 
#    y 0.000000 2.473430 0.000000 
#    z 0.037320 0.000000 1.909450 
# 
# From -- ./inp_files/5517.got.cif
#   From: 2010.05.17/outbox.cif.g08.bks.cpg/sg4_3_cif.got.tgz:5517.got - 2010.06.03 18:43:04.
