data_PCOD9119808
_publ_section_title
;
Structure prediction by ZEFSAII (Michael W. Deem and Ramdas Pophale) SiO2 
 PCOD9119808
Probable space group: P 21
;
_chemical_formula_sum "Si O2"
_cell_formula_units_Z 16
_cell_length_a 12.000000
_cell_length_b 9.000000
_cell_length_c 9.000000
_cell_angle_alpha 90.000000
_cell_angle_beta 120.000000
_cell_angle_gamma 90.000000
_cell_volume 841.776692
_symmetry_space_group_name_H-M "P 21"
_symmetry_group_IT_number 4
_symmetry_cell_setting 'monoclinic'
loop_
_space_group_symop_operation_xyz
x,y,z
-x,1/2+y,-z
loop_
_atom_site_type_symbol
_atom_site_label
_atom_site_fract_x
_atom_site_fract_y
_atom_site_fract_z
Si Si1 0.310274 0.461550 0.955319
Si Si2 0.019771 0.396969 0.822796
Si Si3 0.716989 0.898381 0.580196
Si Si4 0.729829 0.280298 0.938178
Si Si5 0.978857 0.749027 0.852567
Si Si6 0.527249 0.780850 0.711802
Si Si7 0.521229 0.959989 0.212703
Si Si8 0.750426 0.258287 0.602027
O O1 0.162305 0.401450 0.840282
O O2 0.385953 0.511723 0.858578
O O3 0.295842 0.606862 0.048116
O O4 0.408533 0.345414 0.096139
O O5 0.985857 0.569643 0.839831
O O6 0.893229 0.323850 0.658660
O O7 0.038072 0.302996 0.987680
O O8 0.854888 0.815330 0.683805
O O9 0.625945 0.846029 0.655438
O O10 0.622055 0.865309 0.378676
O O11 0.746501 0.076789 0.596088
O O12 0.608462 0.372740 0.918569
O O13 0.731087 0.303778 0.761442
O O14 0.876604 0.308221 0.093296
O O15 0.526153 0.602329 0.724649
O O16 0.376458 0.815378 0.572545
#
# Coordination Sequence:
#
# PCOD9119808 Si02
#       8
#     2   2   2   2   2   2   2   2
#     4  11  22  42  58  87 128 161 192 248 313 369
#     4  10  21  36  60  88 120 157 197 252 304 357
#     4  11  21  39  58  91 117 154 205 251 293 352
#     4  10  20  37  59  88 121 152 200 253 297 353
#     4  10  20  34  60  88 116 151 205 249 298 347
#     4  11  22  38  63  89 118 161 203 251 301 354
#     4  11  25  38  60  90 123 160 201 247 309 370
#     4  10  21  36  60  93 115 150 205 257 291 350
#
# _framework density 19.007415999999999
#
# number of rings (size 3 to 8) (size 9 to 14) (size 15 to 20)
#    0.000    1.500    3.750    2.250    3.500    2.000 
#    0.000    6.250    0.000    0.000    0.000    0.000 
#    0.000    0.000    0.000    0.000    0.000    0.000 
#
# Total GULP energy -89168.606622 kJ/mol
# GULP energy per Si atom -5573.037914 kJ/mol
# Density = 1.896415 g / cm^3
# Si number density = 19.007416 Si / 1000 Ang^3
#
#
#
# Elastic Constant Matrix: (Units=GPa)
#
#
# Indices 1 2 3 4 5 6 
#
# 1 127.9338 36.3771 32.8363 0.0000 44.4188 0.0000
# 2 36.3771 72.1138 18.4423 0.0000 28.2911 0.0000
# 3 32.8363 18.4423 58.3174 0.0000 39.4636 0.0000
# 4 0.0000 0.0000 0.0000 25.3754 0.0000 14.4764
# 5 44.4188 28.2911 39.4636 0.0000 47.7357 0.0000
# 6 0.0000 0.0000 0.0000 14.4764 0.0000 32.8418
#
#
#
# Elastic Compliance Matrix: (Units=1/GPa)
#
#
# Indices 1 2 3 4 5 6 
#
# 1 0.011845 -0.002026 0.001401 0.000000 -0.010980 0.000000
# 2 -0.002026 0.018731 0.003300 0.000000 -0.011944 0.000000
# 3 0.001401 0.003300 0.039769 0.000000 -0.036137 0.000000
# 4 0.000000 0.000000 0.000000 0.052647 0.000000 -0.023206
# 5 -0.010980 -0.011944 -0.036137 0.000000 0.068119 0.000000
# 6 0.000000 0.000000 0.000000 -0.023206 0.000000 0.040678
#
#
# Mechanical properties :
#
#
# Convention : Reuss Voigt Hill
#
# Bulk Modulus (GPa) = 13.21101 48.18626 30.69864
# Shear Modulus (GPa) = 19.86720 32.57120 26.21920
#
# Velocity S-wave (km/s) = 3.23652 4.14406 3.71808
# Velocity P-wave (km/s) = 4.57518 6.95011 5.88372
#
# Compressibility (1/GPa) = 0.07569442
#
# Stress axis : x y z
#
# Youngs Moduli (GPa) = 84.42250 53.38824 25.14517
#
# Poissons Ratio (x) = 0.10817 -0.03523
# Poissons Ratio (y) = 0.17104 -0.08297
# Poissons Ratio (z) = -0.11829 -0.17616
#
# Static dielectric constant tensor:
#      x y z
#    x 1.667110 0.000000 -0.010570 
#    y 0.000000 1.652810 0.000000 
#    z -0.010570 0.000000 1.710550 
# 
# From -- ./inp_files/7651.got.cif
#   From: 2010.05.17/outbox.ucp.g08.bks.cvg/sg4_4_cif.got.tgz:7651.got - 2010.06.11 12:51:24.
