data_PCOD9119404
_publ_section_title
;
Structure prediction by ZEFSAII (Michael W. Deem and Ramdas Pophale) SiO2 
 PCOD9119404
Probable space group: P 21
;
_chemical_formula_sum "Si O2"
_cell_formula_units_Z 12
_cell_length_a 8.703294
_cell_length_b 11.328085
_cell_length_c 7.740860
_cell_angle_alpha 90.000000
_cell_angle_beta 144.519972
_cell_angle_gamma 90.000000
_cell_volume 442.966711
_symmetry_space_group_name_H-M "P 21"
_symmetry_group_IT_number 4
_symmetry_cell_setting 'monoclinic'
loop_
_space_group_symop_operation_xyz
x,y,z
-x,1/2+y,-z
loop_
_atom_site_type_symbol
_atom_site_label
_atom_site_fract_x
_atom_site_fract_y
_atom_site_fract_z
Si Si1 0.080909 0.274960 0.763872
Si Si2 0.895845 0.433084 0.153173
Si Si3 0.397464 0.745120 0.923712
Si Si4 0.637220 0.533857 0.577791
Si Si5 0.301805 0.294667 0.324143
Si Si6 0.946366 0.030734 0.343825
O O1 0.791696 0.266386 0.417111
O O2 0.182034 0.407384 0.822977
O O3 0.312349 0.209882 0.870482
O O4 0.101631 0.261885 0.985498
O O5 0.646075 0.359229 0.996632
O O6 0.999729 0.514848 0.402497
O O7 0.117400 0.334639 0.313947
O O8 0.823384 0.503979 0.914912
O O9 0.253069 0.634935 0.877605
O O10 0.453528 0.416622 0.415598
O O11 0.540000 0.670795 0.508129
O O12 0.803818 0.536920 0.554189
#
# Coordination Sequence:
#
# PCOD9119404 Si02
#       6
#     2   2   2   2   2   2
#     4  11  26  47  76 114 153 208 266 336 396 480
#     4  11  26  47  75 115 152 216 263 332 398 492
#     4  11  26  48  79 110 159 207 274 322 411 477
#     4  12  28  51  77 120 164 210 277 334 414 483
#     4  12  27  48  80 118 160 216 271 342 402 495
#     4  11  25  51  75 111 162 209 267 336 405 485
#
# _framework density 27.090071999999999
#
# number of rings (size 3 to 8) (size 9 to 14) (size 15 to 20)
#    0.000    0.667    3.333    3.000    7.000    6.667 
#    0.000    0.000    0.000    0.000    0.000    0.000 
#    0.000    0.000    0.000    0.000    0.000    0.000 
#
# Total GULP energy -67203.906949 kJ/mol
# GULP energy per Si atom -5600.325579 kJ/mol
# Density = 2.702841 g / cm^3
# Si number density = 27.090072 Si / 1000 Ang^3
#
#
#
# Elastic Constant Matrix: (Units=GPa)
#
#
# Indices 1 2 3 4 5 6 
#
# 1 129.7724 27.4340 38.0370 0.0000 -3.9565 0.0000
# 2 27.4340 182.0012 26.4126 0.0000 9.3605 0.0000
# 3 38.0370 26.4126 99.0401 0.0000 -29.1327 0.0000
# 4 0.0000 0.0000 0.0000 20.1554 0.0000 16.2927
# 5 -3.9565 9.3605 -29.1327 0.0000 44.3690 0.0000
# 6 0.0000 0.0000 0.0000 16.2927 0.0000 38.7342
#
#
#
# Elastic Compliance Matrix: (Units=1/GPa)
#
#
# Indices 1 2 3 4 5 6 
#
# 1 0.008884 -0.000737 -0.003640 0.000000 -0.001442 0.000000
# 2 -0.000737 0.006058 -0.002141 0.000000 -0.002750 0.000000
# 3 -0.003640 -0.002141 0.015000 0.000000 0.009976 0.000000
# 4 0.000000 0.000000 0.000000 0.075175 0.000000 -0.031621
# 5 -0.001442 -0.002750 0.009976 0.000000 0.029540 0.000000
# 6 0.000000 0.000000 0.000000 -0.031621 0.000000 0.039117
#
#
# Mechanical properties :
#
#
# Convention : Reuss Voigt Hill
#
# Bulk Modulus (GPa) = 59.14853 66.06454 62.60653
# Shear Modulus (GPa) = 25.98115 41.91374 33.94745
#
# Velocity S-wave (km/s) = 3.10024 3.93771 3.54380
# Velocity P-wave (km/s) = 5.89039 6.71670 6.31707
#
# Compressibility (1/GPa) = 0.01690659
#
# Stress axis : x y z
#
# Youngs Moduli (GPa) = 112.55612 165.07889 66.66450
#
# Poissons Ratio (x) = 0.12163 0.24265
# Poissons Ratio (y) = 0.08293 0.14275
# Poissons Ratio (z) = 0.40969 0.35349
#
# Static dielectric constant tensor:
#      x y z
#    x 2.097350 0.000000 -0.058510 
#    y 0.000000 2.185870 0.000000 
#    z -0.058510 0.000000 2.128900 
# 
# From -- ./inp_files/6495.got.cif
#   From: 2010.05.17/outbox.cif.g08.bks.cpg/sg4_4_cif.got.tgz:6495.got - 2010.06.03 18:43:04.
