data_PCOD9119729
_publ_section_title
;
Structure prediction by ZEFSAII (Michael W. Deem and Ramdas Pophale) SiO2 
 PCOD9119729
Probable space group: P 21
;
_chemical_formula_sum "Si O2"
_cell_formula_units_Z 12
_cell_length_a 9.533555
_cell_length_b 5.375549
_cell_length_c 16.678883
_cell_angle_alpha 90.000000
_cell_angle_beta 34.851773
_cell_angle_gamma 90.000000
_cell_volume 488.457692
_symmetry_space_group_name_H-M "P 21"
_symmetry_group_IT_number 4
_symmetry_cell_setting 'monoclinic'
loop_
_space_group_symop_operation_xyz
x,y,z
-x,1/2+y,-z
loop_
_atom_site_type_symbol
_atom_site_label
_atom_site_fract_x
_atom_site_fract_y
_atom_site_fract_z
Si Si1 0.340180 0.089470 0.874261
Si Si2 0.347120 0.981611 0.331721
Si Si3 0.651093 0.042274 0.425117
Si Si4 0.184568 0.741180 0.821194
Si Si5 0.554388 0.881619 0.925223
Si Si6 0.006830 0.766528 0.619319
O O1 0.593560 0.240809 0.749504
O O2 0.281703 0.002100 0.810910
O O3 0.391539 0.888065 0.920270
O O4 0.094728 0.220674 0.020573
O O5 0.205676 0.930470 0.480150
O O6 0.620714 0.069240 0.223294
O O7 0.177702 0.164021 0.361029
O O8 0.453846 0.264237 0.536086
O O9 0.782349 0.155409 0.284958
O O10 0.842550 0.047363 0.408330
O O11 0.837916 0.893767 0.765171
O O12 0.511785 0.624001 0.991849
#
# Coordination Sequence:
#
# PCOD9119729 Si02
#       6
#     2   2   2   2   2   2
#     4  12  26  49  79 111 155 205 270 316 391 468
#     4  12  26  50  76 116 151 209 257 324 388 466
#     4  12  29  50  75 114 158 203 259 322 393 467
#     4  12  26  48  78 109 157 208 256 322 386 469
#     4  12  28  50  77 116 158 205 261 324 395 464
#     4  12  27  49  81 112 159 202 265 326 393 466
#
# _framework density 24.567122999999999
#
# number of rings (size 3 to 8) (size 9 to 14) (size 15 to 20)
#    0.000    0.000    5.000    4.000    2.333    5.333 
#    0.000    0.000    0.000    0.000    0.000    0.000 
#    0.000    0.000    0.000    0.000    0.000    0.000 
#
# Total GULP energy -67128.412468 kJ/mol
# GULP energy per Si atom -5594.034372 kJ/mol
# Density = 2.451121 g / cm^3
# Si number density = 24.567123 Si / 1000 Ang^3
#
#
#
# Elastic Constant Matrix: (Units=GPa)
#
#
# Indices 1 2 3 4 5 6 
#
# 1 82.5089 -3.1013 -1.4196 0.0000 -3.6171 0.0000
# 2 -3.1013 71.7771 34.1254 0.0000 -4.3249 0.0000
# 3 -1.4196 34.1254 156.0005 0.0000 -3.4591 0.0000
# 4 0.0000 0.0000 0.0000 30.1176 0.0000 9.3969
# 5 -3.6171 -4.3249 -3.4591 0.0000 37.0831 0.0000
# 6 0.0000 0.0000 0.0000 9.3969 0.0000 20.9430
#
#
#
# Elastic Compliance Matrix: (Units=1/GPa)
#
#
# Indices 1 2 3 4 5 6 
#
# 1 0.012198 0.000599 0.000008 0.000000 0.001260 0.000000
# 2 0.000599 0.015662 -0.003386 0.000000 0.001569 0.000000
# 3 0.000008 -0.003386 0.007157 0.000000 0.000273 0.000000
# 4 0.000000 0.000000 0.000000 0.038608 0.000000 -0.017323
# 5 0.001260 0.001569 0.000273 0.000000 0.027298 0.000000
# 6 0.000000 0.000000 0.000000 -0.017323 0.000000 0.055521
#
#
# Mechanical properties :
#
#
# Convention : Reuss Voigt Hill
#
# Bulk Modulus (GPa) = 33.94488 41.05507 37.49997
# Shear Modulus (GPa) = 29.09993 36.34088 32.72040
#
# Velocity S-wave (km/s) = 3.44540 3.85027 3.65345
# Velocity P-wave (km/s) = 5.44747 6.04266 5.75277
#
# Compressibility (1/GPa) = 0.02945952
#
# Stress axis : x y z
#
# Youngs Moduli (GPa) = 81.98187 63.84776 139.72243
#
# Poissons Ratio (x) = -0.03826 -0.00110
# Poissons Ratio (y) = -0.04913 0.47309
# Poissons Ratio (z) = -0.00064 0.21618
#
# Static dielectric constant tensor:
#      x y z
#    x 1.972780 0.000000 -0.011070 
#    y 0.000000 2.133520 0.000000 
#    z -0.011070 0.000000 1.925800 
# 
# From -- ./inp_files/5150.got.cif
#   From: 2010.05.17/outbox.cif.g08.bks.cpg/sg4_3_cif.got.tgz:5150.got - 2010.06.03 18:43:04.
