data_PCOD9119046
_publ_section_title
;
Structure prediction by ZEFSAII (Michael W. Deem and Ramdas Pophale) SiO2 
 PCOD9119046
Probable space group: P 21
;
_chemical_formula_sum "Si O2"
_cell_formula_units_Z 16
_cell_length_a 12.515136
_cell_length_b 5.626175
_cell_length_c 22.580711
_cell_angle_alpha 90.000000
_cell_angle_beta 157.504832
_cell_angle_gamma 90.000000
_cell_volume 608.327780
_symmetry_space_group_name_H-M "P 21"
_symmetry_group_IT_number 4
_symmetry_cell_setting 'monoclinic'
loop_
_space_group_symop_operation_xyz
x,y,z
-x,1/2+y,-z
loop_
_atom_site_type_symbol
_atom_site_label
_atom_site_fract_x
_atom_site_fract_y
_atom_site_fract_z
Si Si1 0.440545 0.373960 0.937049
Si Si2 0.039535 0.946541 0.136744
Si Si3 0.974004 0.490505 0.409974
Si Si4 0.586694 0.216899 0.281180
Si Si5 0.068536 0.701942 0.272402
Si Si6 0.368004 0.324238 0.378953
Si Si7 0.516189 0.639816 0.344331
Si Si8 0.559437 0.306258 0.868022
O O1 0.588409 0.391765 0.950035
O O2 0.114302 0.300553 0.768241
O O3 0.458702 0.630381 0.978153
O O4 0.262376 0.121669 0.281393
O O5 0.952260 0.804876 0.151354
O O6 0.225778 0.785231 0.189037
O O7 0.788682 0.094647 0.979440
O O8 0.721898 0.310416 0.290264
O O9 0.765343 0.718538 0.295580
O O10 0.155602 0.579643 0.557719
O O11 0.223604 0.322503 0.511648
O O12 0.535091 0.438612 0.301012
O O13 0.386370 0.009261 0.153683
O O14 0.106323 0.421169 0.282832
O O15 0.383882 0.770479 0.449599
O O16 0.476388 0.511837 0.386517
#
# Coordination Sequence:
#
# PCOD9119046 Si02
#       8
#     2   2   2   2   2   2   2   2
#     4  12  29  50  77 127 176 216 285 342 434 516
#     4  11  25  51  73 119 168 220 277 342 430 496
#     4  12  24  48  80 116 154 211 279 344 419 505
#     4  12  24  49  80 120 155 215 283 352 418 508
#     4  11  24  42  73 117 166 221 273 334 407 519
#     4  11  24  44  78 110 165 218 275 341 412 493
#     4  11  26  45  82 115 161 214 290 345 414 508
#     4  12  28  47  87 116 175 221 272 362 428 505
#
# _framework density 26.301608000000002
#
# number of rings (size 3 to 8) (size 9 to 14) (size 15 to 20)
#    0.000    0.500    5.000    1.500    7.000    2.000 
#    0.000    0.000   27.500    0.000    0.000    0.000 
#    0.000    0.000    0.000    0.000    0.000    0.000 
#
# Total GULP energy -89135.105393 kJ/mol
# GULP energy per Si atom -5570.944087 kJ/mol
# Density = 2.624174 g / cm^3
# Si number density = 26.301608 Si / 1000 Ang^3
#
#
#
# Elastic Constant Matrix: (Units=GPa)
#
#
# Indices 1 2 3 4 5 6 
#
# 1 93.8250 51.8948 29.5795 0.0000 8.7134 0.0000
# 2 51.8948 130.1163 60.9082 0.0000 15.5879 0.0000
# 3 29.5795 60.9082 125.5832 0.0000 5.3277 0.0000
# 4 0.0000 0.0000 0.0000 50.1958 0.0000 15.5217
# 5 8.7134 15.5879 5.3277 0.0000 22.6407 0.0000
# 6 0.0000 0.0000 0.0000 15.5217 0.0000 38.5390
#
#
#
# Elastic Compliance Matrix: (Units=1/GPa)
#
#
# Indices 1 2 3 4 5 6 
#
# 1 0.013791 -0.004925 -0.000786 0.000000 -0.001732 0.000000
# 2 -0.004925 0.012508 -0.004668 0.000000 -0.005618 0.000000
# 3 -0.000786 -0.004668 0.010366 0.000000 0.001077 0.000000
# 4 0.000000 0.000000 0.000000 0.022756 0.000000 -0.009165
# 5 -0.001732 -0.005618 0.001077 0.000000 0.048449 0.000000
# 6 0.000000 0.000000 0.000000 -0.009165 0.000000 0.029639
#
#
# Mechanical properties :
#
#
# Convention : Reuss Voigt Hill
#
# Bulk Modulus (GPa) = 62.86605 70.47663 66.67134
# Shear Modulus (GPa) = 30.56818 36.08458 33.32638
#
# Velocity S-wave (km/s) = 3.41283 3.70801 3.56348
# Velocity P-wave (km/s) = 6.28361 6.72206 6.50653
#
# Compressibility (1/GPa) = 0.01590684
#
# Stress axis : x y z
#
# Youngs Moduli (GPa) = 72.51268 79.95097 96.46611
#
# Poissons Ratio (x) = 0.39373 0.07585
# Poissons Ratio (y) = 0.35710 0.45030
# Poissons Ratio (z) = 0.05701 0.37321
#
# Static dielectric constant tensor:
#      x y z
#    x 2.166420 0.000000 0.109420 
#    y 0.000000 2.321160 0.000000 
#    z 0.109420 0.000000 2.102210 
# 
# From -- ./inp_files/16418.got.cif
#   From: 2010.05.17/outbox.cif.g08.bks.cpg/sg4_9_cif.got.tgz:16418.got - 2010.06.03 18:43:04.
