data_PCOD9119774
_publ_section_title
;
Structure prediction by ZEFSAII (Michael W. Deem and Ramdas Pophale) SiO2 
 PCOD9119774
Probable space group: P 21
;
_chemical_formula_sum "Si O2"
_cell_formula_units_Z 16
_cell_length_a 11.781084
_cell_length_b 5.438069
_cell_length_c 14.652450
_cell_angle_alpha 90.000000
_cell_angle_beta 139.255745
_cell_angle_gamma 90.000000
_cell_volume 612.693172
_symmetry_space_group_name_H-M "P 21"
_symmetry_group_IT_number 4
_symmetry_cell_setting 'monoclinic'
loop_
_space_group_symop_operation_xyz
x,y,z
-x,1/2+y,-z
loop_
_atom_site_type_symbol
_atom_site_label
_atom_site_fract_x
_atom_site_fract_y
_atom_site_fract_z
Si Si1 0.370366 0.934550 0.635157
Si Si2 0.612732 0.472147 0.560173
Si Si3 0.051044 0.919981 0.714795
Si Si4 0.920346 0.186954 0.812785
Si Si5 0.337890 0.292568 0.860393
Si Si6 0.705743 0.154380 0.018348
Si Si7 0.787247 0.931831 0.394027
Si Si8 0.769542 0.919911 0.886073
O O1 0.320258 0.996104 0.501578
O O2 0.267350 0.701616 0.608000
O O3 0.335986 0.192373 0.664847
O O4 0.569686 0.842383 0.759096
O O5 0.507055 0.723849 0.512596
O O6 0.776127 0.404232 0.723090
O O7 0.234812 0.039451 0.798721
O O8 0.952538 0.097110 0.728497
O O9 0.114582 0.707914 0.820848
O O10 0.947347 0.875277 0.558902
O O11 0.838151 0.979485 0.827968
O O12 0.095757 0.262962 0.972316
O O13 0.344407 0.391495 0.967652
O O14 0.213460 0.445414 0.715837
O O15 0.533158 0.303263 0.940828
O O16 0.746970 0.161489 0.937007
#
# Coordination Sequence:
#
# PCOD9119774 Si02
#       8
#     2   2   2   2   2   2   2   2
#     4  12  28  52  78 116 158 210 263 323 389 474
#     4  12  27  50  80 111 159 212 262 320 389 468
#     4  12  29  50  78 114 156 204 266 330 393 471
#     4  12  28  49  77 119 154 208 262 328 396 468
#     4  12  28  50  78 114 153 212 264 324 397 470
#     4  12  27  50  78 110 156 208 264 323 400 469
#     4  12  31  49  84 115 160 206 268 327 397 463
#     4  12  28  48  79 115 160 204 267 325 395 473
#
# _framework density 26.114211999999998
#
# number of rings (size 3 to 8) (size 9 to 14) (size 15 to 20)
#    0.000    0.000    6.250    1.500   12.250    0.000 
#    0.000    0.000    0.000    0.000    0.000    0.000 
#    0.000    0.000    0.000    0.000    0.000    0.000 
#
# Total GULP energy -89459.765528 kJ/mol
# GULP energy per Si atom -5591.235346 kJ/mol
# Density = 2.605477 g / cm^3
# Si number density = 26.114212 Si / 1000 Ang^3
#
#
#
# Elastic Constant Matrix: (Units=GPa)
#
#
# Indices 1 2 3 4 5 6 
#
# 1 76.1278 13.9024 23.5681 0.0000 -12.9754 0.0000
# 2 13.9024 80.1976 -0.1959 0.0000 7.8855 0.0000
# 3 23.5681 -0.1959 154.0696 0.0000 4.6527 0.0000
# 4 0.0000 0.0000 0.0000 32.0359 0.0000 5.2530
# 5 -12.9754 7.8855 4.6527 0.0000 43.5168 0.0000
# 6 0.0000 0.0000 0.0000 5.2530 0.0000 33.1560
#
#
#
# Elastic Compliance Matrix: (Units=1/GPa)
#
#
# Indices 1 2 3 4 5 6 
#
# 1 0.015437 -0.003219 -0.002530 0.000000 0.005457 0.000000
# 2 -0.003219 0.013368 0.000613 0.000000 -0.003448 0.000000
# 3 -0.002530 0.000613 0.006927 0.000000 -0.001606 0.000000
# 4 0.000000 0.000000 0.000000 0.032047 0.000000 -0.005077
# 5 0.005457 -0.003448 -0.001606 0.000000 0.025403 0.000000
# 6 0.000000 0.000000 0.000000 -0.005077 0.000000 0.030965
#
#
# Mechanical properties :
#
#
# Convention : Reuss Voigt Hill
#
# Bulk Modulus (GPa) = 39.27653 42.77158 41.02406
# Shear Modulus (GPa) = 34.98829 39.94979 37.46904
#
# Velocity S-wave (km/s) = 3.66432 3.91552 3.79200
# Velocity P-wave (km/s) = 5.74247 6.07091 5.90897
#
# Compressibility (1/GPa) = 0.02546049
#
# Stress axis : x y z
#
# Youngs Moduli (GPa) = 64.77943 74.80736 144.36437
#
# Poissons Ratio (x) = 0.24079 0.36528
# Poissons Ratio (y) = 0.20851 -0.08857
# Poissons Ratio (z) = 0.16391 -0.04589
#
# Static dielectric constant tensor:
#      x y z
#    x 2.081360 0.000000 -0.014670 
#    y 0.000000 2.211100 0.000000 
#    z -0.014670 0.000000 2.092760 
# 
# From -- ./inp_files/7298.got.cif
#   From: 2010.05.17/outbox.cif.g08.bks.cpg/sg4_4_cif.got.tgz:7298.got - 2010.06.03 18:43:04.
