data_PCOD9119200
_publ_section_title
;
Structure prediction by ZEFSAII (Michael W. Deem and Ramdas Pophale) SiO2 
 PCOD9119200
Probable space group: P 21
;
_chemical_formula_sum "Si O2"
_cell_formula_units_Z 14
_cell_length_a 5.531064
_cell_length_b 11.103573
_cell_length_c 9.796961
_cell_angle_alpha 90.000000
_cell_angle_beta 104.009901
_cell_angle_gamma 90.000000
_cell_volume 583.778660
_symmetry_space_group_name_H-M "P 21"
_symmetry_group_IT_number 4
_symmetry_cell_setting 'monoclinic'
loop_
_space_group_symop_operation_xyz
x,y,z
-x,1/2+y,-z
loop_
_atom_site_type_symbol
_atom_site_label
_atom_site_fract_x
_atom_site_fract_y
_atom_site_fract_z
Si Si1 0.960691 0.133350 0.492700
Si Si2 0.073616 0.798105 0.935313
Si Si3 0.757508 0.631239 0.726285
Si Si4 0.820651 0.522208 0.225110
Si Si5 0.412508 0.427702 0.657744
Si Si6 0.353353 0.262840 0.902930
Si Si7 0.593861 0.336991 0.391943
O O1 0.848412 0.265528 0.458586
O O2 0.203333 0.125514 0.431562
O O3 0.994729 0.098093 0.653491
O O4 0.785172 0.032118 0.401378
O O5 0.999853 0.679383 0.836719
O O6 0.044889 0.918682 0.841757
O O7 0.365249 0.790920 0.011721
O O8 0.874433 0.801701 0.030724
O O9 0.647277 0.502865 0.751135
O O10 0.566112 0.741446 0.716298
O O11 0.674730 0.618962 0.116159
O O12 0.644272 0.452101 0.306850
O O13 0.325221 0.329413 0.753645
O O14 0.478248 0.369886 0.521390
#
# Coordination Sequence:
#
# PCOD9119200 Si02
#       7
#     2   2   2   2   2   2   2
#     4  11  25  45  81 113 150 194 258 339 414 453
#     4  12  30  54  76 113 160 218 271 315 389 481
#     4  11  24  48  76 108 153 199 258 327 399 465
#     4  12  27  51  83 113 159 205 267 336 402 474
#     4  11  27  45  77 113 156 199 260 325 399 475
#     4  12  33  52  79 115 161 219 270 316 392 485
#     4  11  24  47  74 119 147 192 254 338 405 465
#
# _framework density 23.981694000000001
#
# number of rings (size 3 to 8) (size 9 to 14) (size 15 to 20)
#    0.000    0.571    2.857    2.571   12.000    2.286 
#    0.000    0.000    0.000    0.000    0.000    0.000 
#    0.000    0.000    0.000    0.000    0.000    0.000 
#
# Total GULP energy -78414.370102 kJ/mol
# GULP energy per Si atom -5601.026436 kJ/mol
# Density = 2.392711 g / cm^3
# Si number density = 23.981694 Si / 1000 Ang^3
#
#
#
# Elastic Constant Matrix: (Units=GPa)
#
#
# Indices 1 2 3 4 5 6 
#
# 1 96.4736 30.5377 43.2910 0.0000 -18.7583 0.0000
# 2 30.5377 92.3390 27.0554 0.0000 -22.8766 0.0000
# 3 43.2910 27.0554 85.4171 0.0000 -32.2540 0.0000
# 4 0.0000 0.0000 0.0000 49.0511 0.0000 -7.1712
# 5 -18.7583 -22.8766 -32.2540 0.0000 51.2865 0.0000
# 6 0.0000 0.0000 0.0000 -7.1712 0.0000 35.6960
#
#
#
# Elastic Compliance Matrix: (Units=1/GPa)
#
#
# Indices 1 2 3 4 5 6 
#
# 1 0.014054 -0.002830 -0.006245 0.000000 -0.000050 0.000000
# 2 -0.002830 0.013122 -0.001184 0.000000 0.004073 0.000000
# 3 -0.006245 -0.001184 0.018603 0.000000 0.008887 0.000000
# 4 0.000000 0.000000 0.000000 0.021004 0.000000 0.004220
# 5 -0.000050 0.004073 0.008887 0.000000 0.026886 0.000000
# 6 0.000000 0.000000 0.000000 0.004220 0.000000 0.028862
#
#
# Mechanical properties :
#
#
# Convention : Reuss Voigt Hill
#
# Bulk Modulus (GPa) = 39.58697 52.88867 46.23782
# Shear Modulus (GPa) = 33.00984 38.76309 35.88646
#
# Velocity S-wave (km/s) = 3.71409 4.02476 3.87254
# Velocity P-wave (km/s) = 5.91064 6.61059 6.27039
#
# Compressibility (1/GPa) = 0.02526084
#
# Stress axis : x y z
#
# Youngs Moduli (GPa) = 71.15300 76.20984 53.75401
#
# Poissons Ratio (x) = 0.21570 0.33570
# Poissons Ratio (y) = 0.20139 0.06362
# Poissons Ratio (z) = 0.44436 0.09020
#
# Static dielectric constant tensor:
#      x y z
#    x 1.982720 0.000000 0.045340 
#    y 0.000000 1.881790 0.000000 
#    z 0.045340 0.000000 1.938160 
# 
# From -- ./inp_files/1191.got.cif
#   From: 2010.05.17/outbox.cif.g08.bks.cpg/sg4_1_cif.got.tgz:1191.got - 2010.06.03 18:43:04.
