data_PCOD9119982
_publ_section_title
;
Structure prediction by ZEFSAII (Michael W. Deem and Ramdas Pophale) SiO2 
 PCOD9119982
Probable space group: C 2
;
_chemical_formula_sum "Si O2"
_cell_formula_units_Z 32
_cell_length_a 26.705394
_cell_length_b 7.162633
_cell_length_c 9.663208
_cell_angle_alpha 90.000000
_cell_angle_beta 45.699316
_cell_angle_gamma 90.000000
_cell_volume 1322.862073
_symmetry_space_group_name_H-M "C 2"
_symmetry_group_IT_number 5
_symmetry_cell_setting 'monoclinic'
loop_
_space_group_symop_operation_xyz
x,y,z
-x,y,-z
1/2+x,1/2+y,z
1/2-x,1/2+y,-z
loop_
_atom_site_type_symbol
_atom_site_label
_atom_site_fract_x
_atom_site_fract_y
_atom_site_fract_z
Si Si1 0.657476 0.471230 0.961677
Si Si2 0.426309 0.581286 0.610789
Si Si3 0.948314 0.512798 0.989486
Si Si4 0.175596 0.985336 0.387168
Si Si5 0.960765 0.658111 0.437974
Si Si6 0.190448 0.579614 0.236825
Si Si7 0.917004 0.903623 0.166663
Si Si8 0.673789 0.040071 0.949052
O O1 0.739657 0.513137 0.821542
O O2 0.624391 0.505160 0.876396
O O3 0.646910 0.251403 0.007803
O O4 0.612965 0.563573 0.168840
O O5 0.500000 0.677252 0.500000
O O6 0.365423 0.640208 0.622924
O O7 0.448303 0.379509 0.496869
O O8 0.914443 0.680905 0.143518
O O9 0.885038 0.425451 0.021392
O O10 0.000000 0.411116 0.000000
O O11 0.994857 0.615678 0.782762
O O12 0.191274 0.805857 0.257548
O O13 0.125906 0.940550 0.611453
O O14 0.253774 0.043218 0.274578
O O15 0.888105 0.550739 0.558594
O O16 0.000000 0.591668 0.500000
O O17 0.189253 0.505446 0.081283
O O18 0.000000 0.951339 0.000000
#
# Coordination Sequence:
#
# PCOD9119982 Si02
#       8
#     4   4   4   4   4   4   4   4
#     4  11  21  33  57  79 112 144 175 229 275 320
#     4  10  16  29  51  78  98 136 181 221 258 305
#     4  10  19  32  54  81 111 137 180 236 272 308
#     4  11  22  33  58  80 111 147 178 220 281 323
#     4  10  16  29  53  77 103 140 177 224 270 303
#     4  11  19  35  54  85 109 143 185 224 270 328
#     4  10  20  36  53  85 111 137 184 236 271 313
#     4  11  19  36  54  82 113 142 181 229 270 325
#
# _framework density 24.189975
#
# number of rings (size 3 to 8) (size 9 to 14) (size 15 to 20)
#    0.000    1.500    5.000    6.000    0.000    3.000 
#    0.000    0.000    0.000    4.500    0.000    0.875 
#    0.000    0.000    0.000    0.000    0.000    0.000 
#
# Total GULP energy -89270.285483 kJ/mol
# GULP energy per Si atom -5579.392843 kJ/mol
# Density = 2.413492 g / cm^3
# Si number density = 24.189975 Si / 1000 Ang^3
#
#
#
# Elastic Constant Matrix: (Units=GPa)
#
#
# Indices 1 2 3 4 5 6 
#
# 1 227.5844 2.9429 65.5671 0.0000 -11.8335 0.0000
# 2 2.9429 62.0068 -1.0986 0.0000 4.3782 0.0000
# 3 65.5671 -1.0986 148.5450 0.0000 0.5388 0.0000
# 4 0.0000 0.0000 0.0000 8.3741 0.0000 -1.4750
# 5 -11.8335 4.3782 0.5388 0.0000 54.4453 0.0000
# 6 0.0000 0.0000 0.0000 -1.4750 0.0000 10.6668
#
#
#
# Elastic Compliance Matrix: (Units=1/GPa)
#
#
# Indices 1 2 3 4 5 6 
#
# 1 0.005111 -0.000365 -0.002263 0.000000 0.001163 0.000000
# 2 -0.000365 0.016248 0.000286 0.000000 -0.001389 0.000000
# 3 -0.002263 0.000286 0.007735 0.000000 -0.000591 0.000000
# 4 0.000000 0.000000 0.000000 0.122397 0.000000 0.016925
# 5 0.001163 -0.001389 -0.000591 0.000000 0.018737 0.000000
# 6 0.000000 0.000000 0.000000 0.016925 0.000000 0.096089
#
#
# Mechanical properties :
#
#
# Convention : Reuss Voigt Hill
#
# Bulk Modulus (GPa) = 40.96530 63.66210 52.31370
# Shear Modulus (GPa) = 17.91236 39.41223 28.66229
#
# Velocity S-wave (km/s) = 2.72414 4.04081 3.44595
# Velocity P-wave (km/s) = 5.18326 6.93870 6.12420
#
# Compressibility (1/GPa) = 0.02441090
#
# Stress axis : x y z
#
# Youngs Moduli (GPa) = 195.65291 61.54715 129.28129
#
# Poissons Ratio (x) = 0.02245 0.29255
# Poissons Ratio (y) = 0.07137 -0.03700
# Poissons Ratio (z) = 0.44275 -0.01761
#
# Static dielectric constant tensor:
#      x y z
#    x 2.107570 0.000000 -0.041650 
#    y 0.000000 2.043560 0.000000 
#    z -0.041650 0.000000 1.883240 
# 
# From -- ./inp_files/30859.got.cif
#   From: 2010.05.17/outbox.cif.g08.bks.cpg/sg5_16_cif.got.tgz:30859.got - 2010.06.03 18:56:24.
