data_PCOD9119807
_publ_section_title
;
Structure prediction by ZEFSAII (Michael W. Deem and Ramdas Pophale) SiO2 
 PCOD9119807
Probable space group: P 21
;
_chemical_formula_sum "Si O2"
_cell_formula_units_Z 14
_cell_length_a 15.000000
_cell_length_b 9.000000
_cell_length_c 15.000000
_cell_angle_alpha 90.000000
_cell_angle_beta 20.000000
_cell_angle_gamma 90.000000
_cell_volume 692.590790
_symmetry_space_group_name_H-M "P 21"
_symmetry_group_IT_number 4
_symmetry_cell_setting 'monoclinic'
loop_
_space_group_symop_operation_xyz
x,y,z
-x,1/2+y,-z
loop_
_atom_site_type_symbol
_atom_site_label
_atom_site_fract_x
_atom_site_fract_y
_atom_site_fract_z
Si Si1 0.918812 0.040250 0.875278
Si Si2 0.254878 0.797886 0.280682
Si Si3 0.693409 0.870425 0.361343
Si Si4 0.232114 0.276365 0.501468
Si Si5 0.171292 0.686496 0.847452
Si Si6 0.711651 0.940460 0.730405
Si Si7 0.602444 0.457662 0.670281
O O1 0.965105 0.178349 0.762291
O O2 0.842141 0.111392 0.041356
O O3 0.197161 0.956006 0.601364
O O4 0.696725 0.921043 0.064343
O O5 0.275093 0.618086 0.264457
O O6 0.302762 0.867687 0.333859
O O7 0.967983 0.854727 0.524503
O O8 0.464328 0.869689 0.014889
O O9 0.729868 0.833420 0.432984
O O10 0.400853 0.808493 0.619795
O O11 0.760285 0.043706 0.279002
O O12 0.894618 0.774256 0.110519
O O13 0.275388 0.402317 0.387615
O O14 0.411506 0.137120 0.302370
#
# Coordination Sequence:
#
# PCOD9119807 Si02
#       7
#     2   2   2   2   2   2   2
#     4   9  19  36  65  86 119 167 209 246 316 374
#     4  12  26  43  65  97 126 172 210 266 319 380
#     4  11  23  41  67  94 132 169 215 261 324 379
#     4   9  22  39  65  89 127 168 210 260 319 371
#     4  11  21  42  63  99 125 171 213 260 318 388
#     4  12  26  43  65  95 131 164 216 264 319 382
#     4  10  19  38  66  86 122 167 213 251 311 380
#
# _framework density 20.213956
#
# number of rings (size 3 to 8) (size 9 to 14) (size 15 to 20)
#    0.857    0.571    1.429    4.286    4.000    0.000 
#    5.143    0.000    0.000    0.000    0.000    0.000 
#    0.000    0.000    0.000    0.000    0.000    0.000 
#
# Total GULP energy -77950.651501 kJ/mol
# GULP energy per Si atom -5567.903679 kJ/mol
# Density = 2.016795 g / cm^3
# Si number density = 20.213956 Si / 1000 Ang^3
#
#
#
# Elastic Constant Matrix: (Units=GPa)
#
#
# Indices 1 2 3 4 5 6 
#
# 1 37.7368 20.1797 18.3120 0.0000 13.7742 0.0000
# 2 20.1797 109.0216 26.5164 0.0000 13.0424 0.0000
# 3 18.3120 26.5164 152.3849 0.0000 4.5477 0.0000
# 4 0.0000 0.0000 0.0000 34.8322 0.0000 10.3047
# 5 13.7742 13.0424 4.5477 0.0000 24.7883 0.0000
# 6 0.0000 0.0000 0.0000 10.3047 0.0000 34.2759
#
#
#
# Elastic Compliance Matrix: (Units=1/GPa)
#
#
# Indices 1 2 3 4 5 6 
#
# 1 0.036584 -0.003877 -0.003193 0.000000 -0.017703 0.000000
# 2 -0.003877 0.010582 -0.001281 0.000000 -0.003178 0.000000
# 3 -0.003193 -0.001281 0.007135 0.000000 0.001139 0.000000
# 4 0.000000 0.000000 0.000000 0.031512 0.000000 -0.009474
# 5 -0.017703 -0.003178 0.001139 0.000000 0.051642 0.000000
# 6 0.000000 0.000000 0.000000 -0.009474 0.000000 0.032023
#
#
# Mechanical properties :
#
#
# Convention : Reuss Voigt Hill
#
# Bulk Modulus (GPa) = 26.59670 47.68441 37.14055
# Shear Modulus (GPa) = 25.16201 34.38829 29.77515
#
# Velocity S-wave (km/s) = 3.53198 4.12905 3.84213
# Velocity P-wave (km/s) = 5.46071 6.80978 6.17221
#
# Compressibility (1/GPa) = 0.03759865
#
# Stress axis : x y z
#
# Youngs Moduli (GPa) = 27.33442 94.50166 140.15606
#
# Poissons Ratio (x) = 0.36639 0.44756
# Poissons Ratio (y) = 0.10598 0.17948
# Poissons Ratio (z) = 0.08729 0.12102
#
# Static dielectric constant tensor:
#      x y z
#    x 1.815220 0.000000 -0.092180 
#    y 0.000000 1.723400 0.000000 
#    z -0.092180 0.000000 1.794480 
# 
# From -- ./inp_files/14147.got.cif
#   From: 2010.05.17/outbox.ucp.g08.bks.cvg/sg4_8_cif.got.tgz:14147.got - 2010.06.11 12:51:24.
