data_PCOD9119602
_publ_section_title
;
Structure prediction by ZEFSAII (Michael W. Deem and Ramdas Pophale) SiO2 
 PCOD9119602
Probable space group: P 21
;
_chemical_formula_sum "Si O2"
_cell_formula_units_Z 14
_cell_length_a 16.660214
_cell_length_b 7.782991
_cell_length_c 10.937452
_cell_angle_alpha 90.000000
_cell_angle_beta 154.952255
_cell_angle_gamma 90.000000
_cell_volume 600.436077
_symmetry_space_group_name_H-M "P 21"
_symmetry_group_IT_number 4
_symmetry_cell_setting 'monoclinic'
loop_
_space_group_symop_operation_xyz
x,y,z
-x,1/2+y,-z
loop_
_atom_site_type_symbol
_atom_site_label
_atom_site_fract_x
_atom_site_fract_y
_atom_site_fract_z
Si Si1 0.705571 0.421240 0.197007
Si Si2 0.428450 0.549755 0.027360
Si Si3 0.244499 0.176370 0.345130
Si Si4 0.737840 0.528905 0.974609
Si Si5 0.144377 0.403754 0.813612
Si Si6 0.902236 0.340708 0.997912
Si Si7 0.337374 0.520084 0.321859
O O1 0.563915 0.488618 0.104833
O O2 0.928106 0.466452 0.513549
O O3 0.684192 0.217028 0.170428
O O4 0.651114 0.480690 0.985538
O O5 0.571353 0.602793 0.333825
O O6 0.268914 0.424348 0.862782
O O7 0.288444 0.340668 0.320491
O O8 0.136066 0.018144 0.128669
O O9 0.105256 0.259066 0.253664
O O10 0.867623 0.385365 0.091855
O O11 0.561281 0.545287 0.638720
O O12 0.849973 0.704384 0.142824
O O13 0.255818 0.502420 0.073920
O O14 0.756147 0.192619 0.753190
#
# Coordination Sequence:
#
# PCOD9119602 Si02
#       7
#     2   2   2   2   2   2   2
#     4  12  28  49  76 109 155 205 256 313 384 459
#     4  12  27  50  75 109 156 200 261 317 380 457
#     4  12  25  47  73 116 151 195 253 318 377 455
#     4  12  25  48  74 109 149 206 251 316 388 450
#     4  12  27  49  77 111 152 202 259 317 383 453
#     4  12  26  43  76 113 154 195 253 322 381 454
#     4  12  24  48  75 109 153 191 255 315 381 450
#
# _framework density 23.316388
#
# number of rings (size 3 to 8) (size 9 to 14) (size 15 to 20)
#    0.000    0.000    4.286    6.000    0.000    3.429 
#    2.571    0.000    0.000    0.000    0.000    0.000 
#    0.000    0.000    0.000    0.000    0.000    0.000 
#
# Total GULP energy -78391.170063 kJ/mol
# GULP energy per Si atom -5599.369290 kJ/mol
# Density = 2.326332 g / cm^3
# Si number density = 23.316388 Si / 1000 Ang^3
#
#
#
# Elastic Constant Matrix: (Units=GPa)
#
#
# Indices 1 2 3 4 5 6 
#
# 1 112.3020 28.5406 40.1655 0.0000 12.7447 0.0000
# 2 28.5406 119.4422 9.3143 0.0000 2.7310 0.0000
# 3 40.1655 9.3143 104.6451 0.0000 15.8613 0.0000
# 4 0.0000 0.0000 0.0000 31.6951 0.0000 7.3230
# 5 12.7447 2.7310 15.8613 0.0000 35.0830 0.0000
# 6 0.0000 0.0000 0.0000 7.3230 0.0000 46.3515
#
#
#
# Elastic Compliance Matrix: (Units=1/GPa)
#
#
# Indices 1 2 3 4 5 6 
#
# 1 0.011064 -0.002305 -0.003714 0.000000 -0.002161 0.000000
# 2 -0.002305 0.008915 0.000074 0.000000 0.000110 0.000000
# 3 -0.003714 0.000074 0.011564 0.000000 -0.003885 0.000000
# 4 0.000000 0.000000 0.000000 0.032746 0.000000 -0.005173
# 5 -0.002161 0.000110 -0.003885 0.000000 0.031036 0.000000
# 6 0.000000 0.000000 0.000000 -0.005173 0.000000 0.022392
#
#
# Mechanical properties :
#
#
# Convention : Reuss Voigt Hill
#
# Bulk Modulus (GPa) = 50.88018 54.71445 52.79731
# Shear Modulus (GPa) = 36.72264 39.85052 38.28658
#
# Velocity S-wave (km/s) = 3.97290 4.13864 4.05661
# Velocity P-wave (km/s) = 6.55089 6.80843 6.68091
#
# Compressibility (1/GPa) = 0.01965402
#
# Stress axis : x y z
#
# Youngs Moduli (GPa) = 90.38497 112.17518 86.47685
#
# Poissons Ratio (x) = 0.25853 0.32117
# Poissons Ratio (y) = 0.20831 -0.00644
# Poissons Ratio (z) = 0.33568 -0.00836
#
# Static dielectric constant tensor:
#      x y z
#    x 1.920930 0.000000 0.007030 
#    y 0.000000 1.856680 0.000000 
#    z 0.007030 0.000000 1.875540 
# 
# From -- ./inp_files/12931.got.cif
#   From: 2010.05.17/outbox.cif.g08.bks.cpg/sg4_7_cif.got.tgz:12931.got - 2010.06.03 18:43:04.
