data_PCOD9119144
_publ_section_title
;
Structure prediction by ZEFSAII (Michael W. Deem and Ramdas Pophale) SiO2 
 PCOD9119144
Probable space group: P 21
;
_chemical_formula_sum "Si O2"
_cell_formula_units_Z 16
_cell_length_a 10.552611
_cell_length_b 8.200258
_cell_length_c 13.542128
_cell_angle_alpha 90.000000
_cell_angle_beta 32.573979
_cell_angle_gamma 90.000000
_cell_volume 630.913521
_symmetry_space_group_name_H-M "P 21"
_symmetry_group_IT_number 4
_symmetry_cell_setting 'monoclinic'
loop_
_space_group_symop_operation_xyz
x,y,z
-x,1/2+y,-z
loop_
_atom_site_type_symbol
_atom_site_label
_atom_site_fract_x
_atom_site_fract_y
_atom_site_fract_z
Si Si1 0.872410 0.419440 0.633886
Si Si2 0.329662 0.420593 0.996002
Si Si3 0.872994 0.780996 0.694231
Si Si4 0.288114 0.215366 0.851767
Si Si5 0.594120 0.393381 0.117474
Si Si6 0.953029 0.226386 0.758685
Si Si7 0.614830 0.567190 0.411983
Si Si8 0.734011 0.224905 0.226051
O O1 0.936860 0.599491 0.623079
O O2 0.004689 0.288921 0.615403
O O3 0.924609 0.392315 0.485094
O O4 0.601632 0.395506 0.837362
O O5 0.169949 0.295474 0.162009
O O6 0.249391 0.590420 0.095193
O O7 0.301866 0.388006 0.898506
O O8 0.634093 0.843902 0.796495
O O9 0.408254 0.184187 0.668467
O O10 0.409125 0.078646 0.842088
O O11 0.007669 0.186119 0.027079
O O12 0.618957 0.274662 0.196334
O O13 0.834745 0.373070 0.897304
O O14 0.176604 0.146606 0.661693
O O15 0.690957 0.390998 0.319441
O O16 0.388307 0.582330 0.630485
#
# Coordination Sequence:
#
# PCOD9119144 Si02
#       8
#     2   2   2   2   2   2   2   2
#     4  12  26  45  73 102 140 188 230 292 351 420
#     4  12  25  46  71 101 140 183 234 287 352 418
#     4  12  27  47  69 106 141 183 238 290 350 418
#     4  11  26  45  71 103 139 187 235 285 352 417
#     4  11  24  45  74  98 140 187 231 291 348 415
#     4  12  23  46  74  99 140 185 231 292 352 412
#     4  11  26  46  69 105 140 184 232 293 344 418
#     4  11  25  46  71 104 142 183 233 284 355 416
#
# _framework density 25.360052
#
# number of rings (size 3 to 8) (size 9 to 14) (size 15 to 20)
#    0.000    0.500    5.000    2.250    5.250    2.000 
#    4.500    0.000    0.000    0.000    0.000    0.000 
#    0.000    0.000    0.000    0.000    0.000    0.000 
#
# Total GULP energy -89656.760432 kJ/mol
# GULP energy per Si atom -5603.547527 kJ/mol
# Density = 2.530233 g / cm^3
# Si number density = 25.360052 Si / 1000 Ang^3
#
#
#
# Elastic Constant Matrix: (Units=GPa)
#
#
# Indices 1 2 3 4 5 6 
#
# 1 70.4108 2.9949 -1.0132 0.0000 8.6619 0.0000
# 2 2.9949 85.1072 0.4031 0.0000 8.4226 0.0000
# 3 -1.0132 0.4031 82.5703 0.0000 25.4830 0.0000
# 4 0.0000 0.0000 0.0000 36.7503 0.0000 14.8841
# 5 8.6619 8.4226 25.4830 0.0000 31.1725 0.0000
# 6 0.0000 0.0000 0.0000 14.8841 0.0000 23.9512
#
#
#
# Elastic Compliance Matrix: (Units=1/GPa)
#
#
# Indices 1 2 3 4 5 6 
#
# 1 0.014938 0.000036 0.001962 0.000000 -0.005765 0.000000
# 2 0.000036 0.012173 0.001283 0.000000 -0.004348 0.000000
# 3 0.001962 0.001283 0.016589 0.000000 -0.014453 0.000000
# 4 0.000000 0.000000 0.000000 0.036363 0.000000 -0.022597
# 5 -0.005765 -0.004348 -0.014453 0.000000 0.046671 0.000000
# 6 0.000000 0.000000 0.000000 -0.022597 0.000000 0.055794
#
#
# Mechanical properties :
#
#
# Convention : Reuss Voigt Hill
#
# Bulk Modulus (GPa) = 19.89599 26.98418 23.44009
# Shear Modulus (GPa) = 25.94417 34.08837 30.01627
#
# Velocity S-wave (km/s) = 3.20196 3.67028 3.44409
# Velocity P-wave (km/s) = 4.64031 5.35021 5.00786
#
# Compressibility (1/GPa) = 0.05026138
#
# Stress axis : x y z
#
# Youngs Moduli (GPa) = 66.94224 82.15034 60.27967
#
# Poissons Ratio (x) = -0.00292 -0.11828
# Poissons Ratio (y) = -0.00238 -0.07732
# Poissons Ratio (z) = -0.13135 -0.10538
#
# Static dielectric constant tensor:
#      x y z
#    x 1.986280 0.000000 0.008540 
#    y 0.000000 2.057200 0.000000 
#    z 0.008540 0.000000 1.960230 
# 
# From -- ./inp_files/12549.got.cif
#   From: 2010.05.17/outbox.cif.g08.bks.cpg/sg4_7_cif.got.tgz:12549.got - 2010.06.03 18:43:04.
