data_PCOD9119969
_publ_section_title
;
Structure prediction by ZEFSAII (Michael W. Deem and Ramdas Pophale) SiO2 
 PCOD9119969
Probable space group: C 2
;
_chemical_formula_sum "Si O2"
_cell_formula_units_Z 32
_cell_length_a 33.665530
_cell_length_b 5.343338
_cell_length_c 12.609156
_cell_angle_alpha 90.000000
_cell_angle_beta 111.083884
_cell_angle_gamma 90.000000
_cell_volume 2116.368321
_symmetry_space_group_name_H-M "C 2"
_symmetry_group_IT_number 5
_symmetry_cell_setting 'monoclinic'
loop_
_space_group_symop_operation_xyz
x,y,z
-x,y,-z
1/2+x,1/2+y,z
1/2-x,1/2+y,-z
loop_
_atom_site_type_symbol
_atom_site_label
_atom_site_fract_x
_atom_site_fract_y
_atom_site_fract_z
Si Si1 0.281272 0.317170 0.150311
Si Si2 0.979859 0.782232 0.861402
Si Si3 0.807633 0.317156 0.059243
Si Si4 0.204463 0.815324 0.370521
Si Si5 0.755009 0.815350 0.362592
Si Si6 0.983652 0.282283 0.107104
Si Si7 0.384425 0.827147 0.971192
Si Si8 0.382420 0.327122 0.828473
O O1 0.302851 0.566430 0.124188
O O2 0.279306 0.317878 0.274932
O O3 0.302676 0.066711 0.124720
O O4 0.232536 0.317401 0.060292
O O5 0.929692 0.818938 0.825169
O O6 0.992605 0.520532 0.822013
O O7 0.001991 0.020562 0.830135
O O8 0.000000 0.765738 0.000000
O O9 0.850630 0.319191 0.033163
O O10 0.214421 0.816174 0.505339
O O11 0.226002 0.564177 0.344125
O O12 0.155155 0.819017 0.292915
O O13 0.226770 0.063432 0.344073
O O14 0.933293 0.319260 0.056766
O O15 0.000000 0.265756 0.000000
O O16 0.378295 0.581929 0.892143
O O17 0.378347 0.082698 0.899187
#
# Coordination Sequence:
#
# PCOD9119969 Si02
#       8
#     4   4   4   4   4   4   4   4
#     4  10  19  35  47  61  94 122 150 196 238 260
#     4  10  16  28  40  62  92 132 145 168 230 285
#     4  10  21  30  46  70  86 119 166 187 219 283
#     4  10  21  32  50  76  88 119 167 190 228 292
#     4  10  20  37  51  64  97 124 152 200 245 265
#     4  10  16  29  41  61  92 133 146 170 234 283
#     4  12  20  29  46  68 100 127 155 192 221 277
#     4  12  19  28  47  68  99 126 153 189 223 281
#
# _framework density 15.120243
#
# number of rings (size 3 to 8) (size 9 to 14) (size 15 to 20)
#    0.000    1.500    5.000    3.750    0.000    2.000 
#    0.000    0.000    0.000    0.000    0.000    0.000 
#    0.000    6.000    0.000    0.000    0.000    0.000 
#
# Total GULP energy -89237.817755 kJ/mol
# GULP energy per Si atom -5577.363610 kJ/mol
# Density = 1.508583 g / cm^3
# Si number density = 15.120243 Si / 1000 Ang^3
#
#
#
# Elastic Constant Matrix: (Units=GPa)
#
#
# Indices 1 2 3 4 5 6 
#
# 1 85.8850 3.7920 28.4627 0.0000 6.5979 0.0000
# 2 3.7920 107.1806 12.4458 0.0000 -7.1567 0.0000
# 3 28.4627 12.4458 38.4126 0.0000 3.6062 0.0000
# 4 0.0000 0.0000 0.0000 5.2859 0.0000 -2.0433
# 5 6.5979 -7.1567 3.6062 0.0000 19.5765 0.0000
# 6 0.0000 0.0000 0.0000 -2.0433 0.0000 15.1345
#
#
#
# Elastic Compliance Matrix: (Units=1/GPa)
#
#
# Indices 1 2 3 4 5 6 
#
# 1 0.015661 0.000587 -0.011518 0.000000 -0.002942 0.000000
# 2 0.000587 0.010068 -0.004095 0.000000 0.004237 0.000000
# 3 -0.011518 -0.004095 0.036298 0.000000 -0.004302 0.000000
# 4 0.000000 0.000000 0.000000 0.199601 0.000000 0.026948
# 5 -0.002942 0.004237 -0.004302 0.000000 0.054415 0.000000
# 6 0.000000 0.000000 0.000000 0.026948 0.000000 0.069713
#
#
# Mechanical properties :
#
#
# Convention : Reuss Voigt Hill
#
# Bulk Modulus (GPa) = 31.27446 35.65324 33.46385
# Shear Modulus (GPa) = 11.72430 20.45120 16.08775
#
# Velocity S-wave (km/s) = 2.78763 3.68172 3.26542
# Velocity P-wave (km/s) = 5.57583 6.45790 6.03301
#
# Compressibility (1/GPa) = 0.03197497
#
# Stress axis : x y z
#
# Youngs Moduli (GPa) = 63.85389 99.32785 27.54947
#
# Poissons Ratio (x) = -0.05831 0.31732
# Poissons Ratio (y) = -0.03748 0.11281
# Poissons Ratio (z) = 0.73548 0.40672
#
# Static dielectric constant tensor:
#      x y z
#    x 1.474300 0.000000 0.021170 
#    y 0.000000 1.569930 0.000000 
#    z 0.021170 0.000000 1.443510 
# 
# From -- ./inp_files/48165.got.cif
#   From: 2010.05.17/outbox.cif.g08.bks.cpg/sg5_25_cif.got.tgz:48165.got - 2010.06.03 18:56:24.
