data_PCOD9119460
_publ_section_title
;
Structure prediction by ZEFSAII (Michael W. Deem and Ramdas Pophale) SiO2 
 PCOD9119460
Probable space group: P 21
;
_chemical_formula_sum "Si O2"
_cell_formula_units_Z 14
_cell_length_a 6.825831
_cell_length_b 4.962475
_cell_length_c 18.091720
_cell_angle_alpha 90.000000
_cell_angle_beta 69.016033
_cell_angle_gamma 90.000000
_cell_volume 572.179231
_symmetry_space_group_name_H-M "P 21"
_symmetry_group_IT_number 4
_symmetry_cell_setting 'monoclinic'
loop_
_space_group_symop_operation_xyz
x,y,z
-x,1/2+y,-z
loop_
_atom_site_type_symbol
_atom_site_label
_atom_site_fract_x
_atom_site_fract_y
_atom_site_fract_z
Si Si1 0.142203 0.273820 0.669233
Si Si2 0.994244 0.206545 0.842582
Si Si3 0.538535 0.552281 0.677044
Si Si4 0.715509 0.210086 0.153164
Si Si5 0.029151 0.983853 0.444000
Si Si6 0.573020 0.410298 0.442159
Si Si7 0.539924 0.967579 0.949014
O O1 0.351241 0.351630 0.684072
O O2 0.975846 0.267984 0.757131
O O3 0.114226 0.486916 0.608528
O O4 0.197429 0.010569 0.614932
O O5 0.762696 0.109107 0.898446
O O6 0.119430 0.454286 0.867041
O O7 0.147870 0.950975 0.830528
O O8 0.482211 0.644653 0.766678
O O9 0.754223 0.416003 0.626453
O O10 0.524016 0.794866 0.619999
O O11 0.606549 0.325869 0.093693
O O12 0.965867 0.751686 0.509093
O O13 0.467245 0.682109 0.490268
O O14 0.414879 0.217573 0.002180
#
# Coordination Sequence:
#
# PCOD9119460 Si02
#       7
#     2   2   2   2   2   2   2
#     4  11  27  48  72 102 147 203 253 320 377 454
#     4  11  26  50  82 116 154 207 264 313 391 482
#     4  11  27  48  72 102 147 203 253 320 377 454
#     4  11  26  50  82 116 154 207 264 313 391 482
#     4  12  32  42  66 108 146 196 264 318 380 446
#     4  12  24  40  74 100 142 200 248 308 382 426
#     4  12  28  52  84 122 164 202 250 332 408 478
#
# _framework density 24.467853999999999
#
# number of rings (size 3 to 8) (size 9 to 14) (size 15 to 20)
#    0.000    0.571    2.857    2.571    8.000    9.143 
#    0.000    0.000    0.000    0.000    0.000    0.000 
#    0.000    0.000    0.000    0.000    0.000    0.000 
#
# Total GULP energy -78191.438886 kJ/mol
# GULP energy per Si atom -5585.102778 kJ/mol
# Density = 2.441216 g / cm^3
# Si number density = 24.467854 Si / 1000 Ang^3
#
#
#
# Elastic Constant Matrix: (Units=GPa)
#
#
# Indices 1 2 3 4 5 6 
#
# 1 58.3376 14.2912 38.6149 0.0000 -15.0546 0.0000
# 2 14.2912 167.8109 59.5235 0.0000 -6.2056 0.0000
# 3 38.6149 59.5235 134.7508 0.0000 -9.2293 0.0000
# 4 0.0000 0.0000 0.0000 31.8063 0.0000 -3.7861
# 5 -15.0546 -6.2056 -9.2293 0.0000 28.3052 0.0000
# 6 0.0000 0.0000 0.0000 -3.7861 0.0000 29.5603
#
#
#
# Elastic Compliance Matrix: (Units=1/GPa)
#
#
# Indices 1 2 3 4 5 6 
#
# 1 0.024033 0.000633 -0.006425 0.000000 0.010826 0.000000
# 2 0.000633 0.007091 -0.003257 0.000000 0.000829 0.000000
# 3 -0.006425 -0.003257 0.010656 0.000000 -0.000657 0.000000
# 4 0.000000 0.000000 0.000000 0.031927 0.000000 0.004089
# 5 0.010826 0.000829 -0.000657 0.000000 0.041055 0.000000
# 6 0.000000 0.000000 0.000000 0.004089 0.000000 0.034353
#
#
# Mechanical properties :
#
#
# Convention : Reuss Voigt Hill
#
# Bulk Modulus (GPa) = 42.22650 65.08430 53.65540
# Shear Modulus (GPa) = 28.55383 34.49900 31.52642
#
# Velocity S-wave (km/s) = 3.41983 3.75903 3.59344
# Velocity P-wave (km/s) = 5.73490 6.74523 6.26048
#
# Compressibility (1/GPa) = 0.02368181
#
# Stress axis : x y z
#
# Youngs Moduli (GPa) = 41.60890 141.02189 93.84413
#
# Poissons Ratio (x) = -0.08921 0.60295
# Poissons Ratio (y) = -0.02632 0.30564
# Poissons Ratio (z) = 0.26734 0.45929
#
# Static dielectric constant tensor:
#      x y z
#    x 2.110760 0.000000 -0.005210 
#    y 0.000000 1.986900 0.000000 
#    z -0.005210 0.000000 1.976620 
# 
# From -- ./inp_files/14660.got.cif
#   From: 2010.05.17/outbox.cif.g08.bks.cpg/sg4_8_cif.got.tgz:14660.got - 2010.06.03 18:43:04.
