data_PCOD9119380
_publ_section_title
;
Structure prediction by ZEFSAII (Michael W. Deem and Ramdas Pophale) SiO2 
 PCOD9119380
Probable space group: P 21
;
_chemical_formula_sum "Si O2"
_cell_formula_units_Z 16
_cell_length_a 16.424836
_cell_length_b 5.062725
_cell_length_c 8.189800
_cell_angle_alpha 90.000000
_cell_angle_beta 108.164852
_cell_angle_gamma 90.000000
_cell_volume 647.078555
_symmetry_space_group_name_H-M "P 21"
_symmetry_group_IT_number 4
_symmetry_cell_setting 'monoclinic'
loop_
_space_group_symop_operation_xyz
x,y,z
-x,1/2+y,-z
loop_
_atom_site_type_symbol
_atom_site_label
_atom_site_fract_x
_atom_site_fract_y
_atom_site_fract_z
Si Si1 0.251522 0.732990 0.808799
Si Si2 0.327183 0.957137 0.182083
Si Si3 0.236945 0.635784 0.368254
Si Si4 0.897475 0.536183 0.602343
Si Si5 0.318722 0.245171 0.668555
Si Si6 0.839855 0.787620 0.903375
Si Si7 0.095263 0.403450 0.706655
Si Si8 0.498889 0.422118 0.883579
O O1 0.149139 0.678078 0.748514
O O2 0.419747 0.302681 0.731516
O O3 0.294555 0.954315 0.717563
O O4 0.288189 0.794995 0.007674
O O5 0.315701 0.802015 0.345135
O O6 0.423698 0.007217 0.187027
O O7 0.258528 0.191069 0.148648
O O8 0.173085 0.804890 0.439907
O O9 0.273234 0.376335 0.481839
O O10 0.174296 0.579645 0.175811
O O11 0.881439 0.739479 0.442499
O O12 0.888378 0.656420 0.779773
O O13 0.993912 0.440996 0.639471
O O14 0.285010 0.443076 0.786062
O O15 0.881305 0.765863 0.105975
O O16 0.476311 0.681091 0.977756
#
# Coordination Sequence:
#
# PCOD9119380 Si02
#       8
#     2   2   2   2   2   2   2   2
#     4  12  26  48  83 114 154 216 273 320 420 488
#     4  11  25  48  79 113 162 213 270 337 412 503
#     4  11  28  53  76 117 167 215 271 345 424 506
#     4  11  31  51  78 127 167 214 291 354 414 501
#     4  12  27  48  81 117 164 211 265 348 409 495
#     4  11  27  51  80 114 168 219 280 335 435 494
#     4  12  29  50  86 119 165 225 280 355 416 508
#     4  12  25  47  79 123 161 207 282 346 408 501
#
# _framework density 24.726521999999999
#
# number of rings (size 3 to 8) (size 9 to 14) (size 15 to 20)
#    0.000    0.500    3.750    1.500   14.000    0.000 
#    2.250    0.000    0.000    0.000    0.000    0.000 
#    0.000    0.000    0.000    0.000    0.000    0.000 
#
# Total GULP energy -89452.971029 kJ/mol
# GULP energy per Si atom -5590.810689 kJ/mol
# Density = 2.467024 g / cm^3
# Si number density = 24.726522 Si / 1000 Ang^3
#
#
#
# Elastic Constant Matrix: (Units=GPa)
#
#
# Indices 1 2 3 4 5 6 
#
# 1 177.2145 36.1213 54.4795 0.0000 -5.4079 0.0000
# 2 36.1213 62.3990 34.9815 0.0000 -4.4782 0.0000
# 3 54.4795 34.9815 161.9623 0.0000 -10.1550 0.0000
# 4 0.0000 0.0000 0.0000 51.5915 0.0000 -9.9612
# 5 -5.4079 -4.4782 -10.1550 0.0000 39.9891 0.0000
# 6 0.0000 0.0000 0.0000 -9.9612 0.0000 40.0165
#
#
#
# Elastic Compliance Matrix: (Units=1/GPa)
#
#
# Indices 1 2 3 4 5 6 
#
# 1 0.006754 -0.002992 -0.001615 0.000000 0.000168 0.000000
# 2 -0.002992 0.019604 -0.003166 0.000000 0.000987 0.000000
# 3 -0.001615 -0.003166 0.007485 0.000000 0.001328 0.000000
# 4 0.000000 0.000000 0.000000 0.020362 0.000000 0.005069
# 5 0.000168 0.000987 0.001328 0.000000 0.025477 0.000000
# 6 0.000000 0.000000 0.000000 0.005069 0.000000 0.026251
#
#
# Mechanical properties :
#
#
# Convention : Reuss Voigt Hill
#
# Bulk Modulus (GPa) = 54.65628 72.52673 63.59150
# Shear Modulus (GPa) = 39.19163 44.71899 41.95531
#
# Velocity S-wave (km/s) = 3.98553 4.25731 4.12366
# Velocity P-wave (km/s) = 6.58267 7.31857 6.96035
#
# Compressibility (1/GPa) = 0.01829616
#
# Stress axis : x y z
#
# Youngs Moduli (GPa) = 148.04954 51.01085 133.60865
#
# Poissons Ratio (x) = 0.15265 0.21580
# Poissons Ratio (y) = 0.44304 0.42296
# Poissons Ratio (z) = 0.23912 0.16148
#
# Static dielectric constant tensor:
#      x y z
#    x 1.995680 0.000000 -0.009850 
#    y 0.000000 2.042760 0.000000 
#    z -0.009850 0.000000 2.043440 
# 
# From -- ./inp_files/8689.got.cif
#   From: 2010.05.17/outbox.cif.g08.bks.cpg/sg4_5_cif.got.tgz:8689.got - 2010.06.03 18:43:04.
