data_PCOD9119820
_publ_section_title
;
Structure prediction by ZEFSAII (Michael W. Deem and Ramdas Pophale) SiO2 
 PCOD9119820
Probable space group: P 21
;
_chemical_formula_sum "Si O2"
_cell_formula_units_Z 16
_cell_length_a 9.000000
_cell_length_b 6.000000
_cell_length_c 18.000000
_cell_angle_alpha 90.000000
_cell_angle_beta 120.000000
_cell_angle_gamma 90.000000
_cell_volume 841.776692
_symmetry_space_group_name_H-M "P 21"
_symmetry_group_IT_number 4
_symmetry_cell_setting 'monoclinic'
loop_
_space_group_symop_operation_xyz
x,y,z
-x,1/2+y,-z
loop_
_atom_site_type_symbol
_atom_site_label
_atom_site_fract_x
_atom_site_fract_y
_atom_site_fract_z
Si Si1 0.297805 0.925930 0.297805
Si Si2 0.740489 0.925930 0.240489
Si Si3 0.047287 0.925930 0.547287
Si Si4 0.584428 0.137792 0.814919
Si Si5 0.918841 0.175930 0.000000
Si Si6 0.940010 0.102048 0.677073
Si Si7 0.585864 0.249812 0.322927
Si Si8 0.045410 0.714068 0.814919
O O1 0.350728 0.786006 0.238342
O O2 0.232471 0.743522 0.343773
O O3 0.455074 0.108338 0.343773
O O4 0.125957 0.065854 0.238342
O O5 0.580647 0.758507 0.189199
O O6 0.909055 0.780889 0.297809
O O7 0.686563 0.070971 0.297809
O O8 0.797751 0.093353 0.189199
O O9 0.256412 0.897337 0.604592
O O10 0.989862 0.675930 0.500000
O O11 0.952773 0.954523 0.604592
O O12 0.738795 0.130972 0.912631
O O13 0.524950 0.905772 0.761212
O O14 0.913533 0.220888 0.087369
O O15 0.987235 0.425930 0.987235
O O16 0.997475 0.946088 0.761212
#
# Coordination Sequence:
#
# PCOD9119820 Si02
#       8
#     2   2   2   2   2   2   2   2
#     4  10  22  38  74 100 134 190 234 282 354 438
#     4  10  21  40  67 100 132 182 238 285 350 439
#     4  12  27  46  77 108 140 188 238 303 370 443
#     4  11  22  42  68  99 141 190 237 293 357 422
#     4  12  26  44  64 102 144 192 248 302 350 414
#     4  11  22  44  72 103 137 186 237 294 363 442
#     4  11  22  44  72 103 137 186 237 294 363 442
#     4  11  22  42  68  99 141 190 237 293 357 422
#
# _framework density 19.007415999999999
#
# number of rings (size 3 to 8) (size 9 to 14) (size 15 to 20)
#    0.000    1.000    3.750    3.000    7.000    0.000 
#    4.500    0.000    5.500    0.000    0.000    0.000 
#    0.000    0.000    0.000    0.000    0.000    0.000 
#
# Total GULP energy -89132.436449 kJ/mol
# GULP energy per Si atom -5570.777278 kJ/mol
# Density = 1.896415 g / cm^3
# Si number density = 19.007416 Si / 1000 Ang^3
#
#
#
# Elastic Constant Matrix: (Units=GPa)
#
#
# Indices 1 2 3 4 5 6 
#
# 1 133.2088 42.5693 31.0235 0.0000 0.0000 0.0000
# 2 42.5693 131.4705 40.0379 0.0000 0.0000 0.0000
# 3 31.0235 40.0379 86.7470 0.0000 0.0000 0.0000
# 4 0.0000 0.0000 0.0000 36.4610 0.0000 0.0000
# 5 0.0000 0.0000 0.0000 0.0000 27.0655 0.0000
# 6 0.0000 0.0000 0.0000 0.0000 0.0000 57.3336
#
#
#
# Elastic Compliance Matrix: (Units=1/GPa)
#
#
# Indices 1 2 3 4 5 6 
#
# 1 0.008692 -0.002173 -0.002105 0.000000 0.000000 0.000000
# 2 -0.002173 0.009394 -0.003558 0.000000 0.000000 0.000000
# 3 -0.002105 -0.003558 0.013923 0.000000 0.000000 0.000000
# 4 0.000000 0.000000 0.000000 0.027427 0.000000 0.000000
# 5 0.000000 0.000000 0.000000 0.000000 0.036947 0.000000
# 6 0.000000 0.000000 0.000000 0.000000 0.000000 0.017442
#
#
# Mechanical properties :
#
#
# Convention : Reuss Voigt Hill
#
# Bulk Modulus (GPa) = 61.22008 64.29864 62.75936
# Shear Modulus (GPa) = 37.05260 40.02504 38.53882
#
# Velocity S-wave (km/s) = 4.41996 4.59383 4.50774
# Velocity P-wave (km/s) = 7.63718 7.87651 7.75777
#
# Compressibility (1/GPa) = 0.01633451
#
# Stress axis : x y z
#
# Youngs Moduli (GPa) = 115.05048 106.45548 71.82296
#
# Poissons Ratio (x) = 0.23135 0.15122
# Poissons Ratio (y) = 0.25002 0.25557
# Poissons Ratio (z) = 0.24223 0.37881
#
# Static dielectric constant tensor:
#      x y z
#    x 1.672930 0.000000 0.000000 
#    y 0.000000 1.728060 0.000000 
#    z 0.000000 0.000000 1.669530 
# 
# From -- ./inp_files/8826.got.cif
#   From: 2010.05.17/outbox.ucp.g08.bks.cvg/sg4_5_cif.got.tgz:8826.got - 2010.06.11 12:51:24.
