data_PCOD9119464
_publ_section_title
;
Structure prediction by ZEFSAII (Michael W. Deem and Ramdas Pophale) SiO2 
 PCOD9119464
Probable space group: P 21
;
_chemical_formula_sum "Si O2"
_cell_formula_units_Z 10
_cell_length_a 5.057968
_cell_length_b 8.939024
_cell_length_c 8.114499
_cell_angle_alpha 90.000000
_cell_angle_beta 80.885871
_cell_angle_gamma 90.000000
_cell_volume 362.251273
_symmetry_space_group_name_H-M "P 21"
_symmetry_group_IT_number 4
_symmetry_cell_setting 'monoclinic'
loop_
_space_group_symop_operation_xyz
x,y,z
-x,1/2+y,-z
loop_
_atom_site_type_symbol
_atom_site_label
_atom_site_fract_x
_atom_site_fract_y
_atom_site_fract_z
Si Si1 0.022921 0.123600 0.036103
Si Si2 0.316425 0.503233 0.513910
Si Si3 0.093741 0.757756 0.301927
Si Si4 0.485331 0.411330 0.942711
Si Si5 0.391450 0.768813 0.731127
O O1 0.917005 0.237077 0.187448
O O2 0.286226 0.031646 0.040516
O O3 0.028717 0.201576 0.858657
O O4 0.478435 0.308074 0.105757
O O5 0.152784 0.618973 0.414786
O O6 0.461448 0.615343 0.629053
O O7 0.533797 0.406836 0.392088
O O8 0.099553 0.384806 0.605434
O O9 0.386530 0.821175 0.221510
O O10 0.214021 0.500613 0.948232
#
# Coordination Sequence:
#
# PCOD9119464 Si02
#       5
#     2   2   2   2   2
#     4  11  26  53  80 115 156 217 264 325 390 489
#     4  12  28  48  76 124 154 216 250 352 382 486
#     4  11  28  48  80 113 164 202 272 317 410 460
#     4  11  26  53  80 115 156 217 264 325 390 489
#     4  11  28  48  80 113 164 202 272 317 410 460
#
# _framework density 27.605149000000001
#
# number of rings (size 3 to 8) (size 9 to 14) (size 15 to 20)
#    0.000    0.800    4.000    0.000   11.200    6.400 
#    0.000    0.000    0.000    0.000    0.000    0.000 
#    0.000    0.000    0.000    0.000    0.000    0.000 
#
# Total GULP energy -56177.107254 kJ/mol
# GULP energy per Si atom -5617.710725 kJ/mol
# Density = 2.754232 g / cm^3
# Si number density = 27.605149 Si / 1000 Ang^3
#
#
#
# Elastic Constant Matrix: (Units=GPa)
#
#
# Indices 1 2 3 4 5 6 
#
# 1 143.5673 92.8647 44.3861 0.0000 -32.3075 0.0000
# 2 92.8647 235.7657 130.3299 0.0000 -21.5376 0.0000
# 3 44.3861 130.3299 190.0021 0.0000 -7.7688 0.0000
# 4 0.0000 0.0000 0.0000 97.8777 0.0000 -8.3072
# 5 -32.3075 -21.5376 -7.7688 0.0000 22.6669 0.0000
# 6 0.0000 0.0000 0.0000 -8.3072 0.0000 74.5683
#
#
#
# Elastic Compliance Matrix: (Units=1/GPa)
#
#
# Indices 1 2 3 4 5 6 
#
# 1 0.012574 -0.003765 0.000235 0.000000 0.014425 0.000000
# 2 -0.003765 0.008556 -0.004946 0.000000 0.001069 0.000000
# 3 0.000235 -0.004946 0.008542 0.000000 -0.001437 0.000000
# 4 0.000000 0.000000 0.000000 0.010314 0.000000 0.001149
# 5 0.014425 0.001069 -0.001437 0.000000 0.065201 0.000000
# 6 0.000000 0.000000 0.000000 0.001149 0.000000 0.013539
#
#
# Mechanical properties :
#
#
# Convention : Reuss Voigt Hill
#
# Bulk Modulus (GPa) = 78.61171 122.72182 100.66677
# Shear Modulus (GPa) = 35.73532 59.13955 47.43743
#
# Velocity S-wave (km/s) = 3.60184 4.63356 4.14989
# Velocity P-wave (km/s) = 6.77028 8.55448 7.71414
#
# Compressibility (1/GPa) = 0.01272075
#
# Stress axis : x y z
#
# Youngs Moduli (GPa) = 79.52775 116.87736 117.06955
#
# Poissons Ratio (x) = 0.44002 -0.02749
# Poissons Ratio (y) = 0.29941 0.57899
# Poissons Ratio (z) = -0.01867 0.57804
#
# Static dielectric constant tensor:
#      x y z
#    x 2.152860 0.000000 0.053290 
#    y 0.000000 2.161080 0.000000 
#    z 0.053290 0.000000 2.197370 
# 
# From -- ./inp_files/4478.got.cif
#   From: 2010.05.17/outbox.cif.g08.bks.cpg/sg4_3_cif.got.tgz:4478.got - 2010.06.03 18:43:04.
