data_PCOD9119272
_publ_section_title
;
Structure prediction by ZEFSAII (Michael W. Deem and Ramdas Pophale) SiO2 
 PCOD9119272
Probable space group: P 21
;
_chemical_formula_sum "Si O2"
_cell_formula_units_Z 14
_cell_length_a 11.874212
_cell_length_b 8.585120
_cell_length_c 9.614588
_cell_angle_alpha 90.000000
_cell_angle_beta 143.008527
_cell_angle_gamma 90.000000
_cell_volume 589.737965
_symmetry_space_group_name_H-M "P 21"
_symmetry_group_IT_number 4
_symmetry_cell_setting 'monoclinic'
loop_
_space_group_symop_operation_xyz
x,y,z
-x,1/2+y,-z
loop_
_atom_site_type_symbol
_atom_site_label
_atom_site_fract_x
_atom_site_fract_y
_atom_site_fract_z
Si Si1 0.350324 0.917870 0.838213
Si Si2 0.449949 0.600276 0.393188
Si Si3 0.954882 0.292250 0.289796
Si Si4 0.745337 0.777491 0.184574
Si Si5 0.204495 0.023129 0.422953
Si Si6 0.906390 0.323169 0.949029
Si Si7 0.277390 0.265656 0.162422
O O1 0.249226 0.802942 0.845960
O O2 0.302180 0.096222 0.830107
O O3 0.264803 0.900312 0.599642
O O4 0.566871 0.882042 0.043115
O O5 0.607230 0.621622 0.427725
O O6 0.270100 0.709866 0.203167
O O7 0.375840 0.425416 0.309030
O O8 0.565404 0.636439 0.648325
O O9 0.090613 0.334063 0.551346
O O10 0.036543 0.128709 0.315088
O O11 0.954446 0.393941 0.148063
O O12 0.779629 0.783253 0.053765
O O13 0.149876 0.937108 0.229273
O O14 0.093737 0.244128 0.074720
#
# Coordination Sequence:
#
# PCOD9119272 Si02
#       7
#     2   2   2   2   2   2   2
#     4  11  26  47  77 107 147 200 249 315 374 453
#     4  12  25  47  78 107 154 192 257 306 381 445
#     4  11  27  44  75 111 151 195 250 307 375 453
#     4  11  27  49  75 107 153 197 256 302 388 444
#     4  11  24  52  71 111 154 198 250 316 376 445
#     4  12  26  44  78 111 151 196 251 310 388 443
#     4  12  27  47  78 114 152 202 249 322 374 457
#
# _framework density 23.739356000000001
#
# number of rings (size 3 to 8) (size 9 to 14) (size 15 to 20)
#    0.000    0.571    4.286    1.714    6.000    5.714 
#    0.000    1.429    0.000    0.000    0.000    0.000 
#    0.000    0.000    0.000    0.000    0.000    0.000 
#
# Total GULP energy -78366.376462 kJ/mol
# GULP energy per Si atom -5597.598319 kJ/mol
# Density = 2.368532 g / cm^3
# Si number density = 23.739356 Si / 1000 Ang^3
#
#
#
# Elastic Constant Matrix: (Units=GPa)
#
#
# Indices 1 2 3 4 5 6 
#
# 1 136.9823 14.9034 58.5750 0.0000 -15.2479 0.0000
# 2 14.9034 63.2258 22.8439 0.0000 -3.6625 0.0000
# 3 58.5750 22.8439 158.5828 0.0000 -31.9581 0.0000
# 4 0.0000 0.0000 0.0000 32.9571 0.0000 -1.5645
# 5 -15.2479 -3.6625 -31.9581 0.0000 46.3363 0.0000
# 6 0.0000 0.0000 0.0000 -1.5645 0.0000 31.1367
#
#
#
# Elastic Compliance Matrix: (Units=1/GPa)
#
#
# Indices 1 2 3 4 5 6 
#
# 1 0.008746 -0.000956 -0.002936 0.000000 0.000777 0.000000
# 2 -0.000956 0.016795 -0.002163 0.000000 -0.000479 0.000000
# 3 -0.002936 -0.002163 0.008679 0.000000 0.004849 0.000000
# 4 0.000000 0.000000 0.000000 0.030415 0.000000 0.001528
# 5 0.000777 -0.000479 0.004849 0.000000 0.025144 0.000000
# 6 0.000000 0.000000 0.000000 0.001528 0.000000 0.032193
#
#
# Mechanical properties :
#
#
# Convention : Reuss Voigt Hill
#
# Bulk Modulus (GPa) = 45.22604 61.27062 53.24833
# Shear Modulus (GPa) = 35.34755 39.58392 37.46574
#
# Velocity S-wave (km/s) = 3.86292 4.08786 3.97698
# Velocity P-wave (km/s) = 6.24409 6.93877 6.60058
#
# Compressibility (1/GPa) = 0.02211116
#
# Stress axis : x y z
#
# Youngs Moduli (GPa) = 114.33410 59.54040 115.21951
#
# Poissons Ratio (x) = 0.05691 0.33831
# Poissons Ratio (y) = 0.10927 0.24920
# Poissons Ratio (z) = 0.33571 0.12877
#
# Static dielectric constant tensor:
#      x y z
#    x 1.886190 0.000000 -0.017210 
#    y 0.000000 1.936600 0.000000 
#    z -0.017210 0.000000 1.930120 
# 
# From -- ./inp_files/7600.got.cif
#   From: 2010.05.17/outbox.cif.g08.bks.cpg/sg4_4_cif.got.tgz:7600.got - 2010.06.03 18:43:04.
