data_PCOD9119654
_publ_section_title
;
Structure prediction by ZEFSAII (Michael W. Deem and Ramdas Pophale) SiO2 
 PCOD9119654
Probable space group: P 21
;
_chemical_formula_sum "Si O2"
_cell_formula_units_Z 16
_cell_length_a 14.504694
_cell_length_b 9.388248
_cell_length_c 13.600490
_cell_angle_alpha 90.000000
_cell_angle_beta 19.191833
_cell_angle_gamma 90.000000
_cell_volume 608.821110
_symmetry_space_group_name_H-M "P 21"
_symmetry_group_IT_number 4
_symmetry_cell_setting 'monoclinic'
loop_
_space_group_symop_operation_xyz
x,y,z
-x,1/2+y,-z
loop_
_atom_site_type_symbol
_atom_site_label
_atom_site_fract_x
_atom_site_fract_y
_atom_site_fract_z
Si Si1 0.506304 0.437940 0.937050
Si Si2 0.266473 0.188710 0.414082
Si Si3 0.469513 0.053080 0.672819
Si Si4 0.005161 0.948417 0.421706
Si Si5 0.765122 0.126860 0.042873
Si Si6 0.205574 0.703567 0.487550
Si Si7 0.013562 0.372101 0.913326
Si Si8 0.179983 0.329077 0.951050
O O1 0.590462 0.594053 0.813798
O O2 0.610910 0.321320 0.754036
O O3 0.679165 0.417782 0.864166
O O4 0.182022 0.432778 0.291205
O O5 0.118507 0.331614 0.527258
O O6 0.008194 0.099968 0.718593
O O7 0.506043 0.209262 0.254825
O O8 0.589213 0.100122 0.657093
O O9 0.388736 0.204505 0.704694
O O10 0.685317 0.946575 0.403534
O O11 0.178805 0.970985 0.960872
O O12 0.957823 0.104391 0.425182
O O13 0.930801 0.216224 0.957998
O O14 0.660774 0.973296 0.181811
O O15 0.994595 0.770759 0.780200
O O16 0.973197 0.368876 0.070477
#
# Coordination Sequence:
#
# PCOD9119654 Si02
#       8
#     2   2   2   2   2   2   2   2
#     4  12  26  47  72 111 147 200 255 324 393 476
#     4  12  25  47  72 109 149 201 251 317 393 454
#     4  12  28  50  79 115 158 209 261 329 392 482
#     4  12  27  45  76 106 153 196 260 322 389 474
#     4  12  26  47  75 109 153 202 255 318 383 472
#     4  12  27  50  77 115 154 208 261 324 409 463
#     4  12  28  50  77 116 157 207 267 320 394 464
#     4  12  29  50  82 113 161 211 264 332 389 485
#
# _framework density 26.280297000000001
#
# number of rings (size 3 to 8) (size 9 to 14) (size 15 to 20)
#    0.000    0.000    2.500    6.750    5.250    1.000 
#    0.000    0.000    0.000    0.000    0.000    0.000 
#    0.000    0.000    0.000    0.000    0.000    0.000 
#
# Total GULP energy -89770.150852 kJ/mol
# GULP energy per Si atom -5610.634428 kJ/mol
# Density = 2.622048 g / cm^3
# Si number density = 26.280297 Si / 1000 Ang^3
#
#
#
# Elastic Constant Matrix: (Units=GPa)
#
#
# Indices 1 2 3 4 5 6 
#
# 1 106.9703 36.1823 14.9453 0.0000 -0.7130 0.0000
# 2 36.1823 142.2354 7.6367 0.0000 16.1921 0.0000
# 3 14.9453 7.6367 79.4919 0.0000 1.9270 0.0000
# 4 0.0000 0.0000 0.0000 33.7031 0.0000 -3.2939
# 5 -0.7130 16.1921 1.9270 0.0000 27.3003 0.0000
# 6 0.0000 0.0000 0.0000 -3.2939 0.0000 38.2132
#
#
#
# Elastic Compliance Matrix: (Units=1/GPa)
#
#
# Indices 1 2 3 4 5 6 
#
# 1 0.010566 -0.002830 -0.001765 0.000000 0.002079 0.000000
# 2 -0.002830 0.008328 -0.000147 0.000000 -0.005003 0.000000
# 3 -0.001765 -0.000147 0.012947 0.000000 -0.000873 0.000000
# 4 0.000000 0.000000 0.000000 0.029923 0.000000 0.002579
# 5 0.002079 -0.005003 -0.000873 0.000000 0.039713 0.000000
# 6 0.000000 0.000000 0.000000 0.002579 0.000000 0.026391
#
#
# Mechanical properties :
#
#
# Convention : Reuss Voigt Hill
#
# Bulk Modulus (GPa) = 44.72714 49.58070 47.15392
# Shear Modulus (GPa) = 34.52955 37.83887 36.18421
#
# Velocity S-wave (km/s) = 3.62870 3.79861 3.71463
# Velocity P-wave (km/s) = 5.88327 6.17627 6.03155
#
# Compressibility (1/GPa) = 0.02235779
#
# Stress axis : x y z
#
# Youngs Moduli (GPa) = 94.64329 120.07928 77.23786
#
# Poissons Ratio (x) = 0.33979 0.13633
# Poissons Ratio (y) = 0.26781 0.01133
# Poissons Ratio (z) = 0.16705 0.01762
#
# Static dielectric constant tensor:
#      x y z
#    x 2.062310 0.000000 0.019470 
#    y 0.000000 2.064960 0.000000 
#    z 0.019470 0.000000 2.009760 
# 
# From -- ./inp_files/14179.got.cif
#   From: 2010.05.17/outbox.cif.g08.bks.cpg/sg4_8_cif.got.tgz:14179.got - 2010.06.03 18:43:04.
