data_PCOD9119821
_publ_section_title
;
Structure prediction by ZEFSAII (Michael W. Deem and Ramdas Pophale) SiO2 
 PCOD9119821
Probable space group: P 21
;
_chemical_formula_sum "Si O2"
_cell_formula_units_Z 14
_cell_length_a 12.000000
_cell_length_b 9.000000
_cell_length_c 9.000000
_cell_angle_alpha 90.000000
_cell_angle_beta 40.000000
_cell_angle_gamma 90.000000
_cell_volume 624.789557
_symmetry_space_group_name_H-M "P 21"
_symmetry_group_IT_number 4
_symmetry_cell_setting 'monoclinic'
loop_
_space_group_symop_operation_xyz
x,y,z
-x,1/2+y,-z
loop_
_atom_site_type_symbol
_atom_site_label
_atom_site_fract_x
_atom_site_fract_y
_atom_site_fract_z
Si Si1 0.086522 0.326710 0.589813
Si Si2 0.959806 0.080909 0.920988
Si Si3 0.679565 0.580283 0.283551
Si Si4 0.456267 0.805129 0.124590
Si Si5 0.110015 0.995750 0.471005
Si Si6 0.442667 0.471725 0.258400
Si Si7 0.386932 0.416819 0.746474
O O1 0.247855 0.416638 0.495524
O O2 0.974919 0.247701 0.835368
O O3 0.985996 0.434393 0.577925
O O4 0.140783 0.175568 0.441103
O O5 0.116081 0.066821 0.881780
O O6 0.003352 0.978109 0.732839
O O7 0.765761 0.027280 0.152366
O O8 0.591396 0.500114 0.229789
O O9 0.566468 0.501315 0.526877
O O10 0.635618 0.755891 0.309908
O O11 0.280288 0.898641 0.320541
O O12 0.430969 0.631626 0.187276
O O13 0.597382 0.873813 0.095028
O O14 0.503244 0.840937 0.908062
#
# Coordination Sequence:
#
# PCOD9119821 Si02
#       7
#     2   2   2   2   2   2   2
#     4  10  21  42  66 103 144 182 236 296 356 423
#     4  10  24  45  72 101 147 186 241 295 359 428
#     4  11  25  48  71 108 141 192 242 293 360 436
#     4  11  23  41  71 106 141 192 236 301 358 427
#     4  10  21  40  68 104 143 178 237 294 356 419
#     4  11  24  43  71 105 145 187 242 297 366 421
#     4  11  24  47  73  99 147 191 238 300 357 426
#
# _framework density 22.407544999999999
#
# number of rings (size 3 to 8) (size 9 to 14) (size 15 to 20)
#    0.857    0.571    1.429    3.429    2.000    3.429 
#    5.143    0.000    0.000    0.000    0.000    0.000 
#    0.000    0.000    0.000    0.000    0.000    0.000 
#
# Total GULP energy -78156.484283 kJ/mol
# GULP energy per Si atom -5582.606020 kJ/mol
# Density = 2.235654 g / cm^3
# Si number density = 22.407545 Si / 1000 Ang^3
#
#
#
# Elastic Constant Matrix: (Units=GPa)
#
#
# Indices 1 2 3 4 5 6 
#
# 1 165.9978 43.9964 11.4909 0.0000 -4.5738 0.0000
# 2 43.9964 104.6039 10.2280 0.0000 -3.0731 0.0000
# 3 11.4909 10.2280 24.2890 0.0000 -5.1990 0.0000
# 4 0.0000 0.0000 0.0000 41.3770 0.0000 -6.4435
# 5 -4.5738 -3.0731 -5.1990 0.0000 33.3724 0.0000
# 6 0.0000 0.0000 0.0000 -6.4435 0.0000 48.2599
#
#
#
# Elastic Compliance Matrix: (Units=1/GPa)
#
#
# Indices 1 2 3 4 5 6 
#
# 1 0.006888 -0.002686 -0.002047 0.000000 0.000378 0.000000
# 2 -0.002686 0.011020 -0.003343 0.000000 0.000126 0.000000
# 3 -0.002047 -0.003343 0.044919 0.000000 0.006409 0.000000
# 4 0.000000 0.000000 0.000000 0.024681 0.000000 0.003295
# 5 0.000378 0.000126 0.006409 0.000000 0.031027 0.000000
# 6 0.000000 0.000000 0.000000 0.003295 0.000000 0.021161
#
#
# Mechanical properties :
#
#
# Convention : Reuss Voigt Hill
#
# Bulk Modulus (GPa) = 21.42433 47.36903 34.39668
# Shear Modulus (GPa) = 29.17046 39.88020 34.52533
#
# Velocity S-wave (km/s) = 3.61198 4.22330 3.92955
# Velocity P-wave (km/s) = 5.19396 6.70577 5.99769
#
# Compressibility (1/GPa) = 0.04667590
#
# Stress axis : x y z
#
# Youngs Moduli (GPa) = 145.17671 90.74301 22.26233
#
# Poissons Ratio (x) = 0.24373 0.04557
# Poissons Ratio (y) = 0.38993 0.07442
# Poissons Ratio (z) = 0.29715 0.30335
#
# Static dielectric constant tensor:
#      x y z
#    x 1.821950 0.000000 0.022800 
#    y 0.000000 1.780970 0.000000 
#    z 0.022800 0.000000 1.972110 
# 
# From -- ./inp_files/7936.got.cif
#   From: 2010.05.17/outbox.ucp.g08.bks.cvg/sg4_4_cif.got.tgz:7936.got - 2010.06.11 12:51:24.
