data_PCOD9119082
_publ_section_title
;
Structure prediction by ZEFSAII (Michael W. Deem and Ramdas Pophale) SiO2 
 PCOD9119082
Probable space group: P 21
;
_chemical_formula_sum "Si O2"
_cell_formula_units_Z 14
_cell_length_a 10.419353
_cell_length_b 7.700140
_cell_length_c 10.332202
_cell_angle_alpha 90.000000
_cell_angle_beta 44.190886
_cell_angle_gamma 90.000000
_cell_volume 577.825695
_symmetry_space_group_name_H-M "P 21"
_symmetry_group_IT_number 4
_symmetry_cell_setting 'monoclinic'
loop_
_space_group_symop_operation_xyz
x,y,z
-x,1/2+y,-z
loop_
_atom_site_type_symbol
_atom_site_label
_atom_site_fract_x
_atom_site_fract_y
_atom_site_fract_z
Si Si1 0.427089 0.158240 0.079752
Si Si2 0.920055 0.464997 0.622935
Si Si3 0.377882 0.852725 0.704049
Si Si4 0.302658 0.227241 0.694746
Si Si5 0.722077 0.023239 0.071931
Si Si6 0.959832 0.625465 0.333817
Si Si7 0.658386 0.006335 0.708378
O O1 0.543490 0.065981 0.111281
O O2 0.357714 0.343137 0.180903
O O3 0.241224 0.055580 0.180737
O O4 0.555539 0.159266 0.860269
O O5 0.869287 0.504499 0.509250
O O6 0.931815 0.269882 0.662570
O O7 0.131012 0.530611 0.484495
O O8 0.490017 0.763412 0.506130
O O9 0.264524 0.701276 0.854443
O O10 0.532601 0.938550 0.683816
O O11 0.267069 0.024735 0.750551
O O12 0.278527 0.360671 0.830126
O O13 0.170793 0.238111 0.664854
O O14 0.896179 0.015679 0.852249
#
# Coordination Sequence:
#
# PCOD9119082 Si02
#       7
#     2   2   2   2   2   2   2
#     4  11  24  44  71 104 145 186 247 305 374 447
#     4  12  23  46  74 102 150 188 247 322 367 444
#     4  11  24  47  73 105 148 202 248 312 377 448
#     4  12  26  48  74 107 152 201 256 303 384 467
#     4  11  26  49  73 109 154 200 255 311 378 462
#     4  12  27  50  70 114 150 193 264 310 386 459
#     4  11  24  44  69 109 143 184 253 303 370 447
#
# _framework density 24.228759
#
# number of rings (size 3 to 8) (size 9 to 14) (size 15 to 20)
#    0.000    0.571    5.714    2.571    4.000    0.000 
#    5.143    0.000    0.000    0.000    0.000    0.000 
#    0.000    0.000    0.000    0.000    0.000    0.000 
#
# Total GULP energy -78263.679609 kJ/mol
# GULP energy per Si atom -5590.262829 kJ/mol
# Density = 2.417361 g / cm^3
# Si number density = 24.228759 Si / 1000 Ang^3
#
#
#
# Elastic Constant Matrix: (Units=GPa)
#
#
# Indices 1 2 3 4 5 6 
#
# 1 57.5725 25.6101 27.1697 0.0000 -5.8144 0.0000
# 2 25.6101 90.5826 -4.8345 0.0000 12.8977 0.0000
# 3 27.1697 -4.8345 85.0120 0.0000 0.4168 0.0000
# 4 0.0000 0.0000 0.0000 35.9985 0.0000 25.4204
# 5 -5.8144 12.8977 0.4168 0.0000 31.4679 0.0000
# 6 0.0000 0.0000 0.0000 25.4204 0.0000 33.2606
#
#
#
# Elastic Compliance Matrix: (Units=1/GPa)
#
#
# Indices 1 2 3 4 5 6 
#
# 1 0.026696 -0.009296 -0.009104 0.000000 0.008863 0.000000
# 2 -0.009296 0.015001 0.003863 0.000000 -0.007917 0.000000
# 3 -0.009104 0.003863 0.014909 0.000000 -0.003463 0.000000
# 4 0.000000 0.000000 0.000000 0.060350 0.000000 -0.046124
# 5 0.008863 -0.007917 -0.003463 0.000000 0.036707 0.000000
# 6 0.000000 0.000000 0.000000 -0.046124 0.000000 0.065317
#
#
# Mechanical properties :
#
#
# Convention : Reuss Voigt Hill
#
# Bulk Modulus (GPa) = 36.32034 36.56196 36.44115
# Shear Modulus (GPa) = 19.43774 32.49350 25.96562
#
# Velocity S-wave (km/s) = 2.83549 3.66609 3.27721
# Velocity P-wave (km/s) = 5.07377 5.74834 5.42156
#
# Compressibility (1/GPa) = 0.02753278
#
# Stress axis : x y z
#
# Youngs Moduli (GPa) = 37.45896 66.66134 67.07208
#
# Poissons Ratio (x) = 0.61965 0.61063
# Poissons Ratio (y) = 0.34820 -0.25908
# Poissons Ratio (z) = 0.34103 -0.25750
#
# Static dielectric constant tensor:
#      x y z
#    x 2.028770 0.000000 0.000350 
#    y 0.000000 1.983290 0.000000 
#    z 0.000350 0.000000 1.929310 
# 
# From -- ./inp_files/12092.got.cif
#   From: 2010.05.17/outbox.cif.g08.bks.cpg/sg4_7_cif.got.tgz:12092.got - 2010.06.03 18:43:04.
