data_PCOD9119831
_publ_section_title
;
Structure prediction by ZEFSAII (Michael W. Deem and Ramdas Pophale) SiO2 
 PCOD9119831
Probable space group: P 21
;
_chemical_formula_sum "Si O2"
_cell_formula_units_Z 14
_cell_length_a 6.000000
_cell_length_b 18.000000
_cell_length_c 6.000000
_cell_angle_alpha 90.000000
_cell_angle_beta 80.000000
_cell_angle_gamma 90.000000
_cell_volume 638.155424
_symmetry_space_group_name_H-M "P 21"
_symmetry_group_IT_number 4
_symmetry_cell_setting 'monoclinic'
loop_
_space_group_symop_operation_xyz
x,y,z
-x,1/2+y,-z
loop_
_atom_site_type_symbol
_atom_site_label
_atom_site_fract_x
_atom_site_fract_y
_atom_site_fract_z
Si Si1 0.534445 0.260450 0.370132
Si Si2 0.147528 0.507920 0.368691
Si Si3 0.951940 0.625664 0.127767
Si Si4 0.391165 0.005601 0.987961
Si Si5 0.648149 0.090083 0.285444
Si Si6 0.098008 0.880072 0.843780
Si Si7 0.706875 0.780246 0.096176
O O1 0.572418 0.170866 0.395952
O O2 0.755398 0.312798 0.289811
O O3 0.427227 0.287133 0.635376
O O4 0.413337 0.267720 0.135537
O O5 0.045587 0.590382 0.338187
O O6 0.236843 0.522766 0.597608
O O7 0.985873 0.439748 0.329324
O O8 0.368079 0.496244 0.175028
O O9 0.857964 0.707537 0.121418
O O10 0.161799 0.614632 0.924885
O O11 0.751439 0.568778 0.110331
O O12 0.438252 0.045791 0.213603
O O13 0.254621 0.928963 0.984494
O O14 0.881604 0.847029 0.012423
#
# Coordination Sequence:
#
# PCOD9119831 Si02
#       7
#     2   2   2   2   2   2   2
#     4  12  28  50  83 113 158 202 267 325 385 463
#     4  10  24  46  73 113 147 204 255 317 389 469
#     4  10  22  42  76 109 149 192 262 314 381 455
#     4  10  22  48  70 109 150 199 251 320 379 468
#     4  11  23  44  82 112 147 205 267 316 388 460
#     4  11  26  53  74 113 161 203 258 321 402 454
#     4  12  27  51  80 117 150 207 262 325 388 465
#
# _framework density 21.938229
#
# number of rings (size 3 to 8) (size 9 to 14) (size 15 to 20)
#    0.000    1.143    2.857    1.714    4.000    3.429 
#   33.429    0.000    0.000    0.000    0.000    0.000 
#    0.000    0.000    0.000    0.000    0.000    0.000 
#
# Total GULP energy -77993.453250 kJ/mol
# GULP energy per Si atom -5570.960946 kJ/mol
# Density = 2.188830 g / cm^3
# Si number density = 21.938229 Si / 1000 Ang^3
#
#
#
# Elastic Constant Matrix: (Units=GPa)
#
#
# Indices 1 2 3 4 5 6 
#
# 1 73.8073 22.8594 24.8720 0.0000 9.1315 0.0000
# 2 22.8594 103.5545 19.3808 0.0000 2.4262 0.0000
# 3 24.8720 19.3808 93.0076 0.0000 -11.0405 0.0000
# 4 0.0000 0.0000 0.0000 23.5029 0.0000 -7.7334
# 5 9.1315 2.4262 -11.0405 0.0000 28.6874 0.0000
# 6 0.0000 0.0000 0.0000 -7.7334 0.0000 56.9623
#
#
#
# Elastic Compliance Matrix: (Units=1/GPa)
#
#
# Indices 1 2 3 4 5 6 
#
# 1 0.016846 -0.002661 -0.004779 0.000000 -0.006976 0.000000
# 2 -0.002661 0.010552 -0.001564 0.000000 -0.000647 0.000000
# 3 -0.004779 -0.001564 0.013153 0.000000 0.006715 0.000000
# 4 0.000000 0.000000 0.000000 0.044538 0.000000 0.006047
# 5 -0.006976 -0.000647 0.006715 0.000000 0.039718 0.000000
# 6 0.000000 0.000000 0.000000 0.006047 0.000000 0.018376
#
#
# Mechanical properties :
#
#
# Convention : Reuss Voigt Hill
#
# Bulk Modulus (GPa) = 44.35822 44.95488 44.65655
# Shear Modulus (GPa) = 29.63739 35.38098 32.50919
#
# Velocity S-wave (km/s) = 3.67951 4.02027 3.85366
# Velocity P-wave (km/s) = 6.18993 6.48738 6.34040
#
# Compressibility (1/GPa) = 0.02254374
#
# Stress axis : x y z
#
# Youngs Moduli (GPa) = 59.35970 94.76827 76.02941
#
# Poissons Ratio (x) = 0.25218 0.36332
# Poissons Ratio (y) = 0.15796 0.11892
# Poissons Ratio (z) = 0.28366 0.14822
#
# Static dielectric constant tensor:
#      x y z
#    x 1.856460 0.000000 0.035130 
#    y 0.000000 1.780300 0.000000 
#    z 0.035130 0.000000 1.868490 
# 
# From -- ./inp_files/335.got.cif
#   From: 2010.05.17/outbox.ucp.g08.bks.cvg/sg4_1_cif.got.tgz:335.got - 2010.06.11 12:51:24.
