data_PCOD9119758
_publ_section_title
;
Structure prediction by ZEFSAII (Michael W. Deem and Ramdas Pophale) SiO2 
 PCOD9119758
Probable space group: P 21
;
_chemical_formula_sum "Si O2"
_cell_formula_units_Z 10
_cell_length_a 15.487716
_cell_length_b 5.098010
_cell_length_c 15.749333
_cell_angle_alpha 90.000000
_cell_angle_beta 18.791830
_cell_angle_gamma 90.000000
_cell_volume 400.573624
_symmetry_space_group_name_H-M "P 21"
_symmetry_group_IT_number 4
_symmetry_cell_setting 'monoclinic'
loop_
_space_group_symop_operation_xyz
x,y,z
-x,1/2+y,-z
loop_
_atom_site_type_symbol
_atom_site_label
_atom_site_fract_x
_atom_site_fract_y
_atom_site_fract_z
Si Si1 0.008050 0.206190 0.436195
Si Si2 0.305629 0.128866 0.777616
Si Si3 0.430646 0.278156 0.902247
Si Si4 0.802787 0.471788 0.309027
Si Si5 0.230287 0.773878 0.990256
O O1 0.742781 0.221786 0.625361
O O2 0.966991 0.415090 0.549885
O O3 0.272413 0.289412 0.138713
O O4 0.568295 0.286494 0.559164
O O5 0.290814 0.113048 0.690105
O O6 0.045534 0.282679 0.052818
O O7 0.308598 0.846380 0.820283
O O8 0.386453 0.547489 0.893502
O O9 0.283475 0.041591 0.990192
O O10 0.927399 0.669155 0.261558
#
# Coordination Sequence:
#
# PCOD9119758 Si02
#       5
#     2   2   2   2   2
#     4  12  26  52  80 110 150 194 246 302 384 488
#     4  12  27  47  74 107 153 216 271 324 382 453
#     4  12  28  46  80 116 150 196 246 318 392 452
#     4  12  27  47  74 107 153 216 271 324 382 453
#     4  12  28  50  74 116 160 196 262 326 386 446
#
# _framework density 24.964200000000002
#
# number of rings (size 3 to 8) (size 9 to 14) (size 15 to 20)
#    0.000    0.000    4.000    4.800    2.800    3.200 
#    0.000    0.000    0.000    0.000    0.000    0.000 
#    0.000    0.000    0.000    0.000    0.000    0.000 
#
# Total GULP energy -56142.867521 kJ/mol
# GULP energy per Si atom -5614.286752 kJ/mol
# Density = 2.490738 g / cm^3
# Si number density = 24.964200 Si / 1000 Ang^3
#
#
#
# Elastic Constant Matrix: (Units=GPa)
#
#
# Indices 1 2 3 4 5 6 
#
# 1 56.6696 11.2214 -13.7560 0.0000 -16.4042 0.0000
# 2 11.2214 115.9113 11.1290 0.0000 -13.0414 0.0000
# 3 -13.7560 11.1290 111.6475 0.0000 -8.5406 0.0000
# 4 0.0000 0.0000 0.0000 42.2267 0.0000 2.2952
# 5 -16.4042 -13.0414 -8.5406 0.0000 43.0089 0.0000
# 6 0.0000 0.0000 0.0000 2.2952 0.0000 66.8572
#
#
#
# Elastic Compliance Matrix: (Units=1/GPa)
#
#
# Indices 1 2 3 4 5 6 
#
# 1 0.021157 -0.001439 0.003386 0.000000 0.008306 0.000000
# 2 -0.001439 0.009083 -0.000928 0.000000 0.002021 0.000000
# 3 0.003386 -0.000928 0.009691 0.000000 0.002934 0.000000
# 4 0.000000 0.000000 0.000000 0.023726 0.000000 -0.000815
# 5 0.008306 0.002021 0.002934 0.000000 0.027614 0.000000
# 6 0.000000 0.000000 0.000000 -0.000815 0.000000 0.014985
#
#
# Mechanical properties :
#
#
# Convention : Reuss Voigt Hill
#
# Bulk Modulus (GPa) = 23.82750 33.49082 28.65916
# Shear Modulus (GPa) = 42.29805 48.79416 45.54611
#
# Velocity S-wave (km/s) = 4.12071 4.42584 4.27600
# Velocity P-wave (km/s) = 5.67501 6.28984 5.99032
#
# Compressibility (1/GPa) = 0.04196831
#
# Stress axis : x y z
#
# Youngs Moduli (GPa) = 47.26551 110.09476 103.19012
#
# Poissons Ratio (x) = 0.15840 -0.34935
# Poissons Ratio (y) = 0.06801 0.09577
# Poissons Ratio (z) = -0.16002 0.10218
#
# Static dielectric constant tensor:
#      x y z
#    x 1.983280 0.000000 0.026800 
#    y 0.000000 1.942560 0.000000 
#    z 0.026800 0.000000 1.952790 
# 
# From -- ./inp_files/14018.got.cif
#   From: 2010.05.17/outbox.cif.g08.bks.cpg/sg4_8_cif.got.tgz:14018.got - 2010.06.03 18:43:04.
