data_PCOD9119480
_publ_section_title
;
Structure prediction by ZEFSAII (Michael W. Deem and Ramdas Pophale) SiO2 
 PCOD9119480
Probable space group: P 21
;
_chemical_formula_sum "Si O2"
_cell_formula_units_Z 14
_cell_length_a 12.339676
_cell_length_b 9.026174
_cell_length_c 5.248746
_cell_angle_alpha 90.000000
_cell_angle_beta 60.491860
_cell_angle_gamma 90.000000
_cell_volume 508.773961
_symmetry_space_group_name_H-M "P 21"
_symmetry_group_IT_number 4
_symmetry_cell_setting 'monoclinic'
loop_
_space_group_symop_operation_xyz
x,y,z
-x,1/2+y,-z
loop_
_atom_site_type_symbol
_atom_site_label
_atom_site_fract_x
_atom_site_fract_y
_atom_site_fract_z
Si Si1 0.919193 0.800250 0.772232
Si Si2 0.779023 0.684351 0.437903
Si Si3 0.943625 0.029177 0.365918
Si Si4 0.273655 0.565564 0.782247
Si Si5 0.458601 0.066496 0.785305
Si Si6 0.606507 0.872806 0.954005
Si Si7 0.788351 0.411984 0.142845
O O1 0.862245 0.730292 0.580854
O O2 0.044387 0.706148 0.655645
O O3 0.945114 0.967340 0.654129
O O4 0.824109 0.007382 0.319707
O O5 0.654064 0.772772 0.658614
O O6 0.774544 0.506593 0.421488
O O7 0.838667 0.742241 0.104535
O O8 0.069337 0.951218 0.107705
O O9 0.415674 0.550305 0.522767
O O10 0.238658 0.737947 0.854348
O O11 0.287698 0.468116 0.024720
O O12 0.502071 0.987380 0.993896
O O13 0.328614 0.991513 0.863043
O O14 0.439668 0.241812 0.815037
#
# Coordination Sequence:
#
# PCOD9119480 Si02
#       7
#     2   2   2   2   2   2   2
#     4  11  28  52  84 129 176 236 290 377 454 548
#     4  11  28  53  88 122 184 234 303 369 464 537
#     4  11  29  53  91 127 184 226 307 373 462 549
#     4  12  30  56  89 134 183 238 311 376 468 547
#     4  12  29  52  89 128 184 236 312 374 463 546
#     4  12  29  53  92 130 186 243 306 386 458 557
#     4  11  29  53  89 130 181 243 303 381 461 556
#
# _framework density 27.517133999999999
#
# number of rings (size 3 to 8) (size 9 to 14) (size 15 to 20)
#    0.000    0.571    0.000    4.286   20.000    4.571 
#    2.571    0.000    0.000    0.000    0.000    0.000 
#    0.000    0.000    0.000    0.000    0.000    0.000 
#
# Total GULP energy -78277.807071 kJ/mol
# GULP energy per Si atom -5591.271934 kJ/mol
# Density = 2.745450 g / cm^3
# Si number density = 27.517134 Si / 1000 Ang^3
#
#
#
# Elastic Constant Matrix: (Units=GPa)
#
#
# Indices 1 2 3 4 5 6 
#
# 1 168.1221 36.6723 51.2421 0.0000 2.0276 0.0000
# 2 36.6723 194.9519 41.4289 0.0000 -3.5487 0.0000
# 3 51.2421 41.4289 142.6160 0.0000 -2.6174 0.0000
# 4 0.0000 0.0000 0.0000 40.9239 0.0000 7.1037
# 5 2.0276 -3.5487 -2.6174 0.0000 47.0861 0.0000
# 6 0.0000 0.0000 0.0000 7.1037 0.0000 53.0127
#
#
#
# Elastic Compliance Matrix: (Units=1/GPa)
#
#
# Indices 1 2 3 4 5 6 
#
# 1 0.006808 -0.000818 -0.002217 0.000000 -0.000478 0.000000
# 2 -0.000818 0.005570 -0.001317 0.000000 0.000382 0.000000
# 3 -0.002217 -0.001317 0.008199 0.000000 0.000452 0.000000
# 4 0.000000 0.000000 0.000000 0.025018 0.000000 -0.003352
# 5 -0.000478 0.000382 0.000452 0.000000 0.021312 0.000000
# 6 0.000000 0.000000 0.000000 -0.003352 0.000000 0.019313
#
#
# Mechanical properties :
#
#
# Convention : Reuss Voigt Hill
#
# Bulk Modulus (GPa) = 84.22757 84.93074 84.57916
# Shear Modulus (GPa) = 50.56494 53.29431 51.92962
#
# Velocity S-wave (km/s) = 4.29135 4.40565 4.34887
# Velocity P-wave (km/s) = 7.43168 7.53733 7.48469
#
# Compressibility (1/GPa) = 0.01187260
#
# Stress axis : x y z
#
# Youngs Moduli (GPa) = 146.88403 179.52585 121.95997
#
# Poissons Ratio (x) = 0.14688 0.27042
# Poissons Ratio (y) = 0.12018 0.16064
# Poissons Ratio (z) = 0.32568 0.23646
#
# Static dielectric constant tensor:
#      x y z
#    x 2.203730 0.000000 -0.074560 
#    y 0.000000 2.340680 0.000000 
#    z -0.074560 0.000000 2.345970 
# 
# From -- ./inp_files/4087.got.cif
#   From: 2010.05.17/outbox.cif.g08.bks.cpg/sg4_3_cif.got.tgz:4087.got - 2010.06.03 18:43:04.
