data_PCOD9119484
_publ_section_title
;
Structure prediction by ZEFSAII (Michael W. Deem and Ramdas Pophale) SiO2 
 PCOD9119484
Probable space group: P 21
;
_chemical_formula_sum "Si O2"
_cell_formula_units_Z 10
_cell_length_a 6.898987
_cell_length_b 8.253489
_cell_length_c 10.138083
_cell_angle_alpha 90.000000
_cell_angle_beta 41.617522
_cell_angle_gamma 90.000000
_cell_volume 383.396468
_symmetry_space_group_name_H-M "P 21"
_symmetry_group_IT_number 4
_symmetry_cell_setting 'monoclinic'
loop_
_space_group_symop_operation_xyz
x,y,z
-x,1/2+y,-z
loop_
_atom_site_type_symbol
_atom_site_label
_atom_site_fract_x
_atom_site_fract_y
_atom_site_fract_z
Si Si1 0.548426 0.899960 0.847884
Si Si2 0.987852 0.280702 0.993219
Si Si3 0.374190 0.406498 0.573280
Si Si4 0.872085 0.202112 0.784470
Si Si5 0.937279 0.228891 0.309998
O O1 0.337749 0.858812 0.081738
O O2 0.768715 0.882760 0.207796
O O3 0.799826 0.764378 0.726622
O O4 0.712710 0.068931 0.780487
O O5 0.681306 0.379679 0.152463
O O6 0.909180 0.146591 0.919870
O O7 0.064455 0.218933 0.097012
O O8 0.712543 0.378052 0.421956
O O9 0.265941 0.574056 0.567858
O O10 0.191151 0.268463 0.586801
#
# Coordination Sequence:
#
# PCOD9119484 Si02
#       5
#     2   2   2   2   2
#     4   9  18  35  61  82 116 155 190 242 286 347
#     4   8  23  36  59  87 114 153 198 228 303 342
#     4   9  23  35  59  92 113 155 196 243 288 346
#     4   8  18  38  55  86 117 144 197 234 292 340
#     4  12  20  40  62  81 128 151 195 245 289 351
#
# _framework density 26.082657999999999
#
# number of rings (size 3 to 8) (size 9 to 14) (size 15 to 20)
#    2.400    0.000    0.000    3.600    2.800    0.000 
#    0.000    8.000    0.000    0.000    0.000    0.000 
#    0.000    0.000    0.000    0.000    0.000    0.000 
#
# Total GULP energy -55783.327233 kJ/mol
# GULP energy per Si atom -5578.332723 kJ/mol
# Density = 2.602329 g / cm^3
# Si number density = 26.082658 Si / 1000 Ang^3
#
#
#
# Elastic Constant Matrix: (Units=GPa)
#
#
# Indices 1 2 3 4 5 6 
#
# 1 104.5139 5.0038 28.5991 0.0000 -1.5257 0.0000
# 2 5.0038 69.4069 -4.9559 0.0000 -1.7305 0.0000
# 3 28.5991 -4.9559 83.2219 0.0000 -21.1578 0.0000
# 4 0.0000 0.0000 0.0000 38.8037 0.0000 -12.7883
# 5 -1.5257 -1.7305 -21.1578 0.0000 44.0641 0.0000
# 6 0.0000 0.0000 0.0000 -12.7883 0.0000 22.0014
#
#
#
# Elastic Compliance Matrix: (Units=1/GPa)
#
#
# Indices 1 2 3 4 5 6 
#
# 1 0.010742 -0.001115 -0.004185 0.000000 -0.001682 0.000000
# 2 -0.001115 0.014634 0.001584 0.000000 0.001297 0.000000
# 3 -0.004185 0.001584 0.015409 0.000000 0.007316 0.000000
# 4 0.000000 0.000000 0.000000 0.031877 0.000000 0.018529
# 5 -0.001682 0.001297 0.007316 0.000000 0.026200 0.000000
# 6 0.000000 0.000000 0.000000 0.018529 0.000000 0.056221
#
#
# Mechanical properties :
#
#
# Convention : Reuss Voigt Hill
#
# Bulk Modulus (GPa) = 29.98322 34.93739 32.46031
# Shear Modulus (GPa) = 28.79638 36.20687 32.50163
#
# Velocity S-wave (km/s) = 3.32632 3.72984 3.53385
# Velocity P-wave (km/s) = 5.12571 5.65446 5.39657
#
# Compressibility (1/GPa) = 0.03335199
#
# Stress axis : x y z
#
# Youngs Moduli (GPa) = 93.09023 68.33562 64.89829
#
# Poissons Ratio (x) = 0.07621 0.27163
# Poissons Ratio (y) = 0.10382 -0.10282
# Poissons Ratio (z) = 0.38963 -0.10827
#
# Static dielectric constant tensor:
#      x y z
#    x 1.984670 0.000000 0.026920 
#    y 0.000000 2.136580 0.000000 
#    z 0.026920 0.000000 2.063000 
# 
# From -- ./inp_files/5195.got.cif
#   From: 2010.05.17/outbox.cif.g08.bks.cpg/sg4_3_cif.got.tgz:5195.got - 2010.06.03 18:43:04.
