data_PCOD9119507
_publ_section_title
;
Structure prediction by ZEFSAII (Michael W. Deem and Ramdas Pophale) SiO2 
 PCOD9119507
Probable space group: P 21
;
_chemical_formula_sum "Si O2"
_cell_formula_units_Z 16
_cell_length_a 9.212852
_cell_length_b 13.036845
_cell_length_c 9.218716
_cell_angle_alpha 90.000000
_cell_angle_beta 136.760889
_cell_angle_gamma 90.000000
_cell_volume 758.500461
_symmetry_space_group_name_H-M "P 21"
_symmetry_group_IT_number 4
_symmetry_cell_setting 'monoclinic'
loop_
_space_group_symop_operation_xyz
x,y,z
-x,1/2+y,-z
loop_
_atom_site_type_symbol
_atom_site_label
_atom_site_fract_x
_atom_site_fract_y
_atom_site_fract_z
Si Si1 0.018584 0.722180 0.773149
Si Si2 0.230550 0.777082 0.227595
Si Si3 0.565335 0.923707 0.584145
Si Si4 0.224961 0.334662 0.980642
Si Si5 0.330759 0.106595 0.027231
Si Si6 0.584900 0.632605 0.571974
Si Si7 0.227861 0.528858 0.771437
Si Si8 0.964251 0.951224 0.667850
O O1 0.100887 0.624674 0.745512
O O2 0.775490 0.699247 0.643501
O O3 0.033949 0.832168 0.706264
O O4 0.159765 0.735712 0.020505
O O5 0.404863 0.866431 0.358774
O O6 0.358055 0.688626 0.403793
O O7 0.017533 0.817752 0.146229
O O8 0.777951 0.950123 0.651918
O O9 0.447864 0.028376 0.541527
O O10 0.631164 0.858066 0.772536
O O11 0.238558 0.433222 0.888708
O O12 0.290119 0.225939 0.958842
O O13 0.357299 0.106568 0.220864
O O14 0.539859 0.067746 0.100906
O O15 0.143798 0.029073 0.851146
O O16 0.120380 0.490114 0.546317
#
# Coordination Sequence:
#
# PCOD9119507 Si02
#       8
#     2   2   2   2   2   2   2   2
#     4  12  27  49  73 117 147 193 259 307 366 450
#     4  12  22  44  80 106 146 190 246 318 356 430
#     4  12  24  45  80 112 144 196 254 302 372 434
#     4  12  27  49  73 117 147 193 259 307 366 450
#     4  12  27  48  75 108 151 198 241 309 373 449
#     4  12  24  45  80 112 144 196 254 302 372 434
#     4  12  32  46  74 108 156 200 236 312 380 442
#     4  12  27  48  75 108 151 198 241 309 373 449
#
# _framework density 21.094252000000001
#
# number of rings (size 3 to 8) (size 9 to 14) (size 15 to 20)
#    0.000    0.000    6.250    3.000    5.250    3.000 
#    0.000    0.000    0.000    0.000    0.000    0.000 
#    0.000    0.000    0.000    0.000    0.000    0.000 
#
# Total GULP energy -89547.560744 kJ/mol
# GULP energy per Si atom -5596.722546 kJ/mol
# Density = 2.104624 g / cm^3
# Si number density = 21.094252 Si / 1000 Ang^3
#
#
#
# Elastic Constant Matrix: (Units=GPa)
#
#
# Indices 1 2 3 4 5 6 
#
# 1 1.8244 -0.4065 -26.1739 0.0000 -5.7047 0.0000
# 2 -0.4065 149.0573 9.0081 0.0000 -1.2604 0.0000
# 3 -26.1739 9.0081 35.3120 0.0000 10.5555 0.0000
# 4 0.0000 0.0000 0.0000 50.6190 0.0000 7.3263
# 5 -5.7047 -1.2604 10.5555 0.0000 19.2356 0.0000
# 6 0.0000 0.0000 0.0000 7.3263 0.0000 29.2698
#
#
#
# Elastic Compliance Matrix: (Units=1/GPa)
#
#
# Indices 1 2 3 4 5 6 
#
# 1 -0.055030 0.002564 -0.043800 0.000000 0.007883 0.000000
# 2 0.002564 0.006740 -0.000213 0.000000 0.001319 0.000000
# 3 -0.043800 -0.000213 -0.000245 0.000000 -0.012869 0.000000
# 4 0.000000 0.000000 0.000000 0.020498 0.000000 -0.005131
# 5 0.007883 0.001319 -0.012869 0.000000 0.061473 0.000000
# 6 0.000000 0.000000 0.000000 -0.005131 0.000000 0.035449
#
#
# Mechanical properties :
#
#
# Convention : Reuss Voigt Hill
#
# Bulk Modulus (GPa) = -7.60834 16.78325 4.58745
# Shear Modulus (GPa) = 46.30798 33.40928 39.85863
#
# Velocity S-wave (km/s) = 4.69047 3.98403 4.35161
# Velocity P-wave (km/s) = 5.07143 5.39786 5.23719
#
# Compressibility (1/GPa) = -0.13143464
#
# Stress axis : x y z
#
# Youngs Moduli (GPa) = -18.17176 148.37070 -4085.38228
#
# Poissons Ratio (x) = -0.38036 -178.93870
# Poissons Ratio (y) = 0.04658 -0.87214
# Poissons Ratio (z) = -0.79592 0.03167
#
# Static dielectric constant tensor:
#      x y z
#    x 1.717630 0.000000 0.005560 
#    y 0.000000 1.820140 0.000000 
#    z 0.005560 0.000000 1.726290 
# 
# From -- ./inp_files/2922.got.cif
#   From: 2010.05.17/outbox.cif.g08.bks.cpg/sg4_2_cif.got.tgz:2922.got - 2010.06.03 18:43:04.
