data_PCOD9119245
_publ_section_title
;
Structure prediction by ZEFSAII (Michael W. Deem and Ramdas Pophale) SiO2 
 PCOD9119245
Probable space group: P 21
;
_chemical_formula_sum "Si O2"
_cell_formula_units_Z 16
_cell_length_a 7.649786
_cell_length_b 18.443243
_cell_length_c 8.575715
_cell_angle_alpha 90.000000
_cell_angle_beta 35.500296
_cell_angle_gamma 90.000000
_cell_volume 702.609627
_symmetry_space_group_name_H-M "P 21"
_symmetry_group_IT_number 4
_symmetry_cell_setting 'monoclinic'
loop_
_space_group_symop_operation_xyz
x,y,z
-x,1/2+y,-z
loop_
_atom_site_type_symbol
_atom_site_label
_atom_site_fract_x
_atom_site_fract_y
_atom_site_fract_z
Si Si1 0.426090 0.667690 0.739431
Si Si2 0.950299 0.171731 0.521620
Si Si3 0.965725 0.010672 0.546632
Si Si4 0.339415 0.507077 0.904409
Si Si5 0.814885 0.864784 0.508196
Si Si6 0.108677 0.761509 0.724441
Si Si7 0.624887 0.273308 0.964137
Si Si8 0.355335 0.353572 0.727866
O O1 0.768135 0.670104 0.560111
O O2 0.320169 0.584474 0.829251
O O3 0.347680 0.707467 0.636010
O O4 0.257290 0.720809 0.983123
O O5 0.863477 0.088901 0.561746
O O6 0.043383 0.210891 0.294968
O O7 0.671059 0.217336 0.789555
O O8 0.324687 0.005336 0.267530
O O9 0.805263 0.946493 0.572290
O O10 0.891141 0.006133 0.784513
O O11 0.306787 0.435049 0.825226
O O12 0.683528 0.853758 0.431027
O O13 0.153404 0.837745 0.243404
O O14 0.651189 0.815200 0.755633
O O15 0.305296 0.824410 0.499357
O O16 0.874096 0.801208 0.010734
#
# Coordination Sequence:
#
# PCOD9119245 Si02
#       8
#     2   2   2   2   2   2   2   2
#     4  11  24  49  70 102 141 187 227 295 353 406
#     4  11  27  46  75 105 139 183 244 286 351 422
#     4  11  26  45  67 103 134 189 229 282 357 419
#     4  11  26  43  71  97 144 182 232 287 353 415
#     4  12  25  42  71  97 141 182 226 284 357 408
#     4  12  28  44  74 105 141 181 240 289 346 416
#     4  12  22  43  71  97 132 187 224 288 343 409
#     4  12  26  46  65 110 138 181 236 285 348 427
#
# _framework density 22.772248000000001
#
# number of rings (size 3 to 8) (size 9 to 14) (size 15 to 20)
#    0.000    0.500    5.000    1.500    8.750    0.000 
#    0.000    0.000    0.000    0.000    0.000    0.000 
#    0.000    0.000    0.000    0.000    0.000    0.000 
#
# Total GULP energy -89396.966120 kJ/mol
# GULP energy per Si atom -5587.310382 kJ/mol
# Density = 2.272042 g / cm^3
# Si number density = 22.772248 Si / 1000 Ang^3
#
#
#
# Elastic Constant Matrix: (Units=GPa)
#
#
# Indices 1 2 3 4 5 6 
#
# 1 65.4866 37.5163 16.8147 0.0000 9.6080 0.0000
# 2 37.5163 130.1076 38.3193 0.0000 19.3606 0.0000
# 3 16.8147 38.3193 105.6617 0.0000 2.7583 0.0000
# 4 0.0000 0.0000 0.0000 26.9791 0.0000 7.2583
# 5 9.6080 19.3606 2.7583 0.0000 16.2499 0.0000
# 6 0.0000 0.0000 0.0000 7.2583 0.0000 39.6981
#
#
#
# Elastic Compliance Matrix: (Units=1/GPa)
#
#
# Indices 1 2 3 4 5 6 
#
# 1 0.018873 -0.004158 -0.001339 0.000000 -0.005978 0.000000
# 2 -0.004158 0.011401 -0.003197 0.000000 -0.010583 0.000000
# 3 -0.001339 -0.003197 0.010764 0.000000 0.002774 0.000000
# 4 0.000000 0.000000 0.000000 0.038983 0.000000 -0.007128
# 5 -0.005978 -0.010583 0.002774 0.000000 0.077211 0.000000
# 6 0.000000 0.000000 0.000000 -0.007128 0.000000 0.026493
#
#
# Mechanical properties :
#
#
# Convention : Reuss Voigt Hill
#
# Bulk Modulus (GPa) = 42.28294 54.06182 48.17238
# Shear Modulus (GPa) = 23.92363 30.49246 27.20804
#
# Velocity S-wave (km/s) = 3.24475 3.66323 3.46032
# Velocity P-wave (km/s) = 5.71366 6.45632 6.09631
#
# Compressibility (1/GPa) = 0.02365020
#
# Stress axis : x y z
#
# Youngs Moduli (GPa) = 52.98470 87.71023 92.89998
#
# Poissons Ratio (x) = 0.36471 0.12443
# Poissons Ratio (y) = 0.22032 0.29698
# Poissons Ratio (z) = 0.07097 0.28039
#
# Static dielectric constant tensor:
#      x y z
#    x 1.909100 0.000000 -0.006580 
#    y 0.000000 1.832210 0.000000 
#    z -0.006580 0.000000 1.871460 
# 
# From -- ./inp_files/6948.got.cif
#   From: 2010.05.17/outbox.cif.g08.bks.cpg/sg4_4_cif.got.tgz:6948.got - 2010.06.03 18:43:04.
