data_PCOD9119672
_publ_section_title
;
Structure prediction by ZEFSAII (Michael W. Deem and Ramdas Pophale) SiO2 
 PCOD9119672
Probable space group: P 21
;
_chemical_formula_sum "Si O2"
_cell_formula_units_Z 14
_cell_length_a 8.270574
_cell_length_b 9.419640
_cell_length_c 11.134559
_cell_angle_alpha 90.000000
_cell_angle_beta 39.772589
_cell_angle_gamma 90.000000
_cell_volume 554.942376
_symmetry_space_group_name_H-M "P 21"
_symmetry_group_IT_number 4
_symmetry_cell_setting 'monoclinic'
loop_
_space_group_symop_operation_xyz
x,y,z
-x,1/2+y,-z
loop_
_atom_site_type_symbol
_atom_site_label
_atom_site_fract_x
_atom_site_fract_y
_atom_site_fract_z
Si Si1 0.156876 0.496820 0.499571
Si Si2 0.426075 0.768384 0.759963
Si Si3 0.812221 0.101453 0.776202
Si Si4 0.226673 0.750170 0.605009
Si Si5 0.566558 0.938734 0.275890
Si Si6 0.985148 0.342630 0.810499
Si Si7 0.331623 0.303086 0.029869
O O1 0.321367 0.359278 0.372211
O O2 0.093110 0.578886 0.413817
O O3 0.322151 0.609821 0.482218
O O4 0.947675 0.433032 0.709368
O O5 0.331910 0.778888 0.676571
O O6 0.446336 0.598984 0.764157
O O7 0.229497 0.836038 0.966049
O O8 0.014758 0.179959 0.746675
O O9 0.703553 0.953581 0.885070
O O10 0.574186 0.209093 0.919100
O O11 0.302523 0.882372 0.478820
O O12 0.928897 0.727322 0.787911
O O13 0.771957 0.910866 0.263299
O O14 0.654432 0.838383 0.118212
#
# Coordination Sequence:
#
# PCOD9119672 Si02
#       7
#     2   2   2   2   2   2   2
#     4  12  29  47  75 115 161 210 261 330 392 486
#     4  12  25  48  81 117 155 203 266 331 398 466
#     4  12  30  53  76 115 161 222 259 329 405 492
#     4  12  26  48  80 116 155 204 265 337 394 468
#     4  12  26  50  81 120 151 205 272 334 396 468
#     4  12  27  50  81 113 162 208 264 335 401 468
#     4  12  29  52  78 112 163 208 271 328 402 480
#
# _framework density 25.227843
#
# number of rings (size 3 to 8) (size 9 to 14) (size 15 to 20)
#    0.000    0.000    7.143    0.857    8.000    2.286 
#    0.000    0.000    0.000    0.000    0.000    0.000 
#    0.000    0.000    0.000    0.000    0.000    0.000 
#
# Total GULP energy -78425.545915 kJ/mol
# GULP energy per Si atom -5601.824708 kJ/mol
# Density = 2.517042 g / cm^3
# Si number density = 25.227843 Si / 1000 Ang^3
#
#
#
# Elastic Constant Matrix: (Units=GPa)
#
#
# Indices 1 2 3 4 5 6 
#
# 1 59.5058 7.1368 17.9116 0.0000 13.1443 0.0000
# 2 7.1368 105.1402 30.4291 0.0000 -4.3795 0.0000
# 3 17.9116 30.4291 143.0306 0.0000 20.1593 0.0000
# 4 0.0000 0.0000 0.0000 32.0756 0.0000 -2.2247
# 5 13.1443 -4.3795 20.1593 0.0000 42.9720 0.0000
# 6 0.0000 0.0000 0.0000 -2.2247 0.0000 39.7947
#
#
#
# Elastic Compliance Matrix: (Units=1/GPa)
#
#
# Indices 1 2 3 4 5 6 
#
# 1 0.018475 -0.001073 -0.001364 0.000000 -0.005121 0.000000
# 2 -0.001073 0.010393 -0.002433 0.000000 0.002529 0.000000
# 3 -0.001364 -0.002433 0.008198 0.000000 -0.003677 0.000000
# 4 0.000000 0.000000 0.000000 0.031298 0.000000 0.001750
# 5 -0.005121 0.002529 -0.003677 0.000000 0.026820 0.000000
# 6 0.000000 0.000000 0.000000 0.001750 0.000000 0.025227
#
#
# Mechanical properties :
#
#
# Convention : Reuss Voigt Hill
#
# Bulk Modulus (GPa) = 36.59292 46.51463 41.55378
# Shear Modulus (GPa) = 35.90403 39.78172 37.84288
#
# Velocity S-wave (km/s) = 3.77661 3.97532 3.87724
# Velocity P-wave (km/s) = 5.79254 6.28878 6.04576
#
# Compressibility (1/GPa) = 0.02732769
#
# Stress axis : x y z
#
# Youngs Moduli (GPa) = 54.12606 96.21406 121.97831
#
# Poissons Ratio (x) = 0.10321 0.16634
# Poissons Ratio (y) = 0.05806 0.29681
# Poissons Ratio (z) = 0.07381 0.23411
#
# Static dielectric constant tensor:
#      x y z
#    x 1.998550 0.000000 -0.015260 
#    y 0.000000 1.988250 0.000000 
#    z -0.015260 0.000000 1.973990 
# 
# From -- ./inp_files/7476.got.cif
#   From: 2010.05.17/outbox.cif.g08.bks.cpg/sg4_4_cif.got.tgz:7476.got - 2010.06.03 18:43:04.
