data_PCOD9119766
_publ_section_title
;
Structure prediction by ZEFSAII (Michael W. Deem and Ramdas Pophale) SiO2 
 PCOD9119766
Probable space group: P 21
;
_chemical_formula_sum "Si O2"
_cell_formula_units_Z 14
_cell_length_a 19.534354
_cell_length_b 5.264314
_cell_length_c 14.535146
_cell_angle_alpha 90.000000
_cell_angle_beta 157.773391
_cell_angle_gamma 90.000000
_cell_volume 565.409342
_symmetry_space_group_name_H-M "P 21"
_symmetry_group_IT_number 4
_symmetry_cell_setting 'monoclinic'
loop_
_space_group_symop_operation_xyz
x,y,z
-x,1/2+y,-z
loop_
_atom_site_type_symbol
_atom_site_label
_atom_site_fract_x
_atom_site_fract_y
_atom_site_fract_z
Si Si1 0.951028 0.129430 0.786183
Si Si2 0.580592 0.392814 0.340270
Si Si3 0.831873 0.757320 0.760542
Si Si4 0.760472 0.578826 0.005541
Si Si5 0.030922 0.610840 0.491233
Si Si6 0.488106 0.421531 0.543218
Si Si7 0.441301 0.567847 0.975781
O O1 0.748418 0.221122 0.512006
O O2 0.094300 0.193349 0.885921
O O3 0.929797 0.832110 0.787472
O O4 0.032191 0.220408 0.985831
O O5 0.685060 0.546172 0.550208
O O6 0.403886 0.248926 0.159330
O O7 0.512220 0.561358 0.169129
O O8 0.694665 0.971219 0.627864
O O9 0.886091 0.483327 0.243069
O O10 0.654234 0.363186 0.817419
O O11 0.232786 0.644051 0.707999
O O12 0.043080 0.393149 0.583481
O O13 0.539182 0.681201 0.555769
O O14 0.544246 0.782553 0.045854
#
# Coordination Sequence:
#
# PCOD9119766 Si02
#       7
#     2   2   2   2   2   2   2
#     4  12  27  48  75 117 156 213 266 328 395 489
#     4  12  28  53  80 115 162 213 264 335 406 478
#     4  12  27  46  75 112 169 205 268 332 399 477
#     4  12  28  49  82 114 157 212 270 326 413 475
#     4  12  28  53  81 117 159 203 270 342 401 478
#     4  12  27  47  76 113 157 210 266 325 399 481
#     4  12  29  54  85 118 160 212 272 338 409 482
#
# _framework density 24.760822000000001
#
# number of rings (size 3 to 8) (size 9 to 14) (size 15 to 20)
#    0.000    0.000    5.714    2.571    8.000    1.143 
#    0.000    0.000    0.000    0.000    0.000    0.000 
#    0.000    0.000    0.000    0.000    0.000    0.000 
#
# Total GULP energy -78252.706016 kJ/mol
# GULP energy per Si atom -5589.479001 kJ/mol
# Density = 2.470447 g / cm^3
# Si number density = 24.760822 Si / 1000 Ang^3
#
#
#
# Elastic Constant Matrix: (Units=GPa)
#
#
# Indices 1 2 3 4 5 6 
#
# 1 86.7227 10.0629 26.1658 0.0000 23.5168 0.0000
# 2 10.0629 56.4592 0.0886 0.0000 2.7272 0.0000
# 3 26.1658 0.0886 129.6292 0.0000 10.6334 0.0000
# 4 0.0000 0.0000 0.0000 40.7718 0.0000 6.1478
# 5 23.5168 2.7272 10.6334 0.0000 42.2277 0.0000
# 6 0.0000 0.0000 0.0000 6.1478 0.0000 16.0821
#
#
#
# Elastic Compliance Matrix: (Units=1/GPa)
#
#
# Indices 1 2 3 4 5 6 
#
# 1 0.014478 -0.002222 -0.002319 0.000000 -0.007335 0.000000
# 2 -0.002222 0.018109 0.000440 0.000000 -0.000043 0.000000
# 3 -0.002319 0.000440 0.008249 0.000000 -0.000814 0.000000
# 4 0.000000 0.000000 0.000000 0.026027 0.000000 -0.009949
# 5 -0.007335 -0.000043 -0.000814 0.000000 0.027974 0.000000
# 6 0.000000 0.000000 0.000000 -0.009949 0.000000 0.065984
#
#
# Mechanical properties :
#
#
# Convention : Reuss Voigt Hill
#
# Bulk Modulus (GPa) = 30.64449 38.38287 34.51368
# Shear Modulus (GPa) = 27.79288 35.58257 31.68773
#
# Velocity S-wave (km/s) = 3.35394 3.79496 3.58124
# Velocity P-wave (km/s) = 5.23465 5.89384 5.57400
#
# Compressibility (1/GPa) = 0.03263229
#
# Stress axis : x y z
#
# Youngs Moduli (GPa) = 69.07172 55.21994 121.22821
#
# Poissons Ratio (x) = 0.12272 0.28114
# Poissons Ratio (y) = 0.15351 -0.05331
# Poissons Ratio (z) = 0.16019 -0.02428
#
# Static dielectric constant tensor:
#      x y z
#    x 2.036590 0.000000 -0.015050 
#    y 0.000000 2.065760 0.000000 
#    z -0.015050 0.000000 1.918590 
# 
# From -- ./inp_files/14373.got.cif
#   From: 2010.05.17/outbox.cif.g08.bks.cpg/sg4_8_cif.got.tgz:14373.got - 2010.06.03 18:43:04.
