data_PCOD9119842
_publ_section_title
;
Structure prediction by ZEFSAII (Michael W. Deem and Ramdas Pophale) SiO2 
 PCOD9119842
Probable space group: P 21
;
_chemical_formula_sum "Si O2"
_cell_formula_units_Z 16
_cell_length_a 15.000000
_cell_length_b 9.000000
_cell_length_c 15.000000
_cell_angle_alpha 90.000000
_cell_angle_beta 20.000000
_cell_angle_gamma 90.000000
_cell_volume 692.590790
_symmetry_space_group_name_H-M "P 21"
_symmetry_group_IT_number 4
_symmetry_cell_setting 'monoclinic'
loop_
_space_group_symop_operation_xyz
x,y,z
-x,1/2+y,-z
loop_
_atom_site_type_symbol
_atom_site_label
_atom_site_fract_x
_atom_site_fract_y
_atom_site_fract_z
Si Si1 0.516596 0.594490 0.676758
Si Si2 0.048510 0.456502 0.235123
Si Si3 0.218539 0.566171 0.266571
Si Si4 0.395575 0.930555 0.829925
Si Si5 0.303118 0.375093 0.772307
Si Si6 0.232812 0.918985 0.189963
Si Si7 0.064404 0.080321 0.982398
Si Si8 0.268115 0.687657 0.540821
O O1 0.142395 0.478561 0.247335
O O2 0.269891 0.522330 0.961888
O O3 0.786812 0.551130 0.467776
O O4 0.485970 0.768883 0.714227
O O5 0.496147 0.518742 0.598105
O O6 0.953231 0.290613 0.296802
O O7 0.221799 0.745329 0.237978
O O8 0.007157 0.512075 0.539951
O O9 0.502960 0.504357 0.027250
O O10 0.639409 0.045150 0.601790
O O11 0.256355 0.919886 0.058366
O O12 0.225173 0.989469 0.906345
O O13 0.045897 0.472957 0.990112
O O14 0.468829 0.284275 0.692958
O O15 0.215157 0.224855 0.803364
O O16 0.835306 0.144998 0.263322
#
# Coordination Sequence:
#
# PCOD9119842 Si02
#       8
#     2   2   2   2   2   2   2   2
#     4  11  23  45  74 103 145 191 241 303 358 439
#     4  11  24  48  75 100 146 192 242 293 377 437
#     4  12  28  50  77 109 147 201 244 313 372 449
#     4  11  27  45  71 108 141 192 246 308 364 442
#     4  10  23  43  66 105 140 190 244 296 365 434
#     4  12  29  49  75 110 151 190 253 307 377 441
#     4  11  23  44  70  98 147 189 242 302 363 441
#     4  10  25  44  70 105 143 193 244 300 372 433
#
# _framework density 23.101664
#
# number of rings (size 3 to 8) (size 9 to 14) (size 15 to 20)
#    0.000    1.000    2.500    2.250    7.000    4.000 
#    2.250    0.000    0.000    0.000    0.000    0.000 
#    0.000    0.000    0.000    0.000    0.000    0.000 
#
# Total GULP energy -89191.526969 kJ/mol
# GULP energy per Si atom -5574.470436 kJ/mol
# Density = 2.304908 g / cm^3
# Si number density = 23.101664 Si / 1000 Ang^3
#
#
#
# Elastic Constant Matrix: (Units=GPa)
#
#
# Indices 1 2 3 4 5 6 
#
# 1 24.7604 -7.6366 23.4597 0.0000 -30.9597 0.0000
# 2 -7.6366 166.8456 60.5243 0.0000 -1.9457 0.0000
# 3 23.4597 60.5243 124.9168 0.0000 -11.3932 0.0000
# 4 0.0000 0.0000 0.0000 35.2357 0.0000 -3.6356
# 5 -30.9597 -1.9457 -11.3932 0.0000 36.8177 0.0000
# 6 0.0000 0.0000 0.0000 -3.6356 0.0000 31.3545
#
#
#
# Elastic Compliance Matrix: (Units=1/GPa)
#
#
# Indices 1 2 3 4 5 6 
#
# 1 -0.210276 -0.024719 0.036244 0.000000 -0.166910 0.000000
# 2 -0.024719 0.004385 0.000662 0.000000 -0.020349 0.000000
# 3 0.036244 0.000662 0.003767 0.000000 0.031678 0.000000
# 4 0.000000 0.000000 0.000000 0.028724 0.000000 0.003331
# 5 -0.166910 -0.020349 0.031678 0.000000 -0.104465 0.000000
# 6 0.000000 0.000000 0.000000 0.003331 0.000000 0.032280
#
#
# Mechanical properties :
#
#
# Convention : Reuss Voigt Hill
#
# Bulk Modulus (GPa) = -5.62586 52.13529 23.25471
# Shear Modulus (GPa) = -15.18787 36.69326 10.75269
#
# Velocity S-wave (km/s) = -2.56683 3.98972 2.15977
# Velocity P-wave (km/s) = 3.35043 6.62122 4.03827
#
# Compressibility (1/GPa) = -0.17775051
#
# Stress axis : x y z
#
# Youngs Moduli (GPa) = -4.75565 228.05833 265.44391
#
# Poissons Ratio (x) = 5.63727 -9.62067
# Poissons Ratio (y) = -0.11755 -0.17565
# Poissons Ratio (z) = 0.17236 -0.15091
#
# Static dielectric constant tensor:
#      x y z
#    x 1.908180 0.000000 0.035470 
#    y 0.000000 1.903950 0.000000 
#    z 0.035470 0.000000 1.939870 
# 
# From -- ./inp_files/14187.got.cif
#   From: 2010.05.17/outbox.ucp.g08.bks.cvg/sg4_8_cif.got.tgz:14187.got - 2010.06.11 12:51:24.
