data_PCOD9119230
_publ_section_title
;
Structure prediction by ZEFSAII (Michael W. Deem and Ramdas Pophale) SiO2 
 PCOD9119230
Probable space group: P 21
;
_chemical_formula_sum "Si O2"
_cell_formula_units_Z 16
_cell_length_a 13.969310
_cell_length_b 9.941470
_cell_length_c 13.795237
_cell_angle_alpha 90.000000
_cell_angle_beta 158.958311
_cell_angle_gamma 90.000000
_cell_volume 687.869726
_symmetry_space_group_name_H-M "P 21"
_symmetry_group_IT_number 4
_symmetry_cell_setting 'monoclinic'
loop_
_space_group_symop_operation_xyz
x,y,z
-x,1/2+y,-z
loop_
_atom_site_type_symbol
_atom_site_label
_atom_site_fract_x
_atom_site_fract_y
_atom_site_fract_z
Si Si1 0.766263 0.904570 0.374000
Si Si2 0.197216 0.008564 0.327981
Si Si3 0.675199 0.942790 0.064989
Si Si4 0.214614 0.097844 0.549730
Si Si5 0.219040 0.982192 0.936966
Si Si6 0.417576 0.344588 0.407634
Si Si7 0.870420 0.272460 0.980347
Si Si8 0.799684 0.768285 0.998571
O O1 0.737866 0.894465 0.231995
O O2 0.756117 0.753814 0.404688
O O3 0.036005 0.968216 0.669467
O O4 0.523300 0.988030 0.190123
O O5 0.326321 0.057619 0.550167
O O6 0.985663 0.122849 0.100990
O O7 0.423569 0.982080 0.463190
O O8 0.043100 0.868539 0.202527
O O9 0.684271 0.829957 0.989780
O O10 0.908884 0.049994 0.262106
O O11 0.390674 0.014630 0.791542
O O12 0.186133 0.850351 0.973278
O O13 0.136307 0.113935 0.918888
O O14 0.387448 0.277316 0.272993
O O15 0.119970 0.352061 0.167695
O O16 0.609849 0.275088 0.667382
#
# Coordination Sequence:
#
# PCOD9119230 Si02
#       8
#     2   2   2   2   2   2   2   2
#     4  12  27  48  76 107 151 195 242 304 366 434
#     4  11  26  50  77 102 150 195 250 299 362 438
#     4  11  26  44  78 106 144 194 245 298 363 435
#     4  11  24  48  74 106 143 197 249 296 358 434
#     4  12  29  50  71 111 152 192 238 313 363 433
#     4  12  27  46  74 111 143 191 243 304 360 435
#     4  12  29  46  78 107 145 198 248 297 369 435
#     4  11  28  48  74 110 150 186 245 303 369 426
#
# _framework density 23.260217999999998
#
# number of rings (size 3 to 8) (size 9 to 14) (size 15 to 20)
#    0.000    0.500    3.750    2.250   10.500    1.000 
#    0.000    0.000    0.000    0.000    0.000    0.000 
#    0.000    0.000    0.000    0.000    0.000    0.000 
#
# Total GULP energy -89603.891019 kJ/mol
# GULP energy per Si atom -5600.243189 kJ/mol
# Density = 2.320728 g / cm^3
# Si number density = 23.260218 Si / 1000 Ang^3
#
#
#
# Elastic Constant Matrix: (Units=GPa)
#
#
# Indices 1 2 3 4 5 6 
#
# 1 91.5800 8.5955 31.3416 0.0000 -15.2493 0.0000
# 2 8.5955 60.5145 10.2898 0.0000 -2.0174 0.0000
# 3 31.3416 10.2898 109.1640 0.0000 -30.9309 0.0000
# 4 0.0000 0.0000 0.0000 24.6688 0.0000 -3.6933
# 5 -15.2493 -2.0174 -30.9309 0.0000 48.4583 0.0000
# 6 0.0000 0.0000 0.0000 -3.6933 0.0000 15.6787
#
#
#
# Elastic Compliance Matrix: (Units=1/GPa)
#
#
# Indices 1 2 3 4 5 6 
#
# 1 0.012346 -0.001200 -0.002863 0.000000 0.002008 0.000000
# 2 -0.001200 0.016916 -0.001413 0.000000 -0.000575 0.000000
# 3 -0.002863 -0.001413 0.012017 0.000000 0.006711 0.000000
# 4 0.000000 0.000000 0.000000 0.042019 0.000000 0.009898
# 5 0.002008 -0.000575 0.006711 0.000000 0.025528 0.000000
# 6 0.000000 0.000000 0.000000 0.009898 0.000000 0.066112
#
#
# Mechanical properties :
#
#
# Convention : Reuss Voigt Hill
#
# Bulk Modulus (GPa) = 32.97228 40.19026 36.58127
# Shear Modulus (GPa) = 25.51029 31.82992 28.67010
#
# Velocity S-wave (km/s) = 3.31529 3.70324 3.51462
# Velocity P-wave (km/s) = 5.37225 5.96669 5.67725
#
# Compressibility (1/GPa) = 0.03032850
#
# Stress axis : x y z
#
# Youngs Moduli (GPa) = 80.99744 59.11390 83.21505
#
# Poissons Ratio (x) = 0.07093 0.23821
# Poissons Ratio (y) = 0.09719 0.11759
# Poissons Ratio (z) = 0.23186 0.08353
#
# Static dielectric constant tensor:
#      x y z
#    x 1.903430 0.000000 0.006940 
#    y 0.000000 1.859450 0.000000 
#    z 0.006940 0.000000 1.855870 
# 
# From -- ./inp_files/14225.got.cif
#   From: 2010.05.17/outbox.cif.g08.bks.cpg/sg4_8_cif.got.tgz:14225.got - 2010.06.03 18:43:04.
