data_PCOD9119400
_publ_section_title
;
Structure prediction by ZEFSAII (Michael W. Deem and Ramdas Pophale) SiO2 
 PCOD9119400
Probable space group: P 21
;
_chemical_formula_sum "Si O2"
_cell_formula_units_Z 16
_cell_length_a 13.676801
_cell_length_b 11.577011
_cell_length_c 8.190492
_cell_angle_alpha 90.000000
_cell_angle_beta 28.339740
_cell_angle_gamma 90.000000
_cell_volume 615.614850
_symmetry_space_group_name_H-M "P 21"
_symmetry_group_IT_number 4
_symmetry_cell_setting 'monoclinic'
loop_
_space_group_symop_operation_xyz
x,y,z
-x,1/2+y,-z
loop_
_atom_site_type_symbol
_atom_site_label
_atom_site_fract_x
_atom_site_fract_y
_atom_site_fract_z
Si Si1 0.630961 0.682790 0.526509
Si Si2 0.003461 0.168763 0.786597
Si Si3 0.664634 0.768355 0.137987
Si Si4 0.359313 0.826382 0.160483
Si Si5 0.341583 0.625314 0.436336
Si Si6 0.984112 0.966674 0.565151
Si Si7 0.373571 0.943657 0.477114
Si Si8 0.061008 0.437141 0.726107
O O1 0.786685 0.632658 0.431693
O O2 0.741391 0.727247 0.201510
O O3 0.519228 0.565017 0.639714
O O4 0.501145 0.778255 0.808049
O O5 0.057087 0.302940 0.681129
O O6 0.959584 0.084406 0.702581
O O7 0.817289 0.156922 0.186875
O O8 0.570865 0.663844 0.163442
O O9 0.462101 0.846636 0.467801
O O10 0.816567 0.864281 0.841144
O O11 0.295811 0.708909 0.350108
O O12 0.188042 0.903851 0.329061
O O13 0.434876 0.900639 0.206130
O O14 0.267141 0.496652 0.495387
O O15 0.992028 0.999613 0.364387
O O16 0.128780 0.946178 0.869308
#
# Coordination Sequence:
#
# PCOD9119400 Si02
#       8
#     2   2   2   2   2   2   2   2
#     4  12  27  46  82 113 160 213 268 340 419 479
#     4  12  27  52  80 117 156 221 271 342 413 487
#     4  11  28  47  78 116 162 215 273 337 407 495
#     4  11  25  50  76 114 163 210 267 345 402 495
#     4  11  26  50  76 116 166 207 275 340 409 487
#     4  12  29  50  81 120 167 214 282 335 412 502
#     4  11  25  52  72 119 158 210 274 337 412 489
#     4  12  27  49  85 113 162 220 270 348 408 486
#
# _framework density 25.990276999999999
#
# number of rings (size 3 to 8) (size 9 to 14) (size 15 to 20)
#    0.000    0.500    5.000    1.500   10.500    0.000 
#    0.000    0.000    0.000    0.000    0.000    0.000 
#    0.000    0.000    0.000    0.000    0.000    0.000 
#
# Total GULP energy -89475.509277 kJ/mol
# GULP energy per Si atom -5592.219330 kJ/mol
# Density = 2.593112 g / cm^3
# Si number density = 25.990277 Si / 1000 Ang^3
#
#
#
# Elastic Constant Matrix: (Units=GPa)
#
#
# Indices 1 2 3 4 5 6 
#
# 1 91.7177 45.9398 28.5396 0.0000 11.8042 0.0000
# 2 45.9398 168.1953 54.2406 0.0000 11.1047 0.0000
# 3 28.5396 54.2406 61.2462 0.0000 13.4984 0.0000
# 4 0.0000 0.0000 0.0000 36.0887 0.0000 1.3024
# 5 11.8042 11.1047 13.4984 0.0000 40.6794 0.0000
# 6 0.0000 0.0000 0.0000 1.3024 0.0000 45.6593
#
#
#
# Elastic Compliance Matrix: (Units=1/GPa)
#
#
# Indices 1 2 3 4 5 6 
#
# 1 0.013511 -0.002338 -0.003778 0.000000 -0.002029 0.000000
# 2 -0.002338 0.008728 -0.006759 0.000000 0.000539 0.000000
# 3 -0.003778 -0.006759 0.025274 0.000000 -0.005445 0.000000
# 4 0.000000 0.000000 0.000000 0.027738 0.000000 -0.000791
# 5 -0.002029 0.000539 -0.005445 0.000000 0.026831 0.000000
# 6 0.000000 0.000000 0.000000 -0.000791 0.000000 0.021924
#
#
# Mechanical properties :
#
#
# Convention : Reuss Voigt Hill
#
# Bulk Modulus (GPa) = 45.95009 64.28878 55.11943
# Shear Modulus (GPa) = 31.84497 37.31477 34.57987
#
# Velocity S-wave (km/s) = 3.50418 3.79320 3.65155
# Velocity P-wave (km/s) = 5.83870 6.63128 6.24757
#
# Compressibility (1/GPa) = 0.02176274
#
# Stress axis : x y z
#
# Youngs Moduli (GPa) = 74.01509 114.57136 39.56605
#
# Poissons Ratio (x) = 0.26786 0.14949
# Poissons Ratio (y) = 0.17304 0.26743
# Poissons Ratio (z) = 0.27964 0.77440
#
# Static dielectric constant tensor:
#      x y z
#    x 2.098110 0.000000 -0.046660 
#    y 0.000000 2.213700 0.000000 
#    z -0.046660 0.000000 2.034020 
# 
# From -- ./inp_files/9291.got.cif
#   From: 2010.05.17/outbox.cif.g08.bks.cpg/sg4_5_cif.got.tgz:9291.got - 2010.06.03 18:43:04.
