data_PCOD9119417
_publ_section_title
;
Structure prediction by ZEFSAII (Michael W. Deem and Ramdas Pophale) SiO2 
 PCOD9119417
Probable space group: P 21
;
_chemical_formula_sum "Si O2"
_cell_formula_units_Z 16
_cell_length_a 26.085701
_cell_length_b 5.067702
_cell_length_c 4.924190
_cell_angle_alpha 90.000000
_cell_angle_beta 53.972342
_cell_angle_gamma 90.000000
_cell_volume 526.445763
_symmetry_space_group_name_H-M "P 21"
_symmetry_group_IT_number 4
_symmetry_cell_setting 'monoclinic'
loop_
_space_group_symop_operation_xyz
x,y,z
-x,1/2+y,-z
loop_
_atom_site_type_symbol
_atom_site_label
_atom_site_fract_x
_atom_site_fract_y
_atom_site_fract_z
Si Si1 0.501507 0.923140 0.752579
Si Si2 0.256416 0.287288 0.651131
Si Si3 0.865127 0.186196 0.355969
Si Si4 0.991791 0.305343 0.832479
Si Si5 0.733141 0.062875 0.848538
Si Si6 0.120841 0.178238 0.319259
Si Si7 0.400742 0.137513 0.334452
Si Si8 0.404903 0.709116 0.775715
O O1 0.516760 0.692992 0.967148
O O2 0.483304 0.647108 0.571149
O O3 0.582669 0.923730 0.503147
O O4 0.420643 0.922814 0.000431
O O5 0.257470 0.278888 0.319448
O O6 0.327243 0.184639 0.494052
O O7 0.260577 0.543297 0.849900
O O8 0.184783 0.199042 0.945667
O O9 0.878221 0.396071 0.547275
O O10 0.791014 0.212041 0.525323
O O11 0.872093 0.897414 0.463299
O O12 0.919204 0.251325 0.969774
O O13 0.048988 0.244380 0.446323
O O14 0.998931 0.585080 0.958373
O O15 0.665527 0.128307 0.932851
O O16 0.398510 0.925130 0.571610
#
# Coordination Sequence:
#
# PCOD9119417 Si02
#       8
#     2   2   2   2   2   2   2   2
#     4  12  26  42  66  94 130 168 232 280 350 410
#     4  11  26  45  70  99 137 180 231 287 349 421
#     4   9  18  38  65 102 141 185 234 288 348 416
#     4   8  14  28  62  98 136 180 230 284 342 408
#     4  11  26  45  70  99 137 180 231 287 349 421
#     4   9  18  38  65 102 141 185 234 288 348 416
#     4  12  26  43  66  95 130 178 224 288 348 420
#     4  12  26  43  66  95 130 178 224 288 348 420
#
# _framework density 30.392493000000002
#
# number of rings (size 3 to 8) (size 9 to 14) (size 15 to 20)
#    0.000    1.500    3.750    0.750    7.000    0.000 
#    0.000    0.000    0.000   19.500    0.000    0.000 
#    0.000    0.000    0.000    0.000    0.000    0.000 
#
# Total GULP energy -89272.232561 kJ/mol
# GULP energy per Si atom -5579.514535 kJ/mol
# Density = 3.032332 g / cm^3
# Si number density = 30.392493 Si / 1000 Ang^3
#
#
#
# Elastic Constant Matrix: (Units=GPa)
#
#
# Indices 1 2 3 4 5 6 
#
# 1 152.3910 53.8271 133.1173 0.0000 -32.0334 0.0000
# 2 53.8271 165.5183 44.6186 0.0000 0.8369 0.0000
# 3 133.1173 44.6186 213.1421 0.0000 -43.0435 0.0000
# 4 0.0000 0.0000 0.0000 65.4645 0.0000 -3.3181
# 5 -32.0334 0.8369 -43.0435 0.0000 100.6407 0.0000
# 6 0.0000 0.0000 0.0000 -3.3181 0.0000 45.3261
#
#
#
# Elastic Compliance Matrix: (Units=1/GPa)
#
#
# Indices 1 2 3 4 5 6 
#
# 1 0.015520 -0.002653 -0.008905 0.000000 0.001153 0.000000
# 2 -0.002653 0.006900 0.000033 0.000000 -0.000888 0.000000
# 3 -0.008905 0.000033 0.010588 0.000000 0.001694 0.000000
# 4 0.000000 0.000000 0.000000 0.015332 0.000000 0.001122
# 5 0.001153 -0.000888 0.001694 0.000000 0.011035 0.000000
# 6 0.000000 0.000000 0.000000 0.001122 0.000000 0.022144
#
#
# Mechanical properties :
#
#
# Convention : Reuss Voigt Hill
#
# Bulk Modulus (GPa) = 100.40590 110.46417 105.43503
# Shear Modulus (GPa) = 46.34408 62.25216 54.29812
#
# Velocity S-wave (km/s) = 3.90917 4.53070 4.23136
# Velocity P-wave (km/s) = 7.31325 7.98714 7.65761
#
# Compressibility (1/GPa) = 0.00995957
#
# Stress axis : x y z
#
# Youngs Moduli (GPa) = 64.43322 144.93106 94.44380
#
# Poissons Ratio (x) = 0.38443 0.84100
# Poissons Ratio (y) = 0.17091 -0.00312
# Poissons Ratio (z) = 0.57376 -0.00478
#
# Static dielectric constant tensor:
#      x y z
#    x 2.494030 0.000000 0.146170 
#    y 0.000000 3.117950 0.000000 
#    z 0.146170 0.000000 2.608470 
# 
# From -- ./inp_files/4330.got.cif
#   From: 2010.05.17/outbox.cif.g08.bks.cpg/sg4_3_cif.got.tgz:4330.got - 2010.06.03 18:43:04.
