data_PCOD9119991
_publ_section_title
;
Structure prediction by ZEFSAII (Michael W. Deem and Ramdas Pophale) SiO2 
 PCOD9119991
Probable space group: C 2
;
_chemical_formula_sum "Si O2"
_cell_formula_units_Z 26
_cell_length_a 5.506557
_cell_length_b 30.308533
_cell_length_c 7.341616
_cell_angle_alpha 90.000000
_cell_angle_beta 74.737452
_cell_angle_gamma 90.000000
_cell_volume 1182.067746
_symmetry_space_group_name_H-M "C 2"
_symmetry_group_IT_number 5
_symmetry_cell_setting 'monoclinic'
loop_
_space_group_symop_operation_xyz
x,y,z
-x,y,-z
1/2+x,1/2+y,z
1/2-x,1/2+y,-z
loop_
_atom_site_type_symbol
_atom_site_label
_atom_site_fract_x
_atom_site_fract_y
_atom_site_fract_z
Si Si1 0.293054 0.779280 0.377364
Si Si2 0.000000 0.551382 0.000000
Si Si3 0.707105 0.682588 0.618734
Si Si4 0.165821 0.375917 0.726274
Si Si5 0.531888 0.592412 0.206305
Si Si6 0.666486 0.411181 0.710344
Si Si7 0.776398 0.510275 0.688086
O O1 0.500000 0.780027 0.500000
O O2 0.304327 0.730705 0.283711
O O3 0.354547 0.823281 0.255330
O O4 0.000000 0.783645 0.500000
O O5 0.829719 0.583894 0.161077
O O6 0.129833 0.519945 0.124349
O O7 0.500000 0.687132 0.500000
O O8 0.600299 0.638768 0.732872
O O9 0.000000 0.676371 0.500000
O O10 0.395927 0.391313 0.803567
O O11 0.251135 0.390271 0.502490
O O12 0.897369 0.398978 0.795549
O O13 0.390378 0.552495 0.330881
O O14 0.500000 0.584410 0.000000
O O15 0.637602 0.463706 0.705579
O O16 0.000000 0.506830 0.500000
#
# Coordination Sequence:
#
# PCOD9119991 Si02
#       7
#     4   2   4   4   4   4   4
#     4  10  16  30  51  81 126 151 192 256 307 365
#     4  10  26  42  60  86 130 172 208 268 316 376
#     4  10  23  37  61  94 120 157 204 259 318 369
#     4  10  16  30  48  87 123 154 195 248 307 362
#     4  10  24  42  59  84 123 162 212 255 319 373
#     4  10  19  29  54  85 119 158 200 243 306 365
#     4  11  23  39  62  92 123 167 215 259 314 378
#
# _framework density 21.995358
#
# number of rings (size 3 to 8) (size 9 to 14) (size 15 to 20)
#    0.000    1.846    4.615    0.462    8.615    0.000 
#    0.000    0.000    0.000    0.000    2.000    0.000 
#    0.000    0.000    0.000    0.000    0.000    0.000 
#
# Total GULP energy -72443.185136 kJ/mol
# GULP energy per Si atom -5572.552703 kJ/mol
# Density = 2.194530 g / cm^3
# Si number density = 21.995358 Si / 1000 Ang^3
#
#
#
# Elastic Constant Matrix: (Units=GPa)
#
#
# Indices 1 2 3 4 5 6 
#
# 1 132.0841 20.0994 14.6858 0.0000 -14.1547 0.0000
# 2 20.0994 175.6007 17.3828 0.0000 -7.0954 0.0000
# 3 14.6858 17.3828 49.4507 0.0000 1.4178 0.0000
# 4 0.0000 0.0000 0.0000 -169.3516 0.0000 43.9112
# 5 -14.1547 -7.0954 1.4178 0.0000 16.3258 0.0000
# 6 0.0000 0.0000 0.0000 43.9112 0.0000 26.8394
#
#
#
# Elastic Compliance Matrix: (Units=1/GPa)
#
#
# Indices 1 2 3 4 5 6 
#
# 1 0.008751 -0.000429 -0.002667 0.000000 0.007632 0.000000
# 2 -0.000429 0.006047 -0.002068 0.000000 0.002436 0.000000
# 3 -0.002667 -0.002068 0.021888 0.000000 -0.005112 0.000000
# 4 0.000000 0.000000 0.000000 -0.004146 0.000000 0.006783
# 5 0.007632 0.002436 -0.005112 0.000000 0.069372 0.000000
# 6 0.000000 0.000000 0.000000 0.006783 0.000000 0.026161
#
#
# Mechanical properties :
#
#
# Convention : Reuss Voigt Hill
#
# Bulk Modulus (GPa) = 37.94004 51.27462 44.60733
# Shear Modulus (GPa) = 33.97073 -4.90612 14.53230
#
# Velocity S-wave (km/s) = 3.93421 -1.49511 2.57319
# Velocity P-wave (km/s) = 6.15824 4.51461 5.39933
#
# Compressibility (1/GPa) = 0.02635738
#
# Stress axis : x y z
#
# Youngs Moduli (GPa) = 114.27768 165.37149 45.68800
#
# Poissons Ratio (x) = 0.07099 0.12184
# Poissons Ratio (y) = 0.04905 0.09448
# Poissons Ratio (z) = 0.30474 0.34198
#
# Static dielectric constant tensor:
#      x y z
#    x 1.986420 0.000000 -0.064850 
#    y 0.000000 1.856900 0.000000 
#    z -0.064850 0.000000 1.932980 
# 
# From -- ./inp_files/13163.got.cif
#   From: 2010.05.17/outbox.cif.g08.bks.cpg/sg5_7_cif.got.tgz:13163.got - 2010.06.03 18:56:24.
