data_PCOD9119415
_publ_section_title
;
Structure prediction by ZEFSAII (Michael W. Deem and Ramdas Pophale) SiO2 
 PCOD9119415
Probable space group: P 21
;
_chemical_formula_sum "Si O2"
_cell_formula_units_Z 14
_cell_length_a 8.453612
_cell_length_b 4.919315
_cell_length_c 12.268793
_cell_angle_alpha 90.000000
_cell_angle_beta 82.614007
_cell_angle_gamma 90.000000
_cell_volume 505.976379
_symmetry_space_group_name_H-M "P 21"
_symmetry_group_IT_number 4
_symmetry_cell_setting 'monoclinic'
loop_
_space_group_symop_operation_xyz
x,y,z
-x,1/2+y,-z
loop_
_atom_site_type_symbol
_atom_site_label
_atom_site_fract_x
_atom_site_fract_y
_atom_site_fract_z
Si Si1 0.866687 0.587680 0.089261
Si Si2 0.002501 0.597707 0.421136
Si Si3 0.304557 0.802272 0.268838
Si Si4 0.529252 0.506583 0.074342
Si Si5 0.897864 0.725305 0.838157
Si Si6 0.810752 0.954467 0.284740
Si Si7 0.493304 0.614424 0.571679
O O1 0.704855 0.406042 0.096861
O O2 0.791226 0.829303 0.166951
O O3 0.033433 0.524658 0.137099
O O4 0.913470 0.616003 0.960183
O O5 0.023089 0.814091 0.517483
O O6 0.160435 0.622372 0.331878
O O7 0.854266 0.712226 0.364325
O O8 0.246758 0.054508 0.198987
O O9 0.382483 0.955270 0.364163
O O10 0.418917 0.611715 0.184395
O O11 0.453062 0.268752 0.007320
O O12 0.035595 0.638706 0.742614
O O13 0.664567 0.120129 0.342459
O O14 0.462471 0.412143 0.472669
#
# Coordination Sequence:
#
# PCOD9119415 Si02
#       7
#     2   2   2   2   2   2   2
#     4  12  25  47  77 116 166 208 266 326 409 485
#     4  11  26  47  71 106 149 199 269 332 388 465
#     4  11  26  51  78 118 155 218 267 336 406 486
#     4  12  29  49  81 120 166 212 270 329 406 495
#     4  11  26  47  76 115 160 211 266 325 402 489
#     4  11  26  44  76 108 148 211 254 330 404 467
#     4  12  28  51  77 113 156 211 272 340 405 477
#
# _framework density 27.669274000000001
#
# number of rings (size 3 to 8) (size 9 to 14) (size 15 to 20)
#    0.000    0.571    4.286    1.714    8.000    4.571 
#    2.571    0.000    0.000    0.000    0.000    0.000 
#    0.000    0.000    0.000    0.000    0.000    0.000 
#
# Total GULP energy -78408.157892 kJ/mol
# GULP energy per Si atom -5600.582707 kJ/mol
# Density = 2.760630 g / cm^3
# Si number density = 27.669274 Si / 1000 Ang^3
#
#
#
# Elastic Constant Matrix: (Units=GPa)
#
#
# Indices 1 2 3 4 5 6 
#
# 1 78.4622 2.8913 37.1880 0.0000 -10.0740 0.0000
# 2 2.8913 111.8622 41.9435 0.0000 7.0991 0.0000
# 3 37.1880 41.9435 168.3194 0.0000 -6.8614 0.0000
# 4 0.0000 0.0000 0.0000 44.9614 0.0000 0.4385
# 5 -10.0740 7.0991 -6.8614 0.0000 59.0200 0.0000
# 6 0.0000 0.0000 0.0000 0.4385 0.0000 32.2764
#
#
#
# Elastic Compliance Matrix: (Units=1/GPa)
#
#
# Indices 1 2 3 4 5 6 
#
# 1 0.014548 0.000740 -0.003317 0.000000 0.002008 0.000000
# 2 0.000740 0.010029 -0.002719 0.000000 -0.001396 0.000000
# 3 -0.003317 -0.002719 0.007377 0.000000 0.000619 0.000000
# 4 0.000000 0.000000 0.000000 0.022244 0.000000 -0.000302
# 5 0.002008 -0.001396 0.000619 0.000000 0.017526 0.000000
# 6 0.000000 0.000000 0.000000 -0.000302 0.000000 0.030986
#
#
# Mechanical properties :
#
#
# Convention : Reuss Voigt Hill
#
# Bulk Modulus (GPa) = 46.81426 58.07658 52.44542
# Shear Modulus (GPa) = 41.52058 45.69296 43.60677
#
# Velocity S-wave (km/s) = 3.87796 4.06815 3.97419
# Velocity P-wave (km/s) = 6.08337 6.56518 6.32886
#
# Compressibility (1/GPa) = 0.02136101
#
# Stress axis : x y z
#
# Youngs Moduli (GPa) = 68.73999 99.71348 135.56113
#
# Poissons Ratio (x) = -0.07380 0.44961
# Poissons Ratio (y) = -0.05088 0.36866
# Poissons Ratio (z) = 0.22799 0.27117
#
# Static dielectric constant tensor:
#      x y z
#    x 2.348810 0.000000 0.109390 
#    y 0.000000 2.258720 0.000000 
#    z 0.109390 0.000000 2.102970 
# 
# From -- ./inp_files/10726.got.cif
#   From: 2010.05.17/outbox.cif.g08.bks.cpg/sg4_6_cif.got.tgz:10726.got - 2010.06.03 18:43:04.
