data_PCOD9119035
_publ_section_title
;
Structure prediction by ZEFSAII (Michael W. Deem and Ramdas Pophale) SiO2 
 PCOD9119035
Probable space group: P 21
;
_chemical_formula_sum "Si O2"
_cell_formula_units_Z 10
_cell_length_a 6.705358
_cell_length_b 7.873540
_cell_length_c 11.009078
_cell_angle_alpha 90.000000
_cell_angle_beta 52.730042
_cell_angle_gamma 90.000000
_cell_volume 462.532272
_symmetry_space_group_name_H-M "P 21"
_symmetry_group_IT_number 4
_symmetry_cell_setting 'monoclinic'
loop_
_space_group_symop_operation_xyz
x,y,z
-x,1/2+y,-z
loop_
_atom_site_type_symbol
_atom_site_label
_atom_site_fract_x
_atom_site_fract_y
_atom_site_fract_z
Si Si1 0.884540 0.711960 0.506977
Si Si2 0.461603 0.438866 0.215415
Si Si3 0.394572 0.886246 0.280784
Si Si4 0.626359 0.113087 0.997502
Si Si5 0.212858 0.163330 0.738432
O O1 0.783758 0.869647 0.624914
O O2 0.760764 0.549955 0.616390
O O3 0.784739 0.694796 0.406214
O O4 0.182239 0.742030 0.383266
O O5 0.547713 0.274951 0.106146
O O6 0.641071 0.503537 0.257018
O O7 0.454658 0.582821 0.112544
O O8 0.642338 0.826351 0.260582
O O9 0.503850 0.952341 0.112448
O O10 0.926589 0.129791 0.881571
#
# Coordination Sequence:
#
# PCOD9119035 Si02
#       5
#     2   2   2   2   2
#     4  11  24  42  66  96 133 176 222 275 330 392
#     4  11  24  42  66  96 133 176 222 275 330 392
#     4  11  24  42  66  96 133 176 222 275 330 392
#     4  11  24  42  66  96 133 176 222 275 330 392
#     4  12  22  40  64  94 132 172 222 270 324 396
#
# _framework density 21.620113
#
# number of rings (size 3 to 8) (size 9 to 14) (size 15 to 20)
#    0.000    0.800    0.000    8.400    0.000    0.000 
#    0.000    8.000    0.000    0.000    0.000    0.000 
#    0.000    0.000    0.000    0.000    0.000    0.000 
#
# Total GULP energy -55694.610327 kJ/mol
# GULP energy per Si atom -5569.461033 kJ/mol
# Density = 2.157090 g / cm^3
# Si number density = 21.620113 Si / 1000 Ang^3
#
#
#
# Elastic Constant Matrix: (Units=GPa)
#
#
# Indices 1 2 3 4 5 6 
#
# 1 42.0157 -13.1341 -26.2160 0.0000 -15.2276 0.0000
# 2 -13.1341 98.0005 7.3154 0.0000 -12.2059 0.0000
# 3 -26.2160 7.3154 17.9006 0.0000 -35.8068 0.0000
# 4 0.0000 0.0000 0.0000 37.7485 0.0000 -4.4774
# 5 -15.2276 -12.2059 -35.8068 0.0000 23.7908 0.0000
# 6 0.0000 0.0000 0.0000 -4.4774 0.0000 27.0056
#
#
#
# Elastic Compliance Matrix: (Units=1/GPa)
#
#
# Indices 1 2 3 4 5 6 
#
# 1 0.010102 0.000622 -0.013983 0.000000 -0.014260 0.000000
# 2 0.000622 0.010550 -0.004089 0.000000 -0.000344 0.000000
# 3 -0.013983 -0.004089 -0.007440 0.000000 -0.022245 0.000000
# 4 0.000000 0.000000 0.000000 0.027022 0.000000 0.004480
# 5 -0.014260 -0.000344 -0.022245 0.000000 -0.000751 0.000000
# 6 0.000000 0.000000 0.000000 0.004480 0.000000 0.037772
#
#
# Mechanical properties :
#
#
# Convention : Reuss Voigt Hill
#
# Bulk Modulus (GPa) = -46.10853 10.42749 -17.84052
# Shear Modulus (GPa) = 47.65216 30.37243 39.01230
#
# Velocity S-wave (km/s) = 4.69984 3.75216 4.25248
# Velocity P-wave (km/s) = 2.84225 4.85851 3.98017
#
# Compressibility (1/GPa) = -0.02168796
#
# Stress axis : x y z
#
# Youngs Moduli (GPa) = 98.98681 94.78918 -134.41279
#
# Poissons Ratio (x) = -0.05892 -1.87944
# Poissons Ratio (y) = -0.06153 -0.54964
# Poissons Ratio (z) = 1.38409 0.38761
#
# Static dielectric constant tensor:
#      x y z
#    x 1.738860 0.000000 -0.002280 
#    y 0.000000 1.941210 0.000000 
#    z -0.002280 0.000000 1.835300 
# 
# From -- ./inp_files/913.got.cif
#   From: 2010.05.17/outbox.cif.g08.bks.cpg/sg4_1_cif.got.tgz:913.got - 2010.06.03 18:43:04.
