data_PCOD9119553
_publ_section_title
;
Structure prediction by ZEFSAII (Michael W. Deem and Ramdas Pophale) SiO2 
 PCOD9119553
Probable space group: P 21
;
_chemical_formula_sum "Si O2"
_cell_formula_units_Z 12
_cell_length_a 5.011796
_cell_length_b 12.109090
_cell_length_c 8.565410
_cell_angle_alpha 90.000000
_cell_angle_beta 116.895483
_cell_angle_gamma 90.000000
_cell_volume 463.592799
_symmetry_space_group_name_H-M "P 21"
_symmetry_group_IT_number 4
_symmetry_cell_setting 'monoclinic'
loop_
_space_group_symop_operation_xyz
x,y,z
-x,1/2+y,-z
loop_
_atom_site_type_symbol
_atom_site_label
_atom_site_fract_x
_atom_site_fract_y
_atom_site_fract_z
Si Si1 0.133953 0.887720 0.588127
Si Si2 0.122506 0.211167 0.903831
Si Si3 0.897936 0.509866 0.725324
Si Si4 0.554581 0.323181 0.808199
Si Si5 0.694021 0.759322 0.700932
Si Si6 0.532221 0.489173 0.059196
O O1 0.345330 0.786957 0.589863
O O2 0.883698 0.839035 0.637549
O O3 0.005988 0.963293 0.417034
O O4 0.375929 0.965599 0.740691
O O5 0.240377 0.270932 0.777626
O O6 0.274179 0.092798 0.945854
O O7 0.767728 0.221697 0.819549
O O8 0.228771 0.269235 0.093617
O O9 0.649176 0.422584 0.719180
O O10 0.775146 0.633077 0.683478
O O11 0.189494 0.507499 0.915649
O O12 0.640876 0.381080 0.994499
#
# Coordination Sequence:
#
# PCOD9119553 Si02
#       6
#     2   2   2   2   2   2
#     4  12  30  48  77 112 156 193 259 313 373 457
#     4  12  24  43  79 111 145 202 252 301 380 448
#     4  12  29  49  80 112 154 203 254 311 388 447
#     4  12  24  43  74 111 143 197 251 300 371 446
#     4  12  25  49  75 111 152 202 247 318 380 444
#     4  12  26  48  79 111 150 203 249 311 376 452
#
# _framework density 25.884785000000001
#
# number of rings (size 3 to 8) (size 9 to 14) (size 15 to 20)
#    0.000    0.000    6.667    2.000    2.333    2.667 
#    0.000    0.000    0.000    0.000    0.000    0.000 
#    0.000    0.000    0.000    0.000    0.000    0.000 
#
# Total GULP energy -67171.201761 kJ/mol
# GULP energy per Si atom -5597.600147 kJ/mol
# Density = 2.582587 g / cm^3
# Si number density = 25.884785 Si / 1000 Ang^3
#
#
#
# Elastic Constant Matrix: (Units=GPa)
#
#
# Indices 1 2 3 4 5 6 
#
# 1 169.6048 65.0306 50.7132 0.0000 -16.5360 0.0000
# 2 65.0306 98.4169 41.2232 0.0000 -6.9850 0.0000
# 3 50.7132 41.2232 102.2866 0.0000 -9.5057 0.0000
# 4 0.0000 0.0000 0.0000 33.1617 0.0000 -14.4884
# 5 -16.5360 -6.9850 -9.5057 0.0000 45.0665 0.0000
# 6 0.0000 0.0000 0.0000 -14.4884 0.0000 40.0072
#
#
#
# Elastic Compliance Matrix: (Units=1/GPa)
#
#
# Indices 1 2 3 4 5 6 
#
# 1 0.008486 -0.004551 -0.002193 0.000000 0.001946 0.000000
# 2 -0.004551 0.014699 -0.003683 0.000000 -0.000169 0.000000
# 3 -0.002193 -0.003683 0.012464 0.000000 0.001254 0.000000
# 4 0.000000 0.000000 0.000000 0.035823 0.000000 0.012973
# 5 0.001946 -0.000169 0.001254 0.000000 0.023142 0.000000
# 6 0.000000 0.000000 0.000000 0.012973 0.000000 0.029694
#
#
# Mechanical properties :
#
#
# Convention : Reuss Voigt Hill
#
# Bulk Modulus (GPa) = 67.58513 76.02695 71.80604
# Shear Modulus (GPa) = 33.31254 37.86983 35.59119
#
# Velocity S-wave (km/s) = 3.59131 3.82909 3.71210
# Velocity P-wave (km/s) = 6.58508 6.99888 6.79513
#
# Compressibility (1/GPa) = 0.01479615
#
# Stress axis : x y z
#
# Youngs Moduli (GPa) = 117.83648 68.03282 80.22871
#
# Poissons Ratio (x) = 0.30962 0.17590
# Poissons Ratio (y) = 0.53628 0.29549
# Poissons Ratio (z) = 0.25836 0.25058
#
# Static dielectric constant tensor:
#      x y z
#    x 2.037410 0.000000 -0.000130 
#    y 0.000000 2.015500 0.000000 
#    z -0.000130 0.000000 2.084460 
# 
# From -- ./inp_files/4608.got.cif
#   From: 2010.05.17/outbox.cif.g08.bks.cpg/sg4_3_cif.got.tgz:4608.got - 2010.06.03 18:43:04.
