data_PCOD9119362
_publ_section_title
;
Structure prediction by ZEFSAII (Michael W. Deem and Ramdas Pophale) SiO2 
 PCOD9119362
Probable space group: P 21
;
_chemical_formula_sum "Si O2"
_cell_formula_units_Z 16
_cell_length_a 11.234373
_cell_length_b 5.140974
_cell_length_c 11.874534
_cell_angle_alpha 90.000000
_cell_angle_beta 67.267788
_cell_angle_gamma 90.000000
_cell_volume 632.547163
_symmetry_space_group_name_H-M "P 21"
_symmetry_group_IT_number 4
_symmetry_cell_setting 'monoclinic'
loop_
_space_group_symop_operation_xyz
x,y,z
-x,1/2+y,-z
loop_
_atom_site_type_symbol
_atom_site_label
_atom_site_fract_x
_atom_site_fract_y
_atom_site_fract_z
Si Si1 0.820332 0.527620 0.805479
Si Si2 0.215428 0.794830 0.883131
Si Si3 0.082707 0.982281 0.472366
Si Si4 0.030622 0.416004 0.877435
Si Si5 0.439902 0.344532 0.580005
Si Si6 0.337176 0.534292 0.082540
Si Si7 0.183980 0.047233 0.670432
Si Si8 0.569308 0.728025 0.153526
O O1 0.833705 0.464534 0.669865
O O2 0.724108 0.764705 0.856402
O O3 0.955842 0.601915 0.814883
O O4 0.767515 0.263244 0.881508
O O5 0.164623 0.493998 0.889526
O O6 0.235099 0.845309 0.742674
O O7 0.325373 0.995182 0.886289
O O8 0.079016 0.893180 0.986958
O O9 0.151412 0.922701 0.563881
O O10 0.968069 0.776430 0.500846
O O11 0.066018 0.183013 0.779614
O O12 0.479432 0.620878 0.514725
O O13 0.291990 0.266228 0.611756
O O14 0.459821 0.315597 0.708133
O O15 0.447131 0.620462 0.128589
O O16 0.387771 0.475728 0.938187
#
# Coordination Sequence:
#
# PCOD9119362 Si02
#       8
#     2   2   2   2   2   2   2   2
#     4  12  28  47  80 113 162 207 265 330 406 479
#     4  11  25  47  75 112 158 200 261 332 397 478
#     4  12  26  47  74 111 158 206 258 321 391 485
#     4  12  24  46  75 115 152 205 252 329 404 472
#     4  11  30  52  77 111 155 212 268 322 386 476
#     4  12  28  52  80 116 157 211 267 344 400 480
#     4  11  27  46  76 108 151 210 256 326 391 478
#     4  11  28  53  81 116 159 215 271 338 401 478
#
# _framework density 25.294559
#
# number of rings (size 3 to 8) (size 9 to 14) (size 15 to 20)
#    0.000    0.500    3.750    2.250    8.750    4.000 
#    2.250    0.000    0.000    0.000    0.000    0.000 
#    0.000    0.000    0.000    0.000    0.000    0.000 
#
# Total GULP energy -89516.308879 kJ/mol
# GULP energy per Si atom -5594.769305 kJ/mol
# Density = 2.523699 g / cm^3
# Si number density = 25.294559 Si / 1000 Ang^3
#
#
#
# Elastic Constant Matrix: (Units=GPa)
#
#
# Indices 1 2 3 4 5 6 
#
# 1 104.9624 19.7950 30.5075 0.0000 10.8033 0.0000
# 2 19.7950 91.6318 31.7397 0.0000 -9.0157 0.0000
# 3 30.5075 31.7397 173.8668 0.0000 16.8777 0.0000
# 4 0.0000 0.0000 0.0000 34.7973 0.0000 -5.2071
# 5 10.8033 -9.0157 16.8777 0.0000 42.7105 0.0000
# 6 0.0000 0.0000 0.0000 -5.2071 0.0000 22.3407
#
#
#
# Elastic Compliance Matrix: (Units=1/GPa)
#
#
# Indices 1 2 3 4 5 6 
#
# 1 0.010550 -0.002120 -0.001208 0.000000 -0.002639 0.000000
# 2 -0.002120 0.012581 -0.002324 0.000000 0.004110 0.000000
# 3 -0.001208 -0.002324 0.006661 0.000000 -0.002817 0.000000
# 4 0.000000 0.000000 0.000000 0.029776 0.000000 0.006940
# 5 -0.002639 0.004110 -0.002817 0.000000 0.026062 0.000000
# 6 0.000000 0.000000 0.000000 0.006940 0.000000 0.046379
#
#
# Mechanical properties :
#
#
# Convention : Reuss Voigt Hill
#
# Bulk Modulus (GPa) = 54.08926 59.39392 56.74159
# Shear Modulus (GPa) = 33.45056 39.19764 36.32410
#
# Velocity S-wave (km/s) = 3.64048 3.94083 3.79363
# Velocity P-wave (km/s) = 6.25308 6.65122 6.45522
#
# Compressibility (1/GPa) = 0.01848796
#
# Stress axis : x y z
#
# Youngs Moduli (GPa) = 94.78894 79.48809 150.12509
#
# Poissons Ratio (x) = 0.16854 0.18134
# Poissons Ratio (y) = 0.20098 0.34882
# Poissons Ratio (z) = 0.11450 0.18469
#
# Static dielectric constant tensor:
#      x y z
#    x 2.111200 0.000000 0.051000 
#    y 0.000000 2.163060 0.000000 
#    z 0.051000 0.000000 1.991520 
# 
# From -- ./inp_files/11738.got.cif
#   From: 2010.05.17/outbox.cif.g08.bks.cpg/sg4_6_cif.got.tgz:11738.got - 2010.06.03 18:43:04.
