data_PCOD9119410
_publ_section_title
;
Structure prediction by ZEFSAII (Michael W. Deem and Ramdas Pophale) SiO2 
 PCOD9119410
Probable space group: P 21
;
_chemical_formula_sum "Si O2"
_cell_formula_units_Z 12
_cell_length_a 9.235074
_cell_length_b 4.657009
_cell_length_c 11.301322
_cell_angle_alpha 90.000000
_cell_angle_beta 114.848087
_cell_angle_gamma 90.000000
_cell_volume 441.049674
_symmetry_space_group_name_H-M "P 21"
_symmetry_group_IT_number 4
_symmetry_cell_setting 'monoclinic'
loop_
_space_group_symop_operation_xyz
x,y,z
-x,1/2+y,-z
loop_
_atom_site_type_symbol
_atom_site_label
_atom_site_fract_x
_atom_site_fract_y
_atom_site_fract_z
Si Si1 0.861636 0.555450 0.205131
Si Si2 0.051313 0.873756 0.093583
Si Si3 0.645214 0.968196 0.750201
Si Si4 0.416867 0.116652 0.031422
Si Si5 0.703908 0.405291 0.391428
Si Si6 0.191598 0.362774 0.426666
O O1 0.935735 0.844552 0.168772
O O2 0.741897 0.465314 0.268835
O O3 0.023877 0.449653 0.316719
O O4 0.749353 0.462374 0.057369
O O5 0.222230 0.716988 0.178006
O O6 0.037963 0.196844 0.042863
O O7 0.603104 0.770492 0.849576
O O8 0.467845 0.054002 0.647232
O O9 0.708715 0.800342 0.657601
O O10 0.451886 0.370596 0.947271
O O11 0.835134 0.581798 0.507276
O O12 0.723759 0.093178 0.456838
#
# Coordination Sequence:
#
# PCOD9119410 Si02
#       6
#     2   2   2   2   2   2
#     4  11  26  47  75 105 147 192 244 308 368 442
#     4  11  26  43  68 106 149 186 233 294 374 445
#     4  11  26  47  75 105 147 192 244 308 368 442
#     4  12  28  46  74 116 150 194 244 312 388 446
#     4  12  26  47  74 104 145 196 252 302 358 442
#     4  11  28  48  72 106 144 198 249 300 366 435
#
# _framework density 27.207819000000001
#
# number of rings (size 3 to 8) (size 9 to 14) (size 15 to 20)
#    0.000    0.667    3.333    2.000    4.667   10.667 
#    0.000    0.000    0.000    0.000    0.000    0.000 
#    0.000    0.000    0.000    0.000    0.000    0.000 
#
# Total GULP energy -67007.891702 kJ/mol
# GULP energy per Si atom -5583.990975 kJ/mol
# Density = 2.714589 g / cm^3
# Si number density = 27.207819 Si / 1000 Ang^3
#
#
#
# Elastic Constant Matrix: (Units=GPa)
#
#
# Indices 1 2 3 4 5 6 
#
# 1 134.8540 22.1596 24.8006 0.0000 -0.5560 0.0000
# 2 22.1596 123.6629 37.3302 0.0000 -8.3449 0.0000
# 3 24.8006 37.3302 112.5534 0.0000 -19.4248 0.0000
# 4 0.0000 0.0000 0.0000 44.1373 0.0000 -1.0333
# 5 -0.5560 -8.3449 -19.4248 0.0000 54.2174 0.0000
# 6 0.0000 0.0000 0.0000 -1.0333 0.0000 31.5932
#
#
#
# Elastic Compliance Matrix: (Units=1/GPa)
#
#
# Indices 1 2 3 4 5 6 
#
# 1 0.007853 -0.000994 -0.001506 0.000000 -0.000612 0.000000
# 2 -0.000994 0.009118 -0.002734 0.000000 0.000414 0.000000
# 3 -0.001506 -0.002734 0.010710 0.000000 0.003401 0.000000
# 4 0.000000 0.000000 0.000000 0.022674 0.000000 0.000742
# 5 -0.000612 0.000414 0.003401 0.000000 0.019720 0.000000
# 6 0.000000 0.000000 0.000000 0.000742 0.000000 0.031677
#
#
# Mechanical properties :
#
#
# Convention : Reuss Voigt Hill
#
# Bulk Modulus (GPa) = 58.09439 59.96122 59.02781
# Shear Modulus (GPa) = 42.38812 45.10824 43.74818
#
# Velocity S-wave (km/s) = 3.95136 4.07617 4.01425
# Velocity P-wave (km/s) = 6.49739 6.65128 6.57479
#
# Compressibility (1/GPa) = 0.01721337
#
# Stress axis : x y z
#
# Youngs Moduli (GPa) = 127.33570 109.67662 93.36867
#
# Poissons Ratio (x) = 0.10900 0.14066
# Poissons Ratio (y) = 0.12655 0.25524
# Poissons Ratio (z) = 0.19183 0.29982
#
# Static dielectric constant tensor:
#      x y z
#    x 2.252450 0.000000 -0.056530 
#    y 0.000000 2.210150 0.000000 
#    z -0.056530 0.000000 2.183650 
# 
# From -- ./inp_files/10673.got.cif
#   From: 2010.05.17/outbox.cif.g08.bks.cpg/sg4_6_cif.got.tgz:10673.got - 2010.06.03 18:43:04.
