data_PCOD9119412
_publ_section_title
;
Structure prediction by ZEFSAII (Michael W. Deem and Ramdas Pophale) SiO2 
 PCOD9119412
Probable space group: P 21
;
_chemical_formula_sum "Si O2"
_cell_formula_units_Z 16
_cell_length_a 5.534014
_cell_length_b 7.675436
_cell_length_c 14.685877
_cell_angle_alpha 90.000000
_cell_angle_beta 82.813044
_cell_angle_gamma 90.000000
_cell_volume 618.895833
_symmetry_space_group_name_H-M "P 21"
_symmetry_group_IT_number 4
_symmetry_cell_setting 'monoclinic'
loop_
_space_group_symop_operation_xyz
x,y,z
-x,1/2+y,-z
loop_
_atom_site_type_symbol
_atom_site_label
_atom_site_fract_x
_atom_site_fract_y
_atom_site_fract_z
Si Si1 0.584727 0.272330 0.399596
Si Si2 0.431146 0.183785 0.054358
Si Si3 0.136082 0.491469 0.994583
Si Si4 0.969113 0.987828 0.370116
Si Si5 0.880632 0.568007 0.179947
Si Si6 0.372258 0.415862 0.233774
Si Si7 0.103875 0.949478 0.168447
Si Si8 0.798044 0.628361 0.455227
O O1 0.394998 0.329795 0.331390
O O2 0.745530 0.444914 0.409288
O O3 0.452543 0.217998 0.499135
O O4 0.728389 0.101294 0.360660
O O5 0.451171 0.294384 0.145965
O O6 0.665357 0.133448 0.985275
O O7 0.341547 0.998331 0.099843
O O8 0.248716 0.300929 0.003723
O O9 0.084802 0.540468 0.892642
O O10 0.913972 0.498404 0.075205
O O11 0.928721 0.782391 0.393245
O O12 0.125683 0.007659 0.271227
O O13 0.066324 0.074538 0.458116
O O14 0.092042 0.465093 0.226323
O O15 0.988802 0.760320 0.178562
O O16 0.598099 0.555417 0.222375
#
# Coordination Sequence:
#
# PCOD9119412 Si02
#       8
#     2   2   2   2   2   2   2   2
#     4  12  26  48  78 107 156 193 262 318 399 472
#     4  11  26  45  71 108 151 203 258 320 382 463
#     4  11  26  43  74 103 154 204 258 313 388 449
#     4  12  27  48  77 113 149 202 257 326 397 476
#     4  11  28  48  75 111 157 202 261 315 385 460
#     4  11  28  49  76 112 151 205 253 327 386 459
#     4  12  27  45  75 110 149 205 259 322 383 474
#     4  12  26  48  76 112 149 200 252 329 400 473
#
# _framework density 25.852492999999999
#
# number of rings (size 3 to 8) (size 9 to 14) (size 15 to 20)
#    0.000    0.500    2.500    3.750   19.250    2.000 
#    2.250    0.000    0.000    0.000    0.000    0.000 
#    0.000    0.000    0.000    0.000    0.000    0.000 
#
# Total GULP energy -89455.839834 kJ/mol
# GULP energy per Si atom -5590.989990 kJ/mol
# Density = 2.579365 g / cm^3
# Si number density = 25.852493 Si / 1000 Ang^3
#
#
#
# Elastic Constant Matrix: (Units=GPa)
#
#
# Indices 1 2 3 4 5 6 
#
# 1 39.1407 10.8757 28.0373 0.0000 1.9621 0.0000
# 2 10.8757 111.1729 11.0096 0.0000 8.1738 0.0000
# 3 28.0373 11.0096 104.8902 0.0000 9.5021 0.0000
# 4 0.0000 0.0000 0.0000 28.7298 0.0000 4.2275
# 5 1.9621 8.1738 9.5021 0.0000 49.4443 0.0000
# 6 0.0000 0.0000 0.0000 4.2275 0.0000 50.4236
#
#
#
# Elastic Compliance Matrix: (Units=1/GPa)
#
#
# Indices 1 2 3 4 5 6 
#
# 1 0.032207 -0.002370 -0.008427 0.000000 0.000733 0.000000
# 2 -0.002370 0.009352 -0.000220 0.000000 -0.001410 0.000000
# 3 -0.008427 -0.000220 0.011984 0.000000 -0.001932 0.000000
# 4 0.000000 0.000000 0.000000 0.035242 0.000000 -0.002955
# 5 0.000733 -0.001410 -0.001932 0.000000 0.020800 0.000000
# 6 0.000000 0.000000 0.000000 -0.002955 0.000000 0.020080
#
#
# Mechanical properties :
#
#
# Convention : Reuss Voigt Hill
#
# Bulk Modulus (GPa) = 31.73663 39.44990 35.59326
# Shear Modulus (GPa) = 30.82570 39.40495 35.11532
#
# Velocity S-wave (km/s) = 3.45681 3.90836 3.68950
# Velocity P-wave (km/s) = 5.31370 5.97158 5.65222
#
# Compressibility (1/GPa) = 0.03150933
#
# Stress axis : x y z
#
# Youngs Moduli (GPa) = 31.04940 106.92522 83.44184
#
# Poissons Ratio (x) = 0.25342 0.70313
# Poissons Ratio (y) = 0.07359 0.01839
# Poissons Ratio (z) = 0.26164 0.02357
#
# Static dielectric constant tensor:
#      x y z
#    x 2.152750 0.000000 0.034080 
#    y 0.000000 2.079030 0.000000 
#    z 0.034080 0.000000 1.982160 
# 
# From -- ./inp_files/13217.got.cif
#   From: 2010.05.17/outbox.cif.g08.bks.cpg/sg4_7_cif.got.tgz:13217.got - 2010.06.03 18:43:04.
