data_PCOD9119349
_publ_section_title
;
Structure prediction by ZEFSAII (Michael W. Deem and Ramdas Pophale) SiO2 
 PCOD9119349
Probable space group: P 21
;
_chemical_formula_sum "Si O2"
_cell_formula_units_Z 16
_cell_length_a 8.622579
_cell_length_b 9.456393
_cell_length_c 14.716692
_cell_angle_alpha 90.000000
_cell_angle_beta 33.258372
_cell_angle_gamma 90.000000
_cell_volume 658.085852
_symmetry_space_group_name_H-M "P 21"
_symmetry_group_IT_number 4
_symmetry_cell_setting 'monoclinic'
loop_
_space_group_symop_operation_xyz
x,y,z
-x,1/2+y,-z
loop_
_atom_site_type_symbol
_atom_site_label
_atom_site_fract_x
_atom_site_fract_y
_atom_site_fract_z
Si Si1 0.134946 0.097460 0.643907
Si Si2 0.873477 0.779835 0.975931
Si Si3 0.140273 0.015057 0.130791
Si Si4 0.610077 0.325189 0.151337
Si Si5 0.637402 0.064972 0.018069
Si Si6 0.941806 0.000159 0.538900
Si Si7 0.366018 0.766933 0.354344
Si Si8 0.435894 0.365927 0.544484
O O1 0.349890 0.228204 0.529929
O O2 0.872012 0.134962 0.836790
O O3 0.013720 0.051829 0.606119
O O4 0.303426 0.966940 0.607357
O O5 0.626262 0.722942 0.163513
O O6 0.875634 0.680076 0.887431
O O7 0.171940 0.775358 0.879370
O O8 0.793153 0.940838 0.995281
O O9 0.393250 0.996770 0.077300
O O10 0.844415 0.960804 0.313302
O O11 0.220997 0.928178 0.000472
O O12 0.337832 0.404481 0.322042
O O13 0.521199 0.186955 0.138986
O O14 0.855523 0.139190 0.526100
O O15 0.202357 0.898353 0.387559
O O16 0.489751 0.812789 0.390295
#
# Coordination Sequence:
#
# PCOD9119349 Si02
#       8
#     2   2   2   2   2   2   2   2
#     4  11  25  47  66 102 136 181 223 284 334 409
#     4  12  26  43  72 101 139 178 228 282 340 402
#     4  12  24  45  69 101 134 180 226 280 337 401
#     4  12  24  45  69 101 134 180 226 280 337 401
#     4  12  26  43  72 101 139 178 228 282 340 402
#     4  11  27  45  71  97 143 175 233 274 344 405
#     4  11  25  47  66 102 136 181 223 284 334 409
#     4  11  27  45  71  97 143 175 233 274 344 405
#
# _framework density 24.312937000000002
#
# number of rings (size 3 to 8) (size 9 to 14) (size 15 to 20)
#    0.000    0.500    5.000    1.500    7.000    3.000 
#    0.000    0.000    0.000    0.000    0.000    0.000 
#    0.000    0.000    0.000    0.000    0.000    0.000 
#
# Total GULP energy -89755.200316 kJ/mol
# GULP energy per Si atom -5609.700020 kJ/mol
# Density = 2.425760 g / cm^3
# Si number density = 24.312937 Si / 1000 Ang^3
#
#
#
# Elastic Constant Matrix: (Units=GPa)
#
#
# Indices 1 2 3 4 5 6 
#
# 1 59.7080 -0.1114 34.0366 0.0000 -23.9172 0.0000
# 2 -0.1114 96.1404 17.8482 0.0000 -3.1413 0.0000
# 3 34.0366 17.8482 91.9185 0.0000 -27.1711 0.0000
# 4 0.0000 0.0000 0.0000 43.4572 0.0000 -7.7465
# 5 -23.9172 -3.1413 -27.1711 0.0000 27.8932 0.0000
# 6 0.0000 0.0000 0.0000 -7.7465 0.0000 33.9928
#
#
#
# Elastic Compliance Matrix: (Units=1/GPa)
#
#
# Indices 1 2 3 4 5 6 
#
# 1 0.026924 0.001524 -0.004762 0.000000 0.018619 0.000000
# 2 0.001524 0.010903 -0.002714 0.000000 -0.000109 0.000000
# 3 -0.004762 -0.002714 0.016673 0.000000 0.011853 0.000000
# 4 0.000000 0.000000 0.000000 0.023985 0.000000 0.005466
# 5 0.018619 -0.000109 0.011853 0.000000 0.063350 0.000000
# 6 0.000000 0.000000 0.000000 0.005466 0.000000 0.030664
#
#
# Mechanical properties :
#
#
# Convention : Reuss Voigt Hill
#
# Bulk Modulus (GPa) = 23.47588 39.03484 31.25536
# Shear Modulus (GPa) = 25.17606 34.13488 29.65547
#
# Velocity S-wave (km/s) = 3.22141 3.75104 3.49627
# Velocity P-wave (km/s) = 4.84905 5.90342 5.40202
#
# Compressibility (1/GPa) = 0.04259691
#
# Stress axis : x y z
#
# Youngs Moduli (GPa) = 37.14207 91.71441 59.97716
#
# Poissons Ratio (x) = -0.13973 0.28559
# Poissons Ratio (y) = -0.05659 0.16275
# Poissons Ratio (z) = 0.17686 0.24887
#
# Static dielectric constant tensor:
#      x y z
#    x 1.852840 0.000000 0.037320 
#    y 0.000000 1.906380 0.000000 
#    z 0.037320 0.000000 1.911150 
# 
# From -- ./inp_files/5434.got.cif
#   From: 2010.05.17/outbox.cif.g08.bks.cpg/sg4_3_cif.got.tgz:5434.got - 2010.06.03 18:43:04.
