data_PCOD9119053
_publ_section_title
;
Structure prediction by ZEFSAII (Michael W. Deem and Ramdas Pophale) SiO2 
 PCOD9119053
Probable space group: P 21
;
_chemical_formula_sum "Si O2"
_cell_formula_units_Z 16
_cell_length_a 5.432421
_cell_length_b 24.804409
_cell_length_c 6.489126
_cell_angle_alpha 90.000000
_cell_angle_beta 133.261714
_cell_angle_gamma 90.000000
_cell_volume 636.762670
_symmetry_space_group_name_H-M "P 21"
_symmetry_group_IT_number 4
_symmetry_cell_setting 'monoclinic'
loop_
_space_group_symop_operation_xyz
x,y,z
-x,1/2+y,-z
loop_
_atom_site_type_symbol
_atom_site_label
_atom_site_fract_x
_atom_site_fract_y
_atom_site_fract_z
Si Si1 0.953304 0.753180 0.145287
Si Si2 0.294898 0.666986 0.092970
Si Si3 0.379098 0.016302 0.190612
Si Si4 0.295311 0.848923 0.098614
Si Si5 0.759812 0.595553 0.601776
Si Si6 0.709333 0.920866 0.620927
Si Si7 0.564728 0.999027 0.826842
Si Si8 0.750337 0.261517 0.269345
O O1 0.150143 0.804649 0.173348
O O2 0.953684 0.759440 0.394220
O O3 0.604487 0.754894 0.817627
O O4 0.108633 0.695718 0.177572
O O5 0.270940 0.712869 0.905820
O O6 0.114164 0.615088 0.892784
O O7 0.632693 0.644335 0.387504
O O8 0.444252 0.077589 0.307664
O O9 0.635379 0.975860 0.454370
O O10 0.469318 0.006520 0.007532
O O11 0.973073 0.007271 0.011746
O O12 0.602119 0.874712 0.399553
O O13 0.307734 0.815914 0.893185
O O14 0.055074 0.899523 0.913972
O O15 0.681029 0.541786 0.427327
O O16 0.492655 0.938263 0.700403
#
# Coordination Sequence:
#
# PCOD9119053 Si02
#       8
#     2   2   2   2   2   2   2   2
#     4  11  24  43  68 100 140 183 228 295 351 424
#     4  11  24  45  66 104 138 181 240 285 358 428
#     4  11  26  50  73 107 149 190 240 302 359 429
#     4  11  24  45  66 104 138 181 240 285 358 428
#     4  11  24  45  70 104 138 193 236 297 356 432
#     4  11  24  45  70 104 138 193 236 297 356 432
#     4  11  26  50  73 107 149 190 240 302 359 429
#     4  11  24  43  68 100 140 183 228 295 351 424
#
# _framework density 25.127101
#
# number of rings (size 3 to 8) (size 9 to 14) (size 15 to 20)
#    0.000    1.000    2.500    3.000    0.000   14.000 
#    9.000    0.000    0.000    0.000    0.000    0.000 
#    0.000    0.000    0.000    0.000    0.000    0.000 
#
# Total GULP energy -89222.803554 kJ/mol
# GULP energy per Si atom -5576.425222 kJ/mol
# Density = 2.506991 g / cm^3
# Si number density = 25.127101 Si / 1000 Ang^3
#
#
#
# Elastic Constant Matrix: (Units=GPa)
#
#
# Indices 1 2 3 4 5 6 
#
# 1 49.0690 11.1430 32.5358 0.0000 -11.8894 0.0000
# 2 11.1430 73.7866 11.9727 0.0000 5.9706 0.0000
# 3 32.5358 11.9727 156.9846 0.0000 -1.5889 0.0000
# 4 0.0000 0.0000 0.0000 47.3030 0.0000 1.8743
# 5 -11.8894 5.9706 -1.5889 0.0000 38.6480 0.0000
# 6 0.0000 0.0000 0.0000 1.8743 0.0000 18.4136
#
#
#
# Elastic Compliance Matrix: (Units=1/GPa)
#
#
# Indices 1 2 3 4 5 6 
#
# 1 0.026782 -0.003905 -0.005166 0.000000 0.008630 0.000000
# 2 -0.003905 0.014475 -0.000330 0.000000 -0.003451 0.000000
# 3 -0.005166 -0.000330 0.007453 0.000000 -0.001232 0.000000
# 4 0.000000 0.000000 0.000000 0.021226 0.000000 -0.002161
# 5 0.008630 -0.003451 -0.001232 0.000000 0.029012 0.000000
# 6 0.000000 0.000000 0.000000 -0.002161 0.000000 0.054528
#
#
# Mechanical properties :
#
#
# Convention : Reuss Voigt Hill
#
# Bulk Modulus (GPa) = 33.43278 43.46036 38.44657
# Shear Modulus (GPa) = 27.43541 35.81885 31.62713
#
# Velocity S-wave (km/s) = 3.30792 3.77968 3.55165
# Velocity P-wave (km/s) = 5.28433 6.03173 5.67036
#
# Compressibility (1/GPa) = 0.02991076
#
# Stress axis : x y z
#
# Youngs Moduli (GPa) = 37.33797 69.08463 134.16833
#
# Poissons Ratio (x) = 0.26976 0.69306
# Poissons Ratio (y) = 0.14579 0.04422
# Poissons Ratio (z) = 0.19287 0.02277
#
# Static dielectric constant tensor:
#      x y z
#    x 2.132700 0.000000 -0.045400 
#    y 0.000000 2.021870 0.000000 
#    z -0.045400 0.000000 1.986370 
# 
# From -- ./inp_files/720.got.cif
#   From: 2010.05.17/outbox.cif.g08.bks.cpg/sg4_1_cif.got.tgz:720.got - 2010.06.03 18:43:04.
