data_PCOD9119809
_publ_section_title
;
Structure prediction by ZEFSAII (Michael W. Deem and Ramdas Pophale) SiO2 
 PCOD9119809
Probable space group: P 21
;
_chemical_formula_sum "Si O2"
_cell_formula_units_Z 16
_cell_length_a 21.000000
_cell_length_b 9.000000
_cell_length_c 15.000000
_cell_angle_alpha 90.000000
_cell_angle_beta 20.000000
_cell_angle_gamma 90.000000
_cell_volume 969.627106
_symmetry_space_group_name_H-M "P 21"
_symmetry_group_IT_number 4
_symmetry_cell_setting 'monoclinic'
loop_
_space_group_symop_operation_xyz
x,y,z
-x,1/2+y,-z
loop_
_atom_site_type_symbol
_atom_site_label
_atom_site_fract_x
_atom_site_fract_y
_atom_site_fract_z
Si Si1 0.864233 0.568270 0.097470
Si Si2 0.827983 0.339239 0.999288
Si Si3 0.937735 0.841680 0.665774
Si Si4 0.137866 0.001922 0.235364
Si Si5 0.915022 0.993125 0.885718
Si Si6 0.153700 0.831330 0.720632
Si Si7 0.576607 0.783643 0.378601
Si Si8 0.557815 0.718982 0.192835
O O1 0.822363 0.451497 0.231375
O O2 0.689738 0.664429 0.289798
O O3 0.924794 0.461094 0.936147
O O4 0.017743 0.691962 0.922443
O O5 0.852921 0.402652 0.866261
O O6 0.905729 0.171335 0.901272
O O7 0.615590 0.326443 0.318796
O O8 0.970864 0.662015 0.632778
O O9 0.967514 0.931188 0.718468
O O10 0.048386 0.913627 0.436906
O O11 0.710890 0.839128 0.957135
O O12 0.350378 0.065945 0.963879
O O13 0.059602 0.921299 0.764236
O O14 0.714509 0.924039 0.180007
O O15 0.352484 0.761995 0.434480
O O16 0.553297 0.719089 0.308058
#
# Coordination Sequence:
#
# PCOD9119809 Si02
#       8
#     2   2   2   2   2   2   2   2
#     4  11  22  36  55  85 126 161 188 240 290 366
#     4  12  20  33  62  89 118 153 201 244 298 356
#     4   9  20  40  60  88 112 148 208 250 296 333
#     4  10  20  36  65  87 113 150 200 258 297 334
#     4  10  22  35  58  84 121 161 187 247 292 359
#     4  11  22  38  56  85 128 162 192 230 306 361
#     4  10  20  36  56  89 119 150 201 244 294 346
#     4   9  20  36  62  81 119 149 193 249 291 345
#
# _framework density 16.501189
#
# number of rings (size 3 to 8) (size 9 to 14) (size 15 to 20)
#    0.750    1.000    2.500    3.000    1.750    1.000 
#    0.000    0.000    5.500    0.000    0.000    0.000 
#    0.000    0.000    0.000    0.000    0.000    0.000 
#
# Total GULP energy -89082.097502 kJ/mol
# GULP energy per Si atom -5567.631094 kJ/mol
# Density = 1.646363 g / cm^3
# Si number density = 16.501189 Si / 1000 Ang^3
#
#
#
# Elastic Constant Matrix: (Units=GPa)
#
#
# Indices 1 2 3 4 5 6 
#
# 1 62.7750 30.1720 44.1443 0.0000 19.2450 0.0000
# 2 30.1720 123.5194 35.1986 0.0000 8.5404 0.0000
# 3 44.1443 35.1986 101.5881 0.0000 16.6107 0.0000
# 4 0.0000 0.0000 0.0000 31.8509 0.0000 9.6825
# 5 19.2450 8.5404 16.6107 0.0000 34.1300 0.0000
# 6 0.0000 0.0000 0.0000 9.6825 0.0000 38.4897
#
#
#
# Elastic Compliance Matrix: (Units=1/GPa)
#
#
# Indices 1 2 3 4 5 6 
#
# 1 0.026831 -0.003336 -0.008872 0.000000 -0.009976 0.000000
# 2 -0.003336 0.009418 -0.001886 0.000000 0.000442 0.000000
# 3 -0.008872 -0.001886 0.014621 0.000000 -0.001641 0.000000
# 4 0.000000 0.000000 0.000000 0.033996 0.000000 -0.008552
# 5 -0.009976 0.000442 -0.001641 0.000000 0.035613 0.000000
# 6 0.000000 0.000000 0.000000 -0.008552 0.000000 0.028132
#
#
# Mechanical properties :
#
#
# Convention : Reuss Voigt Hill
#
# Bulk Modulus (GPa) = 44.08857 56.32359 50.20608
# Shear Modulus (GPa) = 27.12111 32.78529 29.95320
#
# Velocity S-wave (km/s) = 4.05851 4.46224 4.26516
# Velocity P-wave (km/s) = 6.98129 7.79461 7.39913
#
# Compressibility (1/GPa) = 0.02268162
#
# Stress axis : x y z
#
# Youngs Moduli (GPa) = 37.27085 106.18471 68.39655
#
# Poissons Ratio (x) = 0.35422 0.60681
# Poissons Ratio (y) = 0.12433 0.12898
# Poissons Ratio (z) = 0.33066 0.20024
#
# Static dielectric constant tensor:
#      x y z
#    x 1.567840 0.000000 -0.021560 
#    y 0.000000 1.572780 0.000000 
#    z -0.021560 0.000000 1.550300 
# 
# From -- ./inp_files/7710.got.cif
#   From: 2010.05.17/outbox.ucp.g08.bks.cvg/sg4_4_cif.got.tgz:7710.got - 2010.06.11 12:51:24.
