data_PCOD9119058
_publ_section_title
;
Structure prediction by ZEFSAII (Michael W. Deem and Ramdas Pophale) SiO2 
 PCOD9119058
Probable space group: P 21
;
_chemical_formula_sum "Si O2"
_cell_formula_units_Z 16
_cell_length_a 6.318299
_cell_length_b 8.332805
_cell_length_c 12.833141
_cell_angle_alpha 90.000000
_cell_angle_beta 91.201033
_cell_angle_gamma 90.000000
_cell_volume 675.505573
_symmetry_space_group_name_H-M "P 21"
_symmetry_group_IT_number 4
_symmetry_cell_setting 'monoclinic'
loop_
_space_group_symop_operation_xyz
x,y,z
-x,1/2+y,-z
loop_
_atom_site_type_symbol
_atom_site_label
_atom_site_fract_x
_atom_site_fract_y
_atom_site_fract_z
Si Si1 0.221596 0.915340 0.810963
Si Si2 0.901641 0.622283 0.015787
Si Si3 0.458640 0.131969 0.145662
Si Si4 0.463184 0.608939 0.311435
Si Si5 0.195384 0.113511 0.514777
Si Si6 0.899331 0.330424 0.643609
Si Si7 0.174113 0.300700 0.307264
Si Si8 0.141698 0.438911 0.850186
O O1 0.394070 0.789350 0.851588
O O2 0.070765 0.830490 0.724537
O O3 0.350146 0.069724 0.768534
O O4 0.073268 0.980633 0.900357
O O5 0.669312 0.615095 0.962296
O O6 0.054346 0.585850 0.920512
O O7 0.918123 0.785251 0.080510
O O8 0.290145 0.168925 0.235471
O O9 0.612075 0.980600 0.162120
O O10 0.583763 0.595973 0.422884
O O11 0.322186 0.768015 0.311477
O O12 0.299347 0.465077 0.292252
O O13 0.205981 0.246521 0.425195
O O14 0.023337 0.178101 0.595718
O O15 0.135995 0.953660 0.451380
O O16 0.037506 0.410738 0.736491
#
# Coordination Sequence:
#
# PCOD9119058 Si02
#       8
#     2   2   2   2   2   2   2   2
#     4  11  24  45  70  99 138 181 230 292 356 425
#     4  12  25  43  68  99 139 183 234 291 357 425
#     4  11  24  43  69 100 135 182 235 290 357 425
#     4  11  24  43  69 100 135 182 235 290 357 425
#     4  12  25  43  68  99 139 183 234 291 357 425
#     4  12  27  45  70 104 143 188 240 299 358 426
#     4  11  24  45  70  99 138 181 230 292 356 425
#     4  12  27  45  70 104 143 188 240 299 358 426
#
# _framework density 23.685960999999999
#
# number of rings (size 3 to 8) (size 9 to 14) (size 15 to 20)
#    0.000    0.500    0.000    9.000    0.000   12.000 
#    0.000    0.000    0.000    0.000    0.000    0.000 
#    0.000    0.000    0.000    0.000    0.000    0.000 
#
# Total GULP energy -89568.994030 kJ/mol
# GULP energy per Si atom -5598.062127 kJ/mol
# Density = 2.363205 g / cm^3
# Si number density = 23.685961 Si / 1000 Ang^3
#
#
#
# Elastic Constant Matrix: (Units=GPa)
#
#
# Indices 1 2 3 4 5 6 
#
# 1 74.3531 21.7957 15.5329 0.0000 1.6790 0.0000
# 2 21.7957 70.7611 12.0953 0.0000 -10.8797 0.0000
# 3 15.5329 12.0953 92.1613 0.0000 8.2151 0.0000
# 4 0.0000 0.0000 0.0000 49.1164 0.0000 -3.9616
# 5 1.6790 -10.8797 8.2151 0.0000 51.4615 0.0000
# 6 0.0000 0.0000 0.0000 -3.9616 0.0000 53.2452
#
#
#
# Elastic Compliance Matrix: (Units=1/GPa)
#
#
# Indices 1 2 3 4 5 6 
#
# 1 0.015195 -0.004540 -0.001862 0.000000 -0.001158 0.000000
# 2 -0.004540 0.016427 -0.001738 0.000000 0.003899 0.000000
# 3 -0.001862 -0.001738 0.011585 0.000000 -0.002156 0.000000
# 4 0.000000 0.000000 0.000000 0.020483 0.000000 0.001524
# 5 -0.001158 0.003899 -0.002156 0.000000 0.020638 0.000000
# 6 0.000000 0.000000 0.000000 0.001524 0.000000 0.018894
#
#
# Mechanical properties :
#
#
# Convention : Reuss Voigt Hill
#
# Bulk Modulus (GPa) = 37.13836 37.34703 37.24269
# Shear Modulus (GPa) = 38.91696 43.28807 41.10251
#
# Velocity S-wave (km/s) = 4.05784 4.27966 4.17023
# Velocity P-wave (km/s) = 6.13745 6.34212 6.24062
#
# Compressibility (1/GPa) = 0.02692634
#
# Stress axis : x y z
#
# Youngs Moduli (GPa) = 65.80935 60.87516 86.32109
#
# Poissons Ratio (x) = 0.27639 0.16072
# Poissons Ratio (y) = 0.29879 0.15004
# Poissons Ratio (z) = 0.12253 0.10581
#
# Static dielectric constant tensor:
#      x y z
#    x 1.889680 0.000000 -0.046720 
#    y 0.000000 1.941130 0.000000 
#    z -0.046720 0.000000 1.842100 
# 
# From -- ./inp_files/10351.got.cif
#   From: 2010.05.17/outbox.cif.g08.bks.cpg/sg4_6_cif.got.tgz:10351.got - 2010.06.03 18:43:04.
