data_PCOD9119989
_publ_section_title
;
Structure prediction by ZEFSAII (Michael W. Deem and Ramdas Pophale) SiO2 
 PCOD9119989
Probable space group: C 2
;
_chemical_formula_sum "Si O2"
_cell_formula_units_Z 26
_cell_length_a 21.462533
_cell_length_b 8.526612
_cell_length_c 15.281270
_cell_angle_alpha 90.000000
_cell_angle_beta 149.938040
_cell_angle_gamma 90.000000
_cell_volume 1400.874956
_symmetry_space_group_name_H-M "C 2"
_symmetry_group_IT_number 5
_symmetry_cell_setting 'monoclinic'
loop_
_space_group_symop_operation_xyz
x,y,z
-x,y,-z
1/2+x,1/2+y,z
1/2-x,1/2+y,-z
loop_
_atom_site_type_symbol
_atom_site_label
_atom_site_fract_x
_atom_site_fract_y
_atom_site_fract_z
Si Si1 0.890650 0.785620 0.019453
Si Si2 0.637641 0.884548 0.633014
Si Si3 0.772698 0.192800 0.420889
Si Si4 0.747654 0.695618 0.290306
Si Si5 0.500000 0.505517 0.000000
Si Si6 0.122573 0.869846 0.391002
Si Si7 0.119904 0.487937 0.095194
O O1 0.975509 0.834265 0.204104
O O2 0.744020 0.818695 0.828779
O O3 0.910892 0.602912 0.021573
O O4 0.953237 0.893032 0.020131
O O5 0.500000 0.859281 0.500000
O O6 0.652821 0.802228 0.556324
O O7 0.670496 0.066276 0.658127
O O8 0.695598 0.297455 0.395827
O O9 0.849266 0.054820 0.562352
O O10 0.683470 0.098517 0.245597
O O11 0.819796 0.776542 0.457284
O O12 0.704082 0.839309 0.176047
O O13 0.621786 0.607942 0.169928
O O14 0.000000 0.426328 0.000000
#
# Coordination Sequence:
#
# PCOD9119989 Si02
#       7
#     4   4   4   4   2   4   4
#     4  10  18  32  56  77 110 148 182 229 280 335
#     4  10  22  42  56  71 107 163 204 226 262 328
#     4  10  20  32  58  84 119 146 176 230 287 343
#     4  10  21  31  54  83 114 144 187 233 275 340
#     4  10  16  30  48  78 110 148 182 212 276 334
#     4  11  19  33  54  93 118 137 173 240 305 330
#     4  10  16  31  51  83 114 147 177 215 284 347
#
# _framework density 18.559828
#
# number of rings (size 3 to 8) (size 9 to 14) (size 15 to 20)
#    0.000    1.846    3.077    3.692    0.000    0.000 
#    0.000    8.462    0.000    0.000    0.000    0.000 
#    0.000    0.000    0.000    0.000    0.000    0.000 
#
# Total GULP energy -72455.242787 kJ/mol
# GULP energy per Si atom -5573.480214 kJ/mol
# Density = 1.851758 g / cm^3
# Si number density = 18.559828 Si / 1000 Ang^3
#
#
#
# Elastic Constant Matrix: (Units=GPa)
#
#
# Indices 1 2 3 4 5 6 
#
# 1 27.8789 15.1191 20.2200 0.0000 15.2633 0.0000
# 2 15.1191 113.4943 34.7002 0.0000 -0.4596 0.0000
# 3 20.2200 34.7002 105.6123 0.0000 16.2583 0.0000
# 4 0.0000 0.0000 0.0000 20.7481 0.0000 -5.3788
# 5 15.2633 -0.4596 16.2583 0.0000 22.6846 0.0000
# 6 0.0000 0.0000 0.0000 -5.3788 0.0000 10.6397
#
#
#
# Elastic Compliance Matrix: (Units=1/GPa)
#
#
# Indices 1 2 3 4 5 6 
#
# 1 0.065505 -0.007807 -0.003560 0.000000 -0.041682 0.000000
# 2 -0.007807 0.010888 -0.003288 0.000000 0.007830 0.000000
# 3 -0.003560 -0.003288 0.012220 0.000000 -0.006430 0.000000
# 4 0.000000 0.000000 0.000000 0.055467 0.000000 0.028040
# 5 -0.041682 0.007830 -0.006430 0.000000 0.076895 0.000000
# 6 0.000000 0.000000 0.000000 0.028040 0.000000 0.108163
#
#
# Mechanical properties :
#
#
# Convention : Reuss Voigt Hill
#
# Bulk Modulus (GPa) = 16.86220 43.00714 29.93467
# Shear Modulus (GPa) = 13.22002 22.61090 17.91546
#
# Velocity S-wave (km/s) = 2.67178 3.49416 3.11027
# Velocity P-wave (km/s) = 4.31542 6.28501 5.39093
#
# Compressibility (1/GPa) = 0.05930425
#
# Stress axis : x y z
#
# Youngs Moduli (GPa) = 15.26606 91.84417 81.83097
#
# Poissons Ratio (x) = 0.71700 0.29129
# Poissons Ratio (y) = 0.11918 0.26907
# Poissons Ratio (z) = 0.05434 0.30200
#
# Static dielectric constant tensor:
#      x y z
#    x 1.617290 0.000000 -0.007270 
#    y 0.000000 1.668000 0.000000 
#    z -0.007270 0.000000 1.704080 
# 
# From -- ./inp_files/41632.got.cif
#   From: 2010.05.17/outbox.cif.g08.bks.cpg/sg5_21_cif.got.tgz:41632.got - 2010.06.03 18:56:24.
