data_PCOD9119915
_publ_section_title
;
Structure prediction by ZEFSAII (Michael W. Deem and Ramdas Pophale) SiO2 
 PCOD9119915
Probable space group: C 2
;
_chemical_formula_sum "Si O2"
_cell_formula_units_Z 28
_cell_length_a 19.537560
_cell_length_b 8.144744
_cell_length_c 15.141939
_cell_angle_alpha 90.000000
_cell_angle_beta 30.172853
_cell_angle_gamma 90.000000
_cell_volume 1211.046224
_symmetry_space_group_name_H-M "C 2"
_symmetry_group_IT_number 5
_symmetry_cell_setting 'monoclinic'
loop_
_space_group_symop_operation_xyz
x,y,z
-x,y,-z
1/2+x,1/2+y,z
1/2-x,1/2+y,-z
loop_
_atom_site_type_symbol
_atom_site_label
_atom_site_fract_x
_atom_site_fract_y
_atom_site_fract_z
Si Si1 0.245146 0.507710 0.769318
Si Si2 0.500000 0.775650 0.000000
Si Si3 0.675594 0.814997 0.396366
Si Si4 0.000000 0.546499 0.500000
Si Si5 0.093891 0.121006 0.239175
Si Si6 0.044808 0.232193 0.761670
Si Si7 0.950774 0.801635 0.413072
Si Si8 0.301930 0.043490 0.463884
O O1 0.220701 0.671973 0.740356
O O2 0.296211 0.582744 0.806142
O O3 0.357889 0.399721 0.589091
O O4 0.117498 0.389742 0.909779
O O5 0.457613 0.676744 0.134100
O O6 0.529158 0.724972 0.577514
O O7 0.635087 0.939948 0.364336
O O8 0.719537 0.927028 0.427764
O O9 0.980378 0.658272 0.607307
O O10 0.090858 0.213013 0.146863
O O11 0.052825 0.934752 0.262626
O O12 0.159201 0.113335 0.588420
O O13 0.103504 0.420012 0.698096
O O14 0.872820 0.707653 0.422413
#
# Coordination Sequence:
#
# PCOD9119915 Si02
#       8
#     4   2   4   2   4   4   4   4
#     4  11  20  41  63  91 134 177 216 264 337 403
#     4  12  28  44  66  92 142 186 214 262 360 398
#     4   9  18  32  64 100 125 160 219 286 322 380
#     4  10  14  26  56 106 130 144 206 284 332 356
#     4  10  19  37  66  95 127 169 228 272 326 377
#     4  11  24  43  67  97 135 176 223 278 329 394
#     4  10  17  32  65 104 125 164 216 283 325 385
#     4  10  21  36  67  97 131 164 226 274 320 390
#
# _framework density 23.120504
#
# number of rings (size 3 to 8) (size 9 to 14) (size 15 to 20)
#    0.000    1.714    4.286    1.714    4.000    0.000 
#    0.000    2.143    3.143    0.000    0.000    0.000 
#    0.000    0.000    0.000    0.000    0.000    0.000 
#
# Total GULP energy -77991.877890 kJ/mol
# GULP energy per Si atom -5570.848421 kJ/mol
# Density = 2.306788 g / cm^3
# Si number density = 23.120504 Si / 1000 Ang^3
#
#
#
# Elastic Constant Matrix: (Units=GPa)
#
#
# Indices 1 2 3 4 5 6 
#
# 1 106.9789 5.0140 17.1007 -0.0001 13.8144 0.0000
# 2 5.0140 85.2101 4.1818 -0.0003 -0.8729 0.0001
# 3 17.1007 4.1818 27.4338 -0.0001 11.8566 0.0000
# 4 -0.0001 -0.0003 -0.0001 9.0336 0.0001 -4.1842
# 5 13.8144 -0.8729 11.8566 0.0001 22.7526 0.0000
# 6 0.0000 0.0001 0.0000 -4.1842 0.0000 49.0387
#
#
#
# Elastic Compliance Matrix: (Units=1/GPa)
#
#
# Indices 1 2 3 4 5 6 
#
# 1 0.010656 -0.000428 -0.004871 0.000000 -0.003948 0.000000
# 2 -0.000428 0.011899 -0.002396 0.000000 0.001965 0.000000
# 3 -0.004871 -0.002396 0.049839 0.000001 -0.023106 0.000000
# 4 0.000000 0.000000 0.000001 0.115253 -0.000001 0.009834
# 5 -0.003948 0.001965 -0.023106 -0.000001 0.058465 0.000000
# 6 0.000000 0.000000 0.000000 0.009834 0.000000 0.021231
#
#
# Mechanical properties :
#
#
# Convention : Reuss Voigt Hill
#
# Bulk Modulus (GPa) = 17.54281 30.24621 23.89451
# Shear Modulus (GPa) = 16.57086 29.05339 22.81213
#
# Velocity S-wave (km/s) = 2.68006 3.54871 3.14453
# Velocity P-wave (km/s) = 4.14500 5.46823 4.85193
#
# Compressibility (1/GPa) = 0.05700343
#
# Stress axis : x y z
#
# Youngs Moduli (GPa) = 93.84242 84.04330 20.06452
#
# Poissons Ratio (x) = 0.03601 0.09773
# Poissons Ratio (y) = 0.04021 0.04808
# Poissons Ratio (z) = 0.45709 0.20137
#
# Static dielectric constant tensor:
#      x y z
#    x 1.940220 0.000000 0.012530 
#    y 0.000000 1.886730 0.000000 
#    z 0.012530 0.000000 1.920290 
# 
# From -- ./inp_files/56915.got.cif
#   From: 2010.05.17/outbox.cif.g08.bks.cpg/sg5_29_cif.got.tgz:56915.got - 2010.06.03 18:56:24.
