data_PCOD9119283
_publ_section_title
;
Structure prediction by ZEFSAII (Michael W. Deem and Ramdas Pophale) SiO2 
 PCOD9119283
Probable space group: P 21
;
_chemical_formula_sum "Si O2"
_cell_formula_units_Z 14
_cell_length_a 11.929666
_cell_length_b 5.113840
_cell_length_c 13.445935
_cell_angle_alpha 90.000000
_cell_angle_beta 48.212966
_cell_angle_gamma 90.000000
_cell_volume 611.628828
_symmetry_space_group_name_H-M "P 21"
_symmetry_group_IT_number 4
_symmetry_cell_setting 'monoclinic'
loop_
_space_group_symop_operation_xyz
x,y,z
-x,1/2+y,-z
loop_
_atom_site_type_symbol
_atom_site_label
_atom_site_fract_x
_atom_site_fract_y
_atom_site_fract_z
Si Si1 0.850225 0.068300 0.288072
Si Si2 0.345924 0.289824 0.763357
Si Si3 0.298506 0.101796 0.281024
Si Si4 0.362625 0.555717 0.954604
Si Si5 0.810688 0.549817 0.862281
Si Si6 0.680647 0.113173 0.593519
Si Si7 0.090679 0.925885 0.915803
O O1 0.738179 0.901710 0.283833
O O2 0.782053 0.073625 0.437286
O O3 0.867067 0.347064 0.221744
O O4 0.024334 0.987031 0.192274
O O5 0.510653 0.168307 0.655245
O O6 0.357070 0.517762 0.838516
O O7 0.237405 0.065950 0.871094
O O8 0.311801 0.371481 0.334150
O O9 0.179586 0.087159 0.262495
O O10 0.272045 0.871127 0.374685
O O11 0.458990 0.047234 0.132241
O O12 0.294988 0.813542 0.041884
O O13 0.265663 0.316539 0.054638
O O14 0.033076 0.654520 0.997590
#
# Coordination Sequence:
#
# PCOD9119283 Si02
#       7
#     2   2   2   2   2   2   2
#     4  12  31  44  74 110 146 197 237 299 369 434
#     4  11  28  45  74 104 153 191 240 298 363 447
#     4  11  25  51  74 105 141 194 249 304 352 429
#     4  11  25  43  75 109 143 190 233 301 376 435
#     4  12  27  44  76 109 147 184 243 309 370 426
#     4  11  29  49  74 100 142 200 252 288 357 428
#     4  12  27  44  69 103 150 184 230 295 367 437
#
# _framework density 22.889699
#
# number of rings (size 3 to 8) (size 9 to 14) (size 15 to 20)
#    0.000    0.571    1.429    4.286   16.000    1.143 
#    0.000    0.000    0.000    0.000    0.000    0.000 
#    0.000    0.000    0.000    0.000    0.000    0.000 
#
# Total GULP energy -78355.034467 kJ/mol
# GULP energy per Si atom -5596.788176 kJ/mol
# Density = 2.283760 g / cm^3
# Si number density = 22.889699 Si / 1000 Ang^3
#
#
#
# Elastic Constant Matrix: (Units=GPa)
#
#
# Indices 1 2 3 4 5 6 
#
# 1 83.1208 24.3497 25.5943 0.0000 28.3859 0.0000
# 2 24.3497 129.6583 38.2074 0.0000 14.0862 0.0000
# 3 25.5943 38.2074 104.8007 0.0000 8.6451 0.0000
# 4 0.0000 0.0000 0.0000 24.9462 0.0000 3.5850
# 5 28.3859 14.0862 8.6451 0.0000 31.5072 0.0000
# 6 0.0000 0.0000 0.0000 3.5850 0.0000 22.6734
#
#
#
# Elastic Compliance Matrix: (Units=1/GPa)
#
#
# Indices 1 2 3 4 5 6 
#
# 1 0.018463 -0.000939 -0.002895 0.000000 -0.015420 0.000000
# 2 -0.000939 0.008989 -0.002850 0.000000 -0.002390 0.000000
# 3 -0.002895 -0.002850 0.011222 0.000000 0.000803 0.000000
# 4 0.000000 0.000000 0.000000 0.041018 0.000000 -0.006486
# 5 -0.015420 -0.002390 0.000803 0.000000 0.046479 0.000000
# 6 0.000000 0.000000 0.000000 -0.006486 0.000000 0.045130
#
#
# Mechanical properties :
#
#
# Convention : Reuss Voigt Hill
#
# Bulk Modulus (GPa) = 39.51792 54.87584 47.19688
# Shear Modulus (GPa) = 25.89271 31.12058 28.50665
#
# Velocity S-wave (km/s) = 3.36697 3.69126 3.53284
# Velocity P-wave (km/s) = 5.69362 6.49564 6.10781
#
# Compressibility (1/GPa) = 0.02530497
#
# Stress axis : x y z
#
# Youngs Moduli (GPa) = 54.16238 111.25193 89.11239
#
# Poissons Ratio (x) = 0.10448 0.25795
# Poissons Ratio (y) = 0.05086 0.25401
# Poissons Ratio (z) = 0.15678 0.31712
#
# Static dielectric constant tensor:
#      x y z
#    x 1.920440 0.000000 0.029810 
#    y 0.000000 1.843040 0.000000 
#    z 0.029810 0.000000 1.849650 
# 
# From -- ./inp_files/12739.got.cif
#   From: 2010.05.17/outbox.cif.g08.bks.cpg/sg4_7_cif.got.tgz:12739.got - 2010.06.03 18:43:04.
