data_PCOD9119169
_publ_section_title
;
Structure prediction by ZEFSAII (Michael W. Deem and Ramdas Pophale) SiO2 
 PCOD9119169
Probable space group: P 21
;
_chemical_formula_sum "Si O2"
_cell_formula_units_Z 12
_cell_length_a 4.853015
_cell_length_b 17.252033
_cell_length_c 5.311223
_cell_angle_alpha 90.000000
_cell_angle_beta 86.566285
_cell_angle_gamma 90.000000
_cell_volume 443.880519
_symmetry_space_group_name_H-M "P 21"
_symmetry_group_IT_number 4
_symmetry_cell_setting 'monoclinic'
loop_
_space_group_symop_operation_xyz
x,y,z
-x,1/2+y,-z
loop_
_atom_site_type_symbol
_atom_site_label
_atom_site_fract_x
_atom_site_fract_y
_atom_site_fract_z
Si Si1 0.894605 0.680310 0.045703
Si Si2 0.253713 0.784807 0.711353
Si Si3 0.230971 0.313363 0.604320
Si Si4 0.380260 0.578987 0.232587
Si Si5 0.227495 0.953580 0.895621
Si Si6 0.871407 0.982499 0.402306
O O1 0.774890 0.762330 0.149925
O O2 0.627770 0.627324 0.094859
O O3 0.116107 0.631765 0.194656
O O4 0.089882 0.709607 0.810589
O O5 0.563541 0.772466 0.603109
O O6 0.245916 0.860092 0.893419
O O7 0.080286 0.811549 0.478747
O O8 0.303254 0.403242 0.615480
O O9 0.471935 0.493477 0.125086
O O10 0.330840 0.554388 0.528134
O O11 0.067124 0.976513 0.643237
O O12 0.059339 0.985209 0.144738
#
# Coordination Sequence:
#
# PCOD9119169 Si02
#       6
#     2   2   2   2   2   2
#     4  12  26  48  70 112 146 190 244 314 374 434
#     4  11  24  46  75 106 142 197 249 302 363 448
#     4  11  24  46  75 106 142 197 249 302 363 448
#     4  12  26  48  70 116 148 194 244 316 374 436
#     4  11  25  50  79 110 147 200 253 304 367 450
#     4  11  25  50  79 110 147 200 253 304 367 450
#
# _framework density 27.034300000000002
#
# number of rings (size 3 to 8) (size 9 to 14) (size 15 to 20)
#    0.000    0.667    5.000    2.000    0.000    5.333 
#    6.000    0.000    0.000    0.000    0.000    0.000 
#    0.000    0.000    0.000    0.000    0.000    0.000 
#
# Total GULP energy -67064.717404 kJ/mol
# GULP energy per Si atom -5588.726450 kJ/mol
# Density = 2.697277 g / cm^3
# Si number density = 27.034300 Si / 1000 Ang^3
#
#
#
# Elastic Constant Matrix: (Units=GPa)
#
#
# Indices 1 2 3 4 5 6 
#
# 1 113.4821 19.7886 33.9611 0.0000 -12.0326 0.0000
# 2 19.7886 82.6458 12.9520 0.0000 -9.2980 0.0000
# 3 33.9611 12.9520 132.4763 0.0000 -25.4856 0.0000
# 4 0.0000 0.0000 0.0000 40.1843 0.0000 -11.4888
# 5 -12.0326 -9.2980 -25.4856 0.0000 31.9784 0.0000
# 6 0.0000 0.0000 0.0000 -11.4888 0.0000 44.5428
#
#
#
# Elastic Compliance Matrix: (Units=1/GPa)
#
#
# Indices 1 2 3 4 5 6 
#
# 1 0.009920 -0.001879 -0.002063 0.000000 0.001543 0.000000
# 2 -0.001879 0.012908 -0.000230 0.000000 0.002863 0.000000
# 3 -0.002063 -0.000230 0.009375 0.000000 0.006629 0.000000
# 4 0.000000 0.000000 0.000000 0.026867 0.000000 0.006930
# 5 0.001543 0.002863 0.006629 0.000000 0.037967 0.000000
# 6 0.000000 0.000000 0.000000 0.006930 0.000000 0.024238
#
#
# Mechanical properties :
#
#
# Convention : Reuss Voigt Hill
#
# Bulk Modulus (GPa) = 41.90858 51.33419 46.62138
# Shear Modulus (GPa) = 36.34526 40.80127 38.57326
#
# Velocity S-wave (km/s) = 3.67060 3.88911 3.78143
# Velocity P-wave (km/s) = 5.78792 6.26072 6.02896
#
# Compressibility (1/GPa) = 0.02386146
#
# Stress axis : x y z
#
# Youngs Moduli (GPa) = 100.80240 77.47307 106.66709
#
# Poissons Ratio (x) = 0.14553 0.22002
# Poissons Ratio (y) = 0.18936 0.02449
# Poissons Ratio (z) = 0.20793 0.01779
#
# Static dielectric constant tensor:
#      x y z
#    x 2.097080 0.000000 0.039540 
#    y 0.000000 2.189710 0.000000 
#    z 0.039540 0.000000 2.195940 
# 
# From -- ./inp_files/421.got.cif
#   From: 2010.05.17/outbox.cif.g08.bks.cpg/sg4_1_cif.got.tgz:421.got - 2010.06.03 18:43:04.
