data_PCOD9119021
_publ_section_title
;
Structure prediction by ZEFSAII (Michael W. Deem and Ramdas Pophale) SiO2 
 PCOD9119021
Probable space group: P 21
;
_chemical_formula_sum "Si O2"
_cell_formula_units_Z 14
_cell_length_a 9.771001
_cell_length_b 7.783531
_cell_length_c 6.860806
_cell_angle_alpha 90.000000
_cell_angle_beta 68.638725
_cell_angle_gamma 90.000000
_cell_volume 485.938706
_symmetry_space_group_name_H-M "P 21"
_symmetry_group_IT_number 4
_symmetry_cell_setting 'monoclinic'
loop_
_space_group_symop_operation_xyz
x,y,z
-x,1/2+y,-z
loop_
_atom_site_type_symbol
_atom_site_label
_atom_site_fract_x
_atom_site_fract_y
_atom_site_fract_z
Si Si1 0.362885 0.361770 0.476628
Si Si2 0.360060 0.821068 0.171203
Si Si3 0.011477 0.860039 0.816166
Si Si4 0.674365 0.226584 0.355447
Si Si5 0.310439 0.445204 0.067766
Si Si6 0.897296 0.669620 0.286662
Si Si7 0.070109 0.003526 0.334045
O O1 0.530440 0.319271 0.348804
O O2 0.345990 0.521332 0.630839
O O3 0.287911 0.402207 0.309690
O O4 0.274043 0.199847 0.606387
O O5 0.333292 0.769994 0.409399
O O6 0.322144 0.652318 0.064382
O O7 0.241401 0.971799 0.199833
O O8 0.529838 0.870942 0.065170
O O9 0.175125 0.798260 0.800861
O O10 0.833646 0.869822 0.958975
O O11 0.991016 0.688555 0.680899
O O12 0.039134 0.059675 0.917000
O O13 0.943946 0.507333 0.413329
O O14 0.979890 0.842123 0.299246
#
# Coordination Sequence:
#
# PCOD9119021 Si02
#       7
#     2   2   2   2   2   2   2
#     4  11  24  40  63  96 127 166 210 261 314 376
#     4  11  24  40  63  96 127 166 210 261 314 376
#     4  12  22  38  64  92 124 164 210 266 302 370
#     4  11  24  40  65  93 130 163 214 259 315 370
#     4  11  24  40  65  93 130 163 214 259 315 370
#     4  12  20  34  61  95 125 158 212 261 310 363
#     4  12  20  34  61  95 125 158 212 261 310 363
#
# _framework density 28.810216
#
# number of rings (size 3 to 8) (size 9 to 14) (size 15 to 20)
#    0.000    0.571    7.143    1.714    0.000    0.000 
#    0.000    0.000    3.143    0.000    0.000    0.000 
#    0.000    0.000    0.000    0.000    0.000    0.000 
#
# Total GULP energy -78377.616932 kJ/mol
# GULP energy per Si atom -5598.401209 kJ/mol
# Density = 2.874464 g / cm^3
# Si number density = 28.810216 Si / 1000 Ang^3
#
#
#
# Elastic Constant Matrix: (Units=GPa)
#
#
# Indices 1 2 3 4 5 6 
#
# 1 213.0732 72.0019 47.4357 0.0000 -53.5406 0.0000
# 2 72.0019 190.1295 48.8612 0.0000 -15.9560 0.0000
# 3 47.4357 48.8612 109.6414 0.0000 -28.4436 0.0000
# 4 0.0000 0.0000 0.0000 43.2654 0.0000 -10.7170
# 5 -53.5406 -15.9560 -28.4436 0.0000 62.1188 0.0000
# 6 0.0000 0.0000 0.0000 -10.7170 0.0000 63.3192
#
#
#
# Elastic Compliance Matrix: (Units=1/GPa)
#
#
# Indices 1 2 3 4 5 6 
#
# 1 0.006777 -0.001950 -0.000769 0.000000 0.004988 0.000000
# 2 -0.001950 0.006508 -0.002336 0.000000 -0.001079 0.000000
# 3 -0.000769 -0.002336 0.011537 0.000000 0.004020 0.000000
# 4 0.000000 0.000000 0.000000 0.024125 0.000000 0.004083
# 5 0.004988 -0.001079 0.004020 0.000000 0.021961 0.000000
# 6 0.000000 0.000000 0.000000 0.004083 0.000000 0.016484
#
#
# Mechanical properties :
#
#
# Convention : Reuss Voigt Hill
#
# Bulk Modulus (GPa) = 67.97538 94.38241 81.17889
# Shear Modulus (GPa) = 48.82507 56.71037 52.76772
#
# Velocity S-wave (km/s) = 4.12116 4.44149 4.28432
# Velocity P-wave (km/s) = 6.80372 7.68984 7.26031
#
# Compressibility (1/GPa) = 0.01471121
#
# Stress axis : x y z
#
# Youngs Moduli (GPa) = 147.56321 153.65725 86.67460
#
# Poissons Ratio (x) = 0.29966 0.06664
# Poissons Ratio (y) = 0.28777 0.20251
# Poissons Ratio (z) = 0.11345 0.35901
#
# Static dielectric constant tensor:
#      x y z
#    x 2.142730 0.000000 0.227950 
#    y 0.000000 2.313540 0.000000 
#    z 0.227950 0.000000 2.506160 
# 
# From -- ./inp_files/5367.got.cif
#   From: 2010.05.17/outbox.cif.g08.bks.cpg/sg4_3_cif.got.tgz:5367.got - 2010.06.03 18:43:04.
