data_PCOD9119026
_publ_section_title
;
Structure prediction by ZEFSAII (Michael W. Deem and Ramdas Pophale) SiO2 
 PCOD9119026
Probable space group: P 21
;
_chemical_formula_sum "Si O2"
_cell_formula_units_Z 16
_cell_length_a 28.171926
_cell_length_b 4.762519
_cell_length_c 22.384251
_cell_angle_alpha 90.000000
_cell_angle_beta 12.778082
_cell_angle_gamma 90.000000
_cell_volume 664.251800
_symmetry_space_group_name_H-M "P 21"
_symmetry_group_IT_number 4
_symmetry_cell_setting 'monoclinic'
loop_
_space_group_symop_operation_xyz
x,y,z
-x,1/2+y,-z
loop_
_atom_site_type_symbol
_atom_site_label
_atom_site_fract_x
_atom_site_fract_y
_atom_site_fract_z
Si Si1 0.643622 0.265610 0.316284
Si Si2 0.851750 0.732448 0.690937
Si Si3 0.350946 0.264825 0.936993
Si Si4 0.481309 0.982990 0.063110
Si Si5 0.358161 0.270411 0.436486
Si Si6 0.015147 0.007246 0.189504
Si Si7 0.015909 0.024818 0.942515
Si Si8 0.023447 0.006720 0.685391
O O1 0.516682 0.515883 0.505129
O O2 0.819112 0.117362 0.142740
O O3 0.768622 0.414812 0.108942
O O4 0.971586 0.472431 0.513794
O O5 0.745856 0.642368 0.883204
O O6 0.672935 0.871568 0.868793
O O7 0.513514 0.518478 0.752599
O O8 0.477350 0.016860 0.748455
O O9 0.164309 0.402236 0.126999
O O10 0.254433 0.947553 0.373882
O O11 0.487471 0.803030 0.994700
O O12 0.183503 0.414058 0.607799
O O13 0.232531 0.126872 0.645193
O O14 0.995516 0.832591 0.274837
O O15 0.003446 0.333182 0.219912
O O16 0.988763 0.196702 0.037511
#
# Coordination Sequence:
#
# PCOD9119026 Si02
#       8
#     2   2   2   2   2   2   2   2
#     4  11  24  41  64  92 126 164 208 257 312 371
#     4  12  25  44  67  94 128 166 207 256 309 368
#     4  12  25  42  65  95 126 163 209 258 309 368
#     4  12  25  44  67  94 128 166 207 256 309 368
#     4  11  24  43  64  91 126 167 208 255 312 371
#     4  11  24  43  64  91 126 167 208 255 312 371
#     4  11  24  41  64  92 126 164 208 257 312 371
#     4  12  25  42  65  95 126 163 209 258 309 368
#
# _framework density 24.087250999999998
#
# number of rings (size 3 to 8) (size 9 to 14) (size 15 to 20)
#    0.000    0.500    0.000    9.000    0.000   10.000 
#    0.000    0.000    0.000    0.000    0.000    0.000 
#    0.000    0.000    0.000    0.000    0.000    0.000 
#
# Total GULP energy -89761.718000 kJ/mol
# GULP energy per Si atom -5610.107375 kJ/mol
# Density = 2.403243 g / cm^3
# Si number density = 24.087251 Si / 1000 Ang^3
#
#
#
# Elastic Constant Matrix: (Units=GPa)
#
#
# Indices 1 2 3 4 5 6 
#
# 1 48.6168 -18.2777 18.1153 0.0000 -4.2737 0.0000
# 2 -18.2777 76.5611 14.5999 0.0000 -0.0918 0.0000
# 3 18.1153 14.5999 119.1937 0.0000 2.9407 0.0000
# 4 0.0000 0.0000 0.0000 -13.0222 0.0000 6.9944
# 5 -4.2737 -0.0918 2.9407 0.0000 26.2354 0.0000
# 6 0.0000 0.0000 0.0000 6.9944 0.0000 45.7236
#
#
#
# Elastic Compliance Matrix: (Units=1/GPa)
#
#
# Indices 1 2 3 4 5 6 
#
# 1 0.025414 0.006995 -0.004835 0.000000 0.004706 0.000000
# 2 0.006995 0.015301 -0.002975 0.000000 0.001526 0.000000
# 3 -0.004835 -0.002975 0.009535 0.000000 -0.001867 0.000000
# 4 0.000000 0.000000 0.000000 -0.070961 0.000000 0.010855
# 5 0.004706 0.001526 -0.001867 0.000000 0.039098 0.000000
# 6 0.000000 0.000000 0.000000 0.010855 0.000000 0.020210
#
#
# Mechanical properties :
#
#
# Convention : Reuss Voigt Hill
#
# Bulk Modulus (GPa) = 20.56803 30.36074 25.46438
# Shear Modulus (GPa) = 88.59982 27.11629 57.85806
#
# Velocity S-wave (km/s) = 6.07147 3.35886 4.90636
# Velocity P-wave (km/s) = 7.59657 5.26065 6.53385
#
# Compressibility (1/GPa) = 0.04861915
#
# Stress axis : x y z
#
# Youngs Moduli (GPa) = 39.34792 65.35717 104.87604
#
# Poissons Ratio (x) = -0.45717 0.50712
# Poissons Ratio (y) = -0.27524 0.31200
# Poissons Ratio (z) = 0.19026 0.19443
#
# Static dielectric constant tensor:
#      x y z
#    x 1.904570 0.000000 -0.008990 
#    y 0.000000 1.842840 0.000000 
#    z -0.008990 0.000000 1.882440 
# 
# From -- ./inp_files/14076.got.cif
#   From: 2010.05.17/outbox.cif.g08.bks.cpg/sg4_8_cif.got.tgz:14076.got - 2010.06.03 18:43:04.
