data_PCOD9119987
_publ_section_title
;
Structure prediction by ZEFSAII (Michael W. Deem and Ramdas Pophale) SiO2 
 PCOD9119987
Probable space group: C 2
;
_chemical_formula_sum "Si O2"
_cell_formula_units_Z 32
_cell_length_a 22.248340
_cell_length_b 5.234965
_cell_length_c 12.946071
_cell_angle_alpha 90.000000
_cell_angle_beta 121.670653
_cell_angle_gamma 90.000000
_cell_volume 1283.275311
_symmetry_space_group_name_H-M "C 2"
_symmetry_group_IT_number 5
_symmetry_cell_setting 'monoclinic'
loop_
_space_group_symop_operation_xyz
x,y,z
-x,y,-z
1/2+x,1/2+y,z
1/2-x,1/2+y,-z
loop_
_atom_site_type_symbol
_atom_site_label
_atom_site_fract_x
_atom_site_fract_y
_atom_site_fract_z
Si Si1 0.792315 0.616180 0.196877
Si Si2 0.520267 0.952667 0.293440
Si Si3 0.889493 0.940426 0.965608
Si Si4 0.615847 0.937761 0.548273
Si Si5 0.789280 0.626280 0.553439
Si Si6 0.259898 0.621945 0.275349
Si Si7 0.450612 0.467324 0.803284
Si Si8 0.363482 0.934779 0.061263
O O1 0.865369 0.588175 0.330395
O O2 0.745768 0.395327 0.209555
O O3 0.807800 0.534077 0.094892
O O4 0.766571 0.898526 0.198789
O O5 0.538204 0.930709 0.430753
O O6 0.547239 0.210000 0.261903
O O7 0.438029 0.925367 0.190375
O O8 0.559410 0.712223 0.277032
O O9 0.850926 0.159488 0.998453
O O10 0.970800 0.981186 0.078045
O O11 0.872407 0.651240 0.982666
O O12 0.896843 0.972575 0.849764
O O13 0.655939 0.070010 0.487651
O O14 0.660885 0.676558 0.606421
O O15 0.728039 0.426049 0.464306
O O16 0.792635 0.559554 0.678386
#
# Coordination Sequence:
#
# PCOD9119987 Si02
#       8
#     4   4   4   4   4   4   4   4
#     4  10  19  30  46  65  95 126 156 185 212 264
#     4  10  20  30  46  69  97 123 155 180 229 276
#     4   9  17  32  49  65  87 118 157 197 241 251
#     4   9  21  29  49  64 100 124 150 184 228 267
#     4  10  16  30  48  65  84 123 151 192 233 259
#     4   9  18  31  46  65  90 124 153 194 221 257
#     4   9  18  31  48  67  88 118 153 200 232 274
#     4  10  19  31  47  67  94 126 156 189 215 275
#
# _framework density 24.936191999999998
#
# number of rings (size 3 to 8) (size 9 to 14) (size 15 to 20)
#    0.750    1.750    1.250    1.500    1.750    3.500 
#    0.000    0.000    2.750    0.000    0.000    0.000 
#    0.000   20.000    0.000    0.000    0.000    0.000 
#
# Total GULP energy -89385.835061 kJ/mol
# GULP energy per Si atom -5586.614691 kJ/mol
# Density = 2.487944 g / cm^3
# Si number density = 24.936192 Si / 1000 Ang^3
#
#
#
# Elastic Constant Matrix: (Units=GPa)
#
#
# Indices 1 2 3 4 5 6 
#
# 1 67.7713 33.1470 32.8701 0.0000 -22.5016 0.0000
# 2 33.1470 146.7705 42.3216 0.0000 -14.1032 0.0000
# 3 32.8701 42.3216 111.6030 0.0000 -11.3256 0.0000
# 4 0.0000 0.0000 0.0000 26.9363 0.0000 -3.0061
# 5 -22.5016 -14.1032 -11.3256 0.0000 58.7610 0.0000
# 6 0.0000 0.0000 0.0000 -3.0061 0.0000 16.0034
#
#
#
# Elastic Compliance Matrix: (Units=1/GPa)
#
#
# Indices 1 2 3 4 5 6 
#
# 1 0.020258 -0.002734 -0.004293 0.000000 0.006274 0.000000
# 2 -0.002734 0.008118 -0.002225 0.000000 0.000472 0.000000
# 3 -0.004293 -0.002225 0.011064 0.000000 -0.000046 0.000000
# 4 0.000000 0.000000 0.000000 0.037920 0.000000 0.007123
# 5 0.006274 0.000472 -0.000046 0.000000 0.019525 0.000000
# 6 0.000000 0.000000 0.000000 0.007123 0.000000 0.063824
#
#
# Mechanical properties :
#
#
# Convention : Reuss Voigt Hill
#
# Bulk Modulus (GPa) = 47.76707 60.31358 54.04032
# Shear Modulus (GPa) = 26.85394 34.86055 30.85725
#
# Velocity S-wave (km/s) = 3.28519 3.74303 3.52155
# Velocity P-wave (km/s) = 5.79545 6.55134 6.18495
#
# Compressibility (1/GPa) = 0.02093493
#
# Stress axis : x y z
#
# Youngs Moduli (GPa) = 49.36303 123.18427 90.38390
#
# Poissons Ratio (x) = 0.33684 0.38801
# Poissons Ratio (y) = 0.13498 0.20112
# Poissons Ratio (z) = 0.21191 0.27410
#
# Static dielectric constant tensor:
#      x y z
#    x 2.106750 0.000000 0.182740 
#    y 0.000000 1.890360 0.000000 
#    z 0.182740 0.000000 2.072920 
# 
# From -- ./inp_files/48166.got.cif
#   From: 2010.05.17/outbox.cif.g08.bks.cpg/sg5_25_cif.got.tgz:48166.got - 2010.06.03 18:56:24.
