data_PCOD9119231
_publ_section_title
;
Structure prediction by ZEFSAII (Michael W. Deem and Ramdas Pophale) SiO2 
 PCOD9119231
Probable space group: P 21
;
_chemical_formula_sum "Si O2"
_cell_formula_units_Z 16
_cell_length_a 5.401609
_cell_length_b 14.688430
_cell_length_c 8.653062
_cell_angle_alpha 90.000000
_cell_angle_beta 111.363878
_cell_angle_gamma 90.000000
_cell_volume 639.368530
_symmetry_space_group_name_H-M "P 21"
_symmetry_group_IT_number 4
_symmetry_cell_setting 'monoclinic'
loop_
_space_group_symop_operation_xyz
x,y,z
-x,1/2+y,-z
loop_
_atom_site_type_symbol
_atom_site_label
_atom_site_fract_x
_atom_site_fract_y
_atom_site_fract_z
Si Si1 0.532707 0.901870 0.904298
Si Si2 0.250446 0.715930 0.819181
Si Si3 0.682339 0.489006 0.659110
Si Si4 0.147985 0.693780 0.140218
Si Si5 0.565330 0.555596 0.330007
Si Si6 0.317274 0.069216 0.040624
Si Si7 0.202980 0.384327 0.717316
Si Si8 0.981200 0.701443 0.426528
O O1 0.440362 0.802223 0.838382
O O2 0.544494 0.957336 0.747729
O O3 0.755731 0.886863 0.086823
O O4 0.340658 0.975886 0.949294
O O5 0.406531 0.620095 0.862032
O O6 0.073815 0.711945 0.624479
O O7 0.147806 0.739851 0.971113
O O8 0.534985 0.554789 0.506501
O O9 0.816657 0.546620 0.825745
O O10 0.450337 0.434907 0.694293
O O11 0.914183 0.431259 0.627439
O O12 0.382524 0.621039 0.188561
O O13 0.173818 0.727019 0.324266
O O14 0.867618 0.643025 0.079574
O O15 0.858999 0.599994 0.382904
O O16 0.225479 0.282921 0.654788
#
# Coordination Sequence:
#
# PCOD9119231 Si02
#       8
#     2   2   2   2   2   2   2   2
#     4  11  24  48  76 107 155 197 265 317 399 464
#     4  12  27  50  73 116 152 208 265 330 394 480
#     4  11  27  46  80 111 160 203 264 325 398 472
#     4  12  24  46  78 105 156 204 261 324 400 468
#     4  12  25  46  74 112 151 207 252 328 400 472
#     4  11  24  48  74 110 147 208 258 325 394 465
#     4  11  27  51  74 116 155 205 261 334 389 478
#     4  12  28  47  77 111 162 198 266 327 400 475
#
# _framework density 25.024691000000001
#
# number of rings (size 3 to 8) (size 9 to 14) (size 15 to 20)
#    0.000    0.500    2.500    4.500   12.250    1.000 
#    9.000    0.000    0.000    0.000    0.000    0.000 
#    0.000    0.000    0.000    0.000    0.000    0.000 
#
# Total GULP energy -89176.034129 kJ/mol
# GULP energy per Si atom -5573.502133 kJ/mol
# Density = 2.496773 g / cm^3
# Si number density = 25.024691 Si / 1000 Ang^3
#
#
#
# Elastic Constant Matrix: (Units=GPa)
#
#
# Indices 1 2 3 4 5 6 
#
# 1 67.6592 8.3812 -4.9213 0.0000 1.0426 0.0000
# 2 8.3812 77.4981 16.1739 0.0000 5.9318 0.0000
# 3 -4.9213 16.1739 97.4072 0.0000 0.0873 0.0000
# 4 0.0000 0.0000 0.0000 37.7941 0.0000 -6.0287
# 5 1.0426 5.9318 0.0873 0.0000 34.6558 0.0000
# 6 0.0000 0.0000 0.0000 -6.0287 0.0000 20.2368
#
#
#
# Elastic Compliance Matrix: (Units=1/GPa)
#
#
# Indices 1 2 3 4 5 6 
#
# 1 0.015088 -0.001844 0.001069 0.000000 -0.000141 0.000000
# 2 -0.001844 0.013775 -0.002378 0.000000 -0.002296 0.000000
# 3 0.001069 -0.002378 0.010715 0.000000 0.000348 0.000000
# 4 0.000000 0.000000 0.000000 0.027779 0.000000 0.008276
# 5 -0.000141 -0.002296 0.000348 0.000000 0.029252 0.000000
# 6 0.000000 0.000000 0.000000 0.008276 0.000000 0.051880
#
#
# Mechanical properties :
#
#
# Convention : Reuss Voigt Hill
#
# Bulk Modulus (GPa) = 30.05650 31.31466 30.68558
# Shear Modulus (GPa) = 30.14098 33.39937 31.77018
#
# Velocity S-wave (km/s) = 3.47428 3.65726 3.56694
# Velocity P-wave (km/s) = 5.30387 5.51133 5.40859
#
# Compressibility (1/GPa) = 0.03327067
#
# Stress axis : x y z
#
# Youngs Moduli (GPa) = 66.27659 72.59481 93.32908
#
# Poissons Ratio (x) = 0.13386 -0.09973
# Poissons Ratio (y) = 0.12221 0.22197
# Poissons Ratio (z) = -0.07082 0.17266
#
# Static dielectric constant tensor:
#      x y z
#    x 2.090230 0.000000 -0.041110 
#    y 0.000000 2.046210 0.000000 
#    z -0.041110 0.000000 2.030230 
# 
# From -- ./inp_files/1526.got.cif
#   From: 2010.05.17/outbox.cif.g08.bks.cpg/sg4_1_cif.got.tgz:1526.got - 2010.06.03 18:43:04.
