data_PCOD9119094
_publ_section_title
;
Structure prediction by ZEFSAII (Michael W. Deem and Ramdas Pophale) SiO2 
 PCOD9119094
Probable space group: P 21
;
_chemical_formula_sum "Si O2"
_cell_formula_units_Z 16
_cell_length_a 10.692981
_cell_length_b 11.751653
_cell_length_c 13.185080
_cell_angle_alpha 90.000000
_cell_angle_beta 158.831958
_cell_angle_gamma 90.000000
_cell_volume 598.292297
_symmetry_space_group_name_H-M "P 21"
_symmetry_group_IT_number 4
_symmetry_cell_setting 'monoclinic'
loop_
_space_group_symop_operation_xyz
x,y,z
-x,1/2+y,-z
loop_
_atom_site_type_symbol
_atom_site_label
_atom_site_fract_x
_atom_site_fract_y
_atom_site_fract_z
Si Si1 0.632300 0.522060 0.751108
Si Si2 0.892707 0.365384 0.586318
Si Si3 0.955495 0.176250 0.789264
Si Si4 0.510600 0.767942 0.383954
Si Si5 0.332221 0.527055 0.158778
Si Si6 0.981957 0.704148 0.485672
Si Si7 0.757375 0.286544 0.117308
Si Si8 0.447067 0.996378 0.908419
O O1 0.304165 0.584607 0.455585
O O2 0.576495 0.389459 0.731038
O O3 0.754936 0.600080 0.937553
O O4 0.942062 0.523020 0.902087
O O5 0.058268 0.272772 0.786852
O O6 0.566301 0.429288 0.388045
O O7 0.795607 0.286992 0.417506
O O8 0.169078 0.458952 0.758739
O O9 0.736053 0.245513 0.707289
O O10 0.463422 0.651714 0.286315
O O11 0.922171 0.775182 0.716064
O O12 0.415983 0.503996 0.105090
O O13 0.848652 0.594149 0.324072
O O14 0.176035 0.694849 0.740272
O O15 0.610707 0.768482 0.212448
O O16 0.761179 0.401454 0.185028
#
# Coordination Sequence:
#
# PCOD9119094 Si02
#       8
#     2   2   2   2   2   2   2   2
#     4  11  29  47  70 115 146 196 251 301 381 438
#     4  11  26  48  73 108 149 196 252 303 380 446
#     4  11  29  48  76 106 153 200 239 316 374 446
#     4  11  26  48  73 108 149 190 247 305 369 447
#     4  11  24  44  77 100 145 199 243 308 363 454
#     4  11  25  45  70 105 141 189 240 303 354 439
#     4  11  25  44  69 104 140 184 240 297 359 426
#     4  11  24  44  72 106 139 194 248 297 372 436
#
# _framework density 26.742781999999998
#
# number of rings (size 3 to 8) (size 9 to 14) (size 15 to 20)
#    0.000    1.000    2.500    1.500   15.750    1.000 
#    2.250    0.000    0.000    0.000    0.000    0.000 
#    0.000    0.000    0.000    0.000    0.000    0.000 
#
# Total GULP energy -89466.264462 kJ/mol
# GULP energy per Si atom -5591.641529 kJ/mol
# Density = 2.668191 g / cm^3
# Si number density = 26.742782 Si / 1000 Ang^3
#
#
#
# Elastic Constant Matrix: (Units=GPa)
#
#
# Indices 1 2 3 4 5 6 
#
# 1 47.9879 26.7879 15.7762 0.0000 -3.2409 0.0000
# 2 26.7879 121.8062 6.2001 0.0000 6.3218 0.0000
# 3 15.7762 6.2001 104.2354 0.0000 0.0275 0.0000
# 4 0.0000 0.0000 0.0000 30.2879 0.0000 14.7549
# 5 -3.2409 6.3218 0.0275 0.0000 37.2795 0.0000
# 6 0.0000 0.0000 0.0000 14.7549 0.0000 48.2910
#
#
#
# Elastic Compliance Matrix: (Units=1/GPa)
#
#
# Indices 1 2 3 4 5 6 
#
# 1 0.025299 -0.005549 -0.003500 0.000000 0.003143 0.000000
# 2 -0.005549 0.009525 0.000274 0.000000 -0.002098 0.000000
# 3 -0.003500 0.000274 0.010107 0.000000 -0.000358 0.000000
# 4 0.000000 0.000000 0.000000 0.038790 0.000000 -0.011852
# 5 0.003143 -0.002098 -0.000358 0.000000 0.027454 0.000000
# 6 0.000000 0.000000 0.000000 -0.011852 0.000000 0.024329
#
#
# Mechanical properties :
#
#
# Convention : Reuss Voigt Hill
#
# Bulk Modulus (GPa) = 36.52100 41.28424 38.90262
# Shear Modulus (GPa) = 30.82982 38.18937 34.50960
#
# Velocity S-wave (km/s) = 3.39902 3.78302 3.59615
# Velocity P-wave (km/s) = 5.39356 5.87816 5.64106
#
# Compressibility (1/GPa) = 0.02738150
#
# Stress axis : x y z
#
# Youngs Moduli (GPa) = 39.52749 104.98687 98.93961
#
# Poissons Ratio (x) = 0.58255 0.34627
# Poissons Ratio (y) = 0.21933 -0.02709
# Poissons Ratio (z) = 0.13834 -0.02875
#
# Static dielectric constant tensor:
#      x y z
#    x 2.139960 0.000000 -0.039630 
#    y 0.000000 2.134500 0.000000 
#    z -0.039630 0.000000 2.107300 
# 
# From -- ./inp_files/2896.got.cif
#   From: 2010.05.17/outbox.cif.g08.bks.cpg/sg4_2_cif.got.tgz:2896.got - 2010.06.03 18:43:04.
