data_PCOD9119683
_publ_section_title
;
Structure prediction by ZEFSAII (Michael W. Deem and Ramdas Pophale) SiO2 
 PCOD9119683
Probable space group: P 21
;
_chemical_formula_sum "Si O2"
_cell_formula_units_Z 16
_cell_length_a 5.729830
_cell_length_b 15.801589
_cell_length_c 8.031336
_cell_angle_alpha 90.000000
_cell_angle_beta 121.959175
_cell_angle_gamma 90.000000
_cell_volume 616.941506
_symmetry_space_group_name_H-M "P 21"
_symmetry_group_IT_number 4
_symmetry_cell_setting 'monoclinic'
loop_
_space_group_symop_operation_xyz
x,y,z
-x,1/2+y,-z
loop_
_atom_site_type_symbol
_atom_site_label
_atom_site_fract_x
_atom_site_fract_y
_atom_site_fract_z
Si Si1 0.900102 0.212870 0.322660
Si Si2 0.109918 0.344806 0.132495
Si Si3 0.577936 0.454743 0.310444
Si Si4 0.418169 0.250025 0.716291
Si Si5 0.889203 0.038064 0.398556
Si Si6 0.597244 0.431499 0.920065
Si Si7 0.691028 0.695145 0.977176
Si Si8 0.781312 0.112719 0.723576
O O1 0.989502 0.115893 0.320869
O O2 0.953414 0.280728 0.197269
O O3 0.103629 0.245856 0.540406
O O4 0.577494 0.200087 0.239966
O O5 0.388532 0.381331 0.316784
O O6 0.173264 0.286816 0.999017
O O7 0.924165 0.424925 0.014374
O O8 0.423645 0.542770 0.282140
O O9 0.880857 0.465503 0.499523
O O10 0.579423 0.435694 0.113959
O O11 0.499520 0.343873 0.798945
O O12 0.437207 0.192481 0.888600
O O13 0.616314 0.201736 0.662391
O O14 0.864623 0.078413 0.573306
O O15 0.597453 0.003099 0.227724
O O16 0.937140 0.628606 0.067000
#
# Coordination Sequence:
#
# PCOD9119683 Si02
#       8
#     2   2   2   2   2   2   2   2
#     4  12  28  49  80 120 156 213 272 329 392 491
#     4  12  27  51  81 114 161 217 267 324 414 480
#     4  12  28  54  75 118 166 209 266 346 399 478
#     4  12  26  53  76 113 159 208 270 326 398 485
#     4  12  31  51  80 119 167 208 272 343 400 476
#     4  12  29  51  76 116 165 212 265 339 401 475
#     4  12  25  50  78 112 156 208 269 330 388 488
#     4  12  26  53  80 110 160 215 263 335 408 477
#
# _framework density 25.934387999999998
#
# number of rings (size 3 to 8) (size 9 to 14) (size 15 to 20)
#    0.000    0.000    6.250    0.750   14.000    1.000 
#    0.000    0.000    0.000    0.000    0.000    0.000 
#    0.000    0.000    0.000    0.000    0.000    0.000 
#
# Total GULP energy -89579.187511 kJ/mol
# GULP energy per Si atom -5598.699219 kJ/mol
# Density = 2.587536 g / cm^3
# Si number density = 25.934388 Si / 1000 Ang^3
#
#
#
# Elastic Constant Matrix: (Units=GPa)
#
#
# Indices 1 2 3 4 5 6 
#
# 1 72.0824 24.8279 36.0001 0.0000 20.1684 0.0000
# 2 24.8279 107.8888 24.1728 0.0000 7.1138 0.0000
# 3 36.0001 24.1728 122.3049 0.0000 34.8728 0.0000
# 4 0.0000 0.0000 0.0000 46.2597 0.0000 17.2398
# 5 20.1684 7.1138 34.8728 0.0000 36.3117 0.0000
# 6 0.0000 0.0000 0.0000 17.2398 0.0000 51.4684
#
#
#
# Elastic Compliance Matrix: (Units=1/GPa)
#
#
# Indices 1 2 3 4 5 6 
#
# 1 0.018264 -0.003123 -0.002810 0.000000 -0.006834 0.000000
# 2 -0.003123 0.010232 -0.001413 0.000000 0.001087 0.000000
# 3 -0.002810 -0.001413 0.012062 0.000000 -0.009746 0.000000
# 4 0.000000 0.000000 0.000000 0.024700 0.000000 -0.008274
# 5 -0.006834 0.001087 -0.009746 0.000000 0.040482 0.000000
# 6 0.000000 0.000000 0.000000 -0.008274 0.000000 0.022201
#
#
# Mechanical properties :
#
#
# Convention : Reuss Voigt Hill
#
# Bulk Modulus (GPa) = 38.66119 52.47530 45.56825
# Shear Modulus (GPa) = 33.05665 41.29298 37.17482
#
# Velocity S-wave (km/s) = 3.57406 3.99458 3.79016
# Velocity P-wave (km/s) = 5.65434 6.44619 6.06321
#
# Compressibility (1/GPa) = 0.02586573
#
# Stress axis : x y z
#
# Youngs Moduli (GPa) = 54.75181 97.72899 82.90750
#
# Poissons Ratio (x) = 0.30519 0.23300
# Poissons Ratio (y) = 0.17098 0.11716
# Poissons Ratio (z) = 0.15387 0.13810
#
# Static dielectric constant tensor:
#      x y z
#    x 2.088070 0.000000 -0.007980 
#    y 0.000000 2.043590 0.000000 
#    z -0.007980 0.000000 2.038910 
# 
# From -- ./inp_files/4857.got.cif
#   From: 2010.05.17/outbox.cif.g08.bks.cpg/sg4_3_cif.got.tgz:4857.got - 2010.06.03 18:43:04.
