data_PCOD9119696
_publ_section_title
;
Structure prediction by ZEFSAII (Michael W. Deem and Ramdas Pophale) SiO2 
 PCOD9119696
Probable space group: P 21
;
_chemical_formula_sum "Si O2"
_cell_formula_units_Z 16
_cell_length_a 12.386215
_cell_length_b 11.380550
_cell_length_c 12.385316
_cell_angle_alpha 90.000000
_cell_angle_beta 157.185291
_cell_angle_gamma 90.000000
_cell_volume 676.960403
_symmetry_space_group_name_H-M "P 21"
_symmetry_group_IT_number 4
_symmetry_cell_setting 'monoclinic'
loop_
_space_group_symop_operation_xyz
x,y,z
-x,1/2+y,-z
loop_
_atom_site_type_symbol
_atom_site_label
_atom_site_fract_x
_atom_site_fract_y
_atom_site_fract_z
Si Si1 0.065072 0.609830 0.288082
Si Si2 0.446696 0.833523 0.965022
Si Si3 0.636253 0.499471 0.416795
Si Si4 0.351262 0.234293 0.468337
Si Si5 0.011990 0.192686 0.544947
Si Si6 0.782294 0.029284 0.149037
Si Si7 0.185871 0.854678 0.960631
Si Si8 0.607324 0.749277 0.742226
O O1 0.372060 0.648035 0.535125
O O2 0.049606 0.621131 0.403504
O O3 0.953420 0.482412 0.149987
O O4 0.861307 0.706337 0.048938
O O5 0.340678 0.856537 0.987956
O O6 0.186881 0.806998 0.647007
O O7 0.666155 0.726729 0.162257
O O8 0.623152 0.939606 0.080100
O O9 0.609447 0.594115 0.487497
O O10 0.509936 0.372584 0.323726
O O11 0.955393 0.482672 0.676987
O O12 0.453746 0.561750 0.154919
O O13 0.310797 0.265675 0.306528
O O14 0.072886 0.265244 0.277984
O O15 0.600428 0.308939 0.751655
O O16 0.914560 0.125101 0.349155
#
# Coordination Sequence:
#
# PCOD9119696 Si02
#       8
#     2   2   2   2   2   2   2   2
#     4  12  28  48  75 114 150 191 245 303 369 445
#     4  12  26  44  72 107 153 194 237 292 360 439
#     4  12  26  48  75 108 149 188 256 300 358 454
#     4  12  28  51  78 107 144 199 245 314 371 422
#     4  12  26  44  72 107 153 194 237 292 360 439
#     4  12  26  44  71 110 143 196 234 286 370 430
#     4  12  28  48  75 114 150 191 245 303 369 445
#     4  12  28  51  78 107 144 199 245 314 371 422
#
# _framework density 23.635059999999999
#
# number of rings (size 3 to 8) (size 9 to 14) (size 15 to 20)
#    0.000    0.000    0.000   10.500   12.250    0.000 
#    0.000    0.000    0.000    0.000    0.000    0.000 
#    0.000    0.000    0.000    0.000    0.000    0.000 
#
# Total GULP energy -89718.777057 kJ/mol
# GULP energy per Si atom -5607.423566 kJ/mol
# Density = 2.358127 g / cm^3
# Si number density = 23.635060 Si / 1000 Ang^3
#
#
#
# Elastic Constant Matrix: (Units=GPa)
#
#
# Indices 1 2 3 4 5 6 
#
# 1 47.7863 -55.8299 5.2064 0.0000 -71.7700 0.0000
# 2 -55.8299 -69.2623 -22.8683 0.0000 -146.5817 0.0000
# 3 5.2064 -22.8683 112.9204 0.0000 -8.8257 0.0000
# 4 0.0000 0.0000 0.0000 35.9527 0.0000 -4.6609
# 5 -71.7700 -146.5817 -8.8257 0.0000 -118.7999 0.0000
# 6 0.0000 0.0000 0.0000 -4.6609 0.0000 21.7724
#
#
#
# Elastic Compliance Matrix: (Units=1/GPa)
#
#
# Indices 1 2 3 4 5 6 
#
# 1 0.012533 -0.003843 -0.001568 0.000000 -0.002713 0.000000
# 2 -0.003843 0.010242 0.001437 0.000000 -0.010422 0.000000
# 3 -0.001568 0.001437 0.009102 0.000000 -0.001502 0.000000
# 4 0.000000 0.000000 0.000000 0.028608 0.000000 0.006124
# 5 -0.002713 -0.010422 -0.001502 0.000000 0.006192 0.000000
# 6 0.000000 0.000000 0.000000 0.006124 0.000000 0.047241
#
#
# Mechanical properties :
#
#
# Convention : Reuss Voigt Hill
#
# Bulk Modulus (GPa) = 41.79377 -6.17104 17.81137
# Shear Modulus (GPa) = 38.50819 -1.21921 18.64449
#
# Velocity S-wave (km/s) = 4.04082 -0.71900 2.81169
# Velocity P-wave (km/s) = 6.28429 1.81822 4.25361
#
# Compressibility (1/GPa) = 0.02392701
#
# Stress axis : x y z
#
# Youngs Moduli (GPa) = 79.79067 97.63803 109.86940
#
# Poissons Ratio (x) = 0.37525 0.17230
# Poissons Ratio (y) = 0.30666 -0.15786
# Poissons Ratio (z) = 0.12513 -0.14029
#
# Static dielectric constant tensor:
#      x y z
#    x 1.849130 0.000000 0.012650 
#    y 0.000000 1.954280 0.000000 
#    z 0.012650 0.000000 1.844610 
# 
# From -- ./inp_files/12246.got.cif
#   From: 2010.05.17/outbox.cif.g08.bks.cpg/sg4_7_cif.got.tgz:12246.got - 2010.06.03 18:43:04.
