data_PCOD9119090
_publ_section_title
;
Structure prediction by ZEFSAII (Michael W. Deem and Ramdas Pophale) SiO2 
 PCOD9119090
Probable space group: P 21
;
_chemical_formula_sum "Si O2"
_cell_formula_units_Z 14
_cell_length_a 7.256093
_cell_length_b 6.684338
_cell_length_c 11.966009
_cell_angle_alpha 90.000000
_cell_angle_beta 80.928476
_cell_angle_gamma 90.000000
_cell_volume 573.118307
_symmetry_space_group_name_H-M "P 21"
_symmetry_group_IT_number 4
_symmetry_cell_setting 'monoclinic'
loop_
_space_group_symop_operation_xyz
x,y,z
-x,1/2+y,-z
loop_
_atom_site_type_symbol
_atom_site_label
_atom_site_fract_x
_atom_site_fract_y
_atom_site_fract_z
Si Si1 0.267213 0.605830 0.507235
Si Si2 0.110083 0.916980 0.911796
Si Si3 0.360377 0.348006 0.314428
Si Si4 0.140331 0.758068 0.140817
Si Si5 0.318603 0.588225 0.765496
Si Si6 0.527605 0.683018 0.154883
Si Si7 0.878551 0.466740 0.617365
O O1 0.399373 0.444706 0.433148
O O2 0.305334 0.620638 0.634082
O O3 0.062766 0.503076 0.526781
O O4 0.250589 0.815761 0.442697
O O5 0.159195 0.712150 0.842646
O O6 0.299862 0.048404 0.899252
O O7 0.048867 0.867624 0.042767
O O8 0.953722 0.039355 0.859216
O O9 0.494844 0.210940 0.227872
O O10 0.382656 0.553822 0.244263
O O11 0.197916 0.188595 0.350916
O O12 0.363661 0.765609 0.091079
O O13 0.092744 0.862784 0.263738
O O14 0.367897 0.363134 0.791839
#
# Coordination Sequence:
#
# PCOD9119090 Si02
#       7
#     2   2   2   2   2   2   2
#     4  12  26  42  75 107 156 193 258 313 395 458
#     4  11  31  48  77 117 149 204 263 331 384 472
#     4  11  24  44  71 107 149 199 245 309 390 456
#     4  12  28  51  80 109 158 200 268 318 408 450
#     4  11  27  49  76 111 151 196 266 320 386 472
#     4  11  26  52  76 112 152 207 255 321 395 467
#     4  12  26  46  71 113 147 207 251 318 386 475
#
# _framework density 24.427768
#
# number of rings (size 3 to 8) (size 9 to 14) (size 15 to 20)
#    0.000    0.571    4.286    0.857   14.000    1.143 
#    0.000    0.000    0.000    0.000    0.000    0.000 
#    0.000    0.000    0.000    0.000    0.000    0.000 
#
# Total GULP energy -78072.100165 kJ/mol
# GULP energy per Si atom -5576.578583 kJ/mol
# Density = 2.437217 g / cm^3
# Si number density = 24.427768 Si / 1000 Ang^3
#
#
#
# Elastic Constant Matrix: (Units=GPa)
#
#
# Indices 1 2 3 4 5 6 
#
# 1 77.8050 40.4518 21.2193 0.0000 -1.5025 0.0000
# 2 40.4518 167.1438 77.3187 0.0000 3.5955 0.0000
# 3 21.2193 77.3187 113.3086 0.0000 12.4675 0.0000
# 4 0.0000 0.0000 0.0000 53.4650 0.0000 -13.9460
# 5 -1.5025 3.5955 12.4675 0.0000 24.3513 0.0000
# 6 0.0000 0.0000 0.0000 -13.9460 0.0000 28.1136
#
#
#
# Elastic Compliance Matrix: (Units=1/GPa)
#
#
# Indices 1 2 3 4 5 6 
#
# 1 0.014791 -0.003283 -0.000725 0.000000 0.001768 0.000000
# 2 -0.003283 0.009552 -0.006068 0.000000 0.001494 0.000000
# 3 -0.000725 -0.006068 0.013784 0.000000 -0.006206 0.000000
# 4 0.000000 0.000000 0.000000 0.021484 0.000000 0.010657
# 5 0.001768 0.001494 -0.006206 0.000000 0.044132 0.000000
# 6 0.000000 0.000000 0.000000 0.010657 0.000000 0.040857
#
#
# Mechanical properties :
#
#
# Convention : Reuss Voigt Hill
#
# Bulk Modulus (GPa) = 55.62376 70.69301 63.15838
# Shear Modulus (GPa) = 29.28404 35.80383 32.54394
#
# Velocity S-wave (km/s) = 3.46613 3.83260 3.65396
# Velocity P-wave (km/s) = 6.23208 6.97048 6.61160
#
# Compressibility (1/GPa) = 0.01797793
#
# Stress axis : x y z
#
# Youngs Moduli (GPa) = 67.60850 104.69015 72.54577
#
# Poissons Ratio (x) = 0.34365 0.05256
# Poissons Ratio (y) = 0.22193 0.44018
# Poissons Ratio (z) = 0.04899 0.63522
#
# Static dielectric constant tensor:
#      x y z
#    x 2.096260 0.000000 0.045480 
#    y 0.000000 2.026160 0.000000 
#    z 0.045480 0.000000 1.923100 
# 
# From -- ./inp_files/10723.got.cif
#   From: 2010.05.17/outbox.cif.g08.bks.cpg/sg4_6_cif.got.tgz:10723.got - 2010.06.03 18:43:04.
