data_PCOD9119517
_publ_section_title
;
Structure prediction by ZEFSAII (Michael W. Deem and Ramdas Pophale) SiO2 
 PCOD9119517
Probable space group: P 21
;
_chemical_formula_sum "Si O2"
_cell_formula_units_Z 12
_cell_length_a 7.205716
_cell_length_b 14.722626
_cell_length_c 6.996218
_cell_angle_alpha 90.000000
_cell_angle_beta 42.526396
_cell_angle_gamma 90.000000
_cell_volume 501.680646
_symmetry_space_group_name_H-M "P 21"
_symmetry_group_IT_number 4
_symmetry_cell_setting 'monoclinic'
loop_
_space_group_symop_operation_xyz
x,y,z
-x,1/2+y,-z
loop_
_atom_site_type_symbol
_atom_site_label
_atom_site_fract_x
_atom_site_fract_y
_atom_site_fract_z
Si Si1 0.372466 0.742060 0.295508
Si Si2 0.873905 0.619557 0.808031
Si Si3 0.120895 0.837339 0.135586
Si Si4 0.989402 0.630210 0.153358
Si Si5 0.481051 0.380857 0.497055
Si Si6 0.442046 0.042427 0.263390
O O1 0.465558 0.789271 0.421013
O O2 0.144213 0.665780 0.514083
O O3 0.634504 0.696182 0.996364
O O4 0.244299 0.816751 0.250197
O O5 0.748917 0.537756 0.778793
O O6 0.929880 0.597455 0.984759
O O7 0.320464 0.884303 0.833819
O O8 0.073563 0.734838 0.090810
O O9 0.825727 0.883615 0.350436
O O10 0.723114 0.617386 0.486856
O O11 0.252328 0.573026 0.023565
O O12 0.536115 0.458795 0.610021
#
# Coordination Sequence:
#
# PCOD9119517 Si02
#       6
#     2   2   2   2   2   2
#     4  12  23  41  70  97 125 174 224 264 318 397
#     4  12  23  41  70  97 125 174 224 264 318 397
#     4  12  23  43  72  95 128 177 225 259 322 401
#     4  12  23  43  72  95 128 177 225 259 322 401
#     4  12  26  43  64 101 138 165 215 284 328 372
#     4  12  26  43  64 101 138 165 215 284 328 372
#
# _framework density 23.919601
#
# number of rings (size 3 to 8) (size 9 to 14) (size 15 to 20)
#    0.000    0.000    6.667    4.000    0.000    2.667 
#    0.000    0.000    0.000    0.000    0.000    0.000 
#    0.000    0.000    0.000    0.000    0.000    0.000 
#
# Total GULP energy -67263.641313 kJ/mol
# GULP energy per Si atom -5605.303443 kJ/mol
# Density = 2.386516 g / cm^3
# Si number density = 23.919601 Si / 1000 Ang^3
#
#
#
# Elastic Constant Matrix: (Units=GPa)
#
#
# Indices 1 2 3 4 5 6 
#
# 1 139.2036 -6.4608 24.2409 0.0000 -3.8392 0.0000
# 2 -6.4608 29.7954 15.7537 0.0000 -5.3774 0.0000
# 3 24.2409 15.7537 117.7575 0.0000 -16.7315 0.0000
# 4 0.0000 0.0000 0.0000 22.5919 0.0000 5.0460
# 5 -3.8392 -5.3774 -16.7315 0.0000 39.5900 0.0000
# 6 0.0000 0.0000 0.0000 5.0460 0.0000 31.6606
#
#
#
# Elastic Compliance Matrix: (Units=1/GPa)
#
#
# Indices 1 2 3 4 5 6 
#
# 1 0.007648 0.002716 -0.001894 0.000000 0.000310 0.000000
# 2 0.002716 0.037430 -0.005114 0.000000 0.003186 0.000000
# 3 -0.001894 -0.005114 0.010044 0.000000 0.003367 0.000000
# 4 0.000000 0.000000 0.000000 0.045897 0.000000 -0.007315
# 5 0.000310 0.003186 0.003367 0.000000 0.027145 0.000000
# 6 0.000000 0.000000 0.000000 -0.007315 0.000000 0.032751
#
#
# Mechanical properties :
#
#
# Convention : Reuss Voigt Hill
#
# Bulk Modulus (GPa) = 21.48744 39.31379 30.40061
# Shear Modulus (GPa) = 27.02533 35.65000 31.33766
#
# Velocity S-wave (km/s) = 3.36496 3.86477 3.62349
# Velocity P-wave (km/s) = 4.90917 6.03214 5.49939
#
# Compressibility (1/GPa) = 0.04653882
#
# Stress axis : x y z
#
# Youngs Moduli (GPa) = 130.75193 26.71664 99.55889
#
# Poissons Ratio (x) = -0.07255 0.18853
# Poissons Ratio (y) = -0.35507 0.50911
# Poissons Ratio (z) = 0.24759 0.13662
#
# Static dielectric constant tensor:
#      x y z
#    x 1.912780 0.000000 -0.001170 
#    y 0.000000 1.932010 0.000000 
#    z -0.001170 0.000000 1.819120 
# 
# From -- ./inp_files/419.got.cif
#   From: 2010.05.17/outbox.cif.g08.bks.cpg/sg4_1_cif.got.tgz:419.got - 2010.06.03 18:43:04.
