data_PCOD9119411
_publ_section_title
;
Structure prediction by ZEFSAII (Michael W. Deem and Ramdas Pophale) SiO2 
 PCOD9119411
Probable space group: P 21
;
_chemical_formula_sum "Si O2"
_cell_formula_units_Z 12
_cell_length_a 21.371164
_cell_length_b 4.757010
_cell_length_c 9.360276
_cell_angle_alpha 90.000000
_cell_angle_beta 150.349081
_cell_angle_gamma 90.000000
_cell_volume 470.766384
_symmetry_space_group_name_H-M "P 21"
_symmetry_group_IT_number 4
_symmetry_cell_setting 'monoclinic'
loop_
_space_group_symop_operation_xyz
x,y,z
-x,1/2+y,-z
loop_
_atom_site_type_symbol
_atom_site_label
_atom_site_fract_x
_atom_site_fract_y
_atom_site_fract_z
Si Si1 0.079896 0.003830 0.667374
Si Si2 0.764879 0.456396 0.777587
Si Si3 0.582970 0.510671 0.664136
Si Si4 0.238157 0.026870 0.736368
Si Si5 0.997600 0.155624 0.092759
Si Si6 0.590543 0.479857 0.176802
O O1 0.158119 0.854213 0.695034
O O2 0.008392 0.258783 0.454642
O O3 0.151376 0.136389 0.944983
O O4 0.663463 0.361088 0.697204
O O5 0.683501 0.579741 0.487555
O O6 0.866865 0.246147 0.909282
O O7 0.498980 0.262569 0.562908
O O8 0.665204 0.654788 0.954466
O O9 0.131779 0.200030 0.439194
O O10 0.322734 0.884351 0.783424
O O11 0.004798 0.331757 0.959566
O O12 0.502064 0.228536 0.053592
#
# Coordination Sequence:
#
# PCOD9119411 Si02
#       6
#     2   2   2   2   2   2
#     4  11  26  43  70 108 145 182 233 292 368 433
#     4  11  26  47  75 105 145 191 239 303 359 431
#     4  11  26  49  74 106 147 194 243 296 356 429
#     4  11  26  47  75 105 145 191 239 303 359 431
#     4  12  28  46  74 114 148 188 238 304 374 428
#     4  12  28  46  72 104 142 194 248 292 352 430
#
# _framework density 25.490352999999999
#
# number of rings (size 3 to 8) (size 9 to 14) (size 15 to 20)
#    0.000    0.667    3.333    2.000    4.667   10.667 
#    0.000    0.000    0.000    0.000    0.000    0.000 
#    0.000    0.000    0.000    0.000    0.000    0.000 
#
# Total GULP energy -66909.299359 kJ/mol
# GULP energy per Si atom -5575.774947 kJ/mol
# Density = 2.543234 g / cm^3
# Si number density = 25.490353 Si / 1000 Ang^3
#
#
#
# Elastic Constant Matrix: (Units=GPa)
#
#
# Indices 1 2 3 4 5 6 
#
# 1 160.4008 -4.7018 41.3578 0.0000 2.0209 0.0000
# 2 -4.7018 61.8995 28.5629 0.0000 11.6180 0.0000
# 3 41.3578 28.5629 163.2513 0.0000 -17.1164 0.0000
# 4 0.0000 0.0000 0.0000 17.6188 0.0000 -4.8284
# 5 2.0209 11.6180 -17.1164 0.0000 45.8754 0.0000
# 6 0.0000 0.0000 0.0000 -4.8284 0.0000 22.0585
#
#
#
# Elastic Compliance Matrix: (Units=1/GPa)
#
#
# Indices 1 2 3 4 5 6 
#
# 1 0.006886 0.001858 -0.002238 0.000000 -0.001609 0.000000
# 2 0.001858 0.019711 -0.004632 0.000000 -0.006802 0.000000
# 3 -0.002238 -0.004632 0.007947 0.000000 0.004237 0.000000
# 4 0.000000 0.000000 0.000000 0.060379 0.000000 0.013217
# 5 -0.001609 -0.006802 0.004237 0.000000 0.025172 0.000000
# 6 0.000000 0.000000 0.000000 0.013217 0.000000 0.048227
#
#
# Mechanical properties :
#
#
# Convention : Reuss Voigt Hill
#
# Bulk Modulus (GPa) = 40.78563 57.33214 49.05889
# Shear Modulus (GPa) = 26.80654 38.46606 32.63630
#
# Velocity S-wave (km/s) = 3.24641 3.88886 3.58206
# Velocity P-wave (km/s) = 5.48520 6.53489 6.03292
#
# Compressibility (1/GPa) = 0.02451844
#
# Stress axis : x y z
#
# Youngs Moduli (GPa) = 145.21713 50.73407 125.82868
#
# Poissons Ratio (x) = -0.09426 0.28164
# Poissons Ratio (y) = -0.26980 0.58290
# Poissons Ratio (z) = 0.32504 0.23502
#
# Static dielectric constant tensor:
#      x y z
#    x 2.017980 0.000000 0.095790 
#    y 0.000000 1.885300 0.000000 
#    z 0.095790 0.000000 2.104520 
# 
# From -- ./inp_files/9820.got.cif
#   From: 2010.05.17/outbox.cif.g08.bks.cpg/sg4_5_cif.got.tgz:9820.got - 2010.06.03 18:43:04.
