data_PCOD9119499
_publ_section_title
;
Structure prediction by ZEFSAII (Michael W. Deem and Ramdas Pophale) SiO2 
 PCOD9119499
Probable space group: P 21
;
_chemical_formula_sum "Si O2"
_cell_formula_units_Z 16
_cell_length_a 24.014430
_cell_length_b 5.604950
_cell_length_c 10.784752
_cell_angle_alpha 90.000000
_cell_angle_beta 25.292678
_cell_angle_gamma 90.000000
_cell_volume 620.195281
_symmetry_space_group_name_H-M "P 21"
_symmetry_group_IT_number 4
_symmetry_cell_setting 'monoclinic'
loop_
_space_group_symop_operation_xyz
x,y,z
-x,1/2+y,-z
loop_
_atom_site_type_symbol
_atom_site_label
_atom_site_fract_x
_atom_site_fract_y
_atom_site_fract_z
Si Si1 0.309909 0.906470 0.409857
Si Si2 0.931985 0.704222 0.174678
Si Si3 0.427202 0.548264 0.989344
Si Si4 0.710956 0.514038 0.066876
Si Si5 0.454118 0.359379 0.462066
Si Si6 0.754127 0.193628 0.203674
Si Si7 0.926083 0.002360 0.662516
Si Si8 0.803324 0.805463 0.680569
O O1 0.327551 0.731266 0.257439
O O2 0.242560 0.773027 0.662024
O O3 0.214808 0.131143 0.576485
O O4 0.460233 0.962730 0.143196
O O5 0.912522 0.777513 0.357014
O O6 0.008681 0.448492 0.005075
O O7 0.334358 0.358427 0.108539
O O8 0.513115 0.677087 0.712173
O O9 0.583869 0.376551 0.279562
O O10 0.653118 0.764930 0.227653
O O11 0.769732 0.404097 0.071864
O O12 0.791666 0.561311 0.781486
O O13 0.390941 0.588916 0.525898
O O14 0.857896 0.012707 0.935383
O O15 0.007731 0.244215 0.482657
O O16 0.836707 0.001975 0.717412
#
# Coordination Sequence:
#
# PCOD9119499 Si02
#       8
#     2   2   2   2   2   2   2   2
#     4  12  27  51  80 126 165 216 279 340 415 493
#     4  12  31  59  87 120 163 229 283 343 404 494
#     4  12  25  49  83 122 164 215 272 345 417 496
#     4  12  22  44  73 117 157 205 259 328 412 491
#     4  12  22  40  75 114 163 203 261 322 416 495
#     4  12  26  47  73 118 161 210 269 337 412 488
#     4  12  30  54  81 121 162 220 281 345 411 491
#     4  12  27  56  84 116 165 212 282 342 421 490
#
# _framework density 25.798327
#
# number of rings (size 3 to 8) (size 9 to 14) (size 15 to 20)
#    0.000    0.000    3.750    6.000    1.750    4.000 
#    4.500    0.000    0.000    0.000    0.000    0.000 
#    0.000    0.000    0.000    0.000    0.000    0.000 
#
# Total GULP energy -89515.685033 kJ/mol
# GULP energy per Si atom -5594.730315 kJ/mol
# Density = 2.573961 g / cm^3
# Si number density = 25.798327 Si / 1000 Ang^3
#
#
#
# Elastic Constant Matrix: (Units=GPa)
#
#
# Indices 1 2 3 4 5 6 
#
# 1 82.1649 24.3715 20.7325 0.0000 -1.8276 0.0000
# 2 24.3715 103.5713 36.8702 0.0000 -7.4163 0.0000
# 3 20.7325 36.8702 121.5426 0.0000 19.7336 0.0000
# 4 0.0000 0.0000 0.0000 58.7163 0.0000 -6.8473
# 5 -1.8276 -7.4163 19.7336 0.0000 52.6236 0.0000
# 6 0.0000 0.0000 0.0000 -6.8473 0.0000 51.5745
#
#
#
# Elastic Compliance Matrix: (Units=1/GPa)
#
#
# Indices 1 2 3 4 5 6 
#
# 1 0.013342 -0.002507 -0.001633 0.000000 0.000722 0.000000
# 2 -0.002507 0.011738 -0.003607 0.000000 0.002920 0.000000
# 3 -0.001633 -0.003607 0.010320 0.000000 -0.004435 0.000000
# 4 0.000000 0.000000 0.000000 0.017299 0.000000 0.002297
# 5 0.000722 0.002920 -0.004435 0.000000 0.021103 0.000000
# 6 0.000000 0.000000 0.000000 0.002297 0.000000 0.019694
#
#
# Mechanical properties :
#
#
# Convention : Reuss Voigt Hill
#
# Bulk Modulus (GPa) = 50.23230 52.35857 51.29543
# Shear Modulus (GPa) = 43.24281 47.60319 45.42300
#
# Velocity S-wave (km/s) = 4.09857 4.30024 4.20062
# Velocity P-wave (km/s) = 6.47388 6.70787 6.59191
#
# Compressibility (1/GPa) = 0.01990751
#
# Stress axis : x y z
#
# Youngs Moduli (GPa) = 74.95008 85.19146 96.89469
#
# Poissons Ratio (x) = 0.21354 0.15821
# Poissons Ratio (y) = 0.18787 0.34953
# Poissons Ratio (z) = 0.12238 0.30731
#
# Static dielectric constant tensor:
#      x y z
#    x 2.103430 0.000000 -0.125360 
#    y 0.000000 2.089390 0.000000 
#    z -0.125360 0.000000 2.090010 
# 
# From -- ./inp_files/9760.got.cif
#   From: 2010.05.17/outbox.cif.g08.bks.cpg/sg4_5_cif.got.tgz:9760.got - 2010.06.03 18:43:04.
