data_PCOD9119550
_publ_section_title
;
Structure prediction by ZEFSAII (Michael W. Deem and Ramdas Pophale) SiO2 
 PCOD9119550
Probable space group: P 21
;
_chemical_formula_sum "Si O2"
_cell_formula_units_Z 16
_cell_length_a 12.022572
_cell_length_b 11.821400
_cell_length_c 11.671127
_cell_angle_alpha 90.000000
_cell_angle_beta 22.987462
_cell_angle_gamma 90.000000
_cell_volume 647.788369
_symmetry_space_group_name_H-M "P 21"
_symmetry_group_IT_number 4
_symmetry_cell_setting 'monoclinic'
loop_
_space_group_symop_operation_xyz
x,y,z
-x,1/2+y,-z
loop_
_atom_site_type_symbol
_atom_site_label
_atom_site_fract_x
_atom_site_fract_y
_atom_site_fract_z
Si Si1 0.583941 0.395870 0.783735
Si Si2 0.141398 0.666160 0.997551
Si Si3 0.665106 0.885639 0.727265
Si Si4 0.664766 0.331366 0.371864
Si Si5 0.877609 0.505818 0.842817
Si Si6 0.322275 0.144658 0.384055
Si Si7 0.880792 0.962834 0.137425
Si Si8 0.042835 0.266917 0.227117
O O1 0.717266 0.516959 0.622165
O O2 0.837329 0.305863 0.525380
O O3 0.456607 0.399291 0.030767
O O4 0.310298 0.353695 0.967604
O O5 0.831964 0.664024 0.347574
O O6 0.227238 0.777812 0.848786
O O7 0.339705 0.650815 0.919017
O O8 0.231791 0.573558 0.818393
O O9 0.745441 0.755068 0.626950
O O10 0.934941 0.962351 0.441045
O O11 0.413214 0.934615 0.884643
O O12 0.333024 0.358739 0.684673
O O13 0.822753 0.272030 0.328182
O O14 0.823575 0.450565 0.211600
O O15 0.054860 0.481772 0.790742
O O16 0.835427 0.640728 0.876438
#
# Coordination Sequence:
#
# PCOD9119550 Si02
#       8
#     2   2   2   2   2   2   2   2
#     4  12  28  49  76 107 144 198 248 317 372 427
#     4  12  24  44  68 108 142 194 230 288 365 432
#     4  12  28  49  76 107 144 198 248 317 372 427
#     4  12  24  42  71 105 150 189 233 288 356 438
#     4  12  26  48  75 111 150 191 247 303 373 447
#     4  12  26  46  74 104 150 186 254 300 363 448
#     4  12  24  42  71 105 150 189 233 288 356 438
#     4  12  26  48  75 111 150 191 247 303 373 447
#
# _framework density 24.699425000000002
#
# number of rings (size 3 to 8) (size 9 to 14) (size 15 to 20)
#    0.000    0.000    1.250   10.500    3.500    0.000 
#    0.000    0.000    0.000    0.000    0.000    0.000 
#    0.000    0.000    0.000    0.000    0.000    0.000 
#
# Total GULP energy -89496.133886 kJ/mol
# GULP energy per Si atom -5593.508368 kJ/mol
# Density = 2.464321 g / cm^3
# Si number density = 24.699425 Si / 1000 Ang^3
#
#
#
# Elastic Constant Matrix: (Units=GPa)
#
#
# Indices 1 2 3 4 5 6 
#
# 1 73.3459 36.7384 12.0225 0.0000 6.7162 0.0000
# 2 36.7384 133.0990 24.0195 0.0000 10.4118 0.0000
# 3 12.0225 24.0195 115.9494 0.0000 2.1428 0.0000
# 4 0.0000 0.0000 0.0000 34.5897 0.0000 12.4870
# 5 6.7162 10.4118 2.1428 0.0000 37.1971 0.0000
# 6 0.0000 0.0000 0.0000 12.4870 0.0000 20.8269
#
#
#
# Elastic Compliance Matrix: (Units=1/GPa)
#
#
# Indices 1 2 3 4 5 6 
#
# 1 0.015989 -0.004143 -0.000769 0.000000 -0.001683 0.000000
# 2 -0.004143 0.009045 -0.001413 0.000000 -0.001702 0.000000
# 3 -0.000769 -0.001413 0.008996 0.000000 0.000016 0.000000
# 4 0.000000 0.000000 0.000000 0.036896 0.000000 -0.022122
# 5 -0.001683 -0.001702 0.000016 0.000000 0.027663 0.000000
# 6 0.000000 0.000000 0.000000 -0.022122 0.000000 0.061278
#
#
# Mechanical properties :
#
#
# Convention : Reuss Voigt Hill
#
# Bulk Modulus (GPa) = 46.76789 51.99502 49.38145
# Shear Modulus (GPa) = 27.83278 35.16367 31.49822
#
# Velocity S-wave (km/s) = 3.36051 3.77724 3.57495
# Velocity P-wave (km/s) = 5.83381 6.33405 6.08907
#
# Compressibility (1/GPa) = 0.02138219
#
# Stress axis : x y z
#
# Youngs Moduli (GPa) = 62.54157 110.55963 111.15455
#
# Poissons Ratio (x) = 0.45806 0.08543
# Poissons Ratio (y) = 0.25912 0.15702
# Poissons Ratio (z) = 0.04807 0.15618
#
# Static dielectric constant tensor:
#      x y z
#    x 2.060260 0.000000 -0.100730 
#    y 0.000000 2.051130 0.000000 
#    z -0.100730 0.000000 1.937730 
# 
# From -- ./inp_files/10204.got.cif
#   From: 2010.05.17/outbox.cif.g08.bks.cpg/sg4_6_cif.got.tgz:10204.got - 2010.06.03 18:43:04.
