data_PCOD9119126
_publ_section_title
;
Structure prediction by ZEFSAII (Michael W. Deem and Ramdas Pophale) SiO2 
 PCOD9119126
Probable space group: P 21
;
_chemical_formula_sum "Si O2"
_cell_formula_units_Z 16
_cell_length_a 9.150288
_cell_length_b 18.045216
_cell_length_c 5.786539
_cell_angle_alpha 90.000000
_cell_angle_beta 52.668450
_cell_angle_gamma 90.000000
_cell_volume 759.729788
_symmetry_space_group_name_H-M "P 21"
_symmetry_group_IT_number 4
_symmetry_cell_setting 'monoclinic'
loop_
_space_group_symop_operation_xyz
x,y,z
-x,1/2+y,-z
loop_
_atom_site_type_symbol
_atom_site_label
_atom_site_fract_x
_atom_site_fract_y
_atom_site_fract_z
Si Si1 0.898274 0.168080 0.074187
Si Si2 0.557852 0.903666 0.228626
Si Si3 0.868548 0.818264 0.648412
Si Si4 0.893285 0.654943 0.616094
Si Si5 0.642593 0.515518 0.922170
Si Si6 0.312002 0.533687 0.570242
Si Si7 0.017715 0.936659 0.173686
Si Si8 0.186163 0.828027 0.682449
O O1 0.731593 0.109540 0.255894
O O2 0.842848 0.254770 0.134856
O O3 0.017012 0.157036 0.205142
O O4 0.984909 0.151485 0.737723
O O5 0.399761 0.846912 0.457284
O O6 0.457296 0.962203 0.160228
O O7 0.634790 0.958835 0.346473
O O8 0.724349 0.860896 0.947967
O O9 0.798450 0.735366 0.680140
O O10 0.905559 0.869380 0.394411
O O11 0.073475 0.810338 0.559076
O O12 0.756116 0.586046 0.727978
O O13 0.790763 0.461671 0.899298
O O14 0.479290 0.545767 0.238665
O O15 0.113676 0.507147 0.668205
O O16 0.083724 0.902760 0.868154
#
# Coordination Sequence:
#
# PCOD9119126 Si02
#       8
#     2   2   2   2   2   2   2   2
#     4  11  27  48  73 102 145 193 234 289 361 423
#     4  12  26  42  72 106 136 184 238 296 352 418
#     4  11  24  45  70  99 139 184 235 292 351 415
#     4  11  27  48  73 102 145 193 234 289 361 423
#     4  12  27  43  69 106 143 187 236 290 358 424
#     4  12  27  43  69 106 143 187 236 290 358 424
#     4  12  22  46  68  98 140 184 238 290 346 424
#     4  11  24  45  70  99 139 184 235 292 351 415
#
# _framework density 21.060119
#
# number of rings (size 3 to 8) (size 9 to 14) (size 15 to 20)
#    0.000    0.500    7.500    0.000    8.750    0.000 
#    0.000    2.500    0.000    0.000    0.000    0.000 
#    0.000    0.000    0.000    0.000    0.000    0.000 
#
# Total GULP energy -89153.924875 kJ/mol
# GULP energy per Si atom -5572.120305 kJ/mol
# Density = 2.101219 g / cm^3
# Si number density = 21.060119 Si / 1000 Ang^3
#
#
#
# Elastic Constant Matrix: (Units=GPa)
#
#
# Indices 1 2 3 4 5 6 
#
# 1 63.0921 11.9890 31.3218 0.0000 -11.7322 0.0000
# 2 11.9890 132.8973 42.3557 0.0000 -11.0618 0.0000
# 3 31.3218 42.3557 135.6785 0.0000 -13.7802 0.0000
# 4 0.0000 0.0000 0.0000 28.9683 0.0000 9.6655
# 5 -11.7322 -11.0618 -13.7802 0.0000 27.0062 0.0000
# 6 0.0000 0.0000 0.0000 9.6655 0.0000 -24.8172
#
#
#
# Elastic Compliance Matrix: (Units=1/GPa)
#
#
# Indices 1 2 3 4 5 6 
#
# 1 0.018866 0.000007 -0.003717 0.000000 0.006302 0.000000
# 2 0.000007 0.008482 -0.002422 0.000000 0.002242 0.000000
# 3 -0.003717 -0.002422 0.009196 0.000000 0.002086 0.000000
# 4 0.000000 0.000000 0.000000 0.030551 0.000000 0.011898
# 5 0.006302 0.002242 0.002086 0.000000 0.041749 0.000000
# 6 0.000000 0.000000 0.000000 0.011898 0.000000 -0.035661
#
#
# Mechanical properties :
#
#
# Convention : Reuss Voigt Hill
#
# Bulk Modulus (GPa) = 41.18529 55.88900 48.53715
# Shear Modulus (GPa) = 53.45239 22.63154 38.04196
#
# Velocity S-wave (km/s) = 5.04341 3.28169 4.25473
# Velocity P-wave (km/s) = 7.31527 6.39959 6.87270
#
# Compressibility (1/GPa) = 0.02428051
#
# Stress axis : x y z
#
# Youngs Moduli (GPa) = 53.00589 117.89020 108.73716
#
# Poissons Ratio (x) = -0.00087 0.40423
# Poissons Ratio (y) = -0.00039 0.26337
# Poissons Ratio (z) = 0.19705 0.28554
#
# Static dielectric constant tensor:
#      x y z
#    x 2.097440 0.000000 -0.133610 
#    y 0.000000 1.807760 0.000000 
#    z -0.133610 0.000000 1.888680 
# 
# From -- ./inp_files/458.got.cif
#   From: 2010.05.17/outbox.cif.g08.bks.cpg/sg4_1_cif.got.tgz:458.got - 2010.06.03 18:43:04.
