data_PCOD9119856
_publ_section_title
;
Structure prediction by ZEFSAII (Michael W. Deem and Ramdas Pophale) SiO2 
 PCOD9119856
Probable space group: P 21
;
_chemical_formula_sum "Si O2"
_cell_formula_units_Z 16
_cell_length_a 24.000000
_cell_length_b 6.000000
_cell_length_c 27.000000
_cell_angle_alpha 90.000000
_cell_angle_beta 170.000000
_cell_angle_gamma 90.000000
_cell_volume 675.144115
_symmetry_space_group_name_H-M "P 21"
_symmetry_group_IT_number 4
_symmetry_cell_setting 'monoclinic'
loop_
_space_group_symop_operation_xyz
x,y,z
-x,1/2+y,-z
loop_
_atom_site_type_symbol
_atom_site_label
_atom_site_fract_x
_atom_site_fract_y
_atom_site_fract_z
Si Si1 0.735323 0.320960 0.605431
Si Si2 0.960488 0.610413 0.396479
Si Si3 0.507662 0.824098 0.079282
Si Si4 0.260552 0.603985 0.119930
Si Si5 0.893763 0.615370 0.152437
Si Si6 0.119992 0.246510 0.124125
Si Si7 0.444212 0.993622 0.787433
Si Si8 0.344979 0.347543 0.618075
O O1 0.524930 0.490509 0.387351
O O2 0.494899 0.247459 0.438473
O O3 0.850142 0.132730 0.667701
O O4 0.054952 0.424596 0.908946
O O5 0.667271 0.695157 0.173123
O O6 0.217539 0.484104 0.656610
O O7 0.161949 0.820787 0.553403
O O8 0.795860 0.457644 0.209729
O O9 0.465860 0.646483 0.086890
O O10 0.443376 0.761197 0.242381
O O11 0.998527 0.733151 0.923451
O O12 0.052346 0.479091 0.336097
O O13 0.769935 0.860144 0.059148
O O14 0.571673 0.505822 0.849340
O O15 0.997344 0.496750 0.998771
O O16 0.311539 0.136867 0.625271
#
# Coordination Sequence:
#
# PCOD9119856 Si02
#       8
#     2   2   2   2   2   2   2   2
#     4  11  24  47  76 109 155 202 264 331 401 474
#     4  12  28  54  84 117 156 206 257 325 396 475
#     4  12  28  54  84 117 156 206 257 325 396 475
#     4  11  24  47  76 109 155 202 264 331 401 474
#     4  12  28  50  78 113 156 209 264 324 396 475
#     4  10  24  46  76 116 154 212 270 342 416 494
#     4  12  30  54  78 118 164 204 262 328 398 478
#     4  12  28  50  78 113 156 209 264 324 396 475
#
# _framework density 23.698644000000002
#
# number of rings (size 3 to 8) (size 9 to 14) (size 15 to 20)
#    0.000    0.500    2.500    3.750    0.000   13.000 
#    0.000    0.000    0.000    0.000    0.000    0.000 
#    0.000    0.000    0.000    0.000    0.000    0.000 
#
# Total GULP energy -89608.974818 kJ/mol
# GULP energy per Si atom -5600.560926 kJ/mol
# Density = 2.364470 g / cm^3
# Si number density = 23.698644 Si / 1000 Ang^3
#
#
#
# Elastic Constant Matrix: (Units=GPa)
#
#
# Indices 1 2 3 4 5 6 
#
# 1 130.9383 37.4617 17.9878 0.0000 -1.2586 0.0000
# 2 37.4617 102.7951 25.8207 0.0000 -6.6991 0.0000
# 3 17.9878 25.8207 89.6806 0.0000 -20.0725 0.0000
# 4 0.0000 0.0000 0.0000 56.0801 0.0000 9.0006
# 5 -1.2586 -6.6991 -20.0725 0.0000 43.4399 0.0000
# 6 0.0000 0.0000 0.0000 9.0006 0.0000 51.4661
#
#
#
# Elastic Compliance Matrix: (Units=1/GPa)
#
#
# Indices 1 2 3 4 5 6 
#
# 1 0.008609 -0.002921 -0.001038 0.000000 -0.000681 0.000000
# 2 -0.002921 0.011480 -0.002612 0.000000 0.000479 0.000000
# 3 -0.001038 -0.002612 0.013400 0.000000 0.005759 0.000000
# 4 0.000000 0.000000 0.000000 0.018347 0.000000 -0.003209
# 5 -0.000681 0.000479 0.005759 0.000000 0.025735 0.000000
# 6 0.000000 0.000000 0.000000 -0.003209 0.000000 0.019991
#
#
# Mechanical properties :
#
#
# Convention : Reuss Voigt Hill
#
# Bulk Modulus (GPa) = 49.14926 53.99493 51.57209
# Shear Modulus (GPa) = 42.55788 46.34015 44.44902
#
# Velocity S-wave (km/s) = 4.24228 4.42678 4.33551
# Velocity P-wave (km/s) = 6.69180 6.99728 6.84624
#
# Compressibility (1/GPa) = 0.02034619
#
# Stress axis : x y z
#
# Youngs Moduli (GPa) = 116.15816 87.10843 74.62690
#
# Poissons Ratio (x) = 0.25444 0.07747
# Poissons Ratio (y) = 0.33929 0.19495
# Poissons Ratio (z) = 0.12058 0.22755
#
# Static dielectric constant tensor:
#      x y z
#    x 1.911410 0.000000 0.047710 
#    y 0.000000 1.946000 0.000000 
#    z 0.047710 0.000000 1.877760 
# 
# From -- ./inp_files/16460.got.cif
#   From: 2010.05.17/outbox.ucp.g08.bks.cvg/sg4_9_cif.got.tgz:16460.got - 2010.06.11 12:51:24.
