data_PCOD9119691
_publ_section_title
;
Structure prediction by ZEFSAII (Michael W. Deem and Ramdas Pophale) SiO2 
 PCOD9119691
Probable space group: P 21
;
_chemical_formula_sum "Si O2"
_cell_formula_units_Z 16
_cell_length_a 15.415951
_cell_length_b 5.952513
_cell_length_c 20.609101
_cell_angle_alpha 90.000000
_cell_angle_beta 19.341868
_cell_angle_gamma 90.000000
_cell_volume 626.361792
_symmetry_space_group_name_H-M "P 21"
_symmetry_group_IT_number 4
_symmetry_cell_setting 'monoclinic'
loop_
_space_group_symop_operation_xyz
x,y,z
-x,1/2+y,-z
loop_
_atom_site_type_symbol
_atom_site_label
_atom_site_fract_x
_atom_site_fract_y
_atom_site_fract_z
Si Si1 0.043794 0.022600 0.001360
Si Si2 0.703604 0.229038 0.929478
Si Si3 0.223391 0.650658 0.400048
Si Si4 0.714176 0.935482 0.035562
Si Si5 0.457975 0.292655 0.312353
Si Si6 0.261306 0.332885 0.584151
Si Si7 0.745345 0.208364 0.330330
Si Si8 0.178824 0.517943 0.289363
O O1 0.881503 0.038555 0.182557
O O2 0.018580 0.277488 0.988840
O O3 0.346364 0.984245 0.801078
O O4 0.781528 0.170439 0.801497
O O5 0.947875 0.315660 0.800227
O O6 0.454595 0.389179 0.105076
O O7 0.640050 0.005861 0.014889
O O8 0.524757 0.726911 0.181505
O O9 0.235052 0.415168 0.428812
O O10 0.117800 0.629009 0.401741
O O11 0.049623 0.833814 0.559884
O O12 0.615154 0.121049 0.156776
O O13 0.024082 0.893095 0.825595
O O14 0.352298 0.204038 0.455234
O O15 0.466292 0.258408 0.494961
O O16 0.293959 0.600866 0.571396
#
# Coordination Sequence:
#
# PCOD9119691 Si02
#       8
#     2   2   2   2   2   2   2   2
#     4  12  26  48  80 115 157 217 277 335 418 509
#     4  12  27  49  76 113 157 207 267 336 418 489
#     4  12  27  49  78 116 148 210 269 344 404 507
#     4  12  25  53  78 114 161 210 269 345 413 508
#     4  12  27  47  79 111 157 210 271 337 414 497
#     4  12  29  46  76 116 162 211 272 337 413 505
#     4  12  27  48  78 116 168 213 272 340 423 496
#     4  12  28  48  81 111 158 208 271 340 419 489
#
# _framework density 25.544343999999999
#
# number of rings (size 3 to 8) (size 9 to 14) (size 15 to 20)
#    0.000    0.000    3.750    5.250    7.000    1.000 
#    0.000    0.000    0.000    0.000    0.000    0.000 
#    0.000    0.000    0.000    0.000    0.000    0.000 
#
# Total GULP energy -89421.594104 kJ/mol
# GULP energy per Si atom -5588.849631 kJ/mol
# Density = 2.548620 g / cm^3
# Si number density = 25.544344 Si / 1000 Ang^3
#
#
#
# Elastic Constant Matrix: (Units=GPa)
#
#
# Indices 1 2 3 4 5 6 
#
# 1 90.3857 37.7676 15.9495 0.0000 -4.1077 0.0000
# 2 37.7676 67.4872 15.4269 0.0000 -2.6646 0.0000
# 3 15.9495 15.4269 110.2523 0.0000 -18.8341 0.0000
# 4 0.0000 0.0000 0.0000 45.7538 0.0000 -7.7285
# 5 -4.1077 -2.6646 -18.8341 0.0000 55.3609 0.0000
# 6 0.0000 0.0000 0.0000 -7.7285 0.0000 51.9589
#
#
#
# Elastic Compliance Matrix: (Units=1/GPa)
#
#
# Indices 1 2 3 4 5 6 
#
# 1 0.014553 -0.007916 -0.000932 0.000000 0.000382 0.000000
# 2 -0.007916 0.019613 -0.001633 0.000000 -0.000199 0.000000
# 3 -0.000932 -0.001633 0.009989 0.000000 0.003250 0.000000
# 4 0.000000 0.000000 0.000000 0.022419 0.000000 0.003335
# 5 0.000382 -0.000199 0.003250 0.000000 0.019188 0.000000
# 6 0.000000 0.000000 0.000000 0.003335 0.000000 0.019742
#
#
# Mechanical properties :
#
#
# Convention : Reuss Voigt Hill
#
# Bulk Modulus (GPa) = 43.11899 45.15703 44.13801
# Shear Modulus (GPa) = 37.25812 43.88013 40.56912
#
# Velocity S-wave (km/s) = 3.82326 4.14913 3.98953
# Velocity P-wave (km/s) = 6.03378 6.37731 6.20792
#
# Compressibility (1/GPa) = 0.02319164
#
# Stress axis : x y z
#
# Youngs Moduli (GPa) = 68.71258 50.98603 100.11227
#
# Poissons Ratio (x) = 0.40362 0.09335
# Poissons Ratio (y) = 0.54394 0.16350
# Poissons Ratio (z) = 0.06407 0.08327
#
# Static dielectric constant tensor:
#      x y z
#    x 2.033280 0.000000 0.035510 
#    y 0.000000 2.119330 0.000000 
#    z 0.035510 0.000000 2.028130 
# 
# From -- ./inp_files/10712.got.cif
#   From: 2010.05.17/outbox.cif.g08.bks.cpg/sg4_6_cif.got.tgz:10712.got - 2010.06.03 18:43:04.
