data_PCOD9119027
_publ_section_title
;
Structure prediction by ZEFSAII (Michael W. Deem and Ramdas Pophale) SiO2 
 PCOD9119027
Probable space group: P 21
;
_chemical_formula_sum "Si O2"
_cell_formula_units_Z 16
_cell_length_a 11.851378
_cell_length_b 8.473529
_cell_length_c 15.725350
_cell_angle_alpha 90.000000
_cell_angle_beta 154.072120
_cell_angle_gamma 90.000000
_cell_volume 690.482760
_symmetry_space_group_name_H-M "P 21"
_symmetry_group_IT_number 4
_symmetry_cell_setting 'monoclinic'
loop_
_space_group_symop_operation_xyz
x,y,z
-x,1/2+y,-z
loop_
_atom_site_type_symbol
_atom_site_label
_atom_site_fract_x
_atom_site_fract_y
_atom_site_fract_z
Si Si1 0.359346 0.796860 0.728521
Si Si2 0.609329 0.577975 0.031684
Si Si3 0.292433 0.821806 0.361646
Si Si4 0.808351 0.014636 0.980476
Si Si5 0.816700 0.805236 0.456779
Si Si6 0.172894 0.634210 0.440462
Si Si7 0.641642 0.235513 0.988141
Si Si8 0.444255 0.108156 0.587010
O O1 0.306313 0.753585 0.595526
O O2 0.091417 0.823594 0.596193
O O3 0.560882 0.938203 0.860309
O O4 0.497264 0.653947 0.870785
O O5 0.410641 0.611035 0.972126
O O6 0.867480 0.665265 0.236134
O O7 0.689898 0.399319 0.068921
O O8 0.245743 0.673167 0.393254
O O9 0.489647 0.759622 0.425554
O O10 0.377627 0.963086 0.481198
O O11 0.037890 0.889963 0.142133
O O12 0.860288 0.169802 0.072997
O O13 0.700587 0.064611 0.815902
O O14 0.602589 0.774611 0.238747
O O15 0.776435 0.659733 0.494957
O O16 0.771592 0.963903 0.480717
#
# Coordination Sequence:
#
# PCOD9119027 Si02
#       8
#     2   2   2   2   2   2   2   2
#     4  12  24  44  73 109 155 187 232 299 362 437
#     4  12  24  40  66 106 151 190 233 286 360 439
#     4  12  27  51  78 103 139 195 247 296 363 424
#     4  11  26  49  72 109 146 185 240 305 360 426
#     4  11  25  45  71 108 149 191 234 299 365 432
#     4  12  24  43  72 105 145 190 237 295 355 424
#     4  11  24  41  67 102 145 197 237 288 362 432
#     4  11  28  51  75 104 144 191 246 300 355 426
#
# _framework density 23.172191000000002
#
# number of rings (size 3 to 8) (size 9 to 14) (size 15 to 20)
#    0.000    0.500    5.000    3.000    5.250    1.000 
#    6.750    0.000    0.000    0.000    0.000    0.000 
#    0.000    0.000    0.000    0.000    0.000    0.000 
#
# Total GULP energy -89490.474580 kJ/mol
# GULP energy per Si atom -5593.154661 kJ/mol
# Density = 2.311945 g / cm^3
# Si number density = 23.172191 Si / 1000 Ang^3
#
#
#
# Elastic Constant Matrix: (Units=GPa)
#
#
# Indices 1 2 3 4 5 6 
#
# 1 57.5900 11.2719 16.3003 0.0000 -13.3700 0.0000
# 2 11.2719 77.8392 4.3663 0.0000 -1.0467 0.0000
# 3 16.3003 4.3663 75.2465 0.0000 -15.6717 0.0000
# 4 0.0000 0.0000 0.0000 35.1663 0.0000 -12.8930
# 5 -13.3700 -1.0467 -15.6717 0.0000 21.3423 0.0000
# 6 0.0000 0.0000 0.0000 -12.8930 0.0000 40.8137
#
#
#
# Elastic Compliance Matrix: (Units=1/GPa)
#
#
# Indices 1 2 3 4 5 6 
#
# 1 0.021186 -0.002799 -0.001997 0.000000 0.011669 0.000000
# 2 -0.002799 0.013259 -0.000464 0.000000 -0.001444 0.000000
# 3 -0.001997 -0.000464 0.015918 0.000000 0.010415 0.000000
# 4 0.000000 0.000000 0.000000 0.032161 0.000000 0.010160
# 5 0.011669 -0.001444 0.010415 0.000000 0.061742 0.000000
# 6 0.000000 0.000000 0.000000 0.010160 0.000000 0.027711
#
#
# Mechanical properties :
#
#
# Convention : Reuss Voigt Hill
#
# Bulk Modulus (GPa) = 25.09774 30.50586 27.80180
# Shear Modulus (GPa) = 25.53909 31.38028 28.45968
#
# Velocity S-wave (km/s) = 3.32346 3.68397 3.50835
# Velocity P-wave (km/s) = 5.05783 5.59365 5.33247
#
# Compressibility (1/GPa) = 0.03984422
#
# Stress axis : x y z
#
# Youngs Moduli (GPa) = 47.20071 75.42095 62.82075
#
# Poissons Ratio (x) = 0.21111 0.12544
# Poissons Ratio (y) = 0.13212 0.02913
# Poissons Ratio (z) = 0.09425 0.03497
#
# Static dielectric constant tensor:
#      x y z
#    x 1.866590 0.000000 -0.018370 
#    y 0.000000 1.932410 0.000000 
#    z -0.018370 0.000000 1.891110 
# 
# From -- ./inp_files/12046.got.cif
#   From: 2010.05.17/outbox.cif.g08.bks.cpg/sg4_7_cif.got.tgz:12046.got - 2010.06.03 18:43:04.
