data_PCOD9119816
_publ_section_title
;
Structure prediction by ZEFSAII (Michael W. Deem and Ramdas Pophale) SiO2 
 PCOD9119816
Probable space group: P 21
;
_chemical_formula_sum "Si O2"
_cell_formula_units_Z 16
_cell_length_a 9.000000
_cell_length_b 9.000000
_cell_length_c 12.000000
_cell_angle_alpha 90.000000
_cell_angle_beta 60.000000
_cell_angle_gamma 90.000000
_cell_volume 841.776692
_symmetry_space_group_name_H-M "P 21"
_symmetry_group_IT_number 4
_symmetry_cell_setting 'monoclinic'
loop_
_space_group_symop_operation_xyz
x,y,z
-x,1/2+y,-z
loop_
_atom_site_type_symbol
_atom_site_label
_atom_site_fract_x
_atom_site_fract_y
_atom_site_fract_z
Si Si1 0.484076 0.414280 0.912057
Si Si2 0.759224 0.550582 0.237424
Si Si3 0.355593 0.165805 0.287130
Si Si4 0.172335 0.465491 0.328549
Si Si5 0.225257 0.958427 0.517333
Si Si6 0.157575 0.588972 0.086206
Si Si7 0.570489 0.200857 0.682851
Si Si8 0.360227 0.849047 0.912967
O O1 0.618180 0.536196 0.813958
O O2 0.522942 0.271538 0.821546
O O3 0.289092 0.475478 0.974723
O O4 0.517827 0.394103 0.030324
O O5 0.758321 0.460972 0.355006
O O6 0.611853 0.673750 0.307660
O O7 0.705254 0.477003 0.140908
O O8 0.956358 0.586752 0.142266
O O9 0.221164 0.292315 0.304203
O O10 0.537522 0.246325 0.211973
O O11 0.314804 0.096828 0.421688
O O12 0.177842 0.548307 0.208056
O O13 0.315596 0.551926 0.346852
O O14 0.975237 0.471611 0.440453
O O15 0.314304 0.816002 0.429164
O O16 0.219685 0.750841 0.027205
#
# Coordination Sequence:
#
# PCOD9119816 Si02
#       8
#     2   2   2   2   2   2   2   2
#     4  10  21  39  65  92 119 156 206 254 300 367
#     4  11  25  38  63  87 127 169 194 254 308 377
#     4  10  21  38  65  88 118 156 201 257 300 350
#     4  11  19  40  66  92 116 157 206 262 295 356
#     4  10  25  41  59  90 125 157 212 249 301 363
#     4  10  22  38  60  94 127 150 205 251 308 364
#     4  11  22  40  66  86 120 167 204 249 312 358
#     4  11  21  40  64  89 122 160 204 252 308 365
#
# _framework density 19.007415999999999
#
# number of rings (size 3 to 8) (size 9 to 14) (size 15 to 20)
#    0.000    1.500    3.750    0.750    5.250    0.000 
#    2.250    0.000    2.750    0.000    0.000    0.000 
#    0.000    0.000    0.000    0.000    0.000    0.000 
#
# Total GULP energy -89089.598727 kJ/mol
# GULP energy per Si atom -5568.099920 kJ/mol
# Density = 1.896415 g / cm^3
# Si number density = 19.007416 Si / 1000 Ang^3
#
#
#
# Elastic Constant Matrix: (Units=GPa)
#
#
# Indices 1 2 3 4 5 6 
#
# 1 97.8338 32.8890 48.2296 0.0000 -23.6936 0.0000
# 2 32.8890 66.3668 33.5711 0.0000 -14.9430 0.0000
# 3 48.2296 33.5711 71.2421 0.0000 -19.2115 0.0000
# 4 0.0000 0.0000 0.0000 26.1312 0.0000 0.3559
# 5 -23.6936 -14.9430 -19.2115 0.0000 27.9029 0.0000
# 6 0.0000 0.0000 0.0000 0.3559 0.0000 8.4953
#
#
#
# Elastic Compliance Matrix: (Units=1/GPa)
#
#
# Indices 1 2 3 4 5 6 
#
# 1 0.016937 -0.002554 -0.008293 0.000000 0.007305 0.000000
# 2 -0.002554 0.020785 -0.006936 0.000000 0.004187 0.000000
# 3 -0.008293 -0.006936 0.024583 0.000000 0.006169 0.000000
# 4 0.000000 0.000000 0.000000 0.038290 0.000000 -0.001604
# 5 0.007305 0.004187 0.006169 0.000000 0.048531 0.000000
# 6 0.000000 0.000000 0.000000 -0.001604 0.000000 0.117779
#
#
# Mechanical properties :
#
#
# Convention : Reuss Voigt Hill
#
# Bulk Modulus (GPa) = 37.39917 51.64689 44.52303
# Shear Modulus (GPa) = 16.05732 20.55609 18.30671
#
# Velocity S-wave (km/s) = 2.90968 3.29215 3.10681
# Velocity P-wave (km/s) = 5.56841 6.45616 6.02865
#
# Compressibility (1/GPa) = 0.02673856
#
# Stress axis : x y z
#
# Youngs Moduli (GPa) = 59.04159 48.11226 40.67842
#
# Poissons Ratio (x) = 0.12287 0.33734
# Poissons Ratio (y) = 0.15078 0.28216
# Poissons Ratio (z) = 0.48963 0.33373
#
# Static dielectric constant tensor:
#      x y z
#    x 1.678420 0.000000 -0.018790 
#    y 0.000000 1.708000 0.000000 
#    z -0.018790 0.000000 1.652070 
# 
# From -- ./inp_files/7643.got.cif
#   From: 2010.05.17/outbox.ucp.g08.bks.cvg/sg4_4_cif.got.tgz:7643.got - 2010.06.11 12:51:24.
