data_PCOD9119370
_publ_section_title
;
Structure prediction by ZEFSAII (Michael W. Deem and Ramdas Pophale) SiO2 
 PCOD9119370
Probable space group: P 21
;
_chemical_formula_sum "Si O2"
_cell_formula_units_Z 14
_cell_length_a 6.070172
_cell_length_b 11.313453
_cell_length_c 8.572450
_cell_angle_alpha 90.000000
_cell_angle_beta 78.117212
_cell_angle_gamma 90.000000
_cell_volume 576.094097
_symmetry_space_group_name_H-M "P 21"
_symmetry_group_IT_number 4
_symmetry_cell_setting 'monoclinic'
loop_
_space_group_symop_operation_xyz
x,y,z
-x,1/2+y,-z
loop_
_atom_site_type_symbol
_atom_site_label
_atom_site_fract_x
_atom_site_fract_y
_atom_site_fract_z
Si Si1 0.120030 0.150240 0.856992
Si Si2 0.138028 0.112841 0.334871
Si Si3 0.894060 0.990316 0.110546
Si Si4 0.809438 0.200577 0.638978
Si Si5 0.503994 0.479694 0.261640
Si Si6 0.523790 0.432993 0.604526
Si Si7 0.285129 0.307473 0.075282
O O1 0.248380 0.035821 0.773831
O O2 0.010419 0.223274 0.733415
O O3 0.311961 0.215703 0.930437
O O4 0.923075 0.110386 0.005271
O O5 0.219916 0.227164 0.230460
O O6 0.923303 0.154445 0.463326
O O7 0.320650 0.050261 0.416012
O O8 0.080200 0.012637 0.214807
O O9 0.669046 0.963377 0.241373
O O10 0.904975 0.888775 0.978789
O O11 0.672110 0.087549 0.720273
O O12 0.659766 0.315494 0.631386
O O13 0.451568 0.417425 0.434914
O O14 0.469940 0.396081 0.116598
#
# Coordination Sequence:
#
# PCOD9119370 Si02
#       7
#     2   2   2   2   2   2   2
#     4  11  26  52  77 110 159 203 252 314 393 458
#     4  11  27  48  77 114 155 203 256 315 388 465
#     4  11  25  48  73 114 152 197 249 316 380 455
#     4  12  26  50  83 111 152 208 258 319 384 464
#     4  12  27  50  77 117 153 198 264 318 382 470
#     4  12  28  46  80 114 154 198 263 318 380 462
#     4  11  27  46  77 110 157 193 256 314 389 452
#
# _framework density 24.301583999999998
#
# number of rings (size 3 to 8) (size 9 to 14) (size 15 to 20)
#    0.000    0.571    4.286    1.714   10.000    2.286 
#    5.143    0.000    0.000    0.000    0.000    0.000 
#    0.000    0.000    0.000    0.000    0.000    0.000 
#
# Total GULP energy -78221.045707 kJ/mol
# GULP energy per Si atom -5587.217551 kJ/mol
# Density = 2.424627 g / cm^3
# Si number density = 24.301584 Si / 1000 Ang^3
#
#
#
# Elastic Constant Matrix: (Units=GPa)
#
#
# Indices 1 2 3 4 5 6 
#
# 1 58.1803 35.8238 38.6472 0.0000 6.2242 0.0000
# 2 35.8238 101.6803 51.9102 0.0000 1.3207 0.0000
# 3 38.6472 51.9102 110.6778 0.0000 28.0402 0.0000
# 4 0.0000 0.0000 0.0000 39.3803 0.0000 11.0564
# 5 6.2242 1.3207 28.0402 0.0000 38.0919 0.0000
# 6 0.0000 0.0000 0.0000 11.0564 0.0000 47.7884
#
#
#
# Elastic Compliance Matrix: (Units=1/GPa)
#
#
# Indices 1 2 3 4 5 6 
#
# 1 0.024625 -0.005524 -0.006191 0.000000 0.000725 0.000000
# 2 -0.005524 0.014972 -0.006381 0.000000 0.005080 0.000000
# 3 -0.006191 -0.006381 0.017059 0.000000 -0.011324 0.000000
# 4 0.000000 0.000000 0.000000 0.027157 0.000000 -0.006283
# 5 0.000725 0.005080 -0.011324 0.000000 0.034294 0.000000
# 6 0.000000 0.000000 0.000000 -0.006283 0.000000 0.022379
#
#
# Mechanical properties :
#
#
# Convention : Reuss Voigt Hill
#
# Bulk Modulus (GPa) = 48.86734 58.14454 53.50594
# Shear Modulus (GPa) = 27.24797 34.66259 30.95528
#
# Velocity S-wave (km/s) = 3.35213 3.78080 3.57290
# Velocity P-wave (km/s) = 5.92745 6.56030 6.25189
#
# Compressibility (1/GPa) = 0.02046356
#
# Stress axis : x y z
#
# Youngs Moduli (GPa) = 40.60984 66.78926 58.62069
#
# Poissons Ratio (x) = 0.36896 0.36294
# Poissons Ratio (y) = 0.22434 0.37403
# Poissons Ratio (z) = 0.25143 0.42615
#
# Static dielectric constant tensor:
#      x y z
#    x 1.947150 0.000000 -0.002820 
#    y 0.000000 1.971650 0.000000 
#    z -0.002820 0.000000 1.901940 
# 
# From -- ./inp_files/1258.got.cif
#   From: 2010.05.17/outbox.cif.g08.bks.cpg/sg4_1_cif.got.tgz:1258.got - 2010.06.03 18:43:04.
