data_PCOD9119721
_publ_section_title
;
Structure prediction by ZEFSAII (Michael W. Deem and Ramdas Pophale) SiO2 
 PCOD9119721
Probable space group: P 21
;
_chemical_formula_sum "Si O2"
_cell_formula_units_Z 14
_cell_length_a 9.205476
_cell_length_b 5.076175
_cell_length_c 15.873608
_cell_angle_alpha 90.000000
_cell_angle_beta 44.699823
_cell_angle_gamma 90.000000
_cell_volume 521.742512
_symmetry_space_group_name_H-M "P 21"
_symmetry_group_IT_number 4
_symmetry_cell_setting 'monoclinic'
loop_
_space_group_symop_operation_xyz
x,y,z
-x,1/2+y,-z
loop_
_atom_site_type_symbol
_atom_site_label
_atom_site_fract_x
_atom_site_fract_y
_atom_site_fract_z
Si Si1 0.895692 0.753330 0.006967
Si Si2 0.028648 0.622927 0.428284
Si Si3 0.804506 0.940607 0.384204
Si Si4 0.609103 0.202924 0.991232
Si Si5 0.496114 0.524607 0.201355
Si Si6 0.026700 0.315067 0.204907
Si Si7 0.599822 0.572703 0.350183
O O1 0.652320 0.767748 0.121379
O O2 0.926988 0.656077 0.899427
O O3 0.992190 0.529685 0.026218
O O4 0.254765 0.577748 0.295458
O O5 0.965063 0.368139 0.508932
O O6 0.873902 0.699849 0.416688
O O7 0.711807 0.843590 0.332517
O O8 0.611467 0.066537 0.511546
O O9 0.010742 0.118910 0.289953
O O10 0.573611 0.311722 0.100871
O O11 0.821165 0.063796 0.871228
O O12 0.548980 0.461787 0.962154
O O13 0.540781 0.479964 0.281198
O O14 0.786971 0.387741 0.299519
#
# Coordination Sequence:
#
# PCOD9119721 Si02
#       7
#     2   2   2   2   2   2   2
#     4  12  26  47  81 127 173 225 293 376 450 526
#     4  12  32  57  90 129 179 240 305 371 459 549
#     4  12  29  53  90 134 181 242 300 380 463 550
#     4  12  32  59  88 133 184 247 304 381 465 549
#     4  12  29  56  91 130 179 232 310 373 452 548
#     4  12  29  51  87 123 177 233 304 364 461 537
#     4  12  27  53  89 128 177 229 304 373 452 535
#
# _framework density 26.833155000000001
#
# number of rings (size 3 to 8) (size 9 to 14) (size 15 to 20)
#    0.000    0.000    4.286    2.571   10.000    5.714 
#    2.571    0.000    0.000    0.000    0.000    0.000 
#    0.000    0.000    0.000    0.000    0.000    0.000 
#
# Total GULP energy -78340.026852 kJ/mol
# GULP energy per Si atom -5595.716204 kJ/mol
# Density = 2.677208 g / cm^3
# Si number density = 26.833155 Si / 1000 Ang^3
#
#
#
# Elastic Constant Matrix: (Units=GPa)
#
#
# Indices 1 2 3 4 5 6 
#
# 1 131.2064 48.8112 54.3811 0.0000 -0.0585 0.0000
# 2 48.8112 161.2057 58.0375 0.0000 -3.6486 0.0000
# 3 54.3811 58.0375 163.6664 0.0000 -17.9310 0.0000
# 4 0.0000 0.0000 0.0000 51.9783 0.0000 1.7007
# 5 -0.0585 -3.6486 -17.9310 0.0000 61.8091 0.0000
# 6 0.0000 0.0000 0.0000 1.7007 0.0000 47.4609
#
#
#
# Elastic Compliance Matrix: (Units=1/GPa)
#
#
# Indices 1 2 3 4 5 6 
#
# 1 0.009393 -0.001956 -0.002519 0.000000 -0.000837 0.000000
# 2 -0.001956 0.007525 -0.002035 0.000000 -0.000148 0.000000
# 3 -0.002519 -0.002035 0.007906 0.000000 0.002171 0.000000
# 4 0.000000 0.000000 0.000000 0.019261 0.000000 -0.000690
# 5 -0.000837 -0.000148 0.002171 0.000000 0.016799 0.000000
# 6 0.000000 0.000000 0.000000 -0.000690 0.000000 0.021095
#
#
# Mechanical properties :
#
#
# Convention : Reuss Voigt Hill
#
# Bulk Modulus (GPa) = 84.71344 86.50422 85.60883
# Shear Modulus (GPa) = 50.53892 51.90625 51.22258
#
# Velocity S-wave (km/s) = 4.34458 4.40296 4.37387
# Velocity P-wave (km/s) = 7.53699 7.62600 7.58162
#
# Compressibility (1/GPa) = 0.01180450
#
# Stress axis : x y z
#
# Youngs Moduli (GPa) = 106.46224 132.89598 126.48079
#
# Poissons Ratio (x) = 0.25996 0.31861
# Poissons Ratio (y) = 0.20825 0.25733
# Poissons Ratio (z) = 0.26819 0.27039
#
# Static dielectric constant tensor:
#      x y z
#    x 2.156640 0.000000 0.057220 
#    y 0.000000 2.277660 0.000000 
#    z 0.057220 0.000000 2.067290 
# 
# From -- ./inp_files/7061.got.cif
#   From: 2010.05.17/outbox.cif.g08.bks.cpg/sg4_4_cif.got.tgz:7061.got - 2010.06.03 18:43:04.
