data_PCOD9119837
_publ_section_title
;
Structure prediction by ZEFSAII (Michael W. Deem and Ramdas Pophale) SiO2 
 PCOD9119837
Probable space group: P 21
;
_chemical_formula_sum "Si O2"
_cell_formula_units_Z 16
_cell_length_a 9.000000
_cell_length_b 12.000000
_cell_length_c 9.000000
_cell_angle_alpha 90.000000
_cell_angle_beta 50.000000
_cell_angle_gamma 90.000000
_cell_volume 744.595199
_symmetry_space_group_name_H-M "P 21"
_symmetry_group_IT_number 4
_symmetry_cell_setting 'monoclinic'
loop_
_space_group_symop_operation_xyz
x,y,z
-x,1/2+y,-z
loop_
_atom_site_type_symbol
_atom_site_label
_atom_site_fract_x
_atom_site_fract_y
_atom_site_fract_z
Si Si1 0.000325 0.559630 0.736287
Si Si2 0.632830 0.301242 0.766325
Si Si3 0.444970 0.324264 0.312911
Si Si4 0.776452 0.790314 0.842058
Si Si5 0.217431 0.173065 0.680074
Si Si6 0.144543 0.825285 0.061725
Si Si7 0.413452 0.581769 0.387841
Si Si8 0.914078 0.475203 0.454349
O O1 0.881404 0.675627 0.824297
O O2 0.923887 0.454775 0.882592
O O3 0.978519 0.519662 0.576567
O O4 0.228964 0.579089 0.617718
O O5 0.759309 0.302563 0.836896
O O6 0.642383 0.178191 0.692081
O O7 0.728476 0.395433 0.602142
O O8 0.405225 0.324017 0.938697
O O9 0.332881 0.270373 0.245084
O O10 0.341231 0.269625 0.518935
O O11 0.421482 0.457447 0.317280
O O12 0.674894 0.305808 0.162978
O O13 0.925771 0.891597 0.718856
O O14 0.376096 0.113583 0.682582
O O15 0.030923 0.241050 0.859670
O O16 0.137916 0.078887 0.617510
#
# Coordination Sequence:
#
# PCOD9119837 Si02
#       8
#     2   2   2   2   2   2   2   2
#     4  11  20  41  70  94 124 165 212 269 319 370
#     4  10  23  40  68 100 122 159 217 270 315 376
#     4  11  23  44  67  95 127 170 210 271 320 369
#     4  11  21  40  72  97 123 159 218 276 316 368
#     4  12  26  43  62  92 135 176 206 255 321 387
#     4  10  23  44  69  94 128 163 216 269 319 371
#     4  12  24  41  68  91 132 174 210 258 321 383
#     4  11  22  39  64  95 127 166 211 258 321 376
#
# _framework density 21.488185999999999
#
# number of rings (size 3 to 8) (size 9 to 14) (size 15 to 20)
#    0.000    1.000    5.000    2.250    1.750    1.000 
#    6.750    0.000    0.000    0.000    0.000    0.000 
#    0.000    0.000    0.000    0.000    0.000    0.000 
#
# Total GULP energy -89487.125703 kJ/mol
# GULP energy per Si atom -5592.945356 kJ/mol
# Density = 2.143928 g / cm^3
# Si number density = 21.488186 Si / 1000 Ang^3
#
#
#
# Elastic Constant Matrix: (Units=GPa)
#
#
# Indices 1 2 3 4 5 6 
#
# 1 69.6489 27.1034 23.3938 0.0000 -40.9988 0.0000
# 2 27.1034 119.7052 36.7146 0.0000 -26.1340 0.0000
# 3 23.3938 36.7146 98.3446 0.0000 -54.5109 0.0000
# 4 0.0000 0.0000 0.0000 21.1843 0.0000 -14.5574
# 5 -40.9988 -26.1340 -54.5109 0.0000 43.4247 0.0000
# 6 0.0000 0.0000 0.0000 -14.5574 0.0000 38.0324
#
#
#
# Elastic Compliance Matrix: (Units=1/GPa)
#
#
# Indices 1 2 3 4 5 6 
#
# 1 0.235796 -0.013895 0.223068 0.000000 0.494277 0.000000
# 2 -0.013895 0.010484 -0.014407 0.000000 -0.024894 0.000000
# 3 0.223068 -0.014407 0.244617 0.000000 0.509002 0.000000
# 4 0.000000 0.000000 0.000000 0.064052 0.000000 0.024517
# 5 0.494277 -0.024894 0.509002 0.000000 1.113659 0.000000
# 6 0.000000 0.000000 0.000000 0.024517 0.000000 0.035678
#
#
# Mechanical properties :
#
#
# Convention : Reuss Voigt Hill
#
# Bulk Modulus (GPa) = 1.13581 51.34692 26.24137
# Shear Modulus (GPa) = 3.10901 33.89408 18.50154
#
# Velocity S-wave (km/s) = 1.20415 3.97588 2.93748
# Velocity P-wave (km/s) = 1.56941 6.71000 4.87274
#
# Compressibility (1/GPa) = 0.88042835
#
# Stress axis : x y z
#
# Youngs Moduli (GPa) = 4.24095 95.38601 4.08803
#
# Poissons Ratio (x) = 1.32535 -0.91191
# Poissons Ratio (y) = 0.05893 0.05890
# Poissons Ratio (z) = -0.94602 1.37425
#
# Static dielectric constant tensor:
#      x y z
#    x 1.775300 0.000000 0.012010 
#    y 0.000000 1.732550 0.000000 
#    z 0.012010 0.000000 1.837700 
# 
# From -- ./inp_files/6376.got.cif
#   From: 2010.05.17/outbox.ucp.g08.bks.cvg/sg4_4_cif.got.tgz:6376.got - 2010.06.11 12:51:24.
