data_PCOD9119270
_publ_section_title
;
Structure prediction by ZEFSAII (Michael W. Deem and Ramdas Pophale) SiO2 
 PCOD9119270
Probable space group: P 21
;
_chemical_formula_sum "Si O2"
_cell_formula_units_Z 16
_cell_length_a 5.758105
_cell_length_b 9.078573
_cell_length_c 12.142354
_cell_angle_alpha 90.000000
_cell_angle_beta 79.731805
_cell_angle_gamma 90.000000
_cell_volume 624.580123
_symmetry_space_group_name_H-M "P 21"
_symmetry_group_IT_number 4
_symmetry_cell_setting 'monoclinic'
loop_
_space_group_symop_operation_xyz
x,y,z
-x,1/2+y,-z
loop_
_atom_site_type_symbol
_atom_site_label
_atom_site_fract_x
_atom_site_fract_y
_atom_site_fract_z
Si Si1 0.690930 0.113020 0.532449
Si Si2 0.926440 0.425673 0.785334
Si Si3 0.403271 0.098566 0.359378
Si Si4 0.398372 0.672560 0.083790
Si Si5 0.239148 0.675609 0.860426
Si Si6 0.951424 0.926679 0.813527
Si Si7 0.058171 0.331767 0.418935
Si Si8 0.703316 0.686307 0.259723
O O1 0.550856 0.030716 0.446973
O O2 0.528188 0.155815 0.649206
O O3 0.816354 0.258714 0.475610
O O4 0.890288 0.997057 0.551681
O O5 0.049257 0.545965 0.854288
O O6 0.142460 0.327108 0.720851
O O7 0.768912 0.497657 0.700961
O O8 0.767259 0.308799 0.865182
O O9 0.592636 0.170792 0.260027
O O10 0.262699 0.222532 0.439381
O O11 0.629757 0.696875 0.137021
O O12 0.272327 0.519096 0.129115
O O13 0.406461 0.661715 0.952202
O O14 0.090125 0.825205 0.886907
O O15 0.902095 0.820995 0.715692
O O16 0.132933 0.044511 0.749028
#
# Coordination Sequence:
#
# PCOD9119270 Si02
#       8
#     2   2   2   2   2   2   2   2
#     4  12  29  50  81 112 152 201 253 306 386 450
#     4  11  26  50  71 111 153 195 254 315 371 452
#     4  12  27  48  75 109 155 197 255 309 382 451
#     4  11  26  46  81 109 150 197 251 314 378 454
#     4  12  25  47  78 112 148 200 253 311 384 451
#     4  11  24  51  71 108 155 193 250 312 378 444
#     4  12  28  52  74 111 151 201 249 320 369 452
#     4  11  27  50  73 110 152 200 253 309 380 448
#
# _framework density 25.617208999999999
#
# number of rings (size 3 to 8) (size 9 to 14) (size 15 to 20)
#    0.000    0.500    3.750    2.250    1.750   10.000 
#    0.000    0.000    0.000    0.000    0.000    0.000 
#    0.000    0.000    0.000    0.000    0.000    0.000 
#
# Total GULP energy -89682.586353 kJ/mol
# GULP energy per Si atom -5605.161647 kJ/mol
# Density = 2.555890 g / cm^3
# Si number density = 25.617209 Si / 1000 Ang^3
#
#
#
# Elastic Constant Matrix: (Units=GPa)
#
#
# Indices 1 2 3 4 5 6 
#
# 1 82.6923 35.4165 16.2354 0.0000 27.6409 0.0000
# 2 35.4165 117.4865 14.8304 0.0000 6.1530 0.0000
# 3 16.2354 14.8304 100.5819 0.0000 30.5976 0.0000
# 4 0.0000 0.0000 0.0000 24.4976 0.0000 6.4987
# 5 27.6409 6.1530 30.5976 0.0000 38.4320 0.0000
# 6 0.0000 0.0000 0.0000 6.4987 0.0000 44.5416
#
#
#
# Elastic Compliance Matrix: (Units=1/GPa)
#
#
# Indices 1 2 3 4 5 6 
#
# 1 0.018646 -0.005138 0.002081 0.000000 -0.014245 0.000000
# 2 -0.005138 0.010096 -0.001704 0.000000 0.003436 0.000000
# 3 0.002081 -0.001704 0.013499 0.000000 -0.011971 0.000000
# 4 0.000000 0.000000 0.000000 0.042464 0.000000 -0.006196
# 5 -0.014245 0.003436 -0.011971 0.000000 0.045246 0.000000
# 6 0.000000 0.000000 0.000000 -0.006196 0.000000 0.023355
#
#
# Mechanical properties :
#
#
# Convention : Reuss Voigt Hill
#
# Bulk Modulus (GPa) = 30.56279 48.19169 39.37724
# Shear Modulus (GPa) = 28.77951 37.11279 32.94615
#
# Velocity S-wave (km/s) = 3.35542 3.81037 3.59011
# Velocity P-wave (km/s) = 5.19310 6.18155 5.70876
#
# Compressibility (1/GPa) = 0.03271952
#
# Stress axis : x y z
#
# Youngs Moduli (GPa) = 53.62945 99.05314 74.07799
#
# Poissons Ratio (x) = 0.50890 -0.15417
# Poissons Ratio (y) = 0.27553 0.12626
# Poissons Ratio (z) = -0.11161 0.16883
#
# Static dielectric constant tensor:
#      x y z
#    x 2.013570 0.000000 0.040160 
#    y 0.000000 1.997840 0.000000 
#    z 0.040160 0.000000 2.012920 
# 
# From -- ./inp_files/10301.got.cif
#   From: 2010.05.17/outbox.cif.g08.bks.cpg/sg4_6_cif.got.tgz:10301.got - 2010.06.03 18:43:04.
