data_PCOD9119001
_publ_section_title
;
Structure prediction by ZEFSAII (Michael W. Deem and Ramdas Pophale) SiO2 
 PCOD9119001
Probable space group: P 21
;
_chemical_formula_sum "Si O2"
_cell_formula_units_Z 16
_cell_length_a 6.227947
_cell_length_b 7.409356
_cell_length_c 14.538764
_cell_angle_alpha 90.000000
_cell_angle_beta 117.201627
_cell_angle_gamma 90.000000
_cell_volume 596.693956
_symmetry_space_group_name_H-M "P 21"
_symmetry_group_IT_number 4
_symmetry_cell_setting 'monoclinic'
loop_
_space_group_symop_operation_xyz
x,y,z
-x,1/2+y,-z
loop_
_atom_site_type_symbol
_atom_site_label
_atom_site_fract_x
_atom_site_fract_y
_atom_site_fract_z
Si Si1 0.039110 0.278360 0.355862
Si Si2 0.892613 0.264456 0.536394
Si Si3 0.827162 0.387189 0.144883
Si Si4 0.647485 0.228496 0.737572
Si Si5 0.267156 0.427123 0.739831
Si Si6 0.824752 0.784067 0.099984
Si Si7 0.527031 0.588416 0.494043
Si Si8 0.709173 0.888491 0.885192
O O1 0.955922 0.290389 0.443843
O O2 0.960612 0.427438 0.268107
O O3 0.319333 0.230554 0.414690
O O4 0.889395 0.105604 0.288956
O O5 0.710690 0.424224 0.528152
O O6 0.736992 0.082472 0.513475
O O7 0.113919 0.283921 0.648362
O O8 0.769458 0.571806 0.078353
O O9 0.558429 0.317156 0.127932
O O10 0.063647 0.306811 0.133284
O O11 0.513872 0.417376 0.732317
O O12 0.536079 0.151007 0.621810
O O13 0.924178 0.284329 0.795750
O O14 0.636065 0.068675 0.813158
O O15 0.345496 0.369075 0.856923
O O16 0.836407 0.896255 0.009496
#
# Coordination Sequence:
#
# PCOD9119001 Si02
#       8
#     2   2   2   2   2   2   2   2
#     4  11  27  43  71 111 157 198 252 316 390 477
#     4  11  25  42  68 112 149 205 247 315 381 477
#     4  11  27  51  75 113 155 200 257 326 392 466
#     4  11  23  48  72 107 152 201 251 323 385 461
#     4  11  24  45  72 105 148 198 264 311 386 468
#     4  11  26  46  79 106 147 200 266 320 394 454
#     4  11  25  41  73 102 152 196 253 304 393 463
#     4  11  27  48  80 110 148 206 260 325 389 458
#
# _framework density 26.814416999999999
#
# number of rings (size 3 to 8) (size 9 to 14) (size 15 to 20)
#    0.000    1.000    3.750    0.750    8.750    3.000 
#    2.250    0.000    0.000    0.000    0.000    0.000 
#    0.000    0.000    0.000    0.000    0.000    0.000 
#
# Total GULP energy -89207.219982 kJ/mol
# GULP energy per Si atom -5575.451249 kJ/mol
# Density = 2.675339 g / cm^3
# Si number density = 26.814417 Si / 1000 Ang^3
#
#
#
# Elastic Constant Matrix: (Units=GPa)
#
#
# Indices 1 2 3 4 5 6 
#
# 1 154.5568 11.5935 22.1685 0.0000 -6.6962 0.0000
# 2 11.5935 39.9518 29.1468 0.0000 3.7286 0.0000
# 3 22.1685 29.1468 142.6538 0.0000 -25.9218 0.0000
# 4 0.0000 0.0000 0.0000 17.4767 0.0000 -3.3386
# 5 -6.6962 3.7286 -25.9218 0.0000 41.8758 0.0000
# 6 0.0000 0.0000 0.0000 -3.3386 0.0000 30.0750
#
#
#
# Elastic Compliance Matrix: (Units=1/GPa)
#
#
# Indices 1 2 3 4 5 6 
#
# 1 0.006709 -0.001627 -0.000551 0.000000 0.000877 0.000000
# 2 -0.001627 0.031836 -0.007678 0.000000 -0.007848 0.000000
# 3 -0.000551 -0.007678 0.009884 0.000000 0.006714 0.000000
# 4 0.000000 0.000000 0.000000 0.058459 0.000000 0.006489
# 5 0.000877 -0.007848 0.006714 0.000000 0.028875 0.000000
# 6 0.000000 0.000000 0.000000 0.006489 0.000000 0.033971
#
#
# Mechanical properties :
#
#
# Convention : Reuss Voigt Hill
#
# Bulk Modulus (GPa) = 34.82098 51.44223 43.13160
# Shear Modulus (GPa) = 25.12338 36.16908 30.64623
#
# Velocity S-wave (km/s) = 3.06426 3.67668 3.38435
# Velocity P-wave (km/s) = 5.05309 6.10329 5.60285
#
# Compressibility (1/GPa) = 0.02871832
#
# Stress axis : x y z
#
# Youngs Moduli (GPa) = 149.05034 31.41100 101.17002
#
# Poissons Ratio (x) = 0.05110 0.05574
# Poissons Ratio (y) = 0.24247 0.77677
# Poissons Ratio (z) = 0.08212 0.24117
#
# Static dielectric constant tensor:
#      x y z
#    x 2.189810 0.000000 -0.013790 
#    y 0.000000 2.286270 0.000000 
#    z -0.013790 0.000000 2.045610 
# 
# From -- ./inp_files/13349.got.cif
#   From: 2010.05.17/outbox.cif.g08.bks.cpg/sg4_7_cif.got.tgz:13349.got - 2010.06.03 18:43:04.
