data_PCOD9119282
_publ_section_title
;
Structure prediction by ZEFSAII (Michael W. Deem and Ramdas Pophale) SiO2 
 PCOD9119282
Probable space group: P 21
;
_chemical_formula_sum "Si O2"
_cell_formula_units_Z 12
_cell_length_a 6.792113
_cell_length_b 12.613215
_cell_length_c 6.587695
_cell_angle_alpha 90.000000
_cell_angle_beta 60.651460
_cell_angle_gamma 90.000000
_cell_volume 491.935873
_symmetry_space_group_name_H-M "P 21"
_symmetry_group_IT_number 4
_symmetry_cell_setting 'monoclinic'
loop_
_space_group_symop_operation_xyz
x,y,z
-x,1/2+y,-z
loop_
_atom_site_type_symbol
_atom_site_label
_atom_site_fract_x
_atom_site_fract_y
_atom_site_fract_z
Si Si1 0.873140 0.541520 0.536402
Si Si2 0.632931 0.418829 0.355474
Si Si3 0.741623 0.037127 0.343902
Si Si4 0.882868 0.851670 0.021973
Si Si5 0.863584 0.175551 0.915989
Si Si6 0.602583 0.750843 0.805001
O O1 0.738752 0.439247 0.525867
O O2 0.711121 0.639405 0.679619
O O3 0.038871 0.517620 0.635035
O O4 0.039089 0.584133 0.274537
O O5 0.484290 0.526730 0.407605
O O6 0.474076 0.327076 0.342549
O O7 0.867538 0.402975 0.119579
O O8 0.788205 0.136969 0.179203
O O9 0.722641 0.938600 0.200062
O O10 0.780123 0.809416 0.863209
O O11 0.931141 0.755068 0.149272
O O12 0.630507 0.226069 0.954960
#
# Coordination Sequence:
#
# PCOD9119282 Si02
#       6
#     2   2   2   2   2   2
#     4  12  25  46  75 104 147 188 240 296 349 426
#     4  11  25  43  73 108 137 190 239 286 359 419
#     4  12  25  45  74 106 141 186 240 294 355 425
#     4  11  25  48  70 105 145 184 237 298 357 422
#     4  11  25  46  71 106 139 190 235 290 364 422
#     4  11  25  48  73 105 145 190 237 294 358 424
#
# _framework density 24.393422000000001
#
# number of rings (size 3 to 8) (size 9 to 14) (size 15 to 20)
#    0.000    0.667    5.000    2.000    0.000    6.667 
#    0.000    0.000    0.000    0.000    0.000    0.000 
#    0.000    0.000    0.000    0.000    0.000    0.000 
#
# Total GULP energy -66989.714318 kJ/mol
# GULP energy per Si atom -5582.476193 kJ/mol
# Density = 2.433790 g / cm^3
# Si number density = 24.393422 Si / 1000 Ang^3
#
#
#
# Elastic Constant Matrix: (Units=GPa)
#
#
# Indices 1 2 3 4 5 6 
#
# 1 129.9731 1.9638 41.4544 0.0000 -13.1651 0.0000
# 2 1.9638 42.9797 22.7309 0.0000 0.8448 0.0000
# 3 41.4544 22.7309 56.6093 0.0000 -6.1653 0.0000
# 4 0.0000 0.0000 0.0000 52.6526 0.0000 -1.0892
# 5 -13.1651 0.8448 -6.1653 0.0000 32.4039 0.0000
# 6 0.0000 0.0000 0.0000 -1.0892 0.0000 46.7409
#
#
#
# Elastic Compliance Matrix: (Units=1/GPa)
#
#
# Indices 1 2 3 4 5 6 
#
# 1 0.010918 0.004489 -0.009525 0.000000 0.002506 0.000000
# 2 0.004489 0.031692 -0.016241 0.000000 -0.002093 0.000000
# 3 -0.009525 -0.016241 0.031437 0.000000 0.002535 0.000000
# 4 0.000000 0.000000 0.000000 0.019002 0.000000 0.000443
# 5 0.002506 -0.002093 0.002535 0.000000 0.032416 0.000000
# 6 0.000000 0.000000 0.000000 0.000443 0.000000 0.021405
#
#
# Mechanical properties :
#
#
# Convention : Reuss Voigt Hill
#
# Bulk Modulus (GPa) = 31.75161 40.20671 35.97916
# Shear Modulus (GPa) = 25.00994 37.25368 31.13181
#
# Velocity S-wave (km/s) = 3.20546 3.91218 3.57632
# Velocity P-wave (km/s) = 5.17153 6.07662 5.64225
#
# Compressibility (1/GPa) = 0.03149447
#
# Stress axis : x y z
#
# Youngs Moduli (GPa) = 91.59364 31.55342 31.80939
#
# Poissons Ratio (x) = -0.14165 0.30297
# Poissons Ratio (y) = -0.41118 0.51662
# Poissons Ratio (z) = 0.87239 0.51246
#
# Static dielectric constant tensor:
#      x y z
#    x 1.955160 0.000000 -0.053000 
#    y 0.000000 1.958420 0.000000 
#    z -0.053000 0.000000 1.970200 
# 
# From -- ./inp_files/237.got.cif
#   From: 2010.05.17/outbox.cif.g08.bks.cpg/sg4_1_cif.got.tgz:237.got - 2010.06.03 18:43:04.
