data_PCOD9119287
_publ_section_title
;
Structure prediction by ZEFSAII (Michael W. Deem and Ramdas Pophale) SiO2 
 PCOD9119287
Probable space group: P 21
;
_chemical_formula_sum "Si O2"
_cell_formula_units_Z 14
_cell_length_a 18.631399
_cell_length_b 5.298699
_cell_length_c 14.119496
_cell_angle_alpha 90.000000
_cell_angle_beta 158.532549
_cell_angle_gamma 90.000000
_cell_volume 510.131913
_symmetry_space_group_name_H-M "P 21"
_symmetry_group_IT_number 4
_symmetry_cell_setting 'monoclinic'
loop_
_space_group_symop_operation_xyz
x,y,z
-x,1/2+y,-z
loop_
_atom_site_type_symbol
_atom_site_label
_atom_site_fract_x
_atom_site_fract_y
_atom_site_fract_z
Si Si1 0.371988 0.030540 0.141905
Si Si2 0.044108 0.458522 0.713655
Si Si3 0.767029 0.771930 0.680675
Si Si4 0.122491 0.970380 0.014165
Si Si5 0.532290 0.851555 0.980708
Si Si6 0.793241 0.357909 0.566557
Si Si7 0.200462 0.752180 0.760192
O O1 0.602571 0.986633 0.454698
O O2 0.241572 0.292347 0.977318
O O3 0.258754 0.893988 0.092705
O O4 0.352736 0.914311 0.010761
O O5 0.054522 0.715728 0.667634
O O6 0.937913 0.527418 0.680212
O O7 0.901596 0.313054 0.464164
O O8 0.713124 0.528590 0.551652
O O9 0.757957 0.679073 0.777633
O O10 0.003513 0.798980 0.945497
O O11 0.929625 0.116939 0.743294
O O12 0.382549 0.788107 0.715759
O O13 0.452011 0.103682 0.936453
O O14 0.718428 0.972571 0.159472
#
# Coordination Sequence:
#
# PCOD9119287 Si02
#       7
#     2   2   2   2   2   2   2
#     4  11  27  47  72 111 147 201 254 325 398 481
#     4  11  25  44  69 108 153 199 249 318 397 478
#     4  12  25  49  80 104 148 198 266 330 408 471
#     4  11  27  50  74 110 148 198 264 337 405 475
#     4  12  29  45  75 117 159 209 265 323 393 489
#     4  11  25  47  72 109 148 202 253 326 395 479
#     4  12  24  42  72 105 155 199 251 311 394 479
#
# _framework density 27.443881000000001
#
# number of rings (size 3 to 8) (size 9 to 14) (size 15 to 20)
#    0.000    0.571    5.714    0.857    8.000    1.143 
#    5.143    0.000    0.000    0.000    0.000    0.000 
#    0.000    0.000    0.000    0.000    0.000    0.000 
#
# Total GULP energy -78038.869656 kJ/mol
# GULP energy per Si atom -5574.204975 kJ/mol
# Density = 2.738142 g / cm^3
# Si number density = 27.443881 Si / 1000 Ang^3
#
#
#
# Elastic Constant Matrix: (Units=GPa)
#
#
# Indices 1 2 3 4 5 6 
#
# 1 99.8350 22.0864 20.1650 0.0000 10.3342 0.0000
# 2 22.0864 86.5285 43.6050 0.0000 -1.7675 0.0000
# 3 20.1650 43.6050 140.3078 0.0000 1.3402 0.0000
# 4 0.0000 0.0000 0.0000 42.8461 0.0000 7.4013
# 5 10.3342 -1.7675 1.3402 0.0000 43.5650 0.0000
# 6 0.0000 0.0000 0.0000 7.4013 0.0000 49.5366
#
#
#
# Elastic Compliance Matrix: (Units=1/GPa)
#
#
# Indices 1 2 3 4 5 6 
#
# 1 0.010999 -0.002465 -0.000789 0.000000 -0.002685 0.000000
# 2 -0.002465 0.014276 -0.004095 0.000000 0.001290 0.000000
# 3 -0.000789 -0.004095 0.008515 0.000000 -0.000241 0.000000
# 4 0.000000 0.000000 0.000000 0.023958 0.000000 -0.003580
# 5 -0.002685 0.001290 -0.000241 0.000000 0.023651 0.000000
# 6 0.000000 0.000000 0.000000 -0.003580 0.000000 0.020722
#
#
# Mechanical properties :
#
#
# Convention : Reuss Voigt Hill
#
# Bulk Modulus (GPa) = 52.37460 55.37601 53.87531
# Shear Modulus (GPa) = 40.59020 43.24387 41.91703
#
# Velocity S-wave (km/s) = 3.84998 3.97384 3.91240
# Velocity P-wave (km/s) = 6.23609 6.42471 6.33110
#
# Compressibility (1/GPa) = 0.01909323
#
# Stress axis : x y z
#
# Youngs Moduli (GPa) = 90.91650 70.04841 117.43316
#
# Poissons Ratio (x) = 0.17265 0.09267
# Poissons Ratio (y) = 0.22408 0.48086
# Poissons Ratio (z) = 0.07175 0.28683
#
# Static dielectric constant tensor:
#      x y z
#    x 2.476570 0.000000 0.111380 
#    y 0.000000 2.386110 0.000000 
#    z 0.111380 0.000000 2.305130 
# 
# From -- ./inp_files/14413.got.cif
#   From: 2010.05.17/outbox.cif.g08.bks.cpg/sg4_8_cif.got.tgz:14413.got - 2010.06.03 18:43:04.
