data_PCOD9119463
_publ_section_title
;
Structure prediction by ZEFSAII (Michael W. Deem and Ramdas Pophale) SiO2 
 PCOD9119463
Probable space group: P 21
;
_chemical_formula_sum "Si O2"
_cell_formula_units_Z 16
_cell_length_a 4.980842
_cell_length_b 18.131576
_cell_length_c 7.915079
_cell_angle_alpha 90.000000
_cell_angle_beta 122.980300
_cell_angle_gamma 90.000000
_cell_volume 599.628010
_symmetry_space_group_name_H-M "P 21"
_symmetry_group_IT_number 4
_symmetry_cell_setting 'monoclinic'
loop_
_space_group_symop_operation_xyz
x,y,z
-x,1/2+y,-z
loop_
_atom_site_type_symbol
_atom_site_label
_atom_site_fract_x
_atom_site_fract_y
_atom_site_fract_z
Si Si1 0.794251 0.557960 0.397062
Si Si2 0.617821 0.225669 0.144427
Si Si3 0.399531 0.651331 0.500098
Si Si4 0.818425 0.081357 0.052415
Si Si5 0.596218 0.489264 0.863728
Si Si6 0.644574 0.411038 0.518928
Si Si7 0.041564 0.779387 0.200083
Si Si8 0.048188 0.860412 0.841982
O O1 0.695792 0.606981 0.526046
O O2 0.787210 0.472400 0.443796
O O3 0.111171 0.592537 0.424675
O O4 0.489604 0.570882 0.172441
O O5 0.543457 0.189865 0.300164
O O6 0.815348 0.165451 0.108123
O O7 0.806205 0.301655 0.237227
O O8 0.308829 0.244250 0.925832
O O9 0.287991 0.715226 0.333699
O O10 0.720468 0.027798 0.174662
O O11 0.130840 0.051269 0.067137
O O12 0.566501 0.449492 0.673217
O O13 0.730537 0.430810 0.045081
O O14 0.892865 0.346125 0.648271
O O15 0.309943 0.382264 0.328862
O O16 0.064189 0.816064 0.024104
#
# Coordination Sequence:
#
# PCOD9119463 Si02
#       8
#     2   2   2   2   2   2   2   2
#     4  12  26  51  80 117 148 210 253 333 380 466
#     4  12  28  46  80 108 157 202 263 317 397 460
#     4  12  28  50  82 112 157 199 270 317 395 455
#     4  12  25  51  81 114 155 202 260 327 385 460
#     4  11  27  49  79 113 153 203 258 319 387 458
#     4  11  26  51  78 110 161 199 269 309 400 461
#     4  11  27  49  73 113 152 211 253 328 380 476
#     4  11  27  49  75 111 155 208 254 318 390 466
#
# _framework density 26.683209999999999
#
# number of rings (size 3 to 8) (size 9 to 14) (size 15 to 20)
#    0.000    0.500    2.500    3.750    8.750    2.000 
#    4.500    0.000    0.000    0.000    0.000    0.000 
#    0.000    0.000    0.000    0.000    0.000    0.000 
#
# Total GULP energy -89957.247824 kJ/mol
# GULP energy per Si atom -5622.327989 kJ/mol
# Density = 2.662248 g / cm^3
# Si number density = 26.683210 Si / 1000 Ang^3
#
#
#
# Elastic Constant Matrix: (Units=GPa)
#
#
# Indices 1 2 3 4 5 6 
#
# 1 115.2429 57.6027 33.9308 0.0000 11.6908 0.0000
# 2 57.6027 164.7480 68.4424 0.0000 8.8040 0.0000
# 3 33.9308 68.4424 150.9588 0.0000 5.2233 0.0000
# 4 0.0000 0.0000 0.0000 53.6803 0.0000 9.5659
# 5 11.6908 8.8040 5.2233 0.0000 49.1855 0.0000
# 6 0.0000 0.0000 0.0000 9.5659 0.0000 52.1303
#
#
#
# Elastic Compliance Matrix: (Units=1/GPa)
#
#
# Indices 1 2 3 4 5 6 
#
# 1 0.010775 -0.003312 -0.000855 0.000000 -0.001877 0.000000
# 2 -0.003312 0.008544 -0.003115 0.000000 -0.000411 0.000000
# 3 -0.000855 -0.003115 0.008233 0.000000 -0.000113 0.000000
# 4 0.000000 0.000000 0.000000 0.019259 0.000000 -0.003534
# 5 -0.001877 -0.000411 -0.000113 0.000000 0.020863 0.000000
# 6 0.000000 0.000000 0.000000 -0.003534 0.000000 0.019831
#
#
# Mechanical properties :
#
#
# Convention : Reuss Voigt Hill
#
# Bulk Modulus (GPa) = 76.99824 83.43349 80.21586
# Shear Modulus (GPa) = 46.99337 49.06413 48.02875
#
# Velocity S-wave (km/s) = 4.20117 4.29273 4.24720
# Velocity P-wave (km/s) = 7.24239 7.47704 7.36065
#
# Compressibility (1/GPa) = 0.01298731
#
# Stress axis : x y z
#
# Youngs Moduli (GPa) = 92.80801 117.04309 121.46466
#
# Poissons Ratio (x) = 0.38761 0.10391
# Poissons Ratio (y) = 0.30735 0.37837
# Poissons Ratio (z) = 0.07939 0.36460
#
# Static dielectric constant tensor:
#      x y z
#    x 2.048380 0.000000 -0.056950 
#    y 0.000000 2.050550 0.000000 
#    z -0.056950 0.000000 2.160630 
# 
# From -- ./inp_files/4858.got.cif
#   From: 2010.05.17/outbox.cif.g08.bks.cpg/sg4_3_cif.got.tgz:4858.got - 2010.06.03 18:43:04.
