data_PCOD9119158
_publ_section_title
;
Structure prediction by ZEFSAII (Michael W. Deem and Ramdas Pophale) SiO2 
 PCOD9119158
Probable space group: P 21
;
_chemical_formula_sum "Si O2"
_cell_formula_units_Z 16
_cell_length_a 8.671093
_cell_length_b 8.834891
_cell_length_c 11.501046
_cell_angle_alpha 90.000000
_cell_angle_beta 129.223072
_cell_angle_gamma 90.000000
_cell_volume 682.559137
_symmetry_space_group_name_H-M "P 21"
_symmetry_group_IT_number 4
_symmetry_cell_setting 'monoclinic'
loop_
_space_group_symop_operation_xyz
x,y,z
-x,1/2+y,-z
loop_
_atom_site_type_symbol
_atom_site_label
_atom_site_fract_x
_atom_site_fract_y
_atom_site_fract_z
Si Si1 0.701311 0.793510 0.625617
Si Si2 0.745155 0.127844 0.391898
Si Si3 0.383601 0.068309 0.818641
Si Si4 0.746715 0.264346 0.632881
Si Si5 0.650942 0.234409 0.126842
Si Si6 0.980085 0.544167 0.805076
Si Si7 0.233703 0.536817 0.155675
Si Si8 0.128380 0.295239 0.551243
O O1 0.469704 0.832980 0.498721
O O2 0.769286 0.631824 0.709485
O O3 0.784720 0.782973 0.535918
O O4 0.794980 0.910581 0.760130
O O5 0.743447 0.136366 0.530232
O O6 0.578093 0.173045 0.219067
O O7 0.895861 0.265241 0.436817
O O8 0.817554 0.964049 0.387304
O O9 0.553845 0.022262 0.807042
O O10 0.214766 0.160814 0.671302
O O11 0.321909 0.914998 0.854916
O O12 0.485645 0.185784 0.955511
O O13 0.923741 0.386772 0.714709
O O14 0.757995 0.191345 0.765862
O O15 0.850817 0.144348 0.180297
O O16 0.069789 0.525428 0.976711
#
# Coordination Sequence:
#
# PCOD9119158 Si02
#       8
#     2   2   2   2   2   2   2   2
#     4  12  24  45  71 108 142 195 248 304 381 451
#     4  12  25  43  69 105 141 191 246 309 371 448
#     4  11  25  46  74 107 155 195 249 312 374 460
#     4  12  25  45  75 107 145 194 253 311 379 451
#     4  11  24  46  71 106 151 201 246 309 383 448
#     4  11  26  45  73 104 151 196 253 315 382 457
#     4  11  24  47  70 109 147 194 251 311 381 451
#     4  12  25  43  71 104 146 190 250 305 375 446
#
# _framework density 23.441191
#
# number of rings (size 3 to 8) (size 9 to 14) (size 15 to 20)
#    0.000    0.500    3.750    4.500    1.750    1.000 
#    0.000    3.750    0.000    0.000    0.000    0.000 
#    0.000    0.000    0.000    0.000    0.000    0.000 
#
# Total GULP energy -89382.874981 kJ/mol
# GULP energy per Si atom -5586.429686 kJ/mol
# Density = 2.338784 g / cm^3
# Si number density = 23.441191 Si / 1000 Ang^3
#
#
#
# Elastic Constant Matrix: (Units=GPa)
#
#
# Indices 1 2 3 4 5 6 
#
# 1 51.7202 7.7439 27.1520 0.0000 -11.6703 0.0000
# 2 7.7439 109.7070 35.2568 0.0000 -15.2584 0.0000
# 3 27.1520 35.2568 130.8846 0.0000 -24.4962 0.0000
# 4 0.0000 0.0000 0.0000 48.5909 0.0000 -5.4333
# 5 -11.6703 -15.2584 -24.4962 0.0000 33.9233 0.0000
# 6 0.0000 0.0000 0.0000 -5.4333 0.0000 29.5397
#
#
#
# Elastic Compliance Matrix: (Units=1/GPa)
#
#
# Indices 1 2 3 4 5 6 
#
# 1 0.022429 0.000348 -0.003785 0.000000 0.005140 0.000000
# 2 0.000348 0.010246 -0.002251 0.000000 0.003102 0.000000
# 3 -0.003785 -0.002251 0.009942 0.000000 0.004865 0.000000
# 4 0.000000 0.000000 0.000000 0.021012 0.000000 0.003865
# 5 0.005140 0.003102 0.004865 0.000000 0.036155 0.000000
# 6 0.000000 0.000000 0.000000 0.003865 0.000000 0.034564
#
#
# Mechanical properties :
#
#
# Convention : Reuss Voigt Hill
#
# Bulk Modulus (GPa) = 32.00933 48.06859 40.03896
# Shear Modulus (GPa) = 32.02293 37.22139 34.62216
#
# Velocity S-wave (km/s) = 3.70008 3.98912 3.84732
# Velocity P-wave (km/s) = 5.65146 6.46282 6.07071
#
# Compressibility (1/GPa) = 0.03124089
#
# Stress axis : x y z
#
# Youngs Moduli (GPa) = 44.58439 97.60225 100.57895
#
# Poissons Ratio (x) = -0.03396 0.38067
# Poissons Ratio (y) = -0.01551 0.22645
# Poissons Ratio (z) = 0.16874 0.21975
#
# Static dielectric constant tensor:
#      x y z
#    x 1.948570 0.000000 -0.036130 
#    y 0.000000 1.894120 0.000000 
#    z -0.036130 0.000000 1.885570 
# 
# From -- ./inp_files/5750.got.cif
#   From: 2010.05.17/outbox.cif.g08.bks.cpg/sg4_3_cif.got.tgz:5750.got - 2010.06.03 18:43:04.
