data_PCOD9119805
_publ_section_title
;
Structure prediction by ZEFSAII (Michael W. Deem and Ramdas Pophale) SiO2 
 PCOD9119805
Probable space group: P 21
;
_chemical_formula_sum "Si O2"
_cell_formula_units_Z 16
_cell_length_a 12.000000
_cell_length_b 9.000000
_cell_length_c 12.000000
_cell_angle_alpha 90.000000
_cell_angle_beta 140.000000
_cell_angle_gamma 90.000000
_cell_volume 833.052742
_symmetry_space_group_name_H-M "P 21"
_symmetry_group_IT_number 4
_symmetry_cell_setting 'monoclinic'
loop_
_space_group_symop_operation_xyz
x,y,z
-x,1/2+y,-z
loop_
_atom_site_type_symbol
_atom_site_label
_atom_site_fract_x
_atom_site_fract_y
_atom_site_fract_z
Si Si1 0.749441 0.616040 0.110625
Si Si2 0.458968 0.566794 0.710086
Si Si3 0.063190 0.815879 0.057028
Si Si4 0.155825 0.093981 0.409656
Si Si5 0.766218 0.620770 0.780612
Si Si6 0.805600 0.269089 0.095301
Si Si7 0.867008 0.242846 0.645428
Si Si8 0.592328 0.738089 0.219576
O O1 0.781201 0.434924 0.130683
O O2 0.683814 0.699011 0.171908
O O3 0.940042 0.678813 0.227218
O O4 0.591422 0.640466 0.901591
O O5 0.589682 0.565683 0.703174
O O6 0.285038 0.653029 0.536417
O O7 0.410506 0.406956 0.729654
O O8 0.155517 0.744294 0.236515
O O9 0.091127 0.991359 0.091696
O O10 0.143247 0.780911 0.996898
O O11 0.862151 0.765613 0.903118
O O12 0.243017 0.139328 0.358535
O O13 0.291682 0.143511 0.606516
O O14 0.967429 0.177183 0.272153
O O15 0.133823 0.915881 0.391650
O O16 0.612539 0.198943 0.951081
#
# Coordination Sequence:
#
# PCOD9119805 Si02
#       8
#     2   2   2   2   2   2   2   2
#     4  11  24  45  68  93 132 189 231 277 337 395
#     4  11  24  44  68 100 134 182 228 281 340 399
#     4  10  18  41  66  99 136 173 218 276 346 404
#     4  10  25  39  62 106 133 176 223 278 344 406
#     4  10  20  39  67  98 140 173 221 281 343 405
#     4  10  22  44  69  93 134 176 229 285 337 396
#     4  11  24  39  66 102 138 174 225 281 342 408
#     4  11  25  43  68  95 135 185 235 273 335 405
#
# _framework density 19.206467
#
# number of rings (size 3 to 8) (size 9 to 14) (size 15 to 20)
#    0.000    1.500    3.750    0.750    1.750    9.000 
#    2.250    0.000    0.000    0.000    0.000    0.000 
#    0.000    0.000    0.000    0.000    0.000    0.000 
#
# Total GULP energy -89188.859636 kJ/mol
# GULP energy per Si atom -5574.303727 kJ/mol
# Density = 1.916275 g / cm^3
# Si number density = 19.206467 Si / 1000 Ang^3
#
#
#
# Elastic Constant Matrix: (Units=GPa)
#
#
# Indices 1 2 3 4 5 6 
#
# 1 105.2293 31.8560 36.3562 0.0000 9.8943 0.0000
# 2 31.8560 73.7585 46.4105 0.0000 10.1530 0.0000
# 3 36.3562 46.4105 122.1332 0.0000 12.6308 0.0000
# 4 0.0000 0.0000 0.0000 33.3566 0.0000 5.4449
# 5 9.8943 10.1530 12.6308 0.0000 30.0701 0.0000
# 6 0.0000 0.0000 0.0000 5.4449 0.0000 32.6939
#
#
#
# Elastic Compliance Matrix: (Units=1/GPa)
#
#
# Indices 1 2 3 4 5 6 
#
# 1 0.011374 -0.003487 -0.001877 0.000000 -0.001777 0.000000
# 2 -0.003487 0.019209 -0.005969 0.000000 -0.002831 0.000000
# 3 -0.001877 -0.005969 0.011230 0.000000 -0.002084 0.000000
# 4 0.000000 0.000000 0.000000 0.030817 0.000000 -0.005132
# 5 -0.001777 -0.002831 -0.002084 0.000000 0.035672 0.000000
# 6 0.000000 0.000000 0.000000 -0.005132 0.000000 0.031442
#
#
# Mechanical properties :
#
#
# Convention : Reuss Voigt Hill
#
# Bulk Modulus (GPa) = 52.22381 58.92960 55.57670
# Shear Modulus (GPa) = 29.62236 31.65735 30.63985
#
# Velocity S-wave (km/s) = 3.93149 4.06429 3.99844
# Velocity P-wave (km/s) = 6.91799 7.26453 7.09337
#
# Compressibility (1/GPa) = 0.01914835
#
# Stress axis : x y z
#
# Youngs Moduli (GPa) = 87.91821 52.05876 89.04578
#
# Poissons Ratio (x) = 0.18152 0.16715
# Poissons Ratio (y) = 0.30655 0.53148
# Poissons Ratio (z) = 0.16503 0.31072
#
# Static dielectric constant tensor:
#      x y z
#    x 1.687440 0.000000 -0.031620 
#    y 0.000000 1.691840 0.000000 
#    z -0.031620 0.000000 1.668010 
# 
# From -- ./inp_files/11838.got.cif
#   From: 2010.05.17/outbox.ucp.g08.bks.cvg/sg4_6_cif.got.tgz:11838.got - 2010.06.11 12:51:24.
