data_PCOD9119290
_publ_section_title
;
Structure prediction by ZEFSAII (Michael W. Deem and Ramdas Pophale) SiO2 
 PCOD9119290
Probable space group: P 21
;
_chemical_formula_sum "Si O2"
_cell_formula_units_Z 16
_cell_length_a 14.646397
_cell_length_b 9.263670
_cell_length_c 5.052756
_cell_angle_alpha 90.000000
_cell_angle_beta 69.396048
_cell_angle_gamma 90.000000
_cell_volume 641.703510
_symmetry_space_group_name_H-M "P 21"
_symmetry_group_IT_number 4
_symmetry_cell_setting 'monoclinic'
loop_
_space_group_symop_operation_xyz
x,y,z
-x,1/2+y,-z
loop_
_atom_site_type_symbol
_atom_site_label
_atom_site_fract_x
_atom_site_fract_y
_atom_site_fract_z
Si Si1 0.415351 0.207640 0.627741
Si Si2 0.876810 0.578327 0.557201
Si Si3 0.543313 0.225762 0.002366
Si Si4 0.314897 0.498409 0.876172
Si Si5 0.858784 0.343967 0.203617
Si Si6 0.695413 0.452521 0.030340
Si Si7 0.969308 0.867364 0.318304
Si Si8 0.200453 0.571102 0.493577
O O1 0.453580 0.246158 0.297716
O O2 0.345208 0.333884 0.802092
O O3 0.362205 0.054209 0.706820
O O4 0.503869 0.204168 0.748584
O O5 0.867900 0.511752 0.272549
O O6 0.916736 0.738637 0.526293
O O7 0.957436 0.471428 0.598597
O O8 0.770353 0.551540 0.788794
O O9 0.617022 0.361007 0.945293
O O10 0.598963 0.088471 0.071101
O O11 0.287840 0.556099 0.613089
O O12 0.227573 0.518178 0.175121
O O13 0.766336 0.340473 0.105568
O O14 0.834438 0.236516 0.466894
O O15 0.959889 0.297616 0.971347
O O16 0.884251 0.970439 0.302334
#
# Coordination Sequence:
#
# PCOD9119290 Si02
#       8
#     2   2   2   2   2   2   2   2
#     4  12  27  45  74 105 145 182 247 299 366 433
#     4  11  25  45  74 102 151 188 248 299 360 436
#     4  12  25  47  73 103 142 191 237 302 364 441
#     4  12  26  46  71 107 140 192 235 298 363 421
#     4  11  25  44  72 101 146 193 244 295 358 433
#     4  11  26  45  70 108 139 193 237 304 369 427
#     4  11  26  44  71 110 141 201 241 297 357 427
#     4  12  26  46  73 102 150 188 243 290 355 434
#
# _framework density 24.933633
#
# number of rings (size 3 to 8) (size 9 to 14) (size 15 to 20)
#    0.000    0.500    1.250    6.000   10.500    1.000 
#    0.000    0.000    0.000    0.000    0.000    0.000 
#    0.000    0.000    0.000    0.000    0.000    0.000 
#
# Total GULP energy -89667.246767 kJ/mol
# GULP energy per Si atom -5604.202923 kJ/mol
# Density = 2.487688 g / cm^3
# Si number density = 24.933633 Si / 1000 Ang^3
#
#
#
# Elastic Constant Matrix: (Units=GPa)
#
#
# Indices 1 2 3 4 5 6 
#
# 1 55.3892 12.8570 32.5992 0.0000 -10.8026 0.0000
# 2 12.8570 101.1374 17.3531 0.0000 -17.9962 0.0000
# 3 32.5992 17.3531 96.1958 0.0000 -15.9654 0.0000
# 4 0.0000 0.0000 0.0000 40.0330 0.0000 -13.0355
# 5 -10.8026 -17.9962 -15.9654 0.0000 40.9884 0.0000
# 6 0.0000 0.0000 0.0000 -13.0355 0.0000 35.1074
#
#
#
# Elastic Compliance Matrix: (Units=1/GPa)
#
#
# Indices 1 2 3 4 5 6 
#
# 1 0.023080 -0.001216 -0.007143 0.000000 0.002767 0.000000
# 2 -0.001216 0.010928 -0.000873 0.000000 0.004138 0.000000
# 3 -0.007143 -0.000873 0.013468 0.000000 0.002980 0.000000
# 4 0.000000 0.000000 0.000000 0.028415 0.000000 0.010551
# 5 0.002767 0.004138 0.002980 0.000000 0.028104 0.000000
# 6 0.000000 0.000000 0.000000 0.010551 0.000000 0.032402
#
#
# Mechanical properties :
#
#
# Convention : Reuss Voigt Hill
#
# Bulk Modulus (GPa) = 34.46725 42.03789 38.25257
# Shear Modulus (GPa) = 30.38953 35.88661 33.13807
#
# Velocity S-wave (km/s) = 3.49494 3.79791 3.64957
# Velocity P-wave (km/s) = 5.48997 6.01071 5.75623
#
# Compressibility (1/GPa) = 0.02901305
#
# Stress axis : x y z
#
# Youngs Moduli (GPa) = 43.32788 91.50724 74.24954
#
# Poissons Ratio (x) = 0.11129 0.53035
# Poissons Ratio (y) = 0.05269 0.06478
# Poissons Ratio (z) = 0.30948 0.07984
#
# Static dielectric constant tensor:
#      x y z
#    x 1.985860 0.000000 0.004330 
#    y 0.000000 1.923190 0.000000 
#    z 0.004330 0.000000 1.992690 
# 
# From -- ./inp_files/3628.got.cif
#   From: 2010.05.17/outbox.cif.g08.bks.cpg/sg4_2_cif.got.tgz:3628.got - 2010.06.03 18:43:04.
