data_PCOD9119799
_publ_section_title
;
Structure prediction by ZEFSAII (Michael W. Deem and Ramdas Pophale) SiO2 
 PCOD9119799
Probable space group: P 21
;
_chemical_formula_sum "Si O2"
_cell_formula_units_Z 6
_cell_length_a 4.803149
_cell_length_b 7.950143
_cell_length_c 4.628448
_cell_angle_alpha 90.000000
_cell_angle_beta 67.737419
_cell_angle_gamma 90.000000
_cell_volume 163.565909
_symmetry_space_group_name_H-M "P 21"
_symmetry_group_IT_number 4
_symmetry_cell_setting 'monoclinic'
loop_
_space_group_symop_operation_xyz
x,y,z
-x,1/2+y,-z
loop_
_atom_site_type_symbol
_atom_site_label
_atom_site_fract_x
_atom_site_fract_y
_atom_site_fract_z
Si Si1 0.653331 0.606950 0.104078
Si Si2 0.313302 0.744319 0.672869
Si Si3 0.076696 0.429751 0.687448
O O1 0.544806 0.651794 0.825043
O O2 0.671829 0.785994 0.307909
O O3 0.761490 0.398925 0.046404
O O4 0.342539 0.557785 0.411452
O O5 0.025198 0.615596 0.887915
O O6 0.105065 0.857549 0.514466
#
# Coordination Sequence:
#
# PCOD9119799 Si02
#       3
#     2   2   2
#     4   9  13  17  22  26  30  35  39  43  48  52
#     4   8  14  18  20  26  32  34  38  44  48  52
#     4   9  13  17  22  26  30  35  39  43  48  52
#
# _framework density 36.682461000000004
#
# number of rings (size 3 to 8) (size 9 to 14) (size 15 to 20)
#    2.000    1.333    3.333    0.000    0.000    0.000 
#    0.000    0.000    0.000    0.000    0.000    0.000 
#    0.000    0.000    0.000    0.000    0.000    0.000 
#
# Total GULP energy -33631.015695 kJ/mol
# GULP energy per Si atom -5605.169282 kJ/mol
# Density = 3.659897 g / cm^3
# Si number density = 36.682461 Si / 1000 Ang^3
#
#
#
# Elastic Constant Matrix: (Units=GPa)
#
#
# Indices 1 2 3 4 5 6 
#
# 1 379.3442 139.9677 123.7178 0.0000 0.8570 0.0000
# 2 139.9677 465.1496 132.7113 0.0000 2.1347 0.0000
# 3 123.7178 132.7113 331.1981 0.0000 7.6643 0.0000
# 4 0.0000 0.0000 0.0000 114.7923 0.0000 -46.8324
# 5 0.8570 2.1347 7.6643 0.0000 168.9336 0.0000
# 6 0.0000 0.0000 0.0000 -46.8324 0.0000 179.2063
#
#
#
# Elastic Compliance Matrix: (Units=1/GPa)
#
#
# Indices 1 2 3 4 5 6 
#
# 1 0.003192 -0.000700 -0.000913 0.000000 0.000034 0.000000
# 2 -0.000700 0.002581 -0.000773 0.000000 0.000006 0.000000
# 3 -0.000913 -0.000773 0.003673 0.000000 -0.000152 0.000000
# 4 0.000000 0.000000 0.000000 0.009751 0.000000 0.002548
# 5 0.000034 0.000006 -0.000152 0.000000 0.005926 0.000000
# 6 0.000000 0.000000 0.000000 0.002548 0.000000 0.006246
#
#
# Mechanical properties :
#
#
# Convention : Reuss Voigt Hill
#
# Bulk Modulus (GPa) = 213.89350 218.72060 216.30705
# Shear Modulus (GPa) = 132.62811 144.53946 138.58378
#
# Velocity S-wave (km/s) = 6.01949 6.28398 6.15316
# Velocity P-wave (km/s) = 10.33191 10.60217 10.46791
#
# Compressibility (1/GPa) = 0.00467522
#
# Stress axis : x y z
#
# Youngs Moduli (GPa) = 313.27669 387.44301 272.22813
#
# Poissons Ratio (x) = 0.27133 0.24842
# Poissons Ratio (y) = 0.21939 0.21037
# Poissons Ratio (z) = 0.28588 0.29940
#
# Static dielectric constant tensor:
#      x y z
#    x 2.724930 0.000000 -0.532060 
#    y 0.000000 3.058220 0.000000 
#    z -0.532060 0.000000 2.772960 
# 
# From -- ./inp_files/159.got.cif
#   From: 2010.05.17/outbox.cif.g08.bks.cpg/sg4_1_cif.got.tgz:159.got - 2010.06.03 18:43:04.
