data_PCOD9119145
_publ_section_title
;
Structure prediction by ZEFSAII (Michael W. Deem and Ramdas Pophale) SiO2 
 PCOD9119145
Probable space group: P 21
;
_chemical_formula_sum "Si O2"
_cell_formula_units_Z 12
_cell_length_a 7.551750
_cell_length_b 12.191490
_cell_length_c 5.082140
_cell_angle_alpha 90.000000
_cell_angle_beta 92.045428
_cell_angle_gamma 90.000000
_cell_volume 467.599689
_symmetry_space_group_name_H-M "P 21"
_symmetry_group_IT_number 4
_symmetry_cell_setting 'monoclinic'
loop_
_space_group_symop_operation_xyz
x,y,z
-x,1/2+y,-z
loop_
_atom_site_type_symbol
_atom_site_label
_atom_site_fract_x
_atom_site_fract_y
_atom_site_fract_z
Si Si1 0.938244 0.290900 0.627411
Si Si2 0.890277 0.609182 0.105542
Si Si3 0.275560 0.551289 0.982974
Si Si4 0.746303 0.368748 0.137513
Si Si5 0.551628 0.743079 0.120277
Si Si6 0.710625 0.908899 0.502274
O O1 0.786824 0.306437 0.407964
O O2 0.021352 0.170417 0.641143
O O3 0.089691 0.374448 0.553761
O O4 0.872203 0.323735 0.912428
O O5 0.788610 0.497081 0.163583
O O6 0.736091 0.695069 0.012068
O O7 0.067726 0.585942 0.947549
O O8 0.406327 0.646033 0.097622
O O9 0.278576 0.458848 0.208713
O O10 0.340373 0.504821 0.707177
O O11 0.550611 0.338267 0.039893
O O12 0.601777 0.800817 0.400957
#
# Coordination Sequence:
#
# PCOD9119145 Si02
#       6
#     2   2   2   2   2   2
#     4  11  24  45  75 105 144 195 249 299 369 444
#     4  11  25  49  79 109 149 205 248 308 378 450
#     4  12  25  49  78 109 150 200 252 309 375 453
#     4  12  25  47  73 109 149 193 247 313 368 441
#     4  11  28  47  75 117 152 194 256 317 373 446
#     4  11  25  49  74 109 150 197 254 304 375 450
#
# _framework density 25.662977999999999
#
# number of rings (size 3 to 8) (size 9 to 14) (size 15 to 20)
#    0.000    0.667    5.000    1.000    2.333    5.333 
#    0.000   10.000    0.000    0.000    0.000    0.000 
#    0.000    0.000    0.000    0.000    0.000    0.000 
#
# Total GULP energy -67157.036871 kJ/mol
# GULP energy per Si atom -5596.419739 kJ/mol
# Density = 2.560457 g / cm^3
# Si number density = 25.662978 Si / 1000 Ang^3
#
#
#
# Elastic Constant Matrix: (Units=GPa)
#
#
# Indices 1 2 3 4 5 6 
#
# 1 155.7938 67.4563 1.4442 0.0000 12.9635 0.0000
# 2 67.4563 111.5271 38.3466 0.0000 1.0968 0.0000
# 3 1.4442 38.3466 58.2548 0.0000 8.5711 0.0000
# 4 0.0000 0.0000 0.0000 15.6414 0.0000 8.4802
# 5 12.9635 1.0968 8.5711 0.0000 36.4068 0.0000
# 6 0.0000 0.0000 0.0000 8.4802 0.0000 67.0390
#
#
#
# Elastic Compliance Matrix: (Units=1/GPa)
#
#
# Indices 1 2 3 4 5 6 
#
# 1 0.010317 -0.008205 0.005852 0.000000 -0.004804 0.000000
# 2 -0.008205 0.018194 -0.012557 0.000000 0.005330 0.000000
# 3 0.005852 -0.012557 0.026454 0.000000 -0.007933 0.000000
# 4 0.000000 0.000000 0.000000 0.068640 0.000000 -0.008683
# 5 -0.004804 0.005330 -0.007933 0.000000 0.030885 0.000000
# 6 0.000000 0.000000 0.000000 -0.008683 0.000000 0.016015
#
#
# Mechanical properties :
#
#
# Convention : Reuss Voigt Hill
#
# Bulk Modulus (GPa) = 39.76964 60.00777 49.88871
# Shear Modulus (GPa) = 23.95698 38.37270 31.16484
#
# Velocity S-wave (km/s) = 3.05868 3.87105 3.48859
# Velocity P-wave (km/s) = 5.29193 6.58891 5.97571
#
# Compressibility (1/GPa) = 0.02514481
#
# Stress axis : x y z
#
# Youngs Moduli (GPa) = 96.92891 54.96230 37.80140
#
# Poissons Ratio (x) = 0.45096 -0.22121
# Poissons Ratio (y) = 0.79529 0.47468
# Poissons Ratio (z) = -0.56723 0.69018
#
# Static dielectric constant tensor:
#      x y z
#    x 2.018150 0.000000 -0.014860 
#    y 0.000000 2.077900 0.000000 
#    z -0.014860 0.000000 2.048090 
# 
# From -- ./inp_files/1254.got.cif
#   From: 2010.05.17/outbox.cif.g08.bks.cpg/sg4_1_cif.got.tgz:1254.got - 2010.06.03 18:43:04.
