data_PCOD9119931
_publ_section_title
;
Structure prediction by ZEFSAII (Michael W. Deem and Ramdas Pophale) SiO2 
 PCOD9119931
Probable space group: C 2
;
_chemical_formula_sum "Si O2"
_cell_formula_units_Z 20
_cell_length_a 23.538363
_cell_length_b 7.197239
_cell_length_c 5.435681
_cell_angle_alpha 90.000000
_cell_angle_beta 109.080153
_cell_angle_gamma 90.000000
_cell_volume 870.275057
_symmetry_space_group_name_H-M "C 2"
_symmetry_group_IT_number 5
_symmetry_cell_setting 'monoclinic'
loop_
_space_group_symop_operation_xyz
x,y,z
-x,y,-z
1/2+x,1/2+y,z
1/2-x,1/2+y,-z
loop_
_atom_site_type_symbol
_atom_site_label
_atom_site_fract_x
_atom_site_fract_y
_atom_site_fract_z
Si Si1 0.982939 0.421300 0.224978
Si Si2 0.155659 0.337872 0.058353
Si Si3 0.031734 0.998343 0.295012
Si Si4 0.164210 0.972348 0.347467
Si Si5 0.716722 0.813236 0.645589
O O1 0.000000 0.518307 0.500000
O O2 0.022842 0.227394 0.282819
O O3 0.911987 0.388250 0.108756
O O4 0.000000 0.521847 0.000000
O O5 0.153903 0.115773 0.106786
O O6 0.179260 0.403378 0.361540
O O7 0.197854 0.385822 0.886400
O O8 0.099739 0.928673 0.367232
O O9 0.000000 0.940507 0.500000
O O10 0.000000 0.941809 0.000000
O O11 0.196664 0.100193 0.597157
O O12 0.213431 0.829926 0.321832
#
# Coordination Sequence:
#
# PCOD9119931 Si02
#       5
#     4   4   4   4   4
#     4  10  15  27  47  75 102 127 164 227 273 291
#     4  10  20  33  50  79 114 138 175 215 270 324
#     4  10  17  28  50  77 104 127 171 230 271 297
#     4  10  22  35  55  81 113 141 183 216 276 322
#     4  10  22  33  54  74 115 147 177 218 264 326
#
# _framework density 22.981241000000001
#
# number of rings (size 3 to 8) (size 9 to 14) (size 15 to 20)
#    1.200    0.800    4.000    3.600    2.800    0.000 
#    0.000    0.000    0.000    0.000    0.000   16.800 
#    0.000    0.000    0.000    0.000    0.000    0.000 
#
# Total GULP energy -55722.722544 kJ/mol
# GULP energy per Si atom -5572.272254 kJ/mol
# Density = 2.292893 g / cm^3
# Si number density = 22.981241 Si / 1000 Ang^3
#
#
#
# Elastic Constant Matrix: (Units=GPa)
#
#
# Indices 1 2 3 4 5 6 
#
# 1 207.4951 9.7498 80.4435 0.0000 -8.8310 0.0000
# 2 9.7498 35.4905 12.0466 0.0000 0.5329 0.0000
# 3 80.4435 12.0466 161.7300 0.0000 -47.7085 0.0000
# 4 0.0000 0.0000 0.0000 2.7167 0.0000 1.7092
# 5 -8.8310 0.5329 -47.7085 0.0000 40.8369 0.0000
# 6 0.0000 0.0000 0.0000 1.7092 0.0000 14.6531
#
#
#
# Elastic Compliance Matrix: (Units=1/GPa)
#
#
# Indices 1 2 3 4 5 6 
#
# 1 0.006284 -0.000274 -0.004125 0.000000 -0.003457 0.000000
# 2 -0.000274 0.029450 -0.003339 0.000000 -0.004344 0.000000
# 3 -0.004125 -0.003339 0.012563 0.000000 0.013828 0.000000
# 4 0.000000 0.000000 0.000000 0.397240 0.000000 -0.046336
# 5 -0.003457 -0.004344 0.013828 0.000000 0.039952 0.000000
# 6 0.000000 0.000000 0.000000 -0.046336 0.000000 0.073650
#
#
# Mechanical properties :
#
#
# Convention : Reuss Voigt Hill
#
# Bulk Modulus (GPa) = 30.46780 67.68839 49.07809
# Shear Modulus (GPa) = 8.53890 31.80639 20.17264
#
# Velocity S-wave (km/s) = 1.92968 3.72427 2.96596
# Velocity P-wave (km/s) = 4.27216 6.92902 5.75598
#
# Compressibility (1/GPa) = 0.03282153
#
# Stress axis : x y z
#
# Youngs Moduli (GPa) = 159.12423 33.95535 79.60035
#
# Poissons Ratio (x) = 0.00932 0.32835
# Poissons Ratio (y) = 0.04366 0.26576
# Poissons Ratio (z) = 0.65639 0.11336
#
# Static dielectric constant tensor:
#      x y z
#    x 1.817730 0.000000 -0.005860 
#    y 0.000000 1.913870 0.000000 
#    z -0.005860 0.000000 1.896170 
# 
# From -- ./inp_files/6571.got.cif
#   From: 2010.05.17/outbox.cif.g08.bks.cpg/sg5_4_cif.got.tgz:6571.got - 2010.06.03 18:56:24.
