data_PCOD9119316
_publ_section_title
;
Structure prediction by ZEFSAII (Michael W. Deem and Ramdas Pophale) SiO2 
 PCOD9119316
Probable space group: P 21
;
_chemical_formula_sum "Si O2"
_cell_formula_units_Z 14
_cell_length_a 7.997368
_cell_length_b 12.438618
_cell_length_c 8.316882
_cell_angle_alpha 90.000000
_cell_angle_beta 49.415644
_cell_angle_gamma 90.000000
_cell_volume 628.316328
_symmetry_space_group_name_H-M "P 21"
_symmetry_group_IT_number 4
_symmetry_cell_setting 'monoclinic'
loop_
_space_group_symop_operation_xyz
x,y,z
-x,1/2+y,-z
loop_
_atom_site_type_symbol
_atom_site_label
_atom_site_fract_x
_atom_site_fract_y
_atom_site_fract_z
Si Si1 0.184156 0.228910 0.956442
Si Si2 0.273922 0.622718 0.785776
Si Si3 0.617943 0.980204 0.569220
Si Si4 0.637408 0.528931 0.002797
Si Si5 0.979723 0.556414 0.515352
Si Si6 0.724849 0.737154 0.482533
Si Si7 0.195969 0.459783 0.103964
O O1 0.192063 0.351126 0.007410
O O2 0.940373 0.182944 0.145777
O O3 0.347580 0.155288 0.960884
O O4 0.235564 0.219157 0.733593
O O5 0.376717 0.528458 0.610745
O O6 0.477156 0.701737 0.683185
O O7 0.186288 0.563531 0.997589
O O8 0.732474 0.864637 0.505568
O O9 0.381951 0.977570 0.806158
O O10 0.773847 0.064214 0.568608
O O11 0.430264 0.475455 0.044702
O O12 0.834566 0.515010 0.754488
O O13 0.882218 0.664380 0.496335
O O14 0.004281 0.470644 0.355762
#
# Coordination Sequence:
#
# PCOD9119316 Si02
#       7
#     2   2   2   2   2   2   2
#     4  12  26  46  73 104 138 185 234 283 347 409
#     4  12  24  44  72 106 140 178 236 286 340 416
#     4  11  26  45  69 105 142 183 225 287 352 404
#     4  11  25  46  69 102 145 176 231 285 341 418
#     4  11  25  46  69 102 145 176 231 285 341 418
#     4  12  26  46  73 104 138 185 234 283 347 409
#     4  11  26  45  69 105 142 183 225 287 352 404
#
# _framework density 22.281768
#
# number of rings (size 3 to 8) (size 9 to 14) (size 15 to 20)
#    0.000    0.571    7.143    0.000    4.000    4.571 
#    5.143    0.000    0.000    0.000    0.000    0.000 
#    0.000    0.000    0.000    0.000    0.000    0.000 
#
# Total GULP energy -78123.236825 kJ/mol
# GULP energy per Si atom -5580.231202 kJ/mol
# Density = 2.223105 g / cm^3
# Si number density = 22.281768 Si / 1000 Ang^3
#
#
#
# Elastic Constant Matrix: (Units=GPa)
#
#
# Indices 1 2 3 4 5 6 
#
# 1 36.1687 23.5395 19.2034 0.0000 -4.4171 0.0000
# 2 23.5395 82.8717 32.1414 0.0000 -14.0259 0.0000
# 3 19.2034 32.1414 165.4882 0.0000 2.9563 0.0000
# 4 0.0000 0.0000 0.0000 28.8620 0.0000 9.6114
# 5 -4.4171 -14.0259 2.9563 0.0000 23.9829 0.0000
# 6 0.0000 0.0000 0.0000 9.6114 0.0000 31.9761
#
#
#
# Elastic Compliance Matrix: (Units=1/GPa)
#
#
# Indices 1 2 3 4 5 6 
#
# 1 0.034755 -0.008676 -0.002377 0.000000 0.001620 0.000000
# 2 -0.008676 0.016932 -0.002436 0.000000 0.008605 0.000000
# 3 -0.002377 -0.002436 0.006840 0.000000 -0.002705 0.000000
# 4 0.000000 0.000000 0.000000 0.038502 0.000000 -0.011573
# 5 0.001620 0.008605 -0.002705 0.000000 0.047361 0.000000
# 6 0.000000 0.000000 0.000000 -0.011573 0.000000 0.034752
#
#
# Mechanical properties :
#
#
# Convention : Reuss Voigt Hill
#
# Bulk Modulus (GPa) = 31.69570 48.25524 39.97547
# Shear Modulus (GPa) = 23.08041 30.94048 27.01044
#
# Velocity S-wave (km/s) = 3.22194 3.73044 3.48547
# Velocity P-wave (km/s) = 5.30066 6.34498 5.84618
#
# Compressibility (1/GPa) = 0.03155002
#
# Stress axis : x y z
#
# Youngs Moduli (GPa) = 28.77320 59.05916 146.20091
#
# Poissons Ratio (x) = 0.51239 0.34750
# Poissons Ratio (y) = 0.24963 0.35608
# Poissons Ratio (z) = 0.06839 0.14384
#
# Static dielectric constant tensor:
#      x y z
#    x 1.853890 0.000000 0.029100 
#    y 0.000000 1.775230 0.000000 
#    z 0.029100 0.000000 1.906560 
# 
# From -- ./inp_files/5997.got.cif
#   From: 2010.05.17/outbox.cif.g08.bks.cpg/sg4_3_cif.got.tgz:5997.got - 2010.06.03 18:43:04.
