data_PCOD9119195
_publ_section_title
;
Structure prediction by ZEFSAII (Michael W. Deem and Ramdas Pophale) SiO2 
 PCOD9119195
Probable space group: P 21
;
_chemical_formula_sum "Si O2"
_cell_formula_units_Z 16
_cell_length_a 6.552125
_cell_length_b 8.605735
_cell_length_c 16.846273
_cell_angle_alpha 90.000000
_cell_angle_beta 132.431300
_cell_angle_gamma 90.000000
_cell_volume 701.102402
_symmetry_space_group_name_H-M "P 21"
_symmetry_group_IT_number 4
_symmetry_cell_setting 'monoclinic'
loop_
_space_group_symop_operation_xyz
x,y,z
-x,1/2+y,-z
loop_
_atom_site_type_symbol
_atom_site_label
_atom_site_fract_x
_atom_site_fract_y
_atom_site_fract_z
Si Si1 0.739836 0.645940 0.757957
Si Si2 0.866147 0.418306 0.644303
Si Si3 0.870082 0.359312 0.212773
Si Si4 0.116803 0.611689 0.568547
Si Si5 0.184939 0.915435 0.073478
Si Si6 0.668884 0.712458 0.970684
Si Si7 0.318009 0.209395 0.841686
Si Si8 0.232844 0.377289 0.465687
O O1 0.815614 0.550867 0.697599
O O2 0.414678 0.682786 0.669308
O O3 0.799602 0.528146 0.845563
O O4 0.928917 0.798993 0.804672
O O5 0.559801 0.366860 0.537930
O O6 0.033328 0.487088 0.614001
O O7 0.042838 0.285063 0.732861
O O8 0.622777 0.234900 0.148955
O O9 0.720721 0.524915 0.168112
O O10 0.061407 0.366063 0.340315
O O11 0.156618 0.531479 0.494298
O O12 0.874488 0.736816 0.507747
O O13 0.236575 0.035790 0.016053
O O14 0.423615 0.784632 0.136585
O O15 0.896460 0.827348 0.994938
O O16 0.642575 0.753850 0.055997
#
# Coordination Sequence:
#
# PCOD9119195 Si02
#       8
#     2   2   2   2   2   2   2   2
#     4  11  24  47  74 102 149 203 250 314 379 449
#     4  11  24  47  74 105 149 200 247 315 380 449
#     4  12  28  47  75 112 154 194 260 317 381 456
#     4  11  25  47  72 108 150 200 252 305 385 452
#     4  12  26  48  76 108 152 203 257 309 393 454
#     4  12  28  48  75 110 153 201 256 317 386 457
#     4  12  27  48  74 110 150 200 253 325 377 464
#     4  11  28  44  74 109 149 199 249 314 381 457
#
# _framework density 22.821203000000001
#
# number of rings (size 3 to 8) (size 9 to 14) (size 15 to 20)
#    0.000    0.500    3.750    3.000   10.500    0.000 
#    4.500    0.000    0.000    0.000    0.000    0.000 
#    0.000    0.000    0.000    0.000    0.000    0.000 
#
# Total GULP energy -89615.642986 kJ/mol
# GULP energy per Si atom -5600.977687 kJ/mol
# Density = 2.276926 g / cm^3
# Si number density = 22.821203 Si / 1000 Ang^3
#
#
#
# Elastic Constant Matrix: (Units=GPa)
#
#
# Indices 1 2 3 4 5 6 
#
# 1 112.4009 37.8039 56.5618 0.0000 15.4373 0.0000
# 2 37.8039 89.8455 20.5311 0.0000 11.8793 0.0000
# 3 56.5618 20.5311 120.7968 0.0000 18.9305 0.0000
# 4 0.0000 0.0000 0.0000 34.9116 0.0000 5.0947
# 5 15.4373 11.8793 18.9305 0.0000 43.9226 0.0000
# 6 0.0000 0.0000 0.0000 5.0947 0.0000 53.0977
#
#
#
# Elastic Compliance Matrix: (Units=1/GPa)
#
#
# Indices 1 2 3 4 5 6 
#
# 1 0.013095 -0.004152 -0.005234 0.000000 -0.001224 0.000000
# 2 -0.004152 0.013147 0.000041 0.000000 -0.002114 0.000000
# 3 -0.005234 0.000041 0.011192 0.000000 -0.002995 0.000000
# 4 0.000000 0.000000 0.000000 0.029051 0.000000 -0.002787
# 5 -0.001224 -0.002114 -0.002995 0.000000 0.025060 0.000000
# 6 0.000000 0.000000 0.000000 -0.002787 0.000000 0.019101
#
#
# Mechanical properties :
#
#
# Convention : Reuss Voigt Hill
#
# Bulk Modulus (GPa) = 53.35203 61.42633 57.38918
# Shear Modulus (GPa) = 36.87745 40.26281 38.57013
#
# Velocity S-wave (km/s) = 4.02422 4.20488 4.11554
# Velocity P-wave (km/s) = 6.70981 7.10981 6.91271
#
# Compressibility (1/GPa) = 0.01874343
#
# Stress axis : x y z
#
# Youngs Moduli (GPa) = 76.36388 76.06024 89.35252
#
# Poissons Ratio (x) = 0.31581 0.46769
# Poissons Ratio (y) = 0.31707 -0.00366
# Poissons Ratio (z) = 0.39970 -0.00311
#
# Static dielectric constant tensor:
#      x y z
#    x 1.848090 0.000000 -0.024050 
#    y 0.000000 1.866290 0.000000 
#    z -0.024050 0.000000 1.811720 
# 
# From -- ./inp_files/2578.got.cif
#   From: 2010.05.17/outbox.cif.g08.bks.cpg/sg4_2_cif.got.tgz:2578.got - 2010.06.03 18:43:04.
