data_PCOD9119718
_publ_section_title
;
Structure prediction by ZEFSAII (Michael W. Deem and Ramdas Pophale) SiO2 
 PCOD9119718
Probable space group: P 21
;
_chemical_formula_sum "Si O2"
_cell_formula_units_Z 16
_cell_length_a 6.218338
_cell_length_b 18.399674
_cell_length_c 6.218330
_cell_angle_alpha 90.000000
_cell_angle_beta 72.204257
_cell_angle_gamma 90.000000
_cell_volume 677.430194
_symmetry_space_group_name_H-M "P 21"
_symmetry_group_IT_number 4
_symmetry_cell_setting 'monoclinic'
loop_
_space_group_symop_operation_xyz
x,y,z
-x,1/2+y,-z
loop_
_atom_site_type_symbol
_atom_site_label
_atom_site_fract_x
_atom_site_fract_y
_atom_site_fract_z
Si Si1 0.585720 0.283780 0.163895
Si Si2 0.474013 0.915610 0.139200
Si Si3 0.163896 0.237770 0.585720
Si Si4 0.139199 0.605940 0.474016
Si Si5 0.183174 0.047699 0.086530
Si Si6 0.086532 0.473851 0.183174
Si Si7 0.839253 0.340257 0.465784
Si Si8 0.465785 0.181293 0.839251
O O1 0.357085 0.260775 0.357084
O O2 0.783706 0.290108 0.278187
O O3 0.562328 0.361813 0.053320
O O4 0.610700 0.224305 0.970096
O O5 0.397333 0.870588 0.370627
O O6 0.309006 0.985075 0.180879
O O7 0.726587 0.944743 0.040282
O O8 0.278188 0.231441 0.783706
O O9 0.053319 0.159737 0.562328
O O10 0.970097 0.297244 0.610699
O O11 0.180877 0.536475 0.309013
O O12 0.370626 0.650962 0.397335
O O13 0.040281 0.576808 0.726592
O O14 0.344814 0.114983 0.992915
O O15 0.115200 0.010775 0.884798
O O16 0.992918 0.406565 0.344809
#
# Coordination Sequence:
#
# PCOD9119718 Si02
#       8
#     2   2   2   2   2   2   2   2
#     4  12  26  49  78 113 155 203 255 315 383 462
#     4  12  26  48  78 111 148 203 258 317 381 459
#     4  12  26  49  78 113 155 203 255 315 383 462
#     4  12  26  48  78 111 148 203 258 317 381 459
#     4  12  26  47  78 111 151 201 262 315 383 453
#     4  12  26  47  78 111 151 201 262 315 383 453
#     4  12  28  50  79 115 154 203 256 320 381 458
#     4  12  28  50  79 115 154 203 256 320 381 458
#
# _framework density 23.618672
#
# number of rings (size 3 to 8) (size 9 to 14) (size 15 to 20)
#    0.000    0.000    7.500    2.250    0.000    9.000 
#    4.500    0.000    0.000    0.000    0.000    0.000 
#    0.000    0.000    0.000    0.000    0.000    0.000 
#
# Total GULP energy -89650.829038 kJ/mol
# GULP energy per Si atom -5603.176815 kJ/mol
# Density = 2.356492 g / cm^3
# Si number density = 23.618672 Si / 1000 Ang^3
#
#
#
# Elastic Constant Matrix: (Units=GPa)
#
#
# Indices 1 2 3 4 5 6 
#
# 1 69.3254 47.1704 23.7305 0.0000 -3.5219 0.0000
# 2 47.1704 132.9107 46.3072 0.0000 2.4461 0.0000
# 3 23.7305 46.3072 74.4838 0.0000 -11.1067 0.0000
# 4 0.0000 0.0000 0.0000 39.5263 0.0000 -4.3651
# 5 -3.5219 2.4461 -11.1067 0.0000 44.9262 0.0000
# 6 0.0000 0.0000 0.0000 -4.3651 0.0000 37.9873
#
#
#
# Elastic Compliance Matrix: (Units=1/GPa)
#
#
# Indices 1 2 3 4 5 6 
#
# 1 0.019427 -0.006167 -0.002157 0.000000 0.001325 0.000000
# 2 -0.006167 0.011752 -0.005720 0.000000 -0.002537 0.000000
# 3 -0.002157 -0.005720 0.018368 0.000000 0.004683 0.000000
# 4 0.000000 0.000000 0.000000 0.025625 0.000000 0.002944
# 5 0.001325 -0.002537 0.004683 0.000000 0.023659 0.000000
# 6 0.000000 0.000000 0.000000 0.002944 0.000000 0.026663
#
#
# Mechanical properties :
#
#
# Convention : Reuss Voigt Hill
#
# Bulk Modulus (GPa) = 46.60437 56.79289 51.69863
# Shear Modulus (GPa) = 31.10712 35.12210 33.11461
#
# Velocity S-wave (km/s) = 3.63306 3.86041 3.74846
# Velocity P-wave (km/s) = 6.11340 6.63086 6.37738
#
# Compressibility (1/GPa) = 0.02145722
#
# Stress axis : x y z
#
# Youngs Moduli (GPa) = 51.47478 85.09022 54.44391
#
# Poissons Ratio (x) = 0.52479 0.11746
# Poissons Ratio (y) = 0.31747 0.31141
# Poissons Ratio (z) = 0.11106 0.48671
#
# Static dielectric constant tensor:
#      x y z
#    x 1.863450 0.000000 -0.009160 
#    y 0.000000 1.867030 0.000000 
#    z -0.009160 0.000000 1.866680 
# 
# From -- ./inp_files/480.got.cif
#   From: 2010.05.17/outbox.cif.g08.bks.cpg/sg4_1_cif.got.tgz:480.got - 2010.06.03 18:43:04.
