data_PCOD9119154
_publ_section_title
;
Structure prediction by ZEFSAII (Michael W. Deem and Ramdas Pophale) SiO2 
 PCOD9119154
Probable space group: P 21
;
_chemical_formula_sum "Si O2"
_cell_formula_units_Z 16
_cell_length_a 10.067275
_cell_length_b 12.006300
_cell_length_c 9.612706
_cell_angle_alpha 90.000000
_cell_angle_beta 142.097889
_cell_angle_gamma 90.000000
_cell_volume 713.768517
_symmetry_space_group_name_H-M "P 21"
_symmetry_group_IT_number 4
_symmetry_cell_setting 'monoclinic'
loop_
_space_group_symop_operation_xyz
x,y,z
-x,1/2+y,-z
loop_
_atom_site_type_symbol
_atom_site_label
_atom_site_fract_x
_atom_site_fract_y
_atom_site_fract_z
Si Si1 0.142304 0.919950 0.898832
Si Si2 0.559049 0.659255 0.407754
Si Si3 0.867542 0.291485 0.844140
Si Si4 0.738485 0.642778 0.851449
Si Si5 0.610272 0.221077 0.240020
Si Si6 0.420534 0.306368 0.829879
Si Si7 0.257914 0.944710 0.519008
Si Si8 0.897273 0.009292 0.424724
O O1 0.005057 0.969384 0.659064
O O2 0.036710 0.850001 0.937494
O O3 0.334471 0.844756 0.997510
O O4 0.246986 0.022688 0.067970
O O5 0.335238 0.714874 0.275028
O O6 0.717653 0.642850 0.668803
O O7 0.652848 0.741727 0.368418
O O8 0.548206 0.533869 0.337311
O O9 0.797381 0.383754 0.672535
O O10 0.053722 0.214397 0.934598
O O11 0.517948 0.693382 0.726651
O O12 0.695159 0.344842 0.335370
O O13 0.789383 0.129373 0.356725
O O14 0.436013 0.222973 0.971834
O O15 0.281949 0.414347 0.750151
O O16 0.060301 0.008902 0.429483
#
# Coordination Sequence:
#
# PCOD9119154 Si02
#       8
#     2   2   2   2   2   2   2   2
#     4  11  24  46  70 104 142 189 242 288 370 429
#     4  11  27  46  74 105 151 182 250 302 362 429
#     4  11  25  48  73 106 144 194 241 298 372 429
#     4  12  24  46  73 103 144 193 240 296 358 434
#     4  12  27  47  75 108 146 193 246 300 367 434
#     4  11  26  49  73 105 145 194 239 304 363 434
#     4  12  26  47  74 112 145 193 245 300 369 437
#     4  12  27  47  76 103 151 192 243 308 361 438
#
# _framework density 22.416231
#
# number of rings (size 3 to 8) (size 9 to 14) (size 15 to 20)
#    0.000    0.500    5.000    2.250    5.250    3.000 
#    0.000    0.000    0.000    0.000    0.000    0.000 
#    0.000    0.000    0.000    0.000    0.000    0.000 
#
# Total GULP energy -89465.965764 kJ/mol
# GULP energy per Si atom -5591.622860 kJ/mol
# Density = 2.236521 g / cm^3
# Si number density = 22.416231 Si / 1000 Ang^3
#
#
#
# Elastic Constant Matrix: (Units=GPa)
#
#
# Indices 1 2 3 4 5 6 
#
# 1 102.7497 44.0430 17.9815 0.0000 -11.1966 0.0000
# 2 44.0430 109.4018 12.6207 0.0000 -2.9258 0.0000
# 3 17.9815 12.6207 49.4775 0.0000 -27.0006 0.0000
# 4 0.0000 0.0000 0.0000 39.6128 0.0000 15.4820
# 5 -11.1966 -2.9258 -27.0006 0.0000 35.4389 0.0000
# 6 0.0000 0.0000 0.0000 15.4820 0.0000 8.9576
#
#
#
# Elastic Compliance Matrix: (Units=1/GPa)
#
#
# Indices 1 2 3 4 5 6 
#
# 1 0.012322 -0.004643 -0.002360 0.000000 0.001712 0.000000
# 2 -0.004643 0.011235 -0.002521 0.000000 -0.002460 0.000000
# 3 -0.002360 -0.002521 0.036273 0.000000 0.026682 0.000000
# 4 0.000000 0.000000 0.000000 0.077795 0.000000 -0.134458
# 5 0.001712 -0.002460 0.026682 0.000000 0.048884 0.000000
# 6 0.000000 0.000000 0.000000 -0.134458 0.000000 0.344029
#
#
# Mechanical properties :
#
#
# Convention : Reuss Voigt Hill
#
# Bulk Modulus (GPa) = 24.52008 45.65771 35.08890
# Shear Modulus (GPa) = 8.87818 29.26744 19.07281
#
# Velocity S-wave (km/s) = 1.99229 3.61728 2.92009
# Velocity P-wave (km/s) = 4.03169 6.15294 5.20160
#
# Compressibility (1/GPa) = 0.04078290
#
# Stress axis : x y z
#
# Youngs Moduli (GPa) = 81.15642 89.01038 27.56892
#
# Poissons Ratio (x) = 0.41324 0.06505
# Poissons Ratio (y) = 0.37677 0.06950
# Poissons Ratio (z) = 0.19151 0.22439
#
# Static dielectric constant tensor:
#      x y z
#    x 1.828260 0.000000 -0.001400 
#    y 0.000000 1.825520 0.000000 
#    z -0.001400 0.000000 1.851860 
# 
# From -- ./inp_files/1388.got.cif
#   From: 2010.05.17/outbox.cif.g08.bks.cpg/sg4_1_cif.got.tgz:1388.got - 2010.06.03 18:43:04.
