data_PCOD9119017
_publ_section_title
;
Structure prediction by ZEFSAII (Michael W. Deem and Ramdas Pophale) SiO2 
 PCOD9119017
Probable space group: P 21
;
_chemical_formula_sum "Si O2"
_cell_formula_units_Z 14
_cell_length_a 8.834895
_cell_length_b 13.784304
_cell_length_c 5.940241
_cell_angle_alpha 90.000000
_cell_angle_beta 53.312394
_cell_angle_gamma 90.000000
_cell_volume 580.113761
_symmetry_space_group_name_H-M "P 21"
_symmetry_group_IT_number 4
_symmetry_cell_setting 'monoclinic'
loop_
_space_group_symop_operation_xyz
x,y,z
-x,1/2+y,-z
loop_
_atom_site_type_symbol
_atom_site_label
_atom_site_fract_x
_atom_site_fract_y
_atom_site_fract_z
Si Si1 0.147203 0.016210 0.164786
Si Si2 0.624408 0.849573 0.175128
Si Si3 0.753433 0.003411 0.705243
Si Si4 0.048145 0.218465 0.176287
Si Si5 0.471991 0.029639 0.580543
Si Si6 0.737811 0.162077 0.090257
Si Si7 0.259594 0.822273 0.265266
O O1 0.148508 0.130254 0.218741
O O2 0.249834 0.937401 0.230576
O O3 0.928135 0.987053 0.381756
O O4 0.252470 0.013923 0.829863
O O5 0.562435 0.931142 0.405055
O O6 0.434308 0.796252 0.269312
O O7 0.696942 0.907640 0.890043
O O8 0.792403 0.779113 0.093819
O O9 0.575971 0.044227 0.726324
O O10 0.806349 0.084718 0.842188
O O11 0.895511 0.172895 0.141771
O O12 0.929843 0.285777 0.448481
O O13 0.544250 0.116185 0.358640
O O14 0.714371 0.265289 0.990911
#
# Coordination Sequence:
#
# PCOD9119017 Si02
#       7
#     2   2   2   2   2   2   2
#     4  12  26  47  74 107 151 193 241 308 374 430
#     4  11  28  46  78 105 149 197 243 306 365 440
#     4  11  23  51  69 107 146 192 242 300 367 433
#     4  12  28  45  75 111 147 195 251 305 373 440
#     4  11  26  48  73 110 148 191 246 302 368 443
#     4  11  26  48  73 103 151 190 244 309 359 447
#     4  12  27  47  74 111 150 192 253 308 368 441
#
# _framework density 24.133198
#
# number of rings (size 3 to 8) (size 9 to 14) (size 15 to 20)
#    0.000    0.571    5.714    0.000    8.000    1.143 
#    2.571    0.000    0.000    0.000    0.000    0.000 
#    0.000    0.000    0.000    0.000    0.000    0.000 
#
# Total GULP energy -78349.094853 kJ/mol
# GULP energy per Si atom -5596.363918 kJ/mol
# Density = 2.407827 g / cm^3
# Si number density = 24.133198 Si / 1000 Ang^3
#
#
#
# Elastic Constant Matrix: (Units=GPa)
#
#
# Indices 1 2 3 4 5 6 
#
# 1 45.9557 32.0991 27.6667 0.0000 -1.2944 0.0000
# 2 32.0991 98.2526 55.7371 0.0000 -13.8238 0.0000
# 3 27.6667 55.7371 149.4777 0.0000 -33.5188 0.0000
# 4 0.0000 0.0000 0.0000 43.6532 0.0000 1.5529
# 5 -1.2944 -13.8238 -33.5188 0.0000 36.5906 0.0000
# 6 0.0000 0.0000 0.0000 1.5529 0.0000 34.5232
#
#
#
# Elastic Compliance Matrix: (Units=1/GPa)
#
#
# Indices 1 2 3 4 5 6 
#
# 1 0.029630 -0.008423 -0.003551 0.000000 -0.005387 0.000000
# 2 -0.008423 0.015313 -0.003675 0.000000 0.002120 0.000000
# 3 -0.003551 -0.003675 0.010544 0.000000 0.008145 0.000000
# 4 0.000000 0.000000 0.000000 0.022945 0.000000 -0.001032
# 5 -0.005387 0.002120 0.008145 0.000000 0.035401 0.000000
# 6 0.000000 0.000000 0.000000 -0.001032 0.000000 0.029012
#
#
# Mechanical properties :
#
#
# Convention : Reuss Voigt Hill
#
# Bulk Modulus (GPa) = 41.34475 58.29911 49.82193
# Shear Modulus (GPa) = 27.44123 34.83229 31.13676
#
# Velocity S-wave (km/s) = 3.37571 3.80325 3.59584
# Velocity P-wave (km/s) = 5.68885 6.59514 6.15869
#
# Compressibility (1/GPa) = 0.02418687
#
# Stress axis : x y z
#
# Youngs Moduli (GPa) = 33.74965 65.30351 94.83973
#
# Poissons Ratio (x) = 0.55008 0.33680
# Poissons Ratio (y) = 0.28429 0.34857
# Poissons Ratio (z) = 0.11985 0.24001
#
# Static dielectric constant tensor:
#      x y z
#    x 1.898090 0.000000 0.005760 
#    y 0.000000 1.926910 0.000000 
#    z 0.005760 0.000000 1.940980 
# 
# From -- ./inp_files/1694.got.cif
#   From: 2010.05.17/outbox.cif.g08.bks.cpg/sg4_1_cif.got.tgz:1694.got - 2010.06.03 18:43:04.
