data_PCOD9119903
_publ_section_title
;
Structure prediction by ZEFSAII (Michael W. Deem and Ramdas Pophale) SiO2 
 PCOD9119903
Probable space group: P 21
;
_chemical_formula_sum "Si O2"
_cell_formula_units_Z 14
_cell_length_a 9.000000
_cell_length_b 9.000000
_cell_length_c 12.000000
_cell_angle_alpha 90.000000
_cell_angle_beta 40.000000
_cell_angle_gamma 90.000000
_cell_volume 624.789557
_symmetry_space_group_name_H-M "P 21"
_symmetry_group_IT_number 4
_symmetry_cell_setting 'monoclinic'
loop_
_space_group_symop_operation_xyz
x,y,z
-x,1/2+y,-z
loop_
_atom_site_type_symbol
_atom_site_label
_atom_site_fract_x
_atom_site_fract_y
_atom_site_fract_z
Si Si1 0.867213 0.074690 0.425195
Si Si2 0.234439 0.667074 0.749352
Si Si3 0.734702 0.738787 0.511995
Si Si4 0.537820 0.269307 0.763905
Si Si5 0.373451 0.076387 0.222949
Si Si6 0.786588 0.202352 0.855449
Si Si7 0.946705 0.842117 0.077162
O O1 0.857258 0.174581 0.322020
O O2 0.713004 0.154558 0.606769
O O3 0.137825 0.051653 0.292556
O O4 0.762448 0.911347 0.466103
O O5 0.511575 0.671038 0.580808
O O6 0.134004 0.512716 0.858993
O O7 0.143513 0.804953 0.873729
O O8 0.672198 0.723420 0.678316
O O9 0.980265 0.660043 0.345848
O O10 0.607868 0.439643 0.702927
O O11 0.604134 0.258760 0.861054
O O12 0.282898 0.260121 0.848848
O O13 0.613755 0.090572 0.018845
O O14 0.921146 0.289400 0.882713
#
# Coordination Sequence:
#
# PCOD9119903 Si02
#       7
#     2   2   2   2   2   2   2
#     4  12  26  49  78 112 154 201 265 321 393 463
#     4  12  27  49  74 111 158 206 253 323 387 457
#     4  12  25  49  77 108 156 202 254 327 381 459
#     4  12  26  47  76 113 151 203 260 306 395 463
#     4  12  24  51  73 115 154 200 261 320 384 468
#     4  12  25  48  79 109 157 199 253 326 376 453
#     4  12  25  49  73 114 156 195 262 309 382 463
#
# _framework density 22.407544999999999
#
# number of rings (size 3 to 8) (size 9 to 14) (size 15 to 20)
#    0.000    0.000    7.143    1.714    2.000    1.143 
#   10.286    0.000    0.000    0.000    0.000    0.000 
#    0.000    0.000    0.000    0.000    0.000    0.000 
#
# Total GULP energy -77979.953003 kJ/mol
# GULP energy per Si atom -5569.996643 kJ/mol
# Density = 2.235654 g / cm^3
# Si number density = 22.407545 Si / 1000 Ang^3
#
#
#
# Elastic Constant Matrix: (Units=GPa)
#
#
# Indices 1 2 3 4 5 6 
#
# 1 105.3093 -10.1751 -3.5861 0.0000 -7.7632 0.0000
# 2 -10.1751 53.1241 21.3860 0.0000 -4.8892 0.0000
# 3 -3.5861 21.3860 90.4502 0.0000 -20.9309 0.0000
# 4 0.0000 0.0000 0.0000 29.0659 0.0000 -6.2479
# 5 -7.7632 -4.8892 -20.9309 0.0000 52.1405 0.0000
# 6 0.0000 0.0000 0.0000 -6.2479 0.0000 30.7893
#
#
#
# Elastic Compliance Matrix: (Units=1/GPa)
#
#
# Indices 1 2 3 4 5 6 
#
# 1 0.009823 0.001904 0.000352 0.000000 0.001782 0.000000
# 2 0.001904 0.021173 -0.004857 0.000000 0.000319 0.000000
# 3 0.000352 -0.004857 0.013366 0.000000 0.004963 0.000000
# 4 0.000000 0.000000 0.000000 0.035974 0.000000 0.007300
# 5 0.001782 0.000319 0.004963 0.000000 0.021466 0.000000
# 6 0.000000 0.000000 0.000000 0.007300 0.000000 0.033960
#
#
# Mechanical properties :
#
#
# Convention : Reuss Voigt Hill
#
# Bulk Modulus (GPa) = 25.53598 29.34812 27.44205
# Shear Modulus (GPa) = 32.46357 38.48307 35.47332
#
# Velocity S-wave (km/s) = 3.81041 4.14867 3.98313
# Velocity P-wave (km/s) = 5.54796 6.00620 5.78162
#
# Compressibility (1/GPa) = 0.03916042
#
# Stress axis : x y z
#
# Youngs Moduli (GPa) = 101.80025 47.22982 74.81392
#
# Poissons Ratio (x) = -0.08992 -0.02632
# Poissons Ratio (y) = -0.19382 0.36336
# Poissons Ratio (z) = -0.03581 0.22939
#
# Static dielectric constant tensor:
#      x y z
#    x 1.930120 0.000000 0.023230 
#    y 0.000000 1.830900 0.000000 
#    z 0.023230 0.000000 1.839000 
# 
# From -- ./inp_files/7462.got.cif
#   From: 2010.05.17/outbox.ucp.g08.bks.cvg/sg4_4_cif.got.tgz:7462.got - 2010.06.11 12:51:24.
