data_PCOD9119436
_publ_section_title
;
Structure prediction by ZEFSAII (Michael W. Deem and Ramdas Pophale) SiO2 
 PCOD9119436
Probable space group: P 21
;
_chemical_formula_sum "Si O2"
_cell_formula_units_Z 16
_cell_length_a 9.132503
_cell_length_b 11.745468
_cell_length_c 5.986422
_cell_angle_alpha 90.000000
_cell_angle_beta 80.094065
_cell_angle_gamma 90.000000
_cell_volume 632.563392
_symmetry_space_group_name_H-M "P 21"
_symmetry_group_IT_number 4
_symmetry_cell_setting 'monoclinic'
loop_
_space_group_symop_operation_xyz
x,y,z
-x,1/2+y,-z
loop_
_atom_site_type_symbol
_atom_site_label
_atom_site_fract_x
_atom_site_fract_y
_atom_site_fract_z
Si Si1 0.010654 0.263240 0.605699
Si Si2 0.745124 0.137565 0.480932
Si Si3 0.763847 0.624013 0.720436
Si Si4 0.618721 0.827652 0.016348
Si Si5 0.132028 0.452204 0.298186
Si Si6 0.670652 0.322889 0.173559
Si Si7 0.953115 0.456348 0.942113
Si Si8 0.497360 0.978812 0.431368
O O1 0.153398 0.183760 0.514544
O O2 0.026204 0.348794 0.391218
O O3 0.842109 0.214777 0.628275
O O4 0.027162 0.342624 0.817188
O O5 0.736332 0.206439 0.254800
O O6 0.840566 0.024198 0.488675
O O7 0.580825 0.082137 0.540869
O O8 0.703992 0.710530 0.928247
O O9 0.894339 0.549980 0.789389
O O10 0.628352 0.544289 0.678870
O O11 0.708120 0.910786 0.825954
O O12 0.448747 0.805054 0.989662
O O13 0.605697 0.901302 0.246778
O O14 0.053305 0.510062 0.109275
O O15 0.580066 0.385946 0.392954
O O16 0.799773 0.407539 0.077274
#
# Coordination Sequence:
#
# PCOD9119436 Si02
#       8
#     2   2   2   2   2   2   2   2
#     4  11  27  50  74 115 150 201 266 325 388 466
#     4  12  26  48  78 109 159 203 254 331 395 449
#     4  11  26  51  80 114 152 213 255 320 406 451
#     4  11  26  47  73 113 158 202 267 314 391 475
#     4  11  27  49  73 116 154 202 267 320 394 469
#     4  12  26  49  72 116 155 209 262 322 385 475
#     4  12  27  52  78 113 164 202 265 331 388 486
#     4  12  27  48  78 114 158 198 270 325 379 475
#
# _framework density 25.293906
#
# number of rings (size 3 to 8) (size 9 to 14) (size 15 to 20)
#    0.000    0.500    5.000    1.500    5.250    5.000 
#    0.000    0.000    0.000    0.000    0.000    0.000 
#    0.000    0.000    0.000    0.000    0.000    0.000 
#
# Total GULP energy -89344.377544 kJ/mol
# GULP energy per Si atom -5584.023596 kJ/mol
# Density = 2.523634 g / cm^3
# Si number density = 25.293906 Si / 1000 Ang^3
#
#
#
# Elastic Constant Matrix: (Units=GPa)
#
#
# Indices 1 2 3 4 5 6 
#
# 1 127.1116 35.6531 30.6223 0.0000 6.5851 0.0000
# 2 35.6531 70.9567 33.1440 0.0000 -6.3525 0.0000
# 3 30.6223 33.1440 68.5966 0.0000 -23.6837 0.0000
# 4 0.0000 0.0000 0.0000 38.0018 0.0000 5.3735
# 5 6.5851 -6.3525 -23.6837 0.0000 46.7245 0.0000
# 6 0.0000 0.0000 0.0000 5.3735 0.0000 38.0299
#
#
#
# Elastic Compliance Matrix: (Units=1/GPa)
#
#
# Indices 1 2 3 4 5 6 
#
# 1 0.010057 -0.003445 -0.004213 0.000000 -0.004021 0.000000
# 2 -0.003445 0.019607 -0.008300 0.000000 -0.001056 0.000000
# 3 -0.004213 -0.008300 0.024588 0.000000 0.011928 0.000000
# 4 0.000000 0.000000 0.000000 0.026851 0.000000 -0.003794
# 5 -0.004021 -0.001056 0.011928 0.000000 0.027872 0.000000
# 6 0.000000 0.000000 0.000000 -0.003794 0.000000 0.026831
#
#
# Mechanical properties :
#
#
# Convention : Reuss Voigt Hill
#
# Bulk Modulus (GPa) = 44.77461 51.72264 48.24862
# Shear Modulus (GPa) = 28.54435 35.70094 32.12264
#
# Velocity S-wave (km/s) = 3.36297 3.76099 3.56754
# Velocity P-wave (km/s) = 5.72884 6.27321 6.00719
#
# Compressibility (1/GPa) = 0.02233409
#
# Stress axis : x y z
#
# Youngs Moduli (GPa) = 99.43555 51.00338 40.67097
#
# Poissons Ratio (x) = 0.17571 0.17136
# Poissons Ratio (y) = 0.34257 0.33757
# Poissons Ratio (z) = 0.41895 0.42333
#
# Static dielectric constant tensor:
#      x y z
#    x 1.953460 0.000000 -0.000940 
#    y 0.000000 2.021770 0.000000 
#    z -0.000940 0.000000 1.970090 
# 
# From -- ./inp_files/1395.got.cif
#   From: 2010.05.17/outbox.cif.g08.bks.cpg/sg4_1_cif.got.tgz:1395.got - 2010.06.03 18:43:04.
