data_PCOD9119388
_publ_section_title
;
Structure prediction by ZEFSAII (Michael W. Deem and Ramdas Pophale) SiO2 
 PCOD9119388
Probable space group: P 21
;
_chemical_formula_sum "Si O2"
_cell_formula_units_Z 16
_cell_length_a 9.731977
_cell_length_b 5.148246
_cell_length_c 21.394860
_cell_angle_alpha 90.000000
_cell_angle_beta 36.061737
_cell_angle_gamma 90.000000
_cell_volume 631.003632
_symmetry_space_group_name_H-M "P 21"
_symmetry_group_IT_number 4
_symmetry_cell_setting 'monoclinic'
loop_
_space_group_symop_operation_xyz
x,y,z
-x,1/2+y,-z
loop_
_atom_site_type_symbol
_atom_site_label
_atom_site_fract_x
_atom_site_fract_y
_atom_site_fract_z
Si Si1 0.090980 0.318720 0.794653
Si Si2 0.776272 0.063373 0.532308
Si Si3 0.758204 0.304441 0.661130
Si Si4 0.323129 0.829051 0.660680
Si Si5 0.582935 0.311088 0.935706
Si Si6 0.911101 0.453706 0.998710
Si Si7 0.035384 0.919649 0.642678
Si Si8 0.547373 0.642129 0.830918
O O1 0.255224 0.538355 0.704368
O O2 0.860772 0.301072 0.836247
O O3 0.205951 0.035717 0.751255
O O4 0.006143 0.405887 0.894022
O O5 0.599217 0.872714 0.562261
O O6 0.035880 0.959996 0.448526
O O7 0.670801 0.117138 0.639332
O O8 0.823938 0.298418 0.467291
O O9 0.561746 0.490002 0.760325
O O10 0.896990 0.169083 0.667070
O O11 0.211696 0.917015 0.635612
O O12 0.490419 0.439224 0.906549
O O13 0.505943 0.524451 0.015714
O O14 0.640080 0.369551 0.101802
O O15 0.961588 0.742061 0.003806
O O16 0.811758 0.742152 0.743664
#
# Coordination Sequence:
#
# PCOD9119388 Si02
#       8
#     2   2   2   2   2   2   2   2
#     4  12  27  50  72 115 152 196 253 307 385 460
#     4  11  27  48  76 109 152 203 256 325 381 465
#     4  11  25  49  75 110 149 204 263 305 397 460
#     4  12  29  47  80 114 157 200 253 325 387 453
#     4  12  25  45  78 108 147 195 250 311 378 445
#     4  12  30  50  74 113 159 205 256 310 382 459
#     4  11  26  47  77 112 151 199 263 315 394 460
#     4  11  27  46  80 107 149 202 254 322 374 468
#
# _framework density 25.356428000000001
#
# number of rings (size 3 to 8) (size 9 to 14) (size 15 to 20)
#    0.000    0.500    3.750    2.250   12.250    1.000 
#    0.000    0.000    0.000    0.000    0.000    0.000 
#    0.000    0.000    0.000    0.000    0.000    0.000 
#
# Total GULP energy -89716.957374 kJ/mol
# GULP energy per Si atom -5607.309836 kJ/mol
# Density = 2.529872 g / cm^3
# Si number density = 25.356428 Si / 1000 Ang^3
#
#
#
# Elastic Constant Matrix: (Units=GPa)
#
#
# Indices 1 2 3 4 5 6 
#
# 1 101.6684 -1.7946 32.1933 0.0000 0.1731 0.0000
# 2 -1.7946 62.9944 11.8133 0.0000 -9.9806 0.0000
# 3 32.1933 11.8133 66.1133 0.0000 0.3633 0.0000
# 4 0.0000 0.0000 0.0000 49.3808 0.0000 0.7814
# 5 0.1731 -9.9806 0.3633 0.0000 43.7498 0.0000
# 6 0.0000 0.0000 0.0000 0.7814 0.0000 41.3220
#
#
#
# Elastic Compliance Matrix: (Units=1/GPa)
#
#
# Indices 1 2 3 4 5 6 
#
# 1 0.011762 0.001516 -0.006000 0.000000 0.000349 0.000000
# 2 0.001516 0.017267 -0.003845 0.000000 0.003965 0.000000
# 3 -0.006000 -0.003845 0.018740 0.000000 -0.001009 0.000000
# 4 0.000000 0.000000 0.000000 0.020257 0.000000 -0.000383
# 5 0.000349 0.003965 -0.001009 0.000000 0.023769 0.000000
# 6 0.000000 0.000000 0.000000 -0.000383 0.000000 0.024207
#
#
# Mechanical properties :
#
#
# Convention : Reuss Voigt Hill
#
# Bulk Modulus (GPa) = 32.14456 35.02223 33.58339
# Shear Modulus (GPa) = 34.95752 39.46148 37.20950
#
# Velocity S-wave (km/s) = 3.71704 3.94924 3.83490
# Velocity P-wave (km/s) = 5.57911 5.88534 5.73427
#
# Compressibility (1/GPa) = 0.03110947
#
# Stress axis : x y z
#
# Youngs Moduli (GPa) = 85.01960 57.91442 53.36230
#
# Poissons Ratio (x) = -0.08777 0.32018
# Poissons Ratio (y) = -0.12885 0.20518
# Poissons Ratio (z) = 0.51013 0.22268
#
# Static dielectric constant tensor:
#      x y z
#    x 1.986530 0.000000 0.015350 
#    y 0.000000 2.029950 0.000000 
#    z 0.015350 0.000000 1.998090 
# 
# From -- ./inp_files/9996.got.cif
#   From: 2010.05.17/outbox.cif.g08.bks.cpg/sg4_5_cif.got.tgz:9996.got - 2010.06.03 18:43:04.
