data_PCOD9119414
_publ_section_title
;
Structure prediction by ZEFSAII (Michael W. Deem and Ramdas Pophale) SiO2 
 PCOD9119414
Probable space group: P 21
;
_chemical_formula_sum "Si O2"
_cell_formula_units_Z 12
_cell_length_a 11.760858
_cell_length_b 6.907438
_cell_length_c 7.122411
_cell_angle_alpha 90.000000
_cell_angle_beta 127.942702
_cell_angle_gamma 90.000000
_cell_volume 456.303866
_symmetry_space_group_name_H-M "P 21"
_symmetry_group_IT_number 4
_symmetry_cell_setting 'monoclinic'
loop_
_space_group_symop_operation_xyz
x,y,z
-x,1/2+y,-z
loop_
_atom_site_type_symbol
_atom_site_label
_atom_site_fract_x
_atom_site_fract_y
_atom_site_fract_z
Si Si1 0.183607 0.490320 0.275838
Si Si2 0.115045 0.173100 0.919725
Si Si3 0.239290 0.487013 0.766324
Si Si4 0.786505 0.441474 0.225405
Si Si5 0.638886 0.346872 0.721270
Si Si6 0.539274 0.561737 0.249455
O O1 0.187796 0.285953 0.177132
O O2 0.232261 0.454331 0.538088
O O3 0.280173 0.657130 0.273032
O O4 0.025635 0.587165 0.114823
O O5 0.256766 0.990581 0.045855
O O6 0.068285 0.046866 0.663706
O O7 0.215362 0.716864 0.763178
O O8 0.145891 0.363320 0.815632
O O9 0.405461 0.460016 0.008575
O O10 0.676354 0.539578 0.253227
O O11 0.575837 0.453086 0.479575
O O12 0.520545 0.270415 0.746909
#
# Coordination Sequence:
#
# PCOD9119414 Si02
#       6
#     2   2   2   2   2   2
#     4  12  27  51  76 110 156 199 267 312 384 452
#     4  12  29  48  79 109 150 210 254 323 384 452
#     4  11  28  49  72 115 151 202 257 316 384 464
#     4  11  26  49  75 112 154 197 260 313 387 461
#     4  11  26  44  75 108 154 196 251 316 380 458
#     4  11  26  45  75 110 153 196 251 314 387 459
#
# _framework density 26.298266999999999
#
# number of rings (size 3 to 8) (size 9 to 14) (size 15 to 20)
#    0.000    0.667    5.000    1.000   11.667    1.333 
#    0.000    0.000    0.000    0.000    0.000    0.000 
#    0.000    0.000    0.000    0.000    0.000    0.000 
#
# Total GULP energy -67003.026909 kJ/mol
# GULP energy per Si atom -5583.585576 kJ/mol
# Density = 2.623841 g / cm^3
# Si number density = 26.298267 Si / 1000 Ang^3
#
#
#
# Elastic Constant Matrix: (Units=GPa)
#
#
# Indices 1 2 3 4 5 6 
#
# 1 162.0876 99.6788 47.2094 0.0000 -16.0004 0.0000
# 2 99.6788 174.2574 73.9608 0.0000 -5.8845 0.0000
# 3 47.2094 73.9608 170.7946 0.0000 -46.8288 0.0000
# 4 0.0000 0.0000 0.0000 34.8723 0.0000 -4.3841
# 5 -16.0004 -5.8845 -46.8288 0.0000 50.5694 0.0000
# 6 0.0000 0.0000 0.0000 -4.3841 0.0000 67.6611
#
#
#
# Elastic Compliance Matrix: (Units=1/GPa)
#
#
# Indices 1 2 3 4 5 6 
#
# 1 0.009851 -0.005792 0.000610 0.000000 0.003008 0.000000
# 2 -0.005792 0.010719 -0.004291 0.000000 -0.004559 0.000000
# 3 0.000610 -0.004291 0.009999 0.000000 0.008953 0.000000
# 4 0.000000 0.000000 0.000000 0.028912 0.000000 0.001873
# 5 0.003008 -0.004559 0.008953 0.000000 0.028487 0.000000
# 6 0.000000 0.000000 0.000000 0.001873 0.000000 0.014901
#
#
# Mechanical properties :
#
#
# Convention : Reuss Voigt Hill
#
# Bulk Modulus (GPa) = 86.03271 105.42639 95.72955
# Shear Modulus (GPa) = 39.78088 49.70660 44.74374
#
# Velocity S-wave (km/s) = 3.89354 4.35226 4.12927
# Velocity P-wave (km/s) = 7.27998 8.08900 7.69513
#
# Compressibility (1/GPa) = 0.01162349
#
# Stress axis : x y z
#
# Youngs Moduli (GPa) = 101.51523 93.29194 100.00793
#
# Poissons Ratio (x) = 0.54036 -0.06101
# Poissons Ratio (y) = 0.58800 0.42910
# Poissons Ratio (z) = -0.06193 0.40028
#
# Static dielectric constant tensor:
#      x y z
#    x 1.979490 0.000000 0.012320 
#    y 0.000000 2.070730 0.000000 
#    z 0.012320 0.000000 2.310860 
# 
# From -- ./inp_files/9093.got.cif
#   From: 2010.05.17/outbox.cif.g08.bks.cpg/sg4_5_cif.got.tgz:9093.got - 2010.06.03 18:43:04.
