data_PCOD9119535
_publ_section_title
;
Structure prediction by ZEFSAII (Michael W. Deem and Ramdas Pophale) SiO2 
 PCOD9119535
Probable space group: P 21
;
_chemical_formula_sum "Si O2"
_cell_formula_units_Z 16
_cell_length_a 30.481378
_cell_length_b 4.992896
_cell_length_c 24.310980
_cell_angle_alpha 90.000000
_cell_angle_beta 10.158446
_cell_angle_gamma 90.000000
_cell_volume 652.554094
_symmetry_space_group_name_H-M "P 21"
_symmetry_group_IT_number 4
_symmetry_cell_setting 'monoclinic'
loop_
_space_group_symop_operation_xyz
x,y,z
-x,1/2+y,-z
loop_
_atom_site_type_symbol
_atom_site_label
_atom_site_fract_x
_atom_site_fract_y
_atom_site_fract_z
Si Si1 0.397450 0.736900 0.878110
Si Si2 0.843233 0.907213 0.116977
Si Si3 0.970252 0.945901 0.289326
Si Si4 0.632771 0.697325 0.265481
Si Si5 0.637240 0.587218 0.475663
Si Si6 0.142199 0.538033 0.347270
Si Si7 0.078829 0.214006 0.272374
Si Si8 0.663084 0.449288 0.646622
O O1 0.512674 0.771747 0.675471
O O2 0.593640 0.592274 0.675276
O O3 0.173398 0.517785 0.152446
O O4 0.307203 0.024187 0.010237
O O5 0.640024 0.144681 0.372395
O O6 0.801403 0.803114 0.107169
O O7 0.745449 0.719909 0.287151
O O8 0.124717 0.965304 0.786363
O O9 0.773998 0.154426 0.504995
O O10 0.011583 0.080417 0.297619
O O11 0.864009 0.650213 0.424913
O O12 0.212127 0.953127 0.951694
O O13 0.568185 0.880838 0.292868
O O14 0.974762 0.273167 0.546044
O O15 0.128252 0.658463 0.425840
O O16 0.414726 0.461688 0.989914
#
# Coordination Sequence:
#
# PCOD9119535 Si02
#       8
#     2   2   2   2   2   2   2   2
#     4  12  25  45  75 103 142 189 241 292 356 434
#     4  12  26  45  73 104 138 191 249 298 374 437
#     4  12  28  45  71 106 151 185 236 300 368 428
#     4  12  26  47  71 101 149 191 236 312 373 426
#     4  12  26  45  72 106 141 188 249 305 360 446
#     4  12  23  45  77 104 145 187 238 300 353 425
#     4  12  24  46  73 105 140 194 232 287 367 427
#     4  12  26  46  72 111 142 187 245 290 359 441
#
# _framework density 24.519038999999999
#
# number of rings (size 3 to 8) (size 9 to 14) (size 15 to 20)
#    0.000    0.000    6.250    3.750    1.750    3.000 
#    0.000    0.000    0.000    0.000    0.000    0.000 
#    0.000    0.000    0.000    0.000    0.000    0.000 
#
# Total GULP energy -89600.298754 kJ/mol
# GULP energy per Si atom -5600.018672 kJ/mol
# Density = 2.446323 g / cm^3
# Si number density = 24.519039 Si / 1000 Ang^3
#
#
#
# Elastic Constant Matrix: (Units=GPa)
#
#
# Indices 1 2 3 4 5 6 
#
# 1 121.4848 -12.3150 38.3882 0.0000 -12.9186 0.0000
# 2 -12.3150 77.1673 27.3032 0.0000 -7.1108 0.0000
# 3 38.3882 27.3032 103.2448 0.0000 12.0740 0.0000
# 4 0.0000 0.0000 0.0000 17.1119 0.0000 -14.5523
# 5 -12.9186 -7.1108 12.0740 0.0000 48.3736 0.0000
# 6 0.0000 0.0000 0.0000 -14.5523 0.0000 35.3550
#
#
#
# Elastic Compliance Matrix: (Units=1/GPa)
#
#
# Indices 1 2 3 4 5 6 
#
# 1 0.011044 0.004289 -0.005829 0.000000 0.005035 0.000000
# 2 0.004289 0.016440 -0.006550 0.000000 0.005197 0.000000
# 3 -0.005829 -0.006550 0.014297 0.000000 -0.006088 0.000000
# 4 0.000000 0.000000 0.000000 0.089911 0.000000 0.037008
# 5 0.005035 0.005197 -0.006088 0.000000 0.024300 0.000000
# 6 0.000000 0.000000 0.000000 0.037008 0.000000 0.043517
#
#
# Mechanical properties :
#
#
# Convention : Reuss Voigt Hill
#
# Bulk Modulus (GPa) = 39.06252 45.40553 42.23403
# Shear Modulus (GPa) = 22.29927 36.73615 29.51771
#
# Velocity S-wave (km/s) = 3.01901 3.87495 3.47345
# Velocity P-wave (km/s) = 5.30270 6.21120 5.77484
#
# Compressibility (1/GPa) = 0.02559999
#
# Stress axis : x y z
#
# Youngs Moduli (GPa) = 90.55021 60.82863 69.94379
#
# Poissons Ratio (x) = -0.26088 0.40771
# Poissons Ratio (y) = -0.38835 0.45812
# Poissons Ratio (z) = 0.52783 0.39842
#
# Static dielectric constant tensor:
#      x y z
#    x 1.968260 0.000000 -0.088750 
#    y 0.000000 1.959980 0.000000 
#    z -0.088750 0.000000 1.996870 
# 
# From -- ./inp_files/16245.got.cif
#   From: 2010.05.17/outbox.cif.g08.bks.cpg/sg4_9_cif.got.tgz:16245.got - 2010.06.03 18:43:04.
