data_PCOD9119167
_publ_section_title
;
Structure prediction by ZEFSAII (Michael W. Deem and Ramdas Pophale) SiO2 
 PCOD9119167
Probable space group: P 21
;
_chemical_formula_sum "Si O2"
_cell_formula_units_Z 16
_cell_length_a 8.636997
_cell_length_b 5.235870
_cell_length_c 25.767869
_cell_angle_alpha 90.000000
_cell_angle_beta 30.482053
_cell_angle_gamma 90.000000
_cell_volume 591.109551
_symmetry_space_group_name_H-M "P 21"
_symmetry_group_IT_number 4
_symmetry_cell_setting 'monoclinic'
loop_
_space_group_symop_operation_xyz
x,y,z
-x,1/2+y,-z
loop_
_atom_site_type_symbol
_atom_site_label
_atom_site_fract_x
_atom_site_fract_y
_atom_site_fract_z
Si Si1 0.679229 0.354200 0.060395
Si Si2 0.790725 0.091621 0.246280
Si Si3 0.728269 0.222342 0.573179
Si Si4 0.211746 0.693337 0.251837
Si Si5 0.865809 0.563393 0.450283
Si Si6 0.676802 0.403525 0.364682
Si Si7 0.421716 0.971536 0.053514
Si Si8 0.296934 0.585970 0.844606
O O1 0.424095 0.573614 0.145017
O O2 0.557554 0.103448 0.065592
O O3 0.751791 0.303515 0.099330
O O4 0.993800 0.418030 0.941118
O O5 0.906009 0.223308 0.266889
O O6 0.069130 0.893709 0.158634
O O7 0.485074 0.950019 0.349307
O O8 0.716573 0.190790 0.209822
O O9 0.809600 0.281142 0.489740
O O10 0.516595 0.979365 0.630265
O O11 0.973453 0.191181 0.546327
O O12 0.398238 0.931795 0.223530
O O13 0.113024 0.543475 0.333415
O O14 0.863110 0.651844 0.329869
O O15 0.552844 0.733536 0.532726
O O16 0.416918 0.222868 0.016665
#
# Coordination Sequence:
#
# PCOD9119167 Si02
#       8
#     2   2   2   2   2   2   2   2
#     4  12  28  46  73 111 155 204 262 328 398 488
#     4  11  26  46  73 113 144 213 257 328 399 488
#     4  11  24  46  74 104 148 197 262 327 389 491
#     4  12  28  48  72 111 155 206 251 336 407 480
#     4  11  25  46  74 108 146 201 259 320 405 478
#     4  11  27  46  75 108 155 196 269 324 406 485
#     4  12  29  49  81 113 162 212 273 333 404 480
#     4  12  27  47  76 108 157 203 265 322 412 484
#
# _framework density 27.067739
#
# number of rings (size 3 to 8) (size 9 to 14) (size 15 to 20)
#    0.000    0.500    6.250    0.000   10.500    1.000 
#    0.000    0.000    0.000    0.000    0.000    0.000 
#    0.000    0.000    0.000    0.000    0.000    0.000 
#
# Total GULP energy -89138.479566 kJ/mol
# GULP energy per Si atom -5571.154973 kJ/mol
# Density = 2.700613 g / cm^3
# Si number density = 27.067739 Si / 1000 Ang^3
#
#
#
# Elastic Constant Matrix: (Units=GPa)
#
#
# Indices 1 2 3 4 5 6 
#
# 1 86.7171 -3.5460 24.1888 0.0000 -1.7422 0.0000
# 2 -3.5460 57.7182 7.3147 0.0000 -8.5987 0.0000
# 3 24.1888 7.3147 73.4040 0.0000 7.9961 0.0000
# 4 0.0000 0.0000 0.0000 14.0940 0.0000 0.9115
# 5 -1.7422 -8.5987 7.9961 0.0000 61.3264 0.0000
# 6 0.0000 0.0000 0.0000 0.9115 0.0000 34.4228
#
#
#
# Elastic Compliance Matrix: (Units=1/GPa)
#
#
# Indices 1 2 3 4 5 6 
#
# 1 0.012881 0.001539 -0.004526 0.000000 0.001172 0.000000
# 2 0.001539 0.018193 -0.002640 0.000000 0.002939 0.000000
# 3 -0.004526 -0.002640 0.015654 0.000000 -0.002540 0.000000
# 4 0.000000 0.000000 0.000000 0.071074 0.000000 -0.001882
# 5 0.001172 0.002939 -0.002540 0.000000 0.017083 0.000000
# 6 0.000000 0.000000 0.000000 -0.001882 0.000000 0.029100
#
#
# Mechanical properties :
#
#
# Convention : Reuss Voigt Hill
#
# Bulk Modulus (GPa) = 28.18922 30.41717 29.30320
# Shear Modulus (GPa) = 26.72908 34.62742 30.67825
#
# Velocity S-wave (km/s) = 3.14584 3.58059 3.37024
# Velocity P-wave (km/s) = 4.86128 5.32504 5.09843
#
# Compressibility (1/GPa) = 0.03547455
#
# Stress axis : x y z
#
# Youngs Moduli (GPa) = 77.63612 54.96753 63.88010
#
# Poissons Ratio (x) = -0.08462 0.28910
# Poissons Ratio (y) = -0.11952 0.16866
# Poissons Ratio (z) = 0.35135 0.14513
#
# Static dielectric constant tensor:
#      x y z
#    x 2.246850 0.000000 -0.018450 
#    y 0.000000 2.430860 0.000000 
#    z -0.018450 0.000000 2.094180 
# 
# From -- ./inp_files/9846.got.cif
#   From: 2010.05.17/outbox.cif.g08.bks.cpg/sg4_5_cif.got.tgz:9846.got - 2010.06.03 18:43:04.
