data_PCOD9119244
_publ_section_title
;
Structure prediction by ZEFSAII (Michael W. Deem and Ramdas Pophale) SiO2 
 PCOD9119244
Probable space group: P 21
;
_chemical_formula_sum "Si O2"
_cell_formula_units_Z 16
_cell_length_a 9.882995
_cell_length_b 8.362449
_cell_length_c 11.111383
_cell_angle_alpha 90.000000
_cell_angle_beta 56.850096
_cell_angle_gamma 90.000000
_cell_volume 768.849915
_symmetry_space_group_name_H-M "P 21"
_symmetry_group_IT_number 4
_symmetry_cell_setting 'monoclinic'
loop_
_space_group_symop_operation_xyz
x,y,z
-x,1/2+y,-z
loop_
_atom_site_type_symbol
_atom_site_label
_atom_site_fract_x
_atom_site_fract_y
_atom_site_fract_z
Si Si1 0.023217 0.596040 0.833706
Si Si2 0.556094 0.291915 0.891275
Si Si3 0.138656 0.317308 0.451474
Si Si4 0.666189 0.025069 0.450640
Si Si5 0.883017 0.110095 0.713883
Si Si6 0.414587 0.260839 0.696679
Si Si7 0.039103 0.217016 0.874817
Si Si8 0.288454 0.137198 0.173682
O O1 0.868239 0.652144 0.834671
O O2 0.186189 0.624088 0.679272
O O3 0.010144 0.403724 0.858297
O O4 0.028623 0.675187 0.961614
O O5 0.696075 0.158563 0.814801
O O6 0.463248 0.295513 0.809731
O O7 0.644396 0.458908 0.869391
O O8 0.428989 0.252414 0.057328
O O9 0.249979 0.403192 0.496283
O O10 0.097330 0.448330 0.370434
O O11 0.234741 0.179310 0.334582
O O12 0.981422 0.245482 0.592054
O O13 0.539236 0.136080 0.579226
O O14 0.586920 0.920671 0.383268
O O15 0.958259 0.111034 0.810237
O O16 0.232077 0.194287 0.782010
#
# Coordination Sequence:
#
# PCOD9119244 Si02
#       8
#     2   2   2   2   2   2   2   2
#     4  11  24  49  66 104 139 185 232 287 347 418
#     4  12  25  45  70 104 140 182 235 291 344 414
#     4  12  25  45  72 101 144 182 233 289 352 417
#     4  11  25  46  67 104 141 183 230 289 347 416
#     4  12  24  46  71 104 139 189 233 288 350 415
#     4  11  25  45  70 101 142 179 235 287 349 411
#     4  11  25  45  72  99 142 180 238 284 346 421
#     4  12  27  45  72 103 141 184 234 291 353 412
#
# _framework density 20.810302
#
# number of rings (size 3 to 8) (size 9 to 14) (size 15 to 20)
#    0.000    0.500    6.250    2.250    3.500    4.000 
#    0.000    0.000    0.000    0.000    0.000    0.000 
#    0.000    0.000    0.000    0.000    0.000    0.000 
#
# Total GULP energy -89592.887217 kJ/mol
# GULP energy per Si atom -5599.555451 kJ/mol
# Density = 2.076294 g / cm^3
# Si number density = 20.810302 Si / 1000 Ang^3
#
#
#
# Elastic Constant Matrix: (Units=GPa)
#
#
# Indices 1 2 3 4 5 6 
#
# 1 85.3951 -4.7790 18.7899 0.0000 3.4305 0.0000
# 2 -4.7790 28.2091 -0.3095 0.0000 -11.1144 0.0000
# 3 18.7899 -0.3095 93.8359 0.0000 -0.8788 0.0000
# 4 0.0000 0.0000 0.0000 46.5022 0.0000 -1.6080
# 5 3.4305 -11.1144 -0.8788 0.0000 33.4300 0.0000
# 6 0.0000 0.0000 0.0000 -1.6080 0.0000 27.7010
#
#
#
# Elastic Compliance Matrix: (Units=1/GPa)
#
#
# Indices 1 2 3 4 5 6 
#
# 1 0.012386 0.001777 -0.002481 0.000000 -0.000745 0.000000
# 2 0.001777 0.041055 -0.000094 0.000000 0.013465 0.000000
# 3 -0.002481 -0.000094 0.011158 0.000000 0.000517 0.000000
# 4 0.000000 0.000000 0.000000 0.021548 0.000000 0.001251
# 5 -0.000745 0.013465 0.000517 0.000000 0.034480 0.000000
# 6 0.000000 0.000000 0.000000 0.001251 0.000000 0.036172
#
#
# Mechanical properties :
#
#
# Convention : Reuss Voigt Hill
#
# Bulk Modulus (GPa) = 15.87248 26.09366 20.98307
# Shear Modulus (GPa) = 27.87136 34.44254 31.15695
#
# Velocity S-wave (km/s) = 3.66362 4.07267 3.87355
# Velocity P-wave (km/s) = 5.05371 5.88911 5.48733
#
# Compressibility (1/GPa) = 0.06300212
#
# Stress axis : x y z
#
# Youngs Moduli (GPa) = 80.73868 24.35778 89.61959
#
# Poissons Ratio (x) = -0.04329 0.22237
# Poissons Ratio (y) = -0.14351 0.00846
# Poissons Ratio (z) = 0.20033 0.00230
#
# Static dielectric constant tensor:
#      x y z
#    x 1.715870 0.000000 -0.000930 
#    y 0.000000 1.748670 0.000000 
#    z -0.000930 0.000000 1.719690 
# 
# From -- ./inp_files/11981.got.cif
#   From: 2010.05.17/outbox.cif.g08.bks.cpg/sg4_6_cif.got.tgz:11981.got - 2010.06.03 18:43:04.
