data_PCOD9119405
_publ_section_title
;
Structure prediction by ZEFSAII (Michael W. Deem and Ramdas Pophale) SiO2 
 PCOD9119405
Probable space group: P 21
;
_chemical_formula_sum "Si O2"
_cell_formula_units_Z 12
_cell_length_a 15.189668
_cell_length_b 5.450753
_cell_length_c 9.630521
_cell_angle_alpha 90.000000
_cell_angle_beta 35.699255
_cell_angle_gamma 90.000000
_cell_volume 465.284131
_symmetry_space_group_name_H-M "P 21"
_symmetry_group_IT_number 4
_symmetry_cell_setting 'monoclinic'
loop_
_space_group_symop_operation_xyz
x,y,z
-x,1/2+y,-z
loop_
_atom_site_type_symbol
_atom_site_label
_atom_site_fract_x
_atom_site_fract_y
_atom_site_fract_z
Si Si1 0.254141 0.861260 0.246756
Si Si2 0.480701 0.506403 0.891640
Si Si3 0.855420 0.187576 0.189669
Si Si4 0.672392 0.652521 0.098709
Si Si5 0.664118 0.685303 0.422424
Si Si6 0.969088 0.920537 0.799866
O O1 0.097577 0.924546 0.519462
O O2 0.385819 0.991703 0.168961
O O3 0.252404 0.939510 0.088497
O O4 0.321985 0.586253 0.161977
O O5 0.533938 0.694093 0.703750
O O6 0.454785 0.264116 0.836457
O O7 0.755118 0.940263 0.320190
O O8 0.761909 0.439033 0.325501
O O9 0.941875 0.157397 0.932034
O O10 0.973576 0.212983 0.163954
O O11 0.809268 0.844766 0.942744
O O12 0.610604 0.631005 0.333623
#
# Coordination Sequence:
#
# PCOD9119405 Si02
#       6
#     2   2   2   2   2   2
#     4  12  28  50  76 107 160 208 257 324 399 472
#     4  12  28  51  74 111 156 213 257 321 402 470
#     4  11  25  51  79 123 149 210 256 327 398 466
#     4  11  29  47  75 116 146 205 263 326 385 462
#     4  11  28  50  86 112 161 201 271 320 392 474
#     4  11  26  49  80 115 156 201 268 328 390 470
#
# _framework density 25.790696000000001
#
# number of rings (size 3 to 8) (size 9 to 14) (size 15 to 20)
#    0.000    0.667    3.333    2.000   14.000    0.000 
#    3.000    0.000    0.000    0.000    0.000    0.000 
#    0.000    0.000    0.000    0.000    0.000    0.000 
#
# Total GULP energy -67132.353089 kJ/mol
# GULP energy per Si atom -5594.362757 kJ/mol
# Density = 2.573200 g / cm^3
# Si number density = 25.790696 Si / 1000 Ang^3
#
#
#
# Elastic Constant Matrix: (Units=GPa)
#
#
# Indices 1 2 3 4 5 6 
#
# 1 98.3995 9.0196 25.1691 0.0000 27.6927 0.0000
# 2 9.0196 106.8980 35.4073 0.0000 3.1013 0.0000
# 3 25.1691 35.4073 103.6555 0.0000 -4.4472 0.0000
# 4 0.0000 0.0000 0.0000 42.1362 0.0000 4.8485
# 5 27.6927 3.1013 -4.4472 0.0000 29.8747 0.0000
# 6 0.0000 0.0000 0.0000 4.8485 0.0000 41.9612
#
#
#
# Elastic Compliance Matrix: (Units=1/GPa)
#
#
# Indices 1 2 3 4 5 6 
#
# 1 0.015571 0.000671 -0.004662 0.000000 -0.015197 0.000000
# 2 0.000671 0.010658 -0.003903 0.000000 -0.002310 0.000000
# 3 -0.004662 -0.003903 0.012394 0.000000 0.006572 0.000000
# 4 0.000000 0.000000 0.000000 0.024052 0.000000 -0.002779
# 5 -0.015197 -0.002310 0.006572 0.000000 0.048778 0.000000
# 6 0.000000 0.000000 0.000000 -0.002779 0.000000 0.024153
#
#
# Mechanical properties :
#
#
# Convention : Reuss Voigt Hill
#
# Bulk Modulus (GPa) = 43.79077 49.79389 46.79233
# Shear Modulus (GPa) = 31.44563 38.75156 35.09860
#
# Velocity S-wave (km/s) = 3.49558 3.88047 3.69304
# Velocity P-wave (km/s) = 5.77133 6.27903 6.03053
#
# Compressibility (1/GPa) = 0.02283587
#
# Stress axis : x y z
#
# Youngs Moduli (GPa) = 64.22391 93.82867 80.68150
#
# Poissons Ratio (x) = -0.06299 0.37614
# Poissons Ratio (y) = -0.04312 0.31487
# Poissons Ratio (z) = 0.29942 0.36618
#
# Static dielectric constant tensor:
#      x y z
#    x 2.006250 0.000000 -0.007310 
#    y 0.000000 2.115220 0.000000 
#    z -0.007310 0.000000 2.077040 
# 
# From -- ./inp_files/8980.got.cif
#   From: 2010.05.17/outbox.cif.g08.bks.cpg/sg4_5_cif.got.tgz:8980.got - 2010.06.03 18:43:04.
