data_PCOD9119355
_publ_section_title
;
Structure prediction by ZEFSAII (Michael W. Deem and Ramdas Pophale) SiO2 
 PCOD9119355
Probable space group: P 21
;
_chemical_formula_sum "Si O2"
_cell_formula_units_Z 16
_cell_length_a 9.326234
_cell_length_b 10.692976
_cell_length_c 12.868000
_cell_angle_alpha 90.000000
_cell_angle_beta 148.378274
_cell_angle_gamma 90.000000
_cell_volume 672.826562
_symmetry_space_group_name_H-M "P 21"
_symmetry_group_IT_number 4
_symmetry_cell_setting 'monoclinic'
loop_
_space_group_symop_operation_xyz
x,y,z
-x,1/2+y,-z
loop_
_atom_site_type_symbol
_atom_site_label
_atom_site_fract_x
_atom_site_fract_y
_atom_site_fract_z
Si Si1 0.676976 0.266530 0.689359
Si Si2 0.672376 0.292652 0.059343
Si Si3 0.045172 0.971259 0.475947
Si Si4 0.839893 0.636291 0.894333
Si Si5 0.148900 0.121853 0.336874
Si Si6 0.231045 0.735466 0.481227
Si Si7 0.721766 0.567429 0.180721
Si Si8 0.473165 0.923884 0.224315
O O1 0.468523 0.150485 0.548114
O O2 0.757457 0.304053 0.622976
O O3 0.521010 0.375084 0.654972
O O4 0.938962 0.225510 0.917405
O O5 0.642395 0.431251 0.087601
O O6 0.982121 0.248816 0.258048
O O7 0.482027 0.178509 0.979633
O O8 0.592401 0.308574 0.890098
O O9 0.046763 0.030480 0.363282
O O10 0.257017 0.041671 0.682145
O O11 0.118333 0.826108 0.501700
O O12 0.752844 0.978809 0.351947
O O13 0.915593 0.593347 0.823711
O O14 0.540309 0.698231 0.698239
O O15 0.777750 0.520443 0.931845
O O16 0.021129 0.620958 0.336039
#
# Coordination Sequence:
#
# PCOD9119355 Si02
#       8
#     2   2   2   2   2   2   2   2
#     4  11  25  47  72 104 155 200 260 315 399 464
#     4  12  26  47  77 117 155 209 263 328 398 479
#     4  12  26  47  79 110 161 201 264 332 402 458
#     4  11  25  47  76 107 153 206 260 316 396 474
#     4  11  26  47  73 113 152 203 261 324 385 474
#     4  11  26  48  73 116 148 204 260 330 385 480
#     4  12  27  47  79 115 164 205 264 333 405 472
#     4  12  23  46  75 104 152 202 256 326 394 467
#
# _framework density 23.780276000000001
#
# number of rings (size 3 to 8) (size 9 to 14) (size 15 to 20)
#    0.000    0.500    3.750    3.750    1.750    3.000 
#    2.250    0.000    0.000    0.000    0.000    0.000 
#    0.000    0.000    0.000    0.000    0.000    0.000 
#
# Total GULP energy -89471.302108 kJ/mol
# GULP energy per Si atom -5591.956382 kJ/mol
# Density = 2.372615 g / cm^3
# Si number density = 23.780276 Si / 1000 Ang^3
#
#
#
# Elastic Constant Matrix: (Units=GPa)
#
#
# Indices 1 2 3 4 5 6 
#
# 1 115.7865 41.8783 31.6681 0.0000 4.3831 0.0000
# 2 41.8783 103.2107 30.3762 0.0000 8.5810 0.0000
# 3 31.6681 30.3762 112.0039 0.0000 15.4861 0.0000
# 4 0.0000 0.0000 0.0000 35.2372 0.0000 -1.4999
# 5 4.3831 8.5810 15.4861 0.0000 25.4496 0.0000
# 6 0.0000 0.0000 0.0000 -1.4999 0.0000 53.2045
#
#
#
# Elastic Compliance Matrix: (Units=1/GPa)
#
#
# Indices 1 2 3 4 5 6 
#
# 1 0.010519 -0.003719 -0.002062 0.000000 0.000697 0.000000
# 2 -0.003719 0.011937 -0.001876 0.000000 -0.002243 0.000000
# 3 -0.002062 -0.001876 0.010791 0.000000 -0.005579 0.000000
# 4 0.000000 0.000000 0.000000 0.028413 0.000000 0.000801
# 5 0.000697 -0.002243 -0.005579 0.000000 0.043324 0.000000
# 6 0.000000 0.000000 0.000000 0.000801 0.000000 0.018818
#
#
# Mechanical properties :
#
#
# Convention : Reuss Voigt Hill
#
# Bulk Modulus (GPa) = 55.76153 59.87183 57.81668
# Shear Modulus (GPa) = 34.46035 37.91683 36.18859
#
# Velocity S-wave (km/s) = 3.81085 3.99741 3.90524
# Velocity P-wave (km/s) = 6.54699 6.82184 6.68582
#
# Compressibility (1/GPa) = 0.01793351
#
# Stress axis : x y z
#
# Youngs Moduli (GPa) = 95.06244 83.77619 92.66745
#
# Poissons Ratio (x) = 0.31160 0.19107
# Poissons Ratio (y) = 0.35358 0.17380
# Poissons Ratio (z) = 0.19601 0.15713
#
# Static dielectric constant tensor:
#      x y z
#    x 1.906570 0.000000 0.001540 
#    y 0.000000 1.962210 0.000000 
#    z 0.001540 0.000000 1.903220 
# 
# From -- ./inp_files/11316.got.cif
#   From: 2010.05.17/outbox.cif.g08.bks.cpg/sg4_6_cif.got.tgz:11316.got - 2010.06.03 18:43:04.
