data_PCOD9119950
_publ_section_title
;
Structure prediction by ZEFSAII (Michael W. Deem and Ramdas Pophale) SiO2 
 PCOD9119950
Probable space group: C 2
;
_chemical_formula_sum "Si O2"
_cell_formula_units_Z 24
_cell_length_a 6.660623
_cell_length_b 25.615851
_cell_length_c 5.389439
_cell_angle_alpha 90.000000
_cell_angle_beta 76.532376
_cell_angle_gamma 90.000000
_cell_volume 894.247142
_symmetry_space_group_name_H-M "C 2"
_symmetry_group_IT_number 5
_symmetry_cell_setting 'monoclinic'
loop_
_space_group_symop_operation_xyz
x,y,z
-x,y,-z
1/2+x,1/2+y,z
1/2-x,1/2+y,-z
loop_
_atom_site_type_symbol
_atom_site_label
_atom_site_fract_x
_atom_site_fract_y
_atom_site_fract_z
Si Si1 0.250316 0.365800 0.086242
Si Si2 0.248839 0.419874 0.584583
Si Si3 0.745906 0.751565 0.296502
Si Si4 0.790081 0.709499 0.791753
Si Si5 0.250589 0.038146 0.413122
Si Si6 0.249635 0.593394 0.091514
O O1 0.186797 0.406067 0.320545
O O2 0.199034 0.309202 0.213299
O O3 0.500000 0.366892 0.000000
O O4 0.186975 0.379869 0.822688
O O5 0.500000 0.417401 0.500000
O O6 0.194184 0.478876 0.670756
O O7 0.678760 0.735326 0.589683
O O8 0.994803 0.741410 0.249826
O O9 0.687964 0.714118 0.088856
O O10 0.825926 0.647958 0.768352
O O11 0.308816 0.051426 0.680287
O O12 0.000000 0.040202 0.500000
O O13 0.310795 0.077385 0.172277
O O14 0.500000 0.596662 0.000000
#
# Coordination Sequence:
#
# PCOD9119950 Si02
#       6
#     4   4   4   4   4   4
#     4  10  16  25  40  62  88 124 143 171 230 283
#     4   9  17  24  40  61  87 120 148 173 223 286
#     4  10  19  30  45  65  99 124 153 187 233 272
#     4  10  19  30  45  65  90 133 156 188 224 278
#     4   9  17  30  42  62  89 122 156 188 224 272
#     4  10  19  31  48  63  90 130 161 188 232 261
#
# _framework density 26.838221999999998
#
# number of rings (size 3 to 8) (size 9 to 14) (size 15 to 20)
#    0.000    2.333    1.667    3.000    4.667    4.000 
#    0.000    0.000    0.000    0.000    0.000    0.000 
#    0.000    0.000  198.333    6.667    0.000    0.000 
#
# Total GULP energy -67176.035866 kJ/mol
# GULP energy per Si atom -5598.002989 kJ/mol
# Density = 2.677714 g / cm^3
# Si number density = 26.838222 Si / 1000 Ang^3
#
#
#
# Elastic Constant Matrix: (Units=GPa)
#
#
# Indices 1 2 3 4 5 6 
#
# 1 79.3627 0.4242 44.4908 0.0000 8.1664 0.0000
# 2 0.4242 151.6855 73.1452 0.0000 4.5504 0.0000
# 3 44.4908 73.1452 225.1017 0.0000 29.0201 0.0000
# 4 0.0000 0.0000 0.0000 53.1955 0.0000 -7.9515
# 5 8.1664 4.5504 29.0201 0.0000 76.6685 0.0000
# 6 0.0000 0.0000 0.0000 -7.9515 0.0000 38.9154
#
#
#
# Elastic Compliance Matrix: (Units=1/GPa)
#
#
# Indices 1 2 3 4 5 6 
#
# 1 0.014497 0.001576 -0.003329 0.000000 -0.000378 0.000000
# 2 0.001576 0.008009 -0.002976 0.000000 0.000483 0.000000
# 3 -0.003329 -0.002976 0.006307 0.000000 -0.001856 0.000000
# 4 0.000000 0.000000 0.000000 0.019391 0.000000 0.003962
# 5 -0.000378 0.000483 -0.001856 0.000000 0.013757 0.000000
# 6 0.000000 0.000000 0.000000 0.003962 0.000000 0.026506
#
#
# Mechanical properties :
#
#
# Convention : Reuss Voigt Hill
#
# Bulk Modulus (GPa) = 51.66743 76.91892 64.29317
# Shear Modulus (GPa) = 47.90361 56.29519 52.09940
#
# Velocity S-wave (km/s) = 4.22939 4.58490 4.41073
# Velocity P-wave (km/s) = 6.56838 7.53331 7.06733
#
# Compressibility (1/GPa) = 0.01935455
#
# Stress axis : x y z
#
# Youngs Moduli (GPa) = 68.98034 124.86177 158.56134
#
# Poissons Ratio (x) = -0.19677 0.52780
# Poissons Ratio (y) = -0.10871 0.47191
# Poissons Ratio (z) = 0.22961 0.37161
#
# Static dielectric constant tensor:
#      x y z
#    x 2.245520 0.000000 0.013580 
#    y 0.000000 1.989580 0.000000 
#    z 0.013580 0.000000 2.002880 
# 
# From -- ./inp_files/5317.got.cif
#   From: 2010.05.17/outbox.cif.g08.bks.cpg/sg5_3_cif.got.tgz:5317.got - 2010.06.03 18:56:24.
