data_PCOD9119701
_publ_section_title
;
Structure prediction by ZEFSAII (Michael W. Deem and Ramdas Pophale) SiO2 
 PCOD9119701
Probable space group: P 21
;
_chemical_formula_sum "Si O2"
_cell_formula_units_Z 14
_cell_length_a 18.672178
_cell_length_b 5.868574
_cell_length_c 9.296042
_cell_angle_alpha 90.000000
_cell_angle_beta 35.666450
_cell_angle_gamma 90.000000
_cell_volume 593.940654
_symmetry_space_group_name_H-M "P 21"
_symmetry_group_IT_number 4
_symmetry_cell_setting 'monoclinic'
loop_
_space_group_symop_operation_xyz
x,y,z
-x,1/2+y,-z
loop_
_atom_site_type_symbol
_atom_site_label
_atom_site_fract_x
_atom_site_fract_y
_atom_site_fract_z
Si Si1 0.297156 0.418020 0.375772
Si Si2 0.472771 0.646242 0.481431
Si Si3 0.207049 0.748676 0.944518
Si Si4 0.029506 0.973526 0.753298
Si Si5 0.849262 0.638869 0.157785
Si Si6 0.554958 0.577213 0.052514
Si Si7 0.767283 0.261706 0.755332
O O1 0.217177 0.336129 0.640971
O O2 0.414020 0.562320 0.236522
O O3 0.223970 0.548003 0.368789
O O4 0.364095 0.200442 0.197997
O O5 0.517938 0.389405 0.449737
O O6 0.548447 0.706294 0.213956
O O7 0.326610 0.605437 0.705544
O O8 0.206081 0.740314 0.119470
O O9 0.073259 0.662345 0.111950
O O10 0.229615 0.983387 0.819732
O O11 0.089294 0.998395 0.812800
O O12 0.137403 0.948353 0.462228
O O13 0.951643 0.743624 0.887932
O O14 0.626715 0.344196 0.966740
#
# Coordination Sequence:
#
# PCOD9119701 Si02
#       7
#     2   2   2   2   2   2   2
#     4  12  27  46  78 113 158 207 270 336 412 496
#     4  12  29  52  80 117 166 209 267 340 424 504
#     4  12  30  49  78 113 161 205 268 341 413 488
#     4  12  27  48  75 107 151 206 264 330 405 490
#     4  12  27  48  77 111 150 210 272 326 405 497
#     4  12  26  45  79 111 154 205 266 332 413 487
#     4  12  28  50  75 116 154 206 267 339 410 494
#
# _framework density 23.571379
#
# number of rings (size 3 to 8) (size 9 to 14) (size 15 to 20)
#    0.000    0.000    5.714    2.571   10.000    1.143 
#    0.000    0.000    0.000    0.000    0.000    0.000 
#    0.000    0.000    0.000    0.000    0.000    0.000 
#
# Total GULP energy -78163.552155 kJ/mol
# GULP energy per Si atom -5583.110868 kJ/mol
# Density = 2.351773 g / cm^3
# Si number density = 23.571379 Si / 1000 Ang^3
#
#
#
# Elastic Constant Matrix: (Units=GPa)
#
#
# Indices 1 2 3 4 5 6 
#
# 1 107.1296 44.7347 40.1428 0.0000 22.0012 0.0000
# 2 44.7347 62.9633 6.2701 0.0000 6.2318 0.0000
# 3 40.1428 6.2701 102.1902 0.0000 -3.8027 0.0000
# 4 0.0000 0.0000 0.0000 44.5479 0.0000 -7.4971
# 5 22.0012 6.2318 -3.8027 0.0000 30.2627 0.0000
# 6 0.0000 0.0000 0.0000 -7.4971 0.0000 39.8340
#
#
#
# Elastic Compliance Matrix: (Units=1/GPa)
#
#
# Indices 1 2 3 4 5 6 
#
# 1 0.019848 -0.012075 -0.007535 0.000000 -0.012890 0.000000
# 2 -0.012075 0.023689 0.003451 0.000000 0.004334 0.000000
# 3 -0.007535 0.003451 0.012771 0.000000 0.006372 0.000000
# 4 0.000000 0.000000 0.000000 0.023182 0.000000 0.004363
# 5 -0.012890 0.004334 0.006372 0.000000 0.042323 0.000000
# 6 0.000000 0.000000 0.000000 0.004363 0.000000 0.025925
#
#
# Mechanical properties :
#
#
# Convention : Reuss Voigt Hill
#
# Bulk Modulus (GPa) = 41.68598 50.50868 46.09733
# Shear Modulus (GPa) = 26.58825 35.00463 30.79644
#
# Velocity S-wave (km/s) = 3.36220 3.85781 3.61850
# Velocity P-wave (km/s) = 5.72677 6.42792 6.08745
#
# Compressibility (1/GPa) = 0.02398888
#
# Stress axis : x y z
#
# Youngs Moduli (GPa) = 50.38401 42.21373 78.30180
#
# Poissons Ratio (x) = 0.50974 0.59003
# Poissons Ratio (y) = 0.60840 -0.27024
# Poissons Ratio (z) = 0.37966 -0.14569
#
# Static dielectric constant tensor:
#      x y z
#    x 1.936760 0.000000 -0.019650 
#    y 0.000000 2.004810 0.000000 
#    z -0.019650 0.000000 1.836480 
# 
# From -- ./inp_files/5160.got.cif
#   From: 2010.05.17/outbox.cif.g08.bks.cpg/sg4_3_cif.got.tgz:5160.got - 2010.06.03 18:43:04.
