data_PCOD9119435
_publ_section_title
;
Structure prediction by ZEFSAII (Michael W. Deem and Ramdas Pophale) SiO2 
 PCOD9119435
Probable space group: P 21
;
_chemical_formula_sum "Si O2"
_cell_formula_units_Z 10
_cell_length_a 9.827098
_cell_length_b 7.586395
_cell_length_c 10.981676
_cell_angle_alpha 90.000000
_cell_angle_beta 151.755849
_cell_angle_gamma 90.000000
_cell_volume 387.437269
_symmetry_space_group_name_H-M "P 21"
_symmetry_group_IT_number 4
_symmetry_cell_setting 'monoclinic'
loop_
_space_group_symop_operation_xyz
x,y,z
-x,1/2+y,-z
loop_
_atom_site_type_symbol
_atom_site_label
_atom_site_fract_x
_atom_site_fract_y
_atom_site_fract_z
Si Si1 0.843984 0.962030 0.248502
Si Si2 0.057890 0.301588 0.280426
Si Si3 0.265677 0.336729 0.095896
Si Si4 0.297891 0.713750 0.234886
Si Si5 0.234643 0.622664 0.567326
O O1 0.673237 0.898769 0.994628
O O2 0.048756 0.798514 0.442439
O O3 0.681713 0.028047 0.240130
O O4 0.012636 0.132930 0.331898
O O5 0.060433 0.770615 0.146018
O O6 0.382685 0.277610 0.488392
O O7 0.828866 0.292032 0.991667
O O8 0.951395 0.980713 0.652328
O O9 0.301460 0.505604 0.209930
O O10 0.488257 0.180240 0.291468
#
# Coordination Sequence:
#
# PCOD9119435 Si02
#       5
#     2   2   2   2   2
#     4  11  26  47  72 110 152 198 258 311 379 450
#     4  11  26  47  76 111 153 196 252 313 378 448
#     4  11  27  45  77 109 153 199 252 314 380 451
#     4  11  26  48  75 115 152 196 251 313 380 455
#     4  12  25  47  76 105 152 205 253 313 379 448
#
# _framework density 25.810628999999999
#
# number of rings (size 3 to 8) (size 9 to 14) (size 15 to 20)
#    0.000    0.800    4.000    1.200    8.400    4.800 
#    0.000    0.000    0.000    0.000    0.000    0.000 
#    0.000    0.000    0.000    0.000    0.000    0.000 
#
# Total GULP energy -56110.460167 kJ/mol
# GULP energy per Si atom -5611.046017 kJ/mol
# Density = 2.575188 g / cm^3
# Si number density = 25.810629 Si / 1000 Ang^3
#
#
#
# Elastic Constant Matrix: (Units=GPa)
#
#
# Indices 1 2 3 4 5 6 
#
# 1 87.5978 51.6203 27.8525 0.0000 -13.6942 0.0000
# 2 51.6203 152.4129 33.0609 0.0000 -3.6241 0.0000
# 3 27.8525 33.0609 68.8732 0.0000 -0.7877 0.0000
# 4 0.0000 0.0000 0.0000 43.0358 0.0000 -2.5282
# 5 -13.6942 -3.6241 -0.7877 0.0000 42.0429 0.0000
# 6 0.0000 0.0000 0.0000 -2.5282 0.0000 55.4618
#
#
#
# Elastic Compliance Matrix: (Units=1/GPa)
#
#
# Indices 1 2 3 4 5 6 
#
# 1 0.016151 -0.004410 -0.004360 0.000000 0.004799 0.000000
# 2 -0.004410 0.008542 -0.002325 0.000000 -0.000744 0.000000
# 3 -0.004360 -0.002325 0.017384 0.000000 -0.001295 0.000000
# 4 0.000000 0.000000 0.000000 0.023299 0.000000 0.001062
# 5 0.004799 -0.000744 -0.001295 0.000000 0.025260 0.000000
# 6 0.000000 0.000000 0.000000 0.001062 0.000000 0.018079
#
#
# Mechanical properties :
#
#
# Convention : Reuss Voigt Hill
#
# Bulk Modulus (GPa) = 50.28583 59.32793 54.80688
# Shear Modulus (GPa) = 36.35490 41.19812 38.77651
#
# Velocity S-wave (km/s) = 3.75710 3.99954 3.88022
# Velocity P-wave (km/s) = 6.19241 6.66065 6.43079
#
# Compressibility (1/GPa) = 0.01988632
#
# Stress axis : x y z
#
# Youngs Moduli (GPa) = 61.91492 117.07488 57.52500
#
# Poissons Ratio (x) = 0.51635 0.25078
# Poissons Ratio (y) = 0.27307 0.13375
# Poissons Ratio (z) = 0.26992 0.27221
#
# Static dielectric constant tensor:
#      x y z
#    x 2.025040 0.000000 -0.045860 
#    y 0.000000 1.969340 0.000000 
#    z -0.045860 0.000000 1.989540 
# 
# From -- ./inp_files/2336.got.cif
#   From: 2010.05.17/outbox.cif.g08.bks.cpg/sg4_2_cif.got.tgz:2336.got - 2010.06.03 18:43:04.
