data_PCOD9119280
_publ_section_title
;
Structure prediction by ZEFSAII (Michael W. Deem and Ramdas Pophale) SiO2 
 PCOD9119280
Probable space group: P 21
;
_chemical_formula_sum "Si O2"
_cell_formula_units_Z 14
_cell_length_a 5.047933
_cell_length_b 8.972502
_cell_length_c 13.985166
_cell_angle_alpha 90.000000
_cell_angle_beta 65.462347
_cell_angle_gamma 90.000000
_cell_volume 576.218902
_symmetry_space_group_name_H-M "P 21"
_symmetry_group_IT_number 4
_symmetry_cell_setting 'monoclinic'
loop_
_space_group_symop_operation_xyz
x,y,z
-x,1/2+y,-z
loop_
_atom_site_type_symbol
_atom_site_label
_atom_site_fract_x
_atom_site_fract_y
_atom_site_fract_z
Si Si1 0.721398 0.518940 0.727756
Si Si2 0.409428 0.448861 0.430583
Si Si3 0.819702 0.502571 0.202292
Si Si4 0.080559 0.548176 0.862862
Si Si5 0.847963 0.623635 0.502216
Si Si6 0.668310 0.205119 0.816011
Si Si7 0.830062 0.809999 0.001335
O O1 0.876901 0.560525 0.802731
O O2 0.863528 0.580404 0.611793
O O3 0.696248 0.339740 0.736195
O O4 0.400889 0.584688 0.780548
O O5 0.650159 0.416795 0.312292
O O6 0.595370 0.528979 0.486639
O O7 0.244924 0.297560 0.488508
O O8 0.166735 0.562926 0.423353
O O9 0.563203 0.579361 0.179932
O O10 0.019638 0.632005 0.216689
O O11 0.044613 0.406215 0.105235
O O12 0.985778 0.655249 0.961405
O O13 0.092540 0.388488 0.911103
O O14 0.513503 0.277894 0.933947
#
# Coordination Sequence:
#
# PCOD9119280 Si02
#       7
#     2   2   2   2   2   2   2
#     4  11  26  46  75 104 151 195 259 312 390 464
#     4  12  29  50  84 119 157 211 266 338 400 480
#     4  12  27  47  75 111 156 197 263 317 388 466
#     4  11  25  43  72 106 147 194 252 307 389 459
#     4  12  28  53  82 117 159 209 267 335 409 468
#     4  11  26  43  75 111 148 204 249 319 390 463
#     4  11  25  46  73 110 150 198 250 316 382 470
#
# _framework density 24.296320000000001
#
# number of rings (size 3 to 8) (size 9 to 14) (size 15 to 20)
#    0.000    0.571    1.429    5.143   10.000    5.714 
#    0.000    0.000    0.000    0.000    0.000    0.000 
#    0.000    0.000    0.000    0.000    0.000    0.000 
#
# Total GULP energy -78350.745501 kJ/mol
# GULP energy per Si atom -5596.481822 kJ/mol
# Density = 2.424102 g / cm^3
# Si number density = 24.296320 Si / 1000 Ang^3
#
#
#
# Elastic Constant Matrix: (Units=GPa)
#
#
# Indices 1 2 3 4 5 6 
#
# 1 147.2279 24.4957 35.4510 0.0000 2.7395 0.0000
# 2 24.4957 103.9936 19.2851 0.0000 0.2236 0.0000
# 3 35.4510 19.2851 112.1865 0.0000 -7.5790 0.0000
# 4 0.0000 0.0000 0.0000 43.6975 0.0000 -4.8312
# 5 2.7395 0.2236 -7.5790 0.0000 33.9492 0.0000
# 6 0.0000 0.0000 0.0000 -4.8312 0.0000 39.0151
#
#
#
# Elastic Compliance Matrix: (Units=1/GPa)
#
#
# Indices 1 2 3 4 5 6 
#
# 1 0.007578 -0.001368 -0.002234 0.000000 -0.001101 0.000000
# 2 -0.001368 0.010187 -0.001336 0.000000 -0.000255 0.000000
# 3 -0.002234 -0.001336 0.010013 0.000000 0.002424 0.000000
# 4 0.000000 0.000000 0.000000 0.023202 0.000000 0.002873
# 5 -0.001101 -0.000255 0.002424 0.000000 0.030088 0.000000
# 6 0.000000 0.000000 0.000000 0.002873 0.000000 0.025987
#
#
# Mechanical properties :
#
#
# Convention : Reuss Voigt Hill
#
# Bulk Modulus (GPa) = 55.86127 57.98574 56.92351
# Shear Modulus (GPa) = 40.68405 42.27742 41.48074
#
# Velocity S-wave (km/s) = 4.09650 4.17595 4.13641
# Velocity P-wave (km/s) = 6.73919 6.86799 6.80389
#
# Compressibility (1/GPa) = 0.01790149
#
# Stress axis : x y z
#
# Youngs Moduli (GPa) = 131.95647 98.16827 99.86945
#
# Poissons Ratio (x) = 0.13434 0.22310
# Poissons Ratio (y) = 0.18057 0.13342
# Poissons Ratio (z) = 0.29478 0.13114
#
# Static dielectric constant tensor:
#      x y z
#    x 1.874650 0.000000 -0.006600 
#    y 0.000000 1.988820 0.000000 
#    z -0.006600 0.000000 1.948030 
# 
# From -- ./inp_files/13284.got.cif
#   From: 2010.05.17/outbox.cif.g08.bks.cpg/sg4_7_cif.got.tgz:13284.got - 2010.06.03 18:43:04.
