data_PCOD9119100
_publ_section_title
;
Structure prediction by ZEFSAII (Michael W. Deem and Ramdas Pophale) SiO2 
 PCOD9119100
Probable space group: P 21
;
_chemical_formula_sum "Si O2"
_cell_formula_units_Z 16
_cell_length_a 11.866925
_cell_length_b 5.818890
_cell_length_c 12.432933
_cell_angle_alpha 90.000000
_cell_angle_beta 49.342542
_cell_angle_gamma 90.000000
_cell_volume 651.291272
_symmetry_space_group_name_H-M "P 21"
_symmetry_group_IT_number 4
_symmetry_cell_setting 'monoclinic'
loop_
_space_group_symop_operation_xyz
x,y,z
-x,1/2+y,-z
loop_
_atom_site_type_symbol
_atom_site_label
_atom_site_fract_x
_atom_site_fract_y
_atom_site_fract_z
Si Si1 0.809520 0.501300 0.120054
Si Si2 0.773053 0.896688 0.644044
Si Si3 0.480174 0.249682 0.056203
Si Si4 0.302324 0.119504 0.511446
Si Si5 0.733689 0.094932 0.050108
Si Si6 0.007041 0.266823 0.149802
Si Si7 0.395888 0.345249 0.670358
Si Si8 0.928709 0.268687 0.421652
O O1 0.805142 0.339814 0.020569
O O2 0.647691 0.613556 0.237641
O O3 0.859847 0.398647 0.201617
O O4 0.942234 0.663754 0.997347
O O5 0.669876 0.868274 0.810215
O O6 0.685005 0.760778 0.606451
O O7 0.932675 0.807344 0.586121
O O8 0.806239 0.141651 0.569694
O O9 0.583960 0.130690 0.080326
O O10 0.562270 0.499605 0.974988
O O11 0.325891 0.294008 0.596960
O O12 0.435794 0.932505 0.441239
O O13 0.145098 0.996698 0.582795
O O14 0.693475 0.021952 0.197967
O O15 0.849684 0.928383 0.920898
O O16 0.974581 0.138253 0.281994
#
# Coordination Sequence:
#
# PCOD9119100 Si02
#       8
#     2   2   2   2   2   2   2   2
#     4  11  24  44  73 110 155 196 266 334 405 498
#     4  12  29  52  79 115 167 212 279 345 415 511
#     4  12  31  55  86 118 160 223 285 348 421 499
#     4  12  28  48  76 114 156 213 271 339 417 498
#     4  11  26  47  75 112 155 205 271 343 407 493
#     4  11  24  46  74 113 153 208 260 332 415 489
#     4  11  28  46  74 111 154 211 270 338 412 491
#     4  12  28  50  77 115 158 214 268 339 422 503
#
# _framework density 24.566582
#
# number of rings (size 3 to 8) (size 9 to 14) (size 15 to 20)
#    0.000    0.500    5.000    0.750   14.000    1.000 
#    0.000    0.000    0.000    0.000    0.000    0.000 
#    0.000    0.000    0.000    0.000    0.000    0.000 
#
# Total GULP energy -89072.431613 kJ/mol
# GULP energy per Si atom -5567.026976 kJ/mol
# Density = 2.451067 g / cm^3
# Si number density = 24.566582 Si / 1000 Ang^3
#
#
#
# Elastic Constant Matrix: (Units=GPa)
#
#
# Indices 1 2 3 4 5 6 
#
# 1 131.4624 32.8229 17.9704 0.0000 4.0389 0.0000
# 2 32.8229 26.1632 40.7147 0.0000 15.6498 0.0000
# 3 17.9704 40.7147 5.3016 0.0000 -12.7613 0.0000
# 4 0.0000 0.0000 0.0000 27.8591 0.0000 -6.1606
# 5 4.0389 15.6498 -12.7613 0.0000 33.7926 0.0000
# 6 0.0000 0.0000 0.0000 -6.1606 0.0000 41.2404
#
#
#
# Elastic Compliance Matrix: (Units=1/GPa)
#
#
# Indices 1 2 3 4 5 6 
#
# 1 0.009215 -0.003806 -0.004573 0.000000 -0.001066 0.000000
# 2 -0.003806 0.001349 0.023427 0.000000 0.008677 0.000000
# 3 -0.004573 0.023427 -0.006468 0.000000 -0.012745 0.000000
# 4 0.000000 0.000000 0.000000 0.037121 0.000000 0.005545
# 5 -0.001066 0.008677 -0.012745 0.000000 0.020888 0.000000
# 6 0.000000 0.000000 0.000000 0.005545 0.000000 0.025076
#
#
# Mechanical properties :
#
#
# Convention : Reuss Voigt Hill
#
# Bulk Modulus (GPa) = 29.24710 38.43813 33.84261
# Shear Modulus (GPa) = 73.01165 25.33970 49.17568
#
# Velocity S-wave (km/s) = 5.45751 3.21514 4.47892
# Velocity P-wave (km/s) = 7.18635 5.42801 6.36816
#
# Compressibility (1/GPa) = 0.03419143
#
# Stress axis : x y z
#
# Youngs Moduli (GPa) = 108.52044 741.35706 -154.60012
#
# Poissons Ratio (x) = 2.82143 -0.70705
# Poissons Ratio (y) = 0.41300 3.62184
# Poissons Ratio (z) = 0.49631 -17.36790
#
# Static dielectric constant tensor:
#      x y z
#    x 1.922110 0.000000 0.020600 
#    y 0.000000 2.242100 0.000000 
#    z 0.020600 0.000000 1.997930 
# 
# From -- ./inp_files/11583.got.cif
#   From: 2010.05.17/outbox.cif.g08.bks.cpg/sg4_6_cif.got.tgz:11583.got - 2010.06.03 18:43:04.
