data_PCOD9119065
_publ_section_title
;
Structure prediction by ZEFSAII (Michael W. Deem and Ramdas Pophale) SiO2 
 PCOD9119065
Probable space group: P 21
;
_chemical_formula_sum "Si O2"
_cell_formula_units_Z 14
_cell_length_a 6.022622
_cell_length_b 8.335144
_cell_length_c 14.314794
_cell_angle_alpha 90.000000
_cell_angle_beta 50.658951
_cell_angle_gamma 90.000000
_cell_volume 555.750999
_symmetry_space_group_name_H-M "P 21"
_symmetry_group_IT_number 4
_symmetry_cell_setting 'monoclinic'
loop_
_space_group_symop_operation_xyz
x,y,z
-x,1/2+y,-z
loop_
_atom_site_type_symbol
_atom_site_label
_atom_site_fract_x
_atom_site_fract_y
_atom_site_fract_z
Si Si1 0.910718 0.437930 0.639833
Si Si2 0.918423 0.451574 0.427160
Si Si3 0.773631 0.732863 0.977524
Si Si4 0.301871 0.470943 0.154670
Si Si5 0.114322 0.234268 0.750728
Si Si6 0.441149 0.671486 0.512815
Si Si7 0.722002 0.000137 0.146636
O O1 0.954956 0.386517 0.520997
O O2 0.605710 0.522718 0.734737
O O3 0.928249 0.300483 0.713140
O O4 0.178853 0.551179 0.590430
O O5 0.717627 0.608024 0.493526
O O6 0.700476 0.340329 0.425278
O O7 0.202433 0.461744 0.289322
O O8 0.688887 0.797642 0.897171
O O9 0.093857 0.662111 0.901428
O O10 0.576306 0.583596 0.063626
O O11 0.725900 0.891241 0.052801
O O12 0.041541 0.573427 0.176379
O O13 0.426956 0.193392 0.626330
O O14 0.135506 0.376931 0.817330
#
# Coordination Sequence:
#
# PCOD9119065 Si02
#       7
#     2   2   2   2   2   2   2
#     4  12  25  45  79 110 155 201 247 322 399 456
#     4  11  27  44  77 112 151 195 249 312 397 468
#     4  12  28  51  81 113 154 214 270 323 389 456
#     4  11  27  49  81 108 156 204 263 325 389 461
#     4  11  24  50  74 109 157 198 261 325 387 472
#     4  11  24  43  70 109 158 189 243 307 386 471
#     4  12  27  50  80 111 153 209 267 328 381 468
#
# _framework density 25.191140000000001
#
# number of rings (size 3 to 8) (size 9 to 14) (size 15 to 20)
#    0.000    0.571    4.286    1.714   10.000    1.143 
#    2.571    0.000    0.000    0.000    0.000    0.000 
#    0.000    0.000    0.000    0.000    0.000    0.000 
#
# Total GULP energy -78323.112753 kJ/mol
# GULP energy per Si atom -5594.508054 kJ/mol
# Density = 2.513380 g / cm^3
# Si number density = 25.191140 Si / 1000 Ang^3
#
#
#
# Elastic Constant Matrix: (Units=GPa)
#
#
# Indices 1 2 3 4 5 6 
#
# 1 58.7844 16.1119 52.2794 0.0000 -1.5717 0.0000
# 2 16.1119 69.2891 37.7867 0.0000 -8.9949 0.0000
# 3 52.2794 37.7867 157.3785 0.0000 -10.7079 0.0000
# 4 0.0000 0.0000 0.0000 45.4183 0.0000 -16.3884
# 5 -1.5717 -8.9949 -10.7079 0.0000 46.2086 0.0000
# 6 0.0000 0.0000 0.0000 -16.3884 0.0000 39.3245
#
#
#
# Elastic Compliance Matrix: (Units=1/GPa)
#
#
# Indices 1 2 3 4 5 6 
#
# 1 0.024341 -0.001576 -0.007795 0.000000 -0.001285 0.000000
# 2 -0.001576 0.016963 -0.003382 0.000000 0.002465 0.000000
# 3 -0.007795 -0.003382 0.009848 0.000000 0.001359 0.000000
# 4 0.000000 0.000000 0.000000 0.025914 0.000000 0.010800
# 5 -0.001285 0.002465 0.001359 0.000000 0.022392 0.000000
# 6 0.000000 0.000000 0.000000 0.010800 0.000000 0.029930
#
#
# Mechanical properties :
#
#
# Convention : Reuss Voigt Hill
#
# Bulk Modulus (GPa) = 38.99093 55.31200 47.15146
# Shear Modulus (GPa) = 30.59179 38.14189 34.36684
#
# Velocity S-wave (km/s) = 3.48859 3.89536 3.69757
# Velocity P-wave (km/s) = 5.63370 6.49895 6.08174
#
# Compressibility (1/GPa) = 0.02564699
#
# Stress axis : x y z
#
# Youngs Moduli (GPa) = 41.08250 58.95231 101.54487
#
# Poissons Ratio (x) = 0.09291 0.79154
# Poissons Ratio (y) = 0.06475 0.34338
# Poissons Ratio (z) = 0.32024 0.19935
#
# Static dielectric constant tensor:
#      x y z
#    x 2.008290 0.000000 0.038530 
#    y 0.000000 2.112500 0.000000 
#    z 0.038530 0.000000 2.016700 
# 
# From -- ./inp_files/10251.got.cif
#   From: 2010.05.17/outbox.cif.g08.bks.cpg/sg4_6_cif.got.tgz:10251.got - 2010.06.03 18:43:04.
