data_PCOD9119560
_publ_section_title
;
Structure prediction by ZEFSAII (Michael W. Deem and Ramdas Pophale) SiO2 
 PCOD9119560
Probable space group: P 21
;
_chemical_formula_sum "Si O2"
_cell_formula_units_Z 16
_cell_length_a 26.821874
_cell_length_b 4.855110
_cell_length_c 31.847531
_cell_angle_alpha 90.000000
_cell_angle_beta 9.383020
_cell_angle_gamma 90.000000
_cell_volume 676.146835
_symmetry_space_group_name_H-M "P 21"
_symmetry_group_IT_number 4
_symmetry_cell_setting 'monoclinic'
loop_
_space_group_symop_operation_xyz
x,y,z
-x,1/2+y,-z
loop_
_atom_site_type_symbol
_atom_site_label
_atom_site_fract_x
_atom_site_fract_y
_atom_site_fract_z
Si Si1 0.609592 0.655240 0.130235
Si Si2 0.295882 0.176454 0.855098
Si Si3 0.937669 0.927013 0.310230
Si Si4 0.185547 0.430309 0.152619
Si Si5 0.870142 0.650803 0.585297
Si Si6 0.386958 0.680527 0.569420
Si Si7 0.791083 0.635283 0.556882
Si Si8 0.798208 0.902696 0.155346
O O1 0.642181 0.784061 0.149414
O O2 0.376056 0.399410 0.323892
O O3 0.460704 0.896150 0.226639
O O4 0.915192 0.529855 0.855752
O O5 0.577104 0.975644 0.611742
O O6 0.283644 0.376971 0.825419
O O7 0.954112 0.058158 0.144596
O O8 0.111143 0.120191 0.200376
O O9 0.021449 0.619650 0.253600
O O10 0.025383 0.505697 0.329527
O O11 0.535947 0.515506 0.865945
O O12 0.926929 0.711935 0.489100
O O13 0.103840 0.428546 0.409782
O O14 0.601510 0.444248 0.409664
O O15 0.516603 0.795216 0.417855
O O16 0.081442 0.700906 0.931656
#
# Coordination Sequence:
#
# PCOD9119560 Si02
#       8
#     2   2   2   2   2   2   2   2
#     4  12  24  44  71 104 137 182 227 291 348 408
#     4  12  26  44  76 103 136 178 254 264 360 426
#     4  12  24  44  71 104 137 182 227 291 348 408
#     4  12  24  46  72 102 145 180 225 290 347 393
#     4  12  26  44  74 103 140 188 234 272 336 420
#     4  12  25  47  70  98 140 184 228 292 348 408
#     4  12  24  46  72 102 145 180 225 290 347 393
#     4  12  25  47  70  98 140 184 228 292 348 408
#
# _framework density 23.663499000000002
#
# number of rings (size 3 to 8) (size 9 to 14) (size 15 to 20)
#    0.000    0.000    7.500    2.250    0.000    5.000 
#    0.000    5.000    0.000    0.000    0.000    0.000 
#    0.000    0.000    0.000    0.000    0.000    0.000 
#
# Total GULP energy -89597.391132 kJ/mol
# GULP energy per Si atom -5599.836946 kJ/mol
# Density = 2.360964 g / cm^3
# Si number density = 23.663499 Si / 1000 Ang^3
#
#
#
# Elastic Constant Matrix: (Units=GPa)
#
#
# Indices 1 2 3 4 5 6 
#
# 1 142.1863 -5.4326 22.9408 -0.0003 14.4699 0.0004
# 2 -5.4326 57.8154 -13.0158 0.0002 -6.2140 -0.0002
# 3 22.9408 -13.0158 70.1279 0.0000 19.7034 0.0001
# 4 -0.0003 0.0002 0.0000 26.1389 0.0002 3.0043
# 5 14.4699 -6.2140 19.7034 0.0002 39.4551 -0.0003
# 6 0.0004 -0.0002 0.0001 3.0043 -0.0003 22.7395
#
#
#
# Elastic Compliance Matrix: (Units=1/GPa)
#
#
# Indices 1 2 3 4 5 6 
#
# 1 0.007531 0.000078 -0.001950 0.000000 -0.001776 0.000000
# 2 0.000078 0.018114 0.002958 0.000000 0.001347 0.000000
# 3 -0.001950 0.002958 0.017582 0.000000 -0.007599 0.000000
# 4 0.000000 0.000000 0.000000 0.038847 0.000000 -0.005132
# 5 -0.001776 0.001347 -0.007599 0.000000 0.030004 0.000001
# 6 0.000000 0.000000 0.000000 -0.005132 0.000001 0.044654
#
#
# Mechanical properties :
#
#
# Convention : Reuss Voigt Hill
#
# Bulk Modulus (GPa) = 22.02712 31.01273 26.51993
# Shear Modulus (GPa) = 29.46472 35.37585 32.42029
#
# Velocity S-wave (km/s) = 3.53250 3.87066 3.70544
# Velocity P-wave (km/s) = 5.09576 5.75414 5.43493
#
# Compressibility (1/GPa) = 0.04539858
#
# Stress axis : x y z
#
# Youngs Moduli (GPa) = 132.77748 55.20449 56.87730
#
# Poissons Ratio (x) = -0.00429 0.11093
# Poissons Ratio (y) = -0.01032 -0.16825
# Poissons Ratio (z) = 0.25896 -0.16330
#
# Static dielectric constant tensor:
#      x y z
#    x 1.918660 0.000000 0.009380 
#    y 0.000000 1.826750 0.000000 
#    z 0.009380 0.000000 1.922450 
# 
# From -- ./inp_files/15395.got.cif
#   From: 2010.05.17/outbox.cif.g08.bks.cpg/sg4_8_cif.got.tgz:15395.got - 2010.06.03 18:43:04.
