data_PCOD9119088
_publ_section_title
;
Structure prediction by ZEFSAII (Michael W. Deem and Ramdas Pophale) SiO2 
 PCOD9119088
Probable space group: P 21
;
_chemical_formula_sum "Si O2"
_cell_formula_units_Z 14
_cell_length_a 11.414152
_cell_length_b 8.624023
_cell_length_c 9.611424
_cell_angle_alpha 90.000000
_cell_angle_beta 37.981719
_cell_angle_gamma 90.000000
_cell_volume 582.245118
_symmetry_space_group_name_H-M "P 21"
_symmetry_group_IT_number 4
_symmetry_cell_setting 'monoclinic'
loop_
_space_group_symop_operation_xyz
x,y,z
-x,1/2+y,-z
loop_
_atom_site_type_symbol
_atom_site_label
_atom_site_fract_x
_atom_site_fract_y
_atom_site_fract_z
Si Si1 0.580711 0.997330 0.392539
Si Si2 0.945631 0.991657 0.625613
Si Si3 0.354409 0.700638 0.930131
Si Si4 0.358721 0.062246 0.872800
Si Si5 0.715665 0.698693 0.779073
Si Si6 0.892848 0.732436 0.099745
Si Si7 0.831269 0.434302 0.318015
O O1 0.734666 0.864197 0.269290
O O2 0.649996 0.124985 0.218412
O O3 0.515907 0.060252 0.603124
O O4 0.393351 0.928649 0.491975
O O5 0.108562 0.079052 0.387843
O O6 0.066242 0.901832 0.632543
O O7 0.810180 0.867568 0.678018
O O8 0.804492 0.116400 0.828241
O O9 0.562365 0.669833 0.802637
O O10 0.332147 0.885266 0.944479
O O11 0.173832 0.129053 0.968523
O O12 0.391944 0.172161 0.973726
O O13 0.891387 0.612231 0.226698
O O14 0.078721 0.822911 0.881410
#
# Coordination Sequence:
#
# PCOD9119088 Si02
#       7
#     2   2   2   2   2   2   2
#     4  11  24  46  73 108 144 184 235 300 361 425
#     4  12  26  48  75 102 146 189 247 295 350 436
#     4  12  25  47  75 103 146 190 240 297 362 425
#     4  11  24  44  71 105 140 185 238 289 358 427
#     4  12  26  50  70 107 143 195 241 295 360 424
#     4  11  25  44  72 106 145 183 238 295 364 427
#     4  11  24  45  72 107 140 192 233 297 359 420
#
# _framework density 24.044855999999999
#
# number of rings (size 3 to 8) (size 9 to 14) (size 15 to 20)
#    0.000    0.571    4.286    3.429    4.000    2.286 
#    5.143    0.000    0.000    0.000    0.000    0.000 
#    0.000    0.000    0.000    0.000    0.000    0.000 
#
# Total GULP energy -78444.654171 kJ/mol
# GULP energy per Si atom -5603.189584 kJ/mol
# Density = 2.399013 g / cm^3
# Si number density = 24.044856 Si / 1000 Ang^3
#
#
#
# Elastic Constant Matrix: (Units=GPa)
#
#
# Indices 1 2 3 4 5 6 
#
# 1 80.0206 22.7868 35.4569 0.0000 -8.0508 0.0000
# 2 22.7868 88.1288 26.8577 0.0000 -3.5174 0.0000
# 3 35.4569 26.8577 94.8854 0.0000 -4.2320 0.0000
# 4 0.0000 0.0000 0.0000 15.5105 0.0000 -10.6299
# 5 -8.0508 -3.5174 -4.2320 0.0000 29.8051 0.0000
# 6 0.0000 0.0000 0.0000 -10.6299 0.0000 46.0609
#
#
#
# Elastic Compliance Matrix: (Units=1/GPa)
#
#
# Indices 1 2 3 4 5 6 
#
# 1 0.015750 -0.002400 -0.005061 0.000000 0.003252 0.000000
# 2 -0.002400 0.012812 -0.002708 0.000000 0.000479 0.000000
# 3 -0.005061 -0.002708 0.013205 0.000000 0.000188 0.000000
# 4 0.000000 0.000000 0.000000 0.076585 0.000000 0.017674
# 5 0.003252 0.000479 0.000188 0.000000 0.034513 0.000000
# 6 0.000000 0.000000 0.000000 0.017674 0.000000 0.025789
#
#
# Mechanical properties :
#
#
# Convention : Reuss Voigt Hill
#
# Bulk Modulus (GPa) = 46.66704 48.13753 47.40228
# Shear Modulus (GPa) = 24.25577 30.13754 27.19666
#
# Velocity S-wave (km/s) = 3.17956 3.54416 3.36680
# Velocity P-wave (km/s) = 5.73846 6.06725 5.90514
#
# Compressibility (1/GPa) = 0.02142840
#
# Stress axis : x y z
#
# Youngs Moduli (GPa) = 63.49202 78.05125 75.72761
#
# Poissons Ratio (x) = 0.18734 0.38326
# Poissons Ratio (y) = 0.15239 0.20509
# Poissons Ratio (z) = 0.32134 0.21138
#
# Static dielectric constant tensor:
#      x y z
#    x 1.890140 0.000000 0.020520 
#    y 0.000000 1.898490 0.000000 
#    z 0.020520 0.000000 1.921050 
# 
# From -- ./inp_files/7926.got.cif
#   From: 2010.05.17/outbox.cif.g08.bks.cpg/sg4_4_cif.got.tgz:7926.got - 2010.06.03 18:43:04.
