data_PCOD9119377
_publ_section_title
;
Structure prediction by ZEFSAII (Michael W. Deem and Ramdas Pophale) SiO2 
 PCOD9119377
Probable space group: P 21
;
_chemical_formula_sum "Si O2"
_cell_formula_units_Z 14
_cell_length_a 9.055439
_cell_length_b 13.919345
_cell_length_c 4.977162
_cell_angle_alpha 90.000000
_cell_angle_beta 55.783161
_cell_angle_gamma 90.000000
_cell_volume 518.765560
_symmetry_space_group_name_H-M "P 21"
_symmetry_group_IT_number 4
_symmetry_cell_setting 'monoclinic'
loop_
_space_group_symop_operation_xyz
x,y,z
-x,1/2+y,-z
loop_
_atom_site_type_symbol
_atom_site_label
_atom_site_fract_x
_atom_site_fract_y
_atom_site_fract_z
Si Si1 0.387473 0.938060 0.369690
Si Si2 0.195127 0.197507 0.726095
Si Si3 0.443044 0.248742 0.973122
Si Si4 0.972910 0.387745 0.944257
Si Si5 0.879552 0.546265 0.606284
Si Si6 0.790373 0.134936 0.561615
Si Si7 0.281943 0.520575 0.850720
O O1 0.523992 0.859918 0.117780
O O2 0.324139 0.011202 0.203070
O O3 0.517993 0.993880 0.432447
O O4 0.211849 0.896438 0.697338
O O5 0.322525 0.203661 0.857756
O O6 0.038582 0.277794 0.867014
O O7 0.123250 0.092894 0.697855
O O8 0.334455 0.228613 0.350947
O O9 0.648550 0.214308 0.786410
O O10 0.136312 0.440902 0.927129
O O11 0.951097 0.449226 0.689589
O O12 0.995008 0.631883 0.624180
O O13 0.756554 0.112934 0.288920
O O14 0.740066 0.048958 0.817759
#
# Coordination Sequence:
#
# PCOD9119377 Si02
#       7
#     2   2   2   2   2   2   2
#     4  12  27  48  81 117 154 216 257 333 400 476
#     4  12  30  53  79 118 166 211 272 335 406 479
#     4  12  29  48  81 115 161 210 264 334 403 485
#     4  11  28  51  80 119 159 213 272 335 399 484
#     4  11  28  47  83 113 163 208 273 331 403 475
#     4  11  25  49  74 115 150 209 258 329 385 484
#     4  11  25  48  78 107 163 197 264 315 402 467
#
# _framework density 26.987141999999999
#
# number of rings (size 3 to 8) (size 9 to 14) (size 15 to 20)
#    0.000    0.571    2.857    2.571   16.000    1.143 
#    0.000    0.000    0.000    0.000    0.000    0.000 
#    0.000    0.000    0.000    0.000    0.000    0.000 
#
# Total GULP energy -78146.031695 kJ/mol
# GULP energy per Si atom -5581.859407 kJ/mol
# Density = 2.692572 g / cm^3
# Si number density = 26.987142 Si / 1000 Ang^3
#
#
#
# Elastic Constant Matrix: (Units=GPa)
#
#
# Indices 1 2 3 4 5 6 
#
# 1 164.3693 36.4802 46.6168 0.0000 -21.5012 0.0000
# 2 36.4802 113.6068 21.6024 0.0000 -7.6104 0.0000
# 3 46.6168 21.6024 137.6152 0.0000 -6.4636 0.0000
# 4 0.0000 0.0000 0.0000 40.3003 0.0000 -10.1695
# 5 -21.5012 -7.6104 -6.4636 0.0000 36.0587 0.0000
# 6 0.0000 0.0000 0.0000 -10.1695 0.0000 49.9178
#
#
#
# Elastic Compliance Matrix: (Units=1/GPa)
#
#
# Indices 1 2 3 4 5 6 
#
# 1 0.007568 -0.001777 -0.002108 0.000000 0.003760 0.000000
# 2 -0.001777 0.009592 -0.000866 0.000000 0.000809 0.000000
# 3 -0.002108 -0.000866 0.008117 0.000000 0.000015 0.000000
# 4 0.000000 0.000000 0.000000 0.026158 0.000000 0.005329
# 5 0.003760 0.000809 0.000015 0.000000 0.030148 0.000000
# 6 0.000000 0.000000 0.000000 0.005329 0.000000 0.021119
#
#
# Mechanical properties :
#
#
# Convention : Reuss Voigt Hill
#
# Bulk Modulus (GPa) = 63.39126 69.44337 66.41731
# Shear Modulus (GPa) = 42.56670 45.98150 44.27410
#
# Velocity S-wave (km/s) = 3.97583 4.13223 4.05478
# Velocity P-wave (km/s) = 6.67957 6.96814 6.82538
#
# Compressibility (1/GPa) = 0.01577505
#
# Stress axis : x y z
#
# Youngs Moduli (GPa) = 132.13509 104.25512 123.19326
#
# Poissons Ratio (x) = 0.18531 0.25970
# Poissons Ratio (y) = 0.23486 0.10663
# Poissons Ratio (z) = 0.27855 0.09024
#
# Static dielectric constant tensor:
#      x y z
#    x 2.169310 0.000000 0.006510 
#    y 0.000000 2.211500 0.000000 
#    z 0.006510 0.000000 2.173010 
# 
# From -- ./inp_files/1906.got.cif
#   From: 2010.05.17/outbox.cif.g08.bks.cpg/sg4_1_cif.got.tgz:1906.got - 2010.06.03 18:43:04.
