data_PCOD9119853
_publ_section_title
;
Structure prediction by ZEFSAII (Michael W. Deem and Ramdas Pophale) SiO2 
 PCOD9119853
Probable space group: P 21
;
_chemical_formula_sum "Si O2"
_cell_formula_units_Z 16
_cell_length_a 15.000000
_cell_length_b 9.000000
_cell_length_c 15.000000
_cell_angle_alpha 90.000000
_cell_angle_beta 20.000000
_cell_angle_gamma 90.000000
_cell_volume 692.590790
_symmetry_space_group_name_H-M "P 21"
_symmetry_group_IT_number 4
_symmetry_cell_setting 'monoclinic'
loop_
_space_group_symop_operation_xyz
x,y,z
-x,1/2+y,-z
loop_
_atom_site_type_symbol
_atom_site_label
_atom_site_fract_x
_atom_site_fract_y
_atom_site_fract_z
Si Si1 0.266774 0.300180 0.296118
Si Si2 0.652117 0.096239 0.519524
Si Si3 0.711863 0.578359 0.309446
Si Si4 0.424144 0.838620 0.825951
Si Si5 0.605431 0.436665 0.586400
Si Si6 0.978806 0.372096 0.930181
Si Si7 0.253772 0.616405 0.229216
Si Si8 0.856018 0.070106 0.860565
O O1 0.348251 0.276239 0.323638
O O2 0.275458 0.478566 0.276069
O O3 0.991847 0.226609 0.528516
O O4 0.488291 0.215381 0.029537
O O5 0.473283 0.111118 0.599835
O O6 0.690726 0.265026 0.512774
O O7 0.498699 0.009631 0.741891
O O8 0.889649 0.987759 0.264572
O O9 0.560946 0.488548 0.527058
O O10 0.843158 0.729194 0.221200
O O11 0.929426 0.466432 0.065467
O O12 0.189460 0.748733 0.093123
O O13 0.307575 0.814804 0.834746
O O14 0.861095 0.526616 0.374222
O O15 0.359610 0.488375 0.875628
O O16 0.196438 0.528613 0.191217
#
# Coordination Sequence:
#
# PCOD9119853 Si02
#       8
#     2   2   2   2   2   2   2   2
#     4  11  25  46  79 107 150 188 240 295 364 442
#     4  11  26  39  65 100 140 183 251 301 362 421
#     4  11  24  40  67  95 139 190 244 305 360 422
#     4  10  24  43  69  98 136 193 234 287 363 434
#     4  12  26  43  68  99 140 185 234 299 357 420
#     4  11  23  42  65  96 139 186 244 301 364 427
#     4  11  25  48  75 113 144 187 240 293 367 434
#     4  11  25  45  70  98 140 184 233 283 359 430
#
# _framework density 23.101664
#
# number of rings (size 3 to 8) (size 9 to 14) (size 15 to 20)
#    0.000    1.000    1.250    4.500   10.500    4.000 
#    0.000    0.000    0.000    0.000    0.000    0.000 
#    0.000    0.000    0.000    0.000    0.000    0.000 
#
# Total GULP energy -89254.257762 kJ/mol
# GULP energy per Si atom -5578.391110 kJ/mol
# Density = 2.304908 g / cm^3
# Si number density = 23.101664 Si / 1000 Ang^3
#
#
#
# Elastic Constant Matrix: (Units=GPa)
#
#
# Indices 1 2 3 4 5 6 
#
# 1 71.7220 24.5818 31.9672 0.0000 0.2272 0.0000
# 2 24.5818 127.3439 50.0113 0.0000 10.8266 0.0000
# 3 31.9672 50.0113 112.8319 0.0000 -7.5576 0.0000
# 4 0.0000 0.0000 0.0000 39.2138 0.0000 5.0844
# 5 0.2272 10.8266 -7.5576 0.0000 14.7457 0.0000
# 6 0.0000 0.0000 0.0000 5.0844 0.0000 30.1439
#
#
#
# Elastic Compliance Matrix: (Units=1/GPa)
#
#
# Indices 1 2 3 4 5 6 
#
# 1 0.016245 -0.001437 -0.004051 0.000000 -0.001271 0.000000
# 2 -0.001437 0.011108 -0.005241 0.000000 -0.010820 0.000000
# 3 -0.004051 -0.005241 0.013043 0.000000 0.010596 0.000000
# 4 0.000000 0.000000 0.000000 0.026071 0.000000 -0.004397
# 5 -0.001271 -0.010820 0.010596 0.000000 0.081211 0.000000
# 6 0.000000 0.000000 0.000000 -0.004397 0.000000 0.033916
#
#
# Mechanical properties :
#
#
# Convention : Reuss Voigt Hill
#
# Bulk Modulus (GPa) = 52.80232 58.33538 55.56885
# Shear Modulus (GPa) = 23.88171 30.50986 27.19578
#
# Velocity S-wave (km/s) = 3.21871 3.63806 3.43479
# Velocity P-wave (km/s) = 6.05967 6.55391 6.31163
#
# Compressibility (1/GPa) = 0.01893856
#
# Stress axis : x y z
#
# Youngs Moduli (GPa) = 61.55873 90.02155 76.66807
#
# Poissons Ratio (x) = 0.12935 0.31056
# Poissons Ratio (y) = 0.08845 0.40184
# Poissons Ratio (z) = 0.24935 0.47183
#
# Static dielectric constant tensor:
#      x y z
#    x 1.979660 0.000000 0.018920 
#    y 0.000000 1.896290 0.000000 
#    z 0.018920 0.000000 1.901960 
# 
# From -- ./inp_files/3481.got.cif
#   From: 2010.05.17/outbox.ucp.g08.bks.cvg/sg4_2_cif.got.tgz:3481.got - 2010.06.11 12:51:24.
