data_PCOD9119722
_publ_section_title
;
Structure prediction by ZEFSAII (Michael W. Deem and Ramdas Pophale) SiO2 
 PCOD9119722
Probable space group: P 21
;
_chemical_formula_sum "Si O2"
_cell_formula_units_Z 16
_cell_length_a 15.505331
_cell_length_b 5.109638
_cell_length_c 12.590874
_cell_angle_alpha 90.000000
_cell_angle_beta 38.287326
_cell_angle_gamma 90.000000
_cell_volume 618.076543
_symmetry_space_group_name_H-M "P 21"
_symmetry_group_IT_number 4
_symmetry_cell_setting 'monoclinic'
loop_
_space_group_symop_operation_xyz
x,y,z
-x,1/2+y,-z
loop_
_atom_site_type_symbol
_atom_site_label
_atom_site_fract_x
_atom_site_fract_y
_atom_site_fract_z
Si Si1 0.028751 0.245440 0.037229
Si Si2 0.684414 0.088365 0.769071
Si Si3 0.978511 0.573958 0.272227
Si Si4 0.436459 0.817766 0.910757
Si Si5 0.687310 0.468866 0.578426
Si Si6 0.408333 0.763833 0.561233
Si Si7 0.770573 0.402792 0.073414
Si Si8 0.929961 0.786229 0.605209
O O1 0.945953 0.354850 0.215557
O O2 0.023685 0.471437 0.956129
O O3 0.181467 0.187559 0.934615
O O4 0.739239 0.263470 0.618649
O O5 0.529348 0.028511 0.881041
O O6 0.777309 0.835539 0.706233
O O7 0.669930 0.219778 0.897651
O O8 0.819532 0.669267 0.442250
O O9 0.047102 0.420300 0.303635
O O10 0.096074 0.765732 0.111635
O O11 0.549989 0.610093 0.757972
O O12 0.351167 0.918327 0.893468
O O13 0.640019 0.341589 0.511382
O O14 0.487224 0.488740 0.495606
O O15 0.282171 0.766455 0.767995
O O16 0.975801 0.485299 0.557866
#
# Coordination Sequence:
#
# PCOD9119722 Si02
#       8
#     2   2   2   2   2   2   2   2
#     4  12  28  52  81 124 162 212 276 345 412 490
#     4  12  26  47  83 116 165 221 275 345 412 502
#     4  12  28  49  85 122 167 217 277 349 418 498
#     4  12  26  49  79 121 164 217 282 336 419 500
#     4  12  27  52  79 120 162 219 274 343 418 494
#     4  12  29  53  82 118 165 216 277 342 406 498
#     4  12  28  51  82 123 166 220 279 344 421 492
#     4  12  28  51  79 122 167 214 278 344 418 496
#
# _framework density 25.886761
#
# number of rings (size 3 to 8) (size 9 to 14) (size 15 to 20)
#    0.000    0.000    6.250    2.250    3.500    3.000 
#    0.000    0.000    0.000    0.000    0.000    0.000 
#    0.000    0.000    0.000    0.000    0.000    0.000 
#
# Total GULP energy -89622.325696 kJ/mol
# GULP energy per Si atom -5601.395356 kJ/mol
# Density = 2.582784 g / cm^3
# Si number density = 25.886761 Si / 1000 Ang^3
#
#
#
# Elastic Constant Matrix: (Units=GPa)
#
#
# Indices 1 2 3 4 5 6 
#
# 1 158.7120 7.6040 29.1720 0.0000 14.1385 0.0000
# 2 7.6040 66.9366 8.9335 0.0000 -9.5883 0.0000
# 3 29.1720 8.9335 96.7827 0.0000 4.6271 0.0000
# 4 0.0000 0.0000 0.0000 37.4277 0.0000 -23.0186
# 5 14.1385 -9.5883 4.6271 0.0000 54.5552 0.0000
# 6 0.0000 0.0000 0.0000 -23.0186 0.0000 25.4953
#
#
#
# Elastic Compliance Matrix: (Units=1/GPa)
#
#
# Indices 1 2 3 4 5 6 
#
# 1 0.006844 -0.000773 -0.001908 0.000000 -0.001748 0.000000
# 2 -0.000773 0.015648 -0.001358 0.000000 0.003066 0.000000
# 3 -0.001908 -0.001358 0.011066 0.000000 -0.000683 0.000000
# 4 0.000000 0.000000 0.000000 0.060077 0.000000 0.054241
# 5 -0.001748 0.003066 -0.000683 0.000000 0.019380 0.000000
# 6 0.000000 0.000000 0.000000 0.054241 0.000000 0.088195
#
#
# Mechanical properties :
#
#
# Convention : Reuss Voigt Hill
#
# Bulk Modulus (GPa) = 39.24769 45.98335 42.61552
# Shear Modulus (GPa) = 22.95884 41.94377 32.45130
#
# Velocity S-wave (km/s) = 2.98131 4.02964 3.54444
# Velocity P-wave (km/s) = 5.20050 6.28112 5.76618
#
# Compressibility (1/GPa) = 0.02547921
#
# Stress axis : x y z
#
# Youngs Moduli (GPa) = 146.10985 63.90709 90.37091
#
# Poissons Ratio (x) = 0.04941 0.17243
# Poissons Ratio (y) = 0.11297 0.12271
# Poissons Ratio (z) = 0.27878 0.08678
#
# Static dielectric constant tensor:
#      x y z
#    x 2.002560 0.000000 -0.013730 
#    y 0.000000 2.053320 0.000000 
#    z -0.013730 0.000000 2.180910 
# 
# From -- ./inp_files/12474.got.cif
#   From: 2010.05.17/outbox.cif.g08.bks.cpg/sg4_7_cif.got.tgz:12474.got - 2010.06.03 18:43:04.
