data_PCOD9119630
_publ_section_title
;
Structure prediction by ZEFSAII (Michael W. Deem and Ramdas Pophale) SiO2 
 PCOD9119630
Probable space group: P 21
;
_chemical_formula_sum "Si O2"
_cell_formula_units_Z 14
_cell_length_a 19.008052
_cell_length_b 5.920608
_cell_length_c 14.274120
_cell_angle_alpha 90.000000
_cell_angle_beta 157.773809
_cell_angle_gamma 90.000000
_cell_volume 607.642653
_symmetry_space_group_name_H-M "P 21"
_symmetry_group_IT_number 4
_symmetry_cell_setting 'monoclinic'
loop_
_space_group_symop_operation_xyz
x,y,z
-x,1/2+y,-z
loop_
_atom_site_type_symbol
_atom_site_label
_atom_site_fract_x
_atom_site_fract_y
_atom_site_fract_z
Si Si1 0.816998 0.221900 0.597531
Si Si2 0.424879 0.498858 0.534891
Si Si3 0.232848 0.306685 0.117168
Si Si4 0.554873 0.546945 0.210032
Si Si5 0.303653 0.640548 0.047403
Si Si6 0.007060 0.318170 0.457761
Si Si7 0.644761 0.943806 0.224690
O O1 0.695791 0.117438 0.532461
O O2 0.745860 0.478705 0.494968
O O3 0.751821 0.134679 0.414495
O O4 0.034188 0.184741 0.881717
O O5 0.292276 0.427494 0.286106
O O6 0.592779 0.655441 0.702168
O O7 0.526679 0.273876 0.697104
O O8 0.202189 0.494571 0.999829
O O9 0.389940 0.473545 0.075161
O O10 0.544666 0.814333 0.185272
O O11 0.501975 0.482895 0.038645
O O12 0.165693 0.809599 0.825871
O O13 0.007388 0.572711 0.505126
O O14 0.193880 0.304273 0.627269
#
# Coordination Sequence:
#
# PCOD9119630 Si02
#       7
#     2   2   2   2   2   2   2
#     4  12  28  47  78 113 150 199 264 323 390 482
#     4  12  27  51  77 108 149 202 264 332 402 472
#     4  12  28  51  79 110 148 201 264 329 403 472
#     4  12  25  43  75 108 153 205 250 311 392 476
#     4  12  26  48  76 106 155 205 257 323 400 474
#     4  12  30  46  74 115 158 210 267 324 395 491
#     4  12  26  44  71 108 159 204 252 316 394 471
#
# _framework density 23.039857999999999
#
# number of rings (size 3 to 8) (size 9 to 14) (size 15 to 20)
#    0.000    0.000    7.143    1.714   10.000    2.286 
#    2.571    0.000    0.000    0.000    0.000    0.000 
#    0.000    0.000    0.000    0.000    0.000    0.000 
#
# Total GULP energy -78114.333437 kJ/mol
# GULP energy per Si atom -5579.595246 kJ/mol
# Density = 2.298742 g / cm^3
# Si number density = 23.039858 Si / 1000 Ang^3
#
#
#
# Elastic Constant Matrix: (Units=GPa)
#
#
# Indices 1 2 3 4 5 6 
#
# 1 118.1289 32.3311 41.4054 0.0000 5.5607 0.0000
# 2 32.3311 59.4390 20.5772 0.0000 -3.9058 0.0000
# 3 41.4054 20.5772 104.5731 0.0000 14.2687 0.0000
# 4 0.0000 0.0000 0.0000 31.8199 0.0000 -0.1898
# 5 5.5607 -3.9058 14.2687 0.0000 39.3559 0.0000
# 6 0.0000 0.0000 0.0000 -0.1898 0.0000 31.9315
#
#
#
# Elastic Compliance Matrix: (Units=1/GPa)
#
#
# Indices 1 2 3 4 5 6 
#
# 1 0.010994 -0.004904 -0.003272 0.000000 -0.000854 0.000000
# 2 -0.004904 0.020642 -0.002624 0.000000 0.003693 0.000000
# 3 -0.003272 -0.002624 0.011937 0.000000 -0.004126 0.000000
# 4 0.000000 0.000000 0.000000 0.031428 0.000000 0.000187
# 5 -0.000854 0.003693 -0.004126 0.000000 0.027392 0.000000
# 6 0.000000 0.000000 0.000000 0.000187 0.000000 0.031318
#
#
# Mechanical properties :
#
#
# Convention : Reuss Voigt Hill
#
# Bulk Modulus (GPa) = 45.50616 52.30758 48.90687
# Shear Modulus (GPa) = 30.74329 33.14327 31.94328
#
# Velocity S-wave (km/s) = 3.65684 3.79690 3.72753
# Velocity P-wave (km/s) = 6.13383 6.47875 6.30865
#
# Compressibility (1/GPa) = 0.02197505
#
# Stress axis : x y z
#
# Youngs Moduli (GPa) = 90.95505 48.44396 83.76964
#
# Poissons Ratio (x) = 0.23756 0.27408
# Poissons Ratio (y) = 0.44602 0.21982
# Poissons Ratio (z) = 0.29758 0.12712
#
# Static dielectric constant tensor:
#      x y z
#    x 1.909360 0.000000 0.008850 
#    y 0.000000 2.101470 0.000000 
#    z 0.008850 0.000000 1.841660 
# 
# From -- ./inp_files/7089.got.cif
#   From: 2010.05.17/outbox.cif.g08.bks.cpg/sg4_4_cif.got.tgz:7089.got - 2010.06.03 18:43:04.
