data_PCOD9119310
_publ_section_title
;
Structure prediction by ZEFSAII (Michael W. Deem and Ramdas Pophale) SiO2 
 PCOD9119310
Probable space group: P 21
;
_chemical_formula_sum "Si O2"
_cell_formula_units_Z 14
_cell_length_a 8.686616
_cell_length_b 6.776250
_cell_length_c 17.617966
_cell_angle_alpha 90.000000
_cell_angle_beta 149.811451
_cell_angle_gamma 90.000000
_cell_volume 521.473029
_symmetry_space_group_name_H-M "P 21"
_symmetry_group_IT_number 4
_symmetry_cell_setting 'monoclinic'
loop_
_space_group_symop_operation_xyz
x,y,z
-x,1/2+y,-z
loop_
_atom_site_type_symbol
_atom_site_label
_atom_site_fract_x
_atom_site_fract_y
_atom_site_fract_z
Si Si1 0.224504 0.630170 0.385863
Si Si2 0.750009 0.765121 0.500005
Si Si3 0.724506 0.400077 0.385866
Si Si4 0.696479 0.945040 0.178707
Si Si5 0.335516 0.731897 0.153063
Si Si6 0.803526 0.585210 0.821295
Si Si7 0.164487 0.798352 0.846939
O O1 0.532775 0.707802 0.481223
O O2 0.254383 0.497438 0.472857
O O3 0.054389 0.483029 0.254651
O O4 0.985815 0.805458 0.297154
O O5 0.754400 0.532805 0.472866
O O6 0.967231 0.822442 0.518780
O O7 0.554388 0.547221 0.254654
O O8 0.485812 0.224791 0.297154
O O9 0.785288 0.177310 0.210351
O O10 0.490869 0.889806 0.163315
O O11 0.477086 0.883069 0.014701
O O12 0.285286 0.852942 0.210349
O O13 0.022918 0.647182 0.985300
O O14 0.009136 0.640439 0.836686
#
# Coordination Sequence:
#
# PCOD9119310 Si02
#       7
#     2   2   2   2   2   2   2
#     4  12  28  52  74 116 148 208 256 324 376 468
#     4  12  32  52  80 104 166 210 266 300 390 462
#     4  12  28  52  74 116 148 208 256 324 376 468
#     4  11  25  45  77 115 153 191 250 325 390 453
#     4  11  25  45  77 115 153 191 250 325 390 453
#     4  11  25  45  77 115 153 191 250 325 390 453
#     4  11  25  45  77 115 153 191 250 325 390 453
#
# _framework density 26.847026
#
# number of rings (size 3 to 8) (size 9 to 14) (size 15 to 20)
#    0.000    0.571    5.714    0.000    8.000    2.286 
#    0.000    0.000    0.000    0.000    0.000    0.000 
#    0.000    0.000    0.000    0.000    0.000    0.000 
#
# Total GULP energy -78239.690877 kJ/mol
# GULP energy per Si atom -5588.549348 kJ/mol
# Density = 2.678592 g / cm^3
# Si number density = 26.847026 Si / 1000 Ang^3
#
#
#
# Elastic Constant Matrix: (Units=GPa)
#
#
# Indices 1 2 3 4 5 6 
#
# 1 84.5073 14.6203 41.3578 0.0000 26.6250 0.0000
# 2 14.6203 129.8122 58.7361 0.0000 9.7661 0.0000
# 3 41.3578 58.7361 109.3132 0.0000 17.9591 0.0000
# 4 0.0000 0.0000 0.0000 41.1170 0.0000 12.3379
# 5 26.6250 9.7661 17.9591 0.0000 40.2377 0.0000
# 6 0.0000 0.0000 0.0000 12.3379 0.0000 83.0836
#
#
#
# Elastic Compliance Matrix: (Units=1/GPa)
#
#
# Indices 1 2 3 4 5 6 
#
# 1 0.017326 0.001351 -0.005767 0.000000 -0.009219 0.000000
# 2 0.001351 0.010283 -0.005913 0.000000 -0.000751 0.000000
# 3 -0.005767 -0.005913 0.014724 0.000000 -0.001321 0.000000
# 4 0.000000 0.000000 0.000000 0.025455 0.000000 -0.003780
# 5 -0.009219 -0.000751 -0.001321 0.000000 0.031724 0.000000
# 6 0.000000 0.000000 0.000000 -0.003780 0.000000 0.012597
#
#
# Mechanical properties :
#
#
# Convention : Reuss Voigt Hill
#
# Bulk Modulus (GPa) = 46.13345 61.45126 53.79235
# Shear Modulus (GPa) = 35.71597 46.81558 41.26577
#
# Velocity S-wave (km/s) = 3.65135 4.18040 3.92480
# Velocity P-wave (km/s) = 5.91588 6.80001 6.37329
#
# Compressibility (1/GPa) = 0.02167625
#
# Stress axis : x y z
#
# Youngs Moduli (GPa) = 57.71576 97.24454 67.91518
#
# Poissons Ratio (x) = -0.13143 0.39166
# Poissons Ratio (y) = -0.07800 0.40161
# Poissons Ratio (z) = 0.33284 0.57505
#
# Static dielectric constant tensor:
#      x y z
#    x 1.989330 0.000000 -0.068320 
#    y 0.000000 1.980780 0.000000 
#    z -0.068320 0.000000 1.933800 
# 
# From -- ./inp_files/15572.got.cif
#   From: 2010.05.17/outbox.cif.g08.bks.cpg/sg4_8_cif.got.tgz:15572.got - 2010.06.03 18:43:04.
