data_PCOD9119581
_publ_section_title
;
Structure prediction by ZEFSAII (Michael W. Deem and Ramdas Pophale) SiO2 
 PCOD9119581
Probable space group: P 21
;
_chemical_formula_sum "Si O2"
_cell_formula_units_Z 16
_cell_length_a 15.857872
_cell_length_b 5.917441
_cell_length_c 9.870475
_cell_angle_alpha 90.000000
_cell_angle_beta 137.112247
_cell_angle_gamma 90.000000
_cell_volume 630.356221
_symmetry_space_group_name_H-M "P 21"
_symmetry_group_IT_number 4
_symmetry_cell_setting 'monoclinic'
loop_
_space_group_symop_operation_xyz
x,y,z
-x,1/2+y,-z
loop_
_atom_site_type_symbol
_atom_site_label
_atom_site_fract_x
_atom_site_fract_y
_atom_site_fract_z
Si Si1 0.560802 0.018200 0.722143
Si Si2 0.347360 0.624769 0.677015
Si Si3 0.113839 0.338923 0.464960
Si Si4 0.777073 0.728755 0.917111
Si Si5 0.405115 0.834911 0.011747
Si Si6 0.858957 0.537661 0.269456
Si Si7 0.311922 0.835654 0.348591
Si Si8 0.053545 0.420287 0.086518
O O1 0.620717 0.192769 0.688009
O O2 0.635404 0.787668 0.784699
O O3 0.416769 0.009986 0.523805
O O4 0.581513 0.095095 0.899279
O O5 0.234778 0.496103 0.619806
O O6 0.391161 0.814744 0.834312
O O7 0.294083 0.704039 0.469273
O O8 0.471485 0.474114 0.803983
O O9 0.087235 0.333452 0.275383
O O10 0.987153 0.415620 0.388550
O O11 0.144200 0.110361 0.578814
O O12 0.787732 0.492379 0.846575
O O13 0.831954 0.917945 0.883296
O O14 0.852023 0.731409 0.145857
O O15 0.272722 0.919815 0.911000
O O16 0.017552 0.689042 0.051929
#
# Coordination Sequence:
#
# PCOD9119581 Si02
#       8
#     2   2   2   2   2   2   2   2
#     4  12  24  45  73 110 150 201 259 324 397 485
#     4  12  27  47  75 115 159 207 265 337 405 490
#     4  12  29  49  79 115 159 210 269 332 409 487
#     4  12  27  46  77 108 156 208 260 331 402 483
#     4  12  26  48  76 109 158 205 266 326 406 485
#     4  12  27  50  75 111 152 208 264 326 397 484
#     4  12  25  44  74 113 153 195 265 320 408 477
#     4  12  31  53  83 119 167 216 274 338 414 491
#
# _framework density 25.382473999999998
#
# number of rings (size 3 to 8) (size 9 to 14) (size 15 to 20)
#    0.000    0.000    3.750    5.250   10.500    0.000 
#    0.000    0.000    0.000    0.000    0.000    0.000 
#    0.000    0.000    0.000    0.000    0.000    0.000 
#
# Total GULP energy -89428.820741 kJ/mol
# GULP energy per Si atom -5589.301296 kJ/mol
# Density = 2.532470 g / cm^3
# Si number density = 25.382474 Si / 1000 Ang^3
#
#
#
# Elastic Constant Matrix: (Units=GPa)
#
#
# Indices 1 2 3 4 5 6 
#
# 1 107.3851 38.0884 25.5999 0.0000 9.3733 0.0000
# 2 38.0884 29.1215 12.5676 0.0000 9.5514 0.0000
# 3 25.5999 12.5676 118.3250 0.0000 -8.3012 0.0000
# 4 0.0000 0.0000 0.0000 46.9214 0.0000 -5.0866
# 5 9.3733 9.5514 -8.3012 0.0000 50.8607 0.0000
# 6 0.0000 0.0000 0.0000 -5.0866 0.0000 52.9235
#
#
#
# Elastic Compliance Matrix: (Units=1/GPa)
#
#
# Indices 1 2 3 4 5 6 
#
# 1 0.017628 -0.022739 -0.001342 0.000000 0.000803 0.000000
# 2 -0.022739 0.068363 -0.002982 0.000000 -0.009134 0.000000
# 3 -0.001342 -0.002982 0.009221 0.000000 0.002312 0.000000
# 4 0.000000 0.000000 0.000000 0.021537 0.000000 0.002070
# 5 0.000803 -0.009134 0.002312 0.000000 0.021606 0.000000
# 6 0.000000 0.000000 0.000000 0.002070 0.000000 0.019094
#
#
# Mechanical properties :
#
#
# Convention : Reuss Voigt Hill
#
# Bulk Modulus (GPa) = 24.34053 45.26035 34.80044
# Shear Modulus (GPa) = 22.19551 42.04616 32.12084
#
# Velocity S-wave (km/s) = 2.96031 4.07443 3.56121
# Velocity P-wave (km/s) = 4.61464 6.32493 5.53623
#
# Compressibility (1/GPa) = 0.04108375
#
# Stress axis : x y z
#
# Youngs Moduli (GPa) = 56.72901 14.62779 108.45204
#
# Poissons Ratio (x) = 0.33263 0.14557
# Poissons Ratio (y) = 1.28999 0.32341
# Poissons Ratio (z) = 0.07615 0.04362
#
# Static dielectric constant tensor:
#      x y z
#    x 2.020590 0.000000 0.044650 
#    y 0.000000 2.071380 0.000000 
#    z 0.044650 0.000000 2.006320 
# 
# From -- ./inp_files/9080.got.cif
#   From: 2010.05.17/outbox.cif.g08.bks.cpg/sg4_5_cif.got.tgz:9080.got - 2010.06.03 18:43:04.
