data_PCOD9119641
_publ_section_title
;
Structure prediction by ZEFSAII (Michael W. Deem and Ramdas Pophale) SiO2 
 PCOD9119641
Probable space group: P 21
;
_chemical_formula_sum "Si O2"
_cell_formula_units_Z 16
_cell_length_a 17.136695
_cell_length_b 8.148426
_cell_length_c 9.161740
_cell_angle_alpha 90.000000
_cell_angle_beta 31.872286
_cell_angle_gamma 90.000000
_cell_volume 675.515627
_symmetry_space_group_name_H-M "P 21"
_symmetry_group_IT_number 4
_symmetry_cell_setting 'monoclinic'
loop_
_space_group_symop_operation_xyz
x,y,z
-x,1/2+y,-z
loop_
_atom_site_type_symbol
_atom_site_label
_atom_site_fract_x
_atom_site_fract_y
_atom_site_fract_z
Si Si1 0.906451 0.077930 0.211363
Si Si2 0.810994 0.338193 0.856081
Si Si3 0.131637 0.188876 0.325082
Si Si4 0.592447 0.867939 0.224828
Si Si5 0.449744 0.063153 0.206559
Si Si6 0.335101 0.618157 0.659264
Si Si7 0.703403 0.266632 0.715938
Si Si8 0.840897 0.713294 0.384107
O O1 0.777209 0.095453 0.295340
O O2 0.861385 0.211405 0.403748
O O3 0.901824 0.897772 0.287041
O O4 0.059851 0.113454 0.887715
O O5 0.836475 0.532971 0.828444
O O6 0.709642 0.314492 0.874984
O O7 0.968612 0.258641 0.567745
O O8 0.744104 0.240907 0.098660
O O9 0.146327 0.141794 0.472838
O O10 0.254359 0.325665 0.097682
O O11 0.488863 0.708777 0.381070
O O12 0.505419 0.008972 0.275785
O O13 0.630371 0.943858 0.320827
O O14 0.329284 0.206602 0.393705
O O15 0.365623 0.909489 0.270493
O O16 0.591209 0.113602 0.887718
#
# Coordination Sequence:
#
# PCOD9119641 Si02
#       8
#     2   2   2   2   2   2   2   2
#     4  12  28  47  73 107 148 187 244 301 364 433
#     4  12  27  47  78 105 145 192 249 296 362 437
#     4  12  27  50  73 107 146 195 245 299 361 437
#     4  12  27  46  73 106 147 189 238 298 367 432
#     4  12  25  45  74 106 145 188 241 294 366 432
#     4  12  27  49  72 110 146 192 241 302 364 432
#     4  12  25  47  75 107 143 194 240 300 363 437
#     4  12  28  47  74 108 146 193 242 302 365 430
#
# _framework density 23.685608999999999
#
# number of rings (size 3 to 8) (size 9 to 14) (size 15 to 20)
#    0.000    0.000    5.000    4.500    3.500    2.000 
#    0.000    0.000    0.000    0.000    0.000    0.000 
#    0.000    0.000    0.000    0.000    0.000    0.000 
#
# Total GULP energy -89686.132411 kJ/mol
# GULP energy per Si atom -5605.383276 kJ/mol
# Density = 2.363170 g / cm^3
# Si number density = 23.685609 Si / 1000 Ang^3
#
#
#
# Elastic Constant Matrix: (Units=GPa)
#
#
# Indices 1 2 3 4 5 6 
#
# 1 54.6631 -13.1338 -9.3826 0.0000 1.5954 0.0000
# 2 -13.1338 51.0564 -14.9610 0.0000 0.2486 0.0000
# 3 -9.3826 -14.9610 71.4709 0.0000 -4.5913 0.0000
# 4 0.0000 0.0000 0.0000 47.6716 0.0000 -2.1126
# 5 1.5954 0.2486 -4.5913 0.0000 27.2907 0.0000
# 6 0.0000 0.0000 0.0000 -2.1126 0.0000 35.5618
#
#
#
# Elastic Compliance Matrix: (Units=1/GPa)
#
#
# Indices 1 2 3 4 5 6 
#
# 1 0.020554 0.006466 0.004014 0.000000 -0.000585 0.000000
# 2 0.006466 0.022909 0.005668 0.000000 0.000367 0.000000
# 3 0.004014 0.005668 0.015858 0.000000 0.002382 0.000000
# 4 0.000000 0.000000 0.000000 0.021032 0.000000 0.001249
# 5 -0.000585 0.000367 0.002382 0.000000 0.037074 0.000000
# 6 0.000000 0.000000 0.000000 0.001249 0.000000 0.028194
#
#
# Mechanical properties :
#
#
# Convention : Reuss Voigt Hill
#
# Bulk Modulus (GPa) = 10.91490 11.35949 11.13720
# Shear Modulus (GPa) = 34.75526 36.41601 35.58564
#
# Velocity S-wave (km/s) = 3.83477 3.92532 3.88031
# Velocity P-wave (km/s) = 4.92194 5.03493 4.97876
#
# Compressibility (1/GPa) = 0.09161785
#
# Stress axis : x y z
#
# Youngs Moduli (GPa) = 48.65316 43.65152 63.05895
#
# Poissons Ratio (x) = -0.28227 -0.25314
# Poissons Ratio (y) = -0.31461 -0.35742
# Poissons Ratio (z) = -0.19531 -0.24741
#
# Static dielectric constant tensor:
#      x y z
#    x 1.869970 0.000000 0.005110 
#    y 0.000000 1.889790 0.000000 
#    z 0.005110 0.000000 1.854340 
# 
# From -- ./inp_files/5397.got.cif
#   From: 2010.05.17/outbox.cif.g08.bks.cpg/sg4_3_cif.got.tgz:5397.got - 2010.06.03 18:43:04.
