data_PCOD9119525
_publ_section_title
;
Structure prediction by ZEFSAII (Michael W. Deem and Ramdas Pophale) SiO2 
 PCOD9119525
Probable space group: P 21
;
_chemical_formula_sum "Si O2"
_cell_formula_units_Z 14
_cell_length_a 14.659802
_cell_length_b 4.817809
_cell_length_c 15.922968
_cell_angle_alpha 90.000000
_cell_angle_beta 30.950622
_cell_angle_gamma 90.000000
_cell_volume 578.385676
_symmetry_space_group_name_H-M "P 21"
_symmetry_group_IT_number 4
_symmetry_cell_setting 'monoclinic'
loop_
_space_group_symop_operation_xyz
x,y,z
-x,1/2+y,-z
loop_
_atom_site_type_symbol
_atom_site_label
_atom_site_fract_x
_atom_site_fract_y
_atom_site_fract_z
Si Si1 0.854625 0.770390 0.365940
Si Si2 0.690520 0.539203 0.149389
Si Si3 0.373191 0.104899 0.611939
Si Si4 0.393542 0.325592 0.057725
Si Si5 0.219156 0.511126 0.027702
Si Si6 0.880733 0.073266 0.598595
Si Si7 0.298748 0.768029 0.424725
O O1 0.764028 0.721901 0.347215
O O2 0.740947 0.584187 0.520830
O O3 0.832529 0.084206 0.413427
O O4 0.051994 0.654632 0.203855
O O5 0.714359 0.526162 0.230359
O O6 0.698970 0.244353 0.097477
O O7 0.496527 0.671623 0.288355
O O8 0.824829 0.747920 0.996451
O O9 0.523050 0.339969 0.506280
O O10 0.226196 0.421629 0.244180
O O11 0.442577 0.007820 0.036162
O O12 0.350774 0.401108 0.995920
O O13 0.751050 0.197011 0.631024
O O14 0.996842 0.332506 0.537551
#
# Coordination Sequence:
#
# PCOD9119525 Si02
#       7
#     2   2   2   2   2   2   2
#     4  12  25  44  70  97 138 172 217 283 330 396
#     4  12  25  43  70  98 133 171 224 272 323 410
#     4  12  23  46  70 102 129 171 225 270 337 396
#     4  12  25  45  66  94 137 182 220 272 330 398
#     4  12  26  43  65 103 136 173 219 275 342 381
#     4  12  25  42  66  98 133 172 226 280 325 387
#     4  12  23  43  69  98 126 181 227 268 327 392
#
# _framework density 24.205303000000001
#
# number of rings (size 3 to 8) (size 9 to 14) (size 15 to 20)
#    0.000    0.000    2.857    8.571    0.000    1.143 
#    0.000    0.000    0.000    0.000    0.000    0.000 
#    0.000    0.000    0.000    0.000    0.000    0.000 
#
# Total GULP energy -78557.737781 kJ/mol
# GULP energy per Si atom -5611.266984 kJ/mol
# Density = 2.415021 g / cm^3
# Si number density = 24.205303 Si / 1000 Ang^3
#
#
#
# Elastic Constant Matrix: (Units=GPa)
#
#
# Indices 1 2 3 4 5 6 
#
# 1 80.8303 -10.5239 3.8929 0.0000 21.3871 0.0000
# 2 -10.5239 70.1491 6.5437 0.0000 4.6872 0.0000
# 3 3.8929 6.5437 63.6369 0.0000 10.0944 0.0000
# 4 0.0000 0.0000 0.0000 42.4433 0.0000 11.0643
# 5 21.3871 4.6872 10.0944 0.0000 40.9600 0.0000
# 6 0.0000 0.0000 0.0000 11.0643 0.0000 29.0752
#
#
#
# Elastic Compliance Matrix: (Units=1/GPa)
#
#
# Indices 1 2 3 4 5 6 
#
# 1 0.014871 0.002764 0.000092 0.000000 -0.008104 0.000000
# 2 0.002764 0.014978 -0.001258 0.000000 -0.002847 0.000000
# 3 0.000092 -0.001258 0.016466 0.000000 -0.003962 0.000000
# 4 0.000000 0.000000 0.000000 0.026155 0.000000 -0.009953
# 5 -0.008104 -0.002847 -0.003962 0.000000 0.029948 0.000000
# 6 0.000000 0.000000 0.000000 -0.009953 0.000000 0.038181
#
#
# Mechanical properties :
#
#
# Convention : Reuss Voigt Hill
#
# Bulk Modulus (GPa) = 20.19754 23.82685 22.01219
# Shear Modulus (GPa) = 32.48708 36.80927 34.64818
#
# Velocity S-wave (km/s) = 3.66751 3.90386 3.78753
# Velocity P-wave (km/s) = 5.12801 5.49410 5.31421
#
# Compressibility (1/GPa) = 0.04951097
#
# Stress axis : x y z
#
# Youngs Moduli (GPa) = 67.24377 66.76656 60.72998
#
# Poissons Ratio (x) = -0.18454 -0.00556
# Poissons Ratio (y) = -0.18586 0.07637
# Poissons Ratio (z) = -0.00615 0.08396
#
# Static dielectric constant tensor:
#      x y z
#    x 1.893820 0.000000 -0.007580 
#    y 0.000000 1.861230 0.000000 
#    z -0.007580 0.000000 1.949460 
# 
# From -- ./inp_files/8915.got.cif
#   From: 2010.05.17/outbox.cif.g08.bks.cpg/sg4_5_cif.got.tgz:8915.got - 2010.06.03 18:43:04.
