data_PCOD9119151
_publ_section_title
;
Structure prediction by ZEFSAII (Michael W. Deem and Ramdas Pophale) SiO2 
 PCOD9119151
Probable space group: P 21
;
_chemical_formula_sum "Si O2"
_cell_formula_units_Z 12
_cell_length_a 5.083238
_cell_length_b 7.388998
_cell_length_c 11.653129
_cell_angle_alpha 90.000000
_cell_angle_beta 81.270866
_cell_angle_gamma 90.000000
_cell_volume 432.622085
_symmetry_space_group_name_H-M "P 21"
_symmetry_group_IT_number 4
_symmetry_cell_setting 'monoclinic'
loop_
_space_group_symop_operation_xyz
x,y,z
-x,1/2+y,-z
loop_
_atom_site_type_symbol
_atom_site_label
_atom_site_fract_x
_atom_site_fract_y
_atom_site_fract_z
Si Si1 0.698113 0.307230 0.263284
Si Si2 0.329463 0.768886 0.034974
Si Si3 0.383013 0.438659 0.663970
Si Si4 0.982283 0.631469 0.233258
Si Si5 0.863719 0.663347 0.891757
Si Si6 0.693411 0.075616 0.580390
O O1 0.514130 0.422841 0.362554
O O2 0.792824 0.486352 0.184298
O O3 0.000213 0.221396 0.237496
O O4 0.539490 0.115400 0.266624
O O5 0.263061 0.649923 0.151829
O O6 0.118175 0.691133 0.958214
O O7 0.617278 0.777130 0.958685
O O8 0.588350 0.280915 0.611196
O O9 0.271297 0.531388 0.555140
O O10 0.169531 0.320031 0.747112
O O11 0.043868 0.565644 0.358730
O O12 0.754778 0.464284 0.916119
#
# Coordination Sequence:
#
# PCOD9119151 Si02
#       6
#     2   2   2   2   2   2
#     4  11  25  47  69 103 142 188 241 296 367 432
#     4  12  27  49  74 112 148 196 247 305 372 439
#     4  11  24  46  68 106 138 190 238 299 369 434
#     4  11  27  44  72 104 143 185 245 299 366 438
#     4  12  27  48  76 108 152 194 247 306 368 444
#     4  11  26  44  73 101 147 185 242 303 362 443
#
# _framework density 27.737836000000001
#
# number of rings (size 3 to 8) (size 9 to 14) (size 15 to 20)
#    0.000    0.667    3.333    3.000   11.667    2.667 
#    0.000    0.000    0.000    0.000    0.000    0.000 
#    0.000    0.000    0.000    0.000    0.000    0.000 
#
# Total GULP energy -66952.406294 kJ/mol
# GULP energy per Si atom -5579.367191 kJ/mol
# Density = 2.767470 g / cm^3
# Si number density = 27.737836 Si / 1000 Ang^3
#
#
#
# Elastic Constant Matrix: (Units=GPa)
#
#
# Indices 1 2 3 4 5 6 
#
# 1 119.4157 29.5267 20.0164 0.0000 -8.7882 0.0000
# 2 29.5267 216.2936 44.1460 0.0000 -12.6287 0.0000
# 3 20.0164 44.1460 94.9922 0.0000 -13.6480 0.0000
# 4 0.0000 0.0000 0.0000 57.8535 0.0000 -8.3628
# 5 -8.7882 -12.6287 -13.6480 0.0000 45.0272 0.0000
# 6 0.0000 0.0000 0.0000 -8.3628 0.0000 23.3185
#
#
#
# Elastic Compliance Matrix: (Units=1/GPa)
#
#
# Indices 1 2 3 4 5 6 
#
# 1 0.008892 -0.000884 -0.001306 0.000000 0.001092 0.000000
# 2 -0.000884 0.005220 -0.002148 0.000000 0.000641 0.000000
# 3 -0.001306 -0.002148 0.012209 0.000000 0.002843 0.000000
# 4 0.000000 0.000000 0.000000 0.018230 0.000000 0.006538
# 5 0.001092 0.000641 0.002843 0.000000 0.023463 0.000000
# 6 0.000000 0.000000 0.000000 0.006538 0.000000 0.045229
#
#
# Mechanical properties :
#
#
# Convention : Reuss Voigt Hill
#
# Bulk Modulus (GPa) = 56.67014 68.67553 62.67283
# Shear Modulus (GPa) = 39.12376 47.70735 43.41555
#
# Velocity S-wave (km/s) = 3.75971 4.15171 3.96057
# Velocity P-wave (km/s) = 6.27075 6.91338 6.59989
#
# Compressibility (1/GPa) = 0.01764598
#
# Stress axis : x y z
#
# Youngs Moduli (GPa) = 112.46253 191.58279 81.90702
#
# Poissons Ratio (x) = 0.16926 0.10699
# Poissons Ratio (y) = 0.09936 0.17590
# Poissons Ratio (z) = 0.14690 0.41143
#
# Static dielectric constant tensor:
#      x y z
#    x 2.234820 0.000000 0.111910 
#    y 0.000000 2.230790 0.000000 
#    z 0.111910 0.000000 2.292000 
# 
# From -- ./inp_files/3371.got.cif
#   From: 2010.05.17/outbox.cif.g08.bks.cpg/sg4_2_cif.got.tgz:3371.got - 2010.06.03 18:43:04.
