data_PCOD9119008
_publ_section_title
;
Structure prediction by ZEFSAII (Michael W. Deem and Ramdas Pophale) SiO2 
 PCOD9119008
Probable space group: P 21
;
_chemical_formula_sum "Si O2"
_cell_formula_units_Z 16
_cell_length_a 13.878162
_cell_length_b 12.697311
_cell_length_c 5.664395
_cell_angle_alpha 90.000000
_cell_angle_beta 44.465892
_cell_angle_gamma 90.000000
_cell_volume 699.190949
_symmetry_space_group_name_H-M "P 21"
_symmetry_group_IT_number 4
_symmetry_cell_setting 'monoclinic'
loop_
_space_group_symop_operation_xyz
x,y,z
-x,1/2+y,-z
loop_
_atom_site_type_symbol
_atom_site_label
_atom_site_fract_x
_atom_site_fract_y
_atom_site_fract_z
Si Si1 0.611425 0.197700 0.266696
Si Si2 0.630633 0.587307 0.487933
Si Si3 0.549633 0.367706 0.672726
Si Si4 0.729540 0.738848 0.729116
Si Si5 0.087568 0.444992 0.642831
Si Si6 0.845536 0.357218 0.390484
Si Si7 0.242244 0.646336 0.489568
Si Si8 0.137940 0.034592 0.252316
O O1 0.461523 0.145295 0.543008
O O2 0.588825 0.323112 0.343203
O O3 0.693046 0.161870 0.359552
O O4 0.669798 0.166229 0.907569
O O5 0.532765 0.491674 0.741097
O O6 0.686350 0.672923 0.571597
O O7 0.760994 0.530558 0.147810
O O8 0.688237 0.347476 0.577670
O O9 0.415737 0.299863 0.967401
O O10 0.833086 0.837887 0.554053
O O11 0.813712 0.645919 0.721027
O O12 0.188327 0.527666 0.587586
O O13 0.018340 0.514099 0.554437
O O14 0.961317 0.408426 0.025762
O O15 0.879557 0.232516 0.340867
O O16 0.836290 0.434228 0.627693
#
# Coordination Sequence:
#
# PCOD9119008 Si02
#       8
#     2   2   2   2   2   2   2   2
#     4  11  25  48  78 115 159 207 268 336 404 480
#     4  12  24  47  77 110 159 203 262 336 407 475
#     4  11  23  48  77 115 147 211 260 336 403 478
#     4  12  28  49  78 118 159 205 278 333 413 486
#     4  12  30  48  76 115 162 218 268 337 405 491
#     4  11  26  47  78 103 161 211 265 329 414 477
#     4  11  28  49  77 118 158 213 275 332 401 492
#     4  12  26  48  77 112 155 218 262 339 397 497
#
# _framework density 22.883590000000002
#
# number of rings (size 3 to 8) (size 9 to 14) (size 15 to 20)
#    0.000    0.500    3.750    3.000    8.750    2.000 
#    0.000    0.000    0.000    0.000    0.000    0.000 
#    0.000    0.000    0.000    0.000    0.000    0.000 
#
# Total GULP energy -89070.482156 kJ/mol
# GULP energy per Si atom -5566.905135 kJ/mol
# Density = 2.283151 g / cm^3
# Si number density = 22.883590 Si / 1000 Ang^3
#
#
#
# Elastic Constant Matrix: (Units=GPa)
#
#
# Indices 1 2 3 4 5 6 
#
# 1 92.9129 52.7477 39.8026 0.0000 -0.5070 0.0000
# 2 52.7477 130.8196 20.5712 0.0000 2.9744 0.0000
# 3 39.8026 20.5712 79.3565 0.0000 -3.4287 0.0000
# 4 0.0000 0.0000 0.0000 39.0378 0.0000 -0.0719
# 5 -0.5070 2.9744 -3.4287 0.0000 17.6253 0.0000
# 6 0.0000 0.0000 0.0000 -0.0719 0.0000 40.8496
#
#
#
# Elastic Compliance Matrix: (Units=1/GPa)
#
#
# Indices 1 2 3 4 5 6 
#
# 1 0.017064 -0.005773 -0.007058 0.000000 0.000092 0.000000
# 2 -0.005773 0.009976 0.000231 0.000000 -0.001805 0.000000
# 3 -0.007058 0.000231 0.016207 0.000000 0.002911 0.000000
# 4 0.000000 0.000000 0.000000 0.025616 0.000000 0.000045
# 5 0.000092 -0.001805 0.002911 0.000000 0.057610 0.000000
# 6 0.000000 0.000000 0.000000 0.000045 0.000000 0.024480
#
#
# Mechanical properties :
#
#
# Convention : Reuss Voigt Hill
#
# Bulk Modulus (GPa) = 55.40659 58.81467 57.11063
# Shear Modulus (GPa) = 27.44683 32.16701 29.80692
#
# Velocity S-wave (km/s) = 3.46701 3.75331 3.61300
# Velocity P-wave (km/s) = 6.34758 6.67387 6.51277
#
# Compressibility (1/GPa) = 0.01804840
#
# Stress axis : x y z
#
# Youngs Moduli (GPa) = 58.60227 100.23703 61.69991
#
# Poissons Ratio (x) = 0.57863 0.43551
# Poissons Ratio (y) = 0.33829 -0.01427
# Poissons Ratio (z) = 0.41364 -0.02318
#
# Static dielectric constant tensor:
#      x y z
#    x 1.875520 0.000000 0.027520 
#    y 0.000000 2.089880 0.000000 
#    z 0.027520 0.000000 1.930170 
# 
# From -- ./inp_files/3794.got.cif
#   From: 2010.05.17/outbox.cif.g08.bks.cpg/sg4_2_cif.got.tgz:3794.got - 2010.06.03 18:43:04.
