data_PCOD9119278
_publ_section_title
;
Structure prediction by ZEFSAII (Michael W. Deem and Ramdas Pophale) SiO2 
 PCOD9119278
Probable space group: P 21
;
_chemical_formula_sum "Si O2"
_cell_formula_units_Z 16
_cell_length_a 8.248216
_cell_length_b 8.701807
_cell_length_c 10.080183
_cell_angle_alpha 90.000000
_cell_angle_beta 83.544960
_cell_angle_gamma 90.000000
_cell_volume 718.912215
_symmetry_space_group_name_H-M "P 21"
_symmetry_group_IT_number 4
_symmetry_cell_setting 'monoclinic'
loop_
_space_group_symop_operation_xyz
x,y,z
-x,1/2+y,-z
loop_
_atom_site_type_symbol
_atom_site_label
_atom_site_fract_x
_atom_site_fract_y
_atom_site_fract_z
Si Si1 0.090605 0.423170 0.376420
Si Si2 0.809787 0.214888 0.506284
Si Si3 0.322040 0.216597 0.178696
Si Si4 0.850574 0.155311 0.009052
Si Si5 0.858552 0.602824 0.197918
Si Si6 0.677384 0.310770 0.245332
Si Si7 0.296621 0.866938 0.210000
Si Si8 0.673058 0.849229 0.104872
O O1 0.178113 0.532613 0.474436
O O2 0.214245 0.344714 0.262502
O O3 0.982745 0.291441 0.453227
O O4 0.969780 0.538471 0.306858
O O5 0.694209 0.264978 0.396169
O O6 0.751240 0.286301 0.649467
O O7 0.508902 0.245816 0.205594
O O8 0.256449 0.047411 0.217937
O O9 0.321689 0.236027 0.021092
O O10 0.785791 0.273447 0.903384
O O11 0.023863 0.095718 0.941493
O O12 0.833399 0.240750 0.151218
O O13 0.735968 0.008904 0.040665
O O14 0.701307 0.491438 0.215590
O O15 0.793159 0.776695 0.203612
O O16 0.490636 0.860805 0.172071
#
# Coordination Sequence:
#
# PCOD9119278 Si02
#       8
#     2   2   2   2   2   2   2   2
#     4  11  25  50  71 105 143 193 236 299 358 433
#     4  11  26  48  70 103 146 190 236 292 361 434
#     4  12  25  46  73 106 143 188 242 301 357 425
#     4  12  23  47  70 107 142 184 243 294 360 421
#     4  11  25  42  71 104 140 186 235 298 356 423
#     4  11  26  45  69 107 145 183 242 292 361 429
#     4  12  24  46  73 102 146 191 237 294 364 428
#     4  12  24  42  73 108 143 185 239 298 363 417
#
# _framework density 22.255845000000001
#
# number of rings (size 3 to 8) (size 9 to 14) (size 15 to 20)
#    0.000    0.500    5.000    2.250    5.250    2.000 
#    6.750    0.000    0.000    0.000    0.000    0.000 
#    0.000    0.000    0.000    0.000    0.000    0.000 
#
# Total GULP energy -89523.913531 kJ/mol
# GULP energy per Si atom -5595.244596 kJ/mol
# Density = 2.220519 g / cm^3
# Si number density = 22.255845 Si / 1000 Ang^3
#
#
#
# Elastic Constant Matrix: (Units=GPa)
#
#
# Indices 1 2 3 4 5 6 
#
# 1 62.1620 39.5041 17.9298 0.0000 -2.9122 0.0000
# 2 39.5041 97.0044 31.6706 0.0000 11.3034 0.0000
# 3 17.9298 31.6706 92.9256 0.0000 -3.8926 0.0000
# 4 0.0000 0.0000 0.0000 32.7471 0.0000 -1.6753
# 5 -2.9122 11.3034 -3.8926 0.0000 19.6347 0.0000
# 6 0.0000 0.0000 0.0000 -1.6753 0.0000 33.8474
#
#
#
# Elastic Compliance Matrix: (Units=1/GPa)
#
#
# Indices 1 2 3 4 5 6 
#
# 1 0.023286 -0.010385 -0.000563 0.000000 0.009321 0.000000
# 2 -0.010385 0.017449 -0.004466 0.000000 -0.012471 0.000000
# 3 -0.000563 -0.004466 0.012601 0.000000 0.004985 0.000000
# 4 0.000000 0.000000 0.000000 0.030615 0.000000 0.001515
# 5 0.009321 -0.012471 0.004985 0.000000 0.060480 0.000000
# 6 0.000000 0.000000 0.000000 0.001515 0.000000 0.029619
#
#
# Mechanical properties :
#
#
# Convention : Reuss Voigt Hill
#
# Bulk Modulus (GPa) = 44.42847 47.81122 46.11985
# Shear Modulus (GPa) = 23.54267 28.11167 25.82717
#
# Velocity S-wave (km/s) = 3.25594 3.55789 3.41026
# Velocity P-wave (km/s) = 5.84302 6.19736 6.02279
#
# Compressibility (1/GPa) = 0.02250809
#
# Stress axis : x y z
#
# Youngs Moduli (GPa) = 42.94447 57.30929 79.36063
#
# Poissons Ratio (x) = 0.59517 0.04469
# Poissons Ratio (y) = 0.44599 0.35439
# Poissons Ratio (z) = 0.02418 0.25592
#
# Static dielectric constant tensor:
#      x y z
#    x 1.816460 0.000000 0.026080 
#    y 0.000000 1.891900 0.000000 
#    z 0.026080 0.000000 1.771800 
# 
# From -- ./inp_files/5607.got.cif
#   From: 2010.05.17/outbox.cif.g08.bks.cpg/sg4_3_cif.got.tgz:5607.got - 2010.06.03 18:43:04.
