data_PCOD9119951
_publ_section_title
;
Structure prediction by ZEFSAII (Michael W. Deem and Ramdas Pophale) SiO2 
 PCOD9119951
Probable space group: C 2
;
_chemical_formula_sum "Si O2"
_cell_formula_units_Z 30
_cell_length_a 7.701085
_cell_length_b 33.173595
_cell_length_c 5.487590
_cell_angle_alpha 90.000000
_cell_angle_beta 118.617236
_cell_angle_gamma 90.000000
_cell_volume 1230.668118
_symmetry_space_group_name_H-M "C 2"
_symmetry_group_IT_number 5
_symmetry_cell_setting 'monoclinic'
loop_
_space_group_symop_operation_xyz
x,y,z
-x,y,-z
1/2+x,1/2+y,z
1/2-x,1/2+y,-z
loop_
_atom_site_type_symbol
_atom_site_label
_atom_site_fract_x
_atom_site_fract_y
_atom_site_fract_z
Si Si1 0.292344 0.881050 0.504368
Si Si2 0.736641 0.174675 0.714611
Si Si3 0.743696 0.971518 0.444368
Si Si4 0.714832 0.002594 0.923126
Si Si5 0.274823 0.297454 0.782614
Si Si6 0.264790 0.208561 0.784212
Si Si7 0.618856 0.093430 0.834769
Si Si8 0.000000 0.334167 0.000000
O O1 0.500000 0.885262 0.500000
O O2 0.208915 0.925428 0.454749
O O3 0.202655 0.840146 0.338783
O O4 0.333708 0.865586 0.803196
O O5 0.500000 0.180747 0.500000
O O6 0.808643 0.180231 0.485882
O O7 0.756984 0.130184 0.844313
O O8 0.808376 0.202887 0.986057
O O9 0.804741 0.997659 0.716752
O O10 0.505474 0.981954 0.253596
O O11 0.814144 0.981405 0.220856
O O12 0.702003 0.050037 0.965468
O O13 0.224218 0.253261 0.648010
O O14 0.500000 0.289590 0.000000
O O15 0.104920 0.307399 0.866607
O O16 0.500000 0.202719 0.000000
O O17 0.500000 0.085583 0.500000
O O18 0.500000 0.106834 0.000000
#
# Coordination Sequence:
#
# PCOD9119951 Si02
#       8
#     4   4   4   4   4   4   4   2
#     4  10  20  34  54  81 111 154 210 250 301 368
#     4   9  17  27  44  66  99 142 192 237 288 366
#     4  10  17  27  43  66 103 147 193 234 297 352
#     4  10  16  25  40  66 101 152 189 237 295 365
#     4  10  23  39  60  86 119 159 214 259 310 373
#     4   9  18  33  48  71 101 148 194 233 306 353
#     4  11  16  24  38  65 100 144 197 232 293 365
#     4  10  22  38  60  86 112 160 206 260 310 360
#
# _framework density 24.377003999999999
#
# number of rings (size 3 to 8) (size 9 to 14) (size 15 to 20)
#    0.000    2.133    4.000    2.800    3.733    0.533 
#    0.000    0.000    0.000    0.000    0.000    0.000 
#    0.000    0.000    2.267    2.933    7.467    2.933 
#
# Total GULP energy -83517.664607 kJ/mol
# GULP energy per Si atom -5567.844307 kJ/mol
# Density = 2.432152 g / cm^3
# Si number density = 24.377004 Si / 1000 Ang^3
#
#
#
# Elastic Constant Matrix: (Units=GPa)
#
#
# Indices 1 2 3 4 5 6 
#
# 1 88.1638 3.6170 21.9483 0.0000 -12.7422 0.0000
# 2 3.6170 168.9613 40.6436 0.0000 -17.2927 0.0000
# 3 21.9483 40.6436 131.8742 0.0000 -27.2666 0.0000
# 4 0.0000 0.0000 0.0000 40.3663 0.0000 -7.6785
# 5 -12.7422 -17.2927 -27.2666 0.0000 30.7564 0.0000
# 6 0.0000 0.0000 0.0000 -7.6785 0.0000 6.3928
#
#
#
# Elastic Compliance Matrix: (Units=1/GPa)
#
#
# Indices 1 2 3 4 5 6 
#
# 1 0.012256 0.000484 -0.001326 0.000000 0.004174 0.000000
# 2 0.000484 0.006543 -0.001586 0.000000 0.002473 0.000000
# 3 -0.001326 -0.001586 0.009789 0.000000 0.007237 0.000000
# 4 0.000000 0.000000 0.000000 0.032109 0.000000 0.038567
# 5 0.004174 0.002473 0.007237 0.000000 0.042050 0.000000
# 6 0.000000 0.000000 0.000000 0.038567 0.000000 0.202750
#
#
# Mechanical properties :
#
#
# Convention : Reuss Voigt Hill
#
# Bulk Modulus (GPa) = 42.13686 57.93521 50.03604
# Shear Modulus (GPa) = 15.71028 37.02244 26.36636
#
# Velocity S-wave (km/s) = 2.54140 3.90133 3.29235
# Velocity P-wave (km/s) = 5.09261 6.64167 5.91804
#
# Compressibility (1/GPa) = 0.02373219
#
# Stress axis : x y z
#
# Youngs Moduli (GPa) = 81.59246 152.84175 102.15833
#
# Poissons Ratio (x) = -0.07394 0.13545
# Poissons Ratio (y) = -0.03947 0.16198
# Poissons Ratio (z) = 0.10818 0.24234
#
# Static dielectric constant tensor:
#      x y z
#    x 2.274610 0.000000 -0.085410 
#    y 0.000000 1.939430 0.000000 
#    z -0.085410 0.000000 2.077900 
# 
# From -- ./inp_files/3959.got.cif
#   From: 2010.05.17/outbox.cif.g08.bks.cpg/sg5_2_cif.got.tgz:3959.got - 2010.06.03 18:56:24.
