data_PCOD9119403
_publ_section_title
;
Structure prediction by ZEFSAII (Michael W. Deem and Ramdas Pophale) SiO2 
 PCOD9119403
Probable space group: P 21
;
_chemical_formula_sum "Si O2"
_cell_formula_units_Z 14
_cell_length_a 6.108421
_cell_length_b 13.757233
_cell_length_c 8.338942
_cell_angle_alpha 90.000000
_cell_angle_beta 56.069273
_cell_angle_gamma 90.000000
_cell_volume 581.432001
_symmetry_space_group_name_H-M "P 21"
_symmetry_group_IT_number 4
_symmetry_cell_setting 'monoclinic'
loop_
_space_group_symop_operation_xyz
x,y,z
-x,1/2+y,-z
loop_
_atom_site_type_symbol
_atom_site_label
_atom_site_fract_x
_atom_site_fract_y
_atom_site_fract_z
Si Si1 0.062902 0.533460 0.838973
Si Si2 0.498802 0.073937 0.878461
Si Si3 0.568632 0.241559 0.645008
Si Si4 0.327261 0.403912 0.948299
Si Si5 0.874088 0.772681 0.686493
Si Si6 0.354718 0.118771 0.455679
Si Si7 0.079969 0.475868 0.477823
O O1 0.357924 0.574936 0.702834
O O2 0.999678 0.495998 0.689486
O O3 0.074074 0.446169 0.960915
O O4 0.811610 0.596520 0.990338
O O5 0.628376 0.177918 0.781545
O O6 0.565914 0.998748 0.996166
O O7 0.625068 0.014456 0.678460
O O8 0.361358 0.184195 0.615190
O O9 0.824023 0.239451 0.425665
O O10 0.491848 0.348013 0.742121
O O11 0.249460 0.321630 0.107372
O O12 0.713928 0.688318 0.666443
O O13 0.903821 0.862676 0.554530
O O14 0.128056 0.034921 0.548730
#
# Coordination Sequence:
#
# PCOD9119403 Si02
#       7
#     2   2   2   2   2   2   2
#     4  12  25  46  74 112 145 194 242 305 373 434
#     4  11  26  47  75 111 151 192 246 308 363 438
#     4  12  26  47  76 111 145 198 251 296 376 438
#     4  11  29  46  75 110 152 189 247 309 371 436
#     4  11  26  48  73 108 149 195 247 306 365 441
#     4  12  25  47  78 106 152 197 242 312 363 442
#     4  11  25  51  75 106 152 193 249 308 367 435
#
# _framework density 24.078482999999999
#
# number of rings (size 3 to 8) (size 9 to 14) (size 15 to 20)
#    0.000    0.571    2.857    3.429   10.000    3.429 
#    0.000    0.000    0.000    0.000    0.000    0.000 
#    0.000    0.000    0.000    0.000    0.000    0.000 
#
# Total GULP energy -78141.895575 kJ/mol
# GULP energy per Si atom -5581.563970 kJ/mol
# Density = 2.402368 g / cm^3
# Si number density = 24.078483 Si / 1000 Ang^3
#
#
#
# Elastic Constant Matrix: (Units=GPa)
#
#
# Indices 1 2 3 4 5 6 
#
# 1 45.7585 17.0963 17.7063 0.0000 8.0552 0.0000
# 2 17.0963 97.8081 -11.9209 0.0000 10.1096 0.0000
# 3 17.7063 -11.9209 89.7942 0.0000 4.1947 0.0000
# 4 0.0000 0.0000 0.0000 41.2417 0.0000 0.8694
# 5 8.0552 10.1096 4.1947 0.0000 38.1135 0.0000
# 6 0.0000 0.0000 0.0000 0.8694 0.0000 30.9329
#
#
#
# Elastic Compliance Matrix: (Units=1/GPa)
#
#
# Indices 1 2 3 4 5 6 
#
# 1 0.026570 -0.004963 -0.005727 0.000000 -0.003669 0.000000
# 2 -0.004963 0.011654 0.002635 0.000000 -0.002332 0.000000
# 3 -0.005727 0.002635 0.012657 0.000000 -0.000882 0.000000
# 4 0.000000 0.000000 0.000000 0.024262 0.000000 -0.000682
# 5 -0.003669 -0.002332 -0.000882 0.000000 0.027728 0.000000
# 6 0.000000 0.000000 0.000000 -0.000682 0.000000 0.032347
#
#
# Mechanical properties :
#
#
# Convention : Reuss Voigt Hill
#
# Bulk Modulus (GPa) = 28.76011 31.01381 29.88696
# Shear Modulus (GPa) = 30.69024 36.08957 33.38991
#
# Velocity S-wave (km/s) = 3.57402 3.87567 3.72790
# Velocity P-wave (km/s) = 5.38532 5.73899 5.56497
#
# Compressibility (1/GPa) = 0.03477038
#
# Stress axis : x y z
#
# Youngs Moduli (GPa) = 37.63644 85.80889 79.00901
#
# Poissons Ratio (x) = 0.42588 0.45247
# Poissons Ratio (y) = 0.18679 -0.20817
# Poissons Ratio (z) = 0.21554 -0.22608
#
# Static dielectric constant tensor:
#      x y z
#    x 1.996800 0.000000 -0.018580 
#    y 0.000000 1.981890 0.000000 
#    z -0.018580 0.000000 1.906750 
# 
# From -- ./inp_files/1480.got.cif
#   From: 2010.05.17/outbox.cif.g08.bks.cpg/sg4_1_cif.got.tgz:1480.got - 2010.06.03 18:43:04.
