data_PCOD9119533
_publ_section_title
;
Structure prediction by ZEFSAII (Michael W. Deem and Ramdas Pophale) SiO2 
 PCOD9119533
Probable space group: P 21
;
_chemical_formula_sum "Si O2"
_cell_formula_units_Z 16
_cell_length_a 9.405521
_cell_length_b 6.958168
_cell_length_c 11.288516
_cell_angle_alpha 90.000000
_cell_angle_beta 100.781634
_cell_angle_gamma 90.000000
_cell_volume 725.737661
_symmetry_space_group_name_H-M "P 21"
_symmetry_group_IT_number 4
_symmetry_cell_setting 'monoclinic'
loop_
_space_group_symop_operation_xyz
x,y,z
-x,1/2+y,-z
loop_
_atom_site_type_symbol
_atom_site_label
_atom_site_fract_x
_atom_site_fract_y
_atom_site_fract_z
Si Si1 0.318140 0.950620 0.408187
Si Si2 0.140094 0.713925 0.874674
Si Si3 0.405667 0.231932 0.631316
Si Si4 0.870457 0.950558 0.356625
Si Si5 0.916263 0.130457 0.597209
Si Si6 0.173966 0.291372 0.239442
Si Si7 0.671484 0.929892 0.956641
Si Si8 0.351474 0.070030 0.883212
O O1 0.444641 0.844786 0.355962
O O2 0.214738 0.780518 0.436811
O O3 0.386634 0.075005 0.525241
O O4 0.227886 0.099866 0.313727
O O5 0.154836 0.588513 0.757061
O O6 0.216106 0.596126 0.991108
O O7 0.230895 0.906856 0.871388
O O8 0.969256 0.749054 0.860583
O O9 0.277410 0.387789 0.603631
O O10 0.382525 0.134841 0.754367
O O11 0.953144 0.757622 0.331059
O O12 0.960439 0.054856 0.474400
O O13 0.872576 0.954150 0.673801
O O14 0.299711 0.368513 0.173673
O O15 0.697110 0.749068 0.045522
O O16 0.507097 0.995260 0.953269
#
# Coordination Sequence:
#
# PCOD9119533 Si02
#       8
#     2   2   2   2   2   2   2   2
#     4  12  27  48  72 112 154 189 240 299 375 444
#     4  12  27  49  74 108 145 192 247 300 365 433
#     4  12  26  45  76 108 145 194 236 297 367 435
#     4  12  23  44  76 105 144 188 242 293 366 435
#     4  12  24  48  71 110 149 190 238 304 371 435
#     4  12  29  47  75 110 149 197 237 305 372 434
#     4  12  29  48  75 105 143 195 246 303 357 428
#     4  12  27  51  75 106 141 193 250 301 357 430
#
# _framework density 22.046534000000001
#
# number of rings (size 3 to 8) (size 9 to 14) (size 15 to 20)
#    0.000    0.000    5.000    4.500    7.000    1.000 
#    0.000    0.000    0.000    0.000    0.000    0.000 
#    0.000    0.000    0.000    0.000    0.000    0.000 
#
# Total GULP energy -89650.644605 kJ/mol
# GULP energy per Si atom -5603.165288 kJ/mol
# Density = 2.199636 g / cm^3
# Si number density = 22.046534 Si / 1000 Ang^3
#
#
#
# Elastic Constant Matrix: (Units=GPa)
#
#
# Indices 1 2 3 4 5 6 
#
# 1 91.4087 37.2314 -9.9517 0.0000 5.5902 0.0000
# 2 37.2314 100.4949 9.6819 0.0000 10.0230 0.0000
# 3 -9.9517 9.6819 44.9203 0.0000 2.9896 0.0000
# 4 0.0000 0.0000 0.0000 44.8952 0.0000 8.9265
# 5 5.5902 10.0230 2.9896 0.0000 33.1940 0.0000
# 6 0.0000 0.0000 0.0000 8.9265 0.0000 51.1102
#
#
#
# Elastic Compliance Matrix: (Units=1/GPa)
#
#
# Indices 1 2 3 4 5 6 
#
# 1 0.013651 -0.005361 0.004251 0.000000 -0.001063 0.000000
# 2 -0.005361 0.012550 -0.003723 0.000000 -0.002551 0.000000
# 3 0.004251 -0.003723 0.024123 0.000000 -0.001764 0.000000
# 4 0.000000 0.000000 0.000000 0.023075 0.000000 -0.004030
# 5 -0.001063 -0.002551 -0.001764 0.000000 0.031234 0.000000
# 6 0.000000 0.000000 0.000000 -0.004030 0.000000 0.020269
#
#
# Mechanical properties :
#
#
# Convention : Reuss Voigt Hill
#
# Bulk Modulus (GPa) = 24.59551 34.52743 29.56147
# Shear Modulus (GPa) = 33.75583 39.16406 36.45994
#
# Velocity S-wave (km/s) = 3.91719 4.21934 4.07107
# Velocity P-wave (km/s) = 5.62491 6.27951 5.96120
#
# Compressibility (1/GPa) = 0.04065782
#
# Stress axis : x y z
#
# Youngs Moduli (GPa) = 73.25356 79.68121 41.45396
#
# Poissons Ratio (x) = 0.42717 -0.17620
# Poissons Ratio (y) = 0.39271 0.15433
# Poissons Ratio (z) = -0.31137 0.29664
#
# Static dielectric constant tensor:
#      x y z
#    x 1.811430 0.000000 0.046530 
#    y 0.000000 1.792650 0.000000 
#    z 0.046530 0.000000 1.785150 
# 
# From -- ./inp_files/7369.got.cif
#   From: 2010.05.17/outbox.cif.g08.bks.cpg/sg4_4_cif.got.tgz:7369.got - 2010.06.03 18:43:04.
