data_PCOD9119289
_publ_section_title
;
Structure prediction by ZEFSAII (Michael W. Deem and Ramdas Pophale) SiO2 
 PCOD9119289
Probable space group: P 21
;
_chemical_formula_sum "Si O2"
_cell_formula_units_Z 12
_cell_length_a 7.428713
_cell_length_b 5.260497
_cell_length_c 15.259738
_cell_angle_alpha 90.000000
_cell_angle_beta 125.684051
_cell_angle_gamma 90.000000
_cell_volume 484.367482
_symmetry_space_group_name_H-M "P 21"
_symmetry_group_IT_number 4
_symmetry_cell_setting 'monoclinic'
loop_
_space_group_symop_operation_xyz
x,y,z
-x,1/2+y,-z
loop_
_atom_site_type_symbol
_atom_site_label
_atom_site_fract_x
_atom_site_fract_y
_atom_site_fract_z
Si Si1 0.864517 0.050980 0.255183
Si Si2 0.842246 0.944839 0.743897
Si Si3 0.340668 0.852200 0.656022
Si Si4 0.502522 0.794476 0.056845
Si Si5 0.084624 0.675136 0.426077
Si Si6 0.937921 0.565346 0.023094
O O1 0.690957 0.225804 0.257942
O O2 0.004214 0.192298 0.220250
O O3 0.717305 0.819795 0.178352
O O4 0.037162 0.957698 0.377143
O O5 0.591557 0.922450 0.706060
O O6 0.970018 0.108620 0.852959
O O7 0.842891 0.037904 0.643309
O O8 0.261984 0.671562 0.553549
O O9 0.149152 0.067359 0.604902
O O10 0.470296 0.514415 0.009724
O O11 0.289164 0.905030 0.044689
O O12 0.907421 0.840936 0.972136
#
# Coordination Sequence:
#
# PCOD9119289 Si02
#       6
#     2   2   2   2   2   2
#     4  11  25  46  71 100 140 185 238 294 361 435
#     4  11  27  45  71 104 139 189 239 295 365 430
#     4  11  25  46  69 105 138 183 237 297 362 431
#     4  12  25  46  74 101 146 191 238 300 365 433
#     4  11  25  44  71 102 142 181 238 295 365 435
#     4  12  27  47  72 110 147 189 250 303 362 438
#
# _framework density 24.774578000000002
#
# number of rings (size 3 to 8) (size 9 to 14) (size 15 to 20)
#    0.000    0.667    3.333    3.000    9.333    1.333 
#    0.000    0.000    0.000    0.000    0.000    0.000 
#    0.000    0.000    0.000    0.000    0.000    0.000 
#
# Total GULP energy -67093.657059 kJ/mol
# GULP energy per Si atom -5591.138088 kJ/mol
# Density = 2.471819 g / cm^3
# Si number density = 24.774578 Si / 1000 Ang^3
#
#
#
# Elastic Constant Matrix: (Units=GPa)
#
#
# Indices 1 2 3 4 5 6 
#
# 1 148.7388 24.1031 11.6287 0.0000 5.4937 0.0000
# 2 24.1031 63.8461 18.3629 0.0000 -22.3300 0.0000
# 3 11.6287 18.3629 99.1055 0.0000 5.1601 0.0000
# 4 0.0000 0.0000 0.0000 45.2662 0.0000 -15.8914
# 5 5.4937 -22.3300 5.1601 0.0000 24.3846 0.0000
# 6 0.0000 0.0000 0.0000 -15.8914 0.0000 23.7507
#
#
#
# Elastic Compliance Matrix: (Units=1/GPa)
#
#
# Indices 1 2 3 4 5 6 
#
# 1 0.007834 -0.005504 0.000460 0.000000 -0.006902 0.000000
# 2 -0.005504 0.030211 -0.006529 0.000000 0.030287 0.000000
# 3 0.000460 -0.006529 0.011691 0.000000 -0.008556 0.000000
# 4 0.000000 0.000000 0.000000 0.028874 0.000000 0.019319
# 5 -0.006902 0.030287 -0.008556 0.000000 0.072110 0.000000
# 6 0.000000 0.000000 0.000000 0.019319 0.000000 0.055030
#
#
# Mechanical properties :
#
#
# Convention : Reuss Voigt Hill
#
# Bulk Modulus (GPa) = 37.60655 46.65330 42.12992
# Shear Modulus (GPa) = 21.02955 35.85335 28.44145
#
# Velocity S-wave (km/s) = 2.91664 3.80831 3.39190
# Velocity P-wave (km/s) = 5.15314 6.18140 5.69054
#
# Compressibility (1/GPa) = 0.02659111
#
# Stress axis : x y z
#
# Youngs Moduli (GPa) = 127.64723 33.10038 85.53233
#
# Poissons Ratio (x) = 0.18218 -0.03934
# Poissons Ratio (y) = 0.70256 0.55843
# Poissons Ratio (z) = -0.05871 0.21611
#
# Static dielectric constant tensor:
#      x y z
#    x 2.020930 0.000000 -0.061530 
#    y 0.000000 2.047010 0.000000 
#    z -0.061530 0.000000 1.932960 
# 
# From -- ./inp_files/13179.got.cif
#   From: 2010.05.17/outbox.cif.g08.bks.cpg/sg4_7_cif.got.tgz:13179.got - 2010.06.03 18:43:04.
