data_PCOD9119444
_publ_section_title
;
Structure prediction by ZEFSAII (Michael W. Deem and Ramdas Pophale) SiO2 
 PCOD9119444
Probable space group: P 21
;
_chemical_formula_sum "Si O2"
_cell_formula_units_Z 16
_cell_length_a 5.322439
_cell_length_b 9.195965
_cell_length_c 12.789530
_cell_angle_alpha 90.000000
_cell_angle_beta 75.316890
_cell_angle_gamma 90.000000
_cell_volume 605.540037
_symmetry_space_group_name_H-M "P 21"
_symmetry_group_IT_number 4
_symmetry_cell_setting 'monoclinic'
loop_
_space_group_symop_operation_xyz
x,y,z
-x,1/2+y,-z
loop_
_atom_site_type_symbol
_atom_site_label
_atom_site_fract_x
_atom_site_fract_y
_atom_site_fract_z
Si Si1 0.469842 0.131300 0.894443
Si Si2 0.949459 0.844937 0.715417
Si Si3 0.629100 0.898940 0.223822
Si Si4 0.910209 0.662874 0.341242
Si Si5 0.182877 0.733561 0.504828
Si Si6 0.519097 0.506291 0.545757
Si Si7 0.877829 0.116533 0.030287
Si Si8 0.395962 0.833940 0.813571
O O1 0.520266 0.289949 0.839884
O O2 0.432540 0.006878 0.810714
O O3 0.695847 0.081468 0.949784
O O4 0.183636 0.129197 0.977973
O O5 0.689933 0.779721 0.791178
O O6 0.948776 0.801543 0.594795
O O7 0.218814 0.788580 0.735017
O O8 0.975808 0.018095 0.723260
O O9 0.795428 0.782404 0.275459
O O10 0.478555 0.993803 0.328220
O O11 0.797634 0.006136 0.132046
O O12 0.133326 0.732060 0.388197
O O13 0.718332 0.597772 0.451886
O O14 0.246136 0.574381 0.540578
O O15 0.418526 0.844470 0.498310
O O16 0.773017 0.276505 0.073181
#
# Coordination Sequence:
#
# PCOD9119444 Si02
#       8
#     2   2   2   2   2   2   2   2
#     4  12  27  52  78 117 155 208 271 338 405 484
#     4  11  27  45  78 107 157 213 257 321 395 485
#     4  12  27  50  84 111 158 221 258 340 416 473
#     4  11  27  47  74 118 158 211 275 324 398 500
#     4  11  27  44  75 107 168 206 274 332 381 481
#     4  11  26  48  74 117 161 214 270 328 398 500
#     4  12  28  50  81 118 156 198 278 343 403 482
#     4  12  25  50  76 113 153 203 265 328 412 469
#
# _framework density 26.422696999999999
#
# number of rings (size 3 to 8) (size 9 to 14) (size 15 to 20)
#    0.000    0.500    2.500    3.750   12.250    1.000 
#    0.000    0.000    0.000    0.000    0.000    0.000 
#    0.000    0.000    0.000    0.000    0.000    0.000 
#
# Total GULP energy -89492.008456 kJ/mol
# GULP energy per Si atom -5593.250528 kJ/mol
# Density = 2.636256 g / cm^3
# Si number density = 26.422697 Si / 1000 Ang^3
#
#
#
# Elastic Constant Matrix: (Units=GPa)
#
#
# Indices 1 2 3 4 5 6 
#
# 1 112.5227 30.6994 61.1020 0.0000 -3.1171 0.0000
# 2 30.6994 92.1163 22.6884 0.0000 7.0723 0.0000
# 3 61.1020 22.6884 139.1109 0.0000 -7.1222 0.0000
# 4 0.0000 0.0000 0.0000 63.0118 0.0000 0.7664
# 5 -3.1171 7.0723 -7.1222 0.0000 53.1083 0.0000
# 6 0.0000 0.0000 0.0000 0.7664 0.0000 17.1473
#
#
#
# Elastic Compliance Matrix: (Units=1/GPa)
#
#
# Indices 1 2 3 4 5 6 
#
# 1 0.012384 -0.002947 -0.004935 0.000000 0.000457 0.000000
# 2 -0.002947 0.012178 -0.000789 0.000000 -0.001901 0.000000
# 3 -0.004935 -0.000789 0.009541 0.000000 0.001095 0.000000
# 4 0.000000 0.000000 0.000000 0.015879 0.000000 -0.000710
# 5 0.000457 -0.001901 0.001095 0.000000 0.019256 0.000000
# 6 0.000000 0.000000 0.000000 -0.000710 0.000000 0.058350
#
#
# Mechanical properties :
#
#
# Convention : Reuss Voigt Hill
#
# Bulk Modulus (GPa) = 59.66413 63.63664 61.65039
# Shear Modulus (GPa) = 33.21886 41.93748 37.57817
#
# Velocity S-wave (km/s) = 3.54956 3.98826 3.77529
# Velocity P-wave (km/s) = 6.27924 6.73384 6.51051
#
# Compressibility (1/GPa) = 0.01676049
#
# Stress axis : x y z
#
# Youngs Moduli (GPa) = 80.75158 82.11417 104.81038
#
# Poissons Ratio (x) = 0.24196 0.51727
# Poissons Ratio (y) = 0.23794 0.08272
# Poissons Ratio (z) = 0.39853 0.06481
#
# Static dielectric constant tensor:
#      x y z
#    x 2.159610 0.000000 -0.020840 
#    y 0.000000 2.030650 0.000000 
#    z -0.020840 0.000000 2.111250 
# 
# From -- ./inp_files/10323.got.cif
#   From: 2010.05.17/outbox.cif.g08.bks.cpg/sg4_6_cif.got.tgz:10323.got - 2010.06.03 18:43:04.
