data_PCOD9119261
_publ_section_title
;
Structure prediction by ZEFSAII (Michael W. Deem and Ramdas Pophale) SiO2 
 PCOD9119261
Probable space group: P 21
;
_chemical_formula_sum "Si O2"
_cell_formula_units_Z 12
_cell_length_a 19.947509
_cell_length_b 5.039438
_cell_length_c 8.263955
_cell_angle_alpha 90.000000
_cell_angle_beta 35.232586
_cell_angle_gamma 90.000000
_cell_volume 479.244316
_symmetry_space_group_name_H-M "P 21"
_symmetry_group_IT_number 4
_symmetry_cell_setting 'monoclinic'
loop_
_space_group_symop_operation_xyz
x,y,z
-x,1/2+y,-z
loop_
_atom_site_type_symbol
_atom_site_label
_atom_site_fract_x
_atom_site_fract_y
_atom_site_fract_z
Si Si1 0.497815 0.660410 0.120339
Si Si2 0.821317 0.936143 0.425238
Si Si3 0.148313 0.298249 0.203253
Si Si4 0.735471 0.445043 0.779464
Si Si5 0.258021 0.644389 0.747345
Si Si6 0.965685 0.510282 0.825937
O O1 0.387992 0.734632 0.449000
O O2 0.471509 0.422598 0.044007
O O3 0.603339 0.542077 0.018424
O O4 0.757690 0.147970 0.671607
O O5 0.769676 0.954184 0.349990
O O6 0.802340 0.638170 0.522053
O O7 0.956393 0.020521 0.169198
O O8 0.210942 0.038448 0.154447
O O9 0.057487 0.384230 0.518270
O O10 0.067629 0.275070 0.203127
O O11 0.245430 0.497575 0.944029
O O12 0.155703 0.858941 0.929356
#
# Coordination Sequence:
#
# PCOD9119261 Si02
#       6
#     2   2   2   2   2   2
#     4  12  25  51  75 106 145 194 257 319 367 446
#     4  11  26  44  78 105 144 194 249 304 372 450
#     4  11  25  45  69 106 149 195 240 308 380 453
#     4  11  24  50  74 103 148 196 243 312 377 435
#     4  12  27  44  74 110 143 200 251 306 379 444
#     4  11  25  44  70 102 153 189 240 303 381 452
#
# _framework density 25.039418999999999
#
# number of rings (size 3 to 8) (size 9 to 14) (size 15 to 20)
#    0.000    0.667    5.000    1.000   11.667    0.000 
#    3.000    0.000    0.000    0.000    0.000    0.000 
#    0.000    0.000    0.000    0.000    0.000    0.000 
#
# Total GULP energy -67073.314027 kJ/mol
# GULP energy per Si atom -5589.442836 kJ/mol
# Density = 2.498243 g / cm^3
# Si number density = 25.039419 Si / 1000 Ang^3
#
#
#
# Elastic Constant Matrix: (Units=GPa)
#
#
# Indices 1 2 3 4 5 6 
#
# 1 60.9721 3.2744 31.4663 0.0000 -18.4609 0.0000
# 2 3.2744 81.7242 32.5570 0.0000 9.6893 0.0000
# 3 31.4663 32.5570 180.0975 0.0000 -16.8609 0.0000
# 4 0.0000 0.0000 0.0000 44.0604 0.0000 2.1731
# 5 -18.4609 9.6893 -16.8609 0.0000 38.1407 0.0000
# 6 0.0000 0.0000 0.0000 2.1731 0.0000 37.6169
#
#
#
# Elastic Compliance Matrix: (Units=1/GPa)
#
#
# Indices 1 2 3 4 5 6 
#
# 1 0.020506 -0.000859 -0.002585 0.000000 0.009001 0.000000
# 2 -0.000859 0.014041 -0.002880 0.000000 -0.005256 0.000000
# 3 -0.002585 -0.002880 0.006756 0.000000 0.002467 0.000000
# 4 0.000000 0.000000 0.000000 0.022761 0.000000 -0.001315
# 5 0.009001 -0.005256 0.002467 0.000000 0.033001 0.000000
# 6 0.000000 0.000000 0.000000 -0.001315 0.000000 0.026660
#
#
# Mechanical properties :
#
#
# Convention : Reuss Voigt Hill
#
# Bulk Modulus (GPa) = 34.89777 50.82102 42.85939
# Shear Modulus (GPa) = 34.26400 40.99669 37.63034
#
# Velocity S-wave (km/s) = 3.70321 4.05073 3.88086
# Velocity P-wave (km/s) = 5.67912 6.49756 6.10208
#
# Compressibility (1/GPa) = 0.02865513
#
# Stress axis : x y z
#
# Youngs Moduli (GPa) = 48.76529 71.21839 148.02033
#
# Poissons Ratio (x) = 0.06118 0.38261
# Poissons Ratio (y) = 0.04189 0.42634
# Poissons Ratio (z) = 0.12605 0.20513
#
# Static dielectric constant tensor:
#      x y z
#    x 2.073690 0.000000 0.023700 
#    y 0.000000 2.017640 0.000000 
#    z 0.023700 0.000000 2.017440 
# 
# From -- ./inp_files/7163.got.cif
#   From: 2010.05.17/outbox.cif.g08.bks.cpg/sg4_4_cif.got.tgz:7163.got - 2010.06.03 18:43:04.
