data_PCOD9119398
_publ_section_title
;
Structure prediction by ZEFSAII (Michael W. Deem and Ramdas Pophale) SiO2 
 PCOD9119398
Probable space group: P 21
;
_chemical_formula_sum "Si O2"
_cell_formula_units_Z 16
_cell_length_a 12.702745
_cell_length_b 5.610586
_cell_length_c 12.122686
_cell_angle_alpha 90.000000
_cell_angle_beta 43.974300
_cell_angle_gamma 90.000000
_cell_volume 599.893448
_symmetry_space_group_name_H-M "P 21"
_symmetry_group_IT_number 4
_symmetry_cell_setting 'monoclinic'
loop_
_space_group_symop_operation_xyz
x,y,z
-x,1/2+y,-z
loop_
_atom_site_type_symbol
_atom_site_label
_atom_site_fract_x
_atom_site_fract_y
_atom_site_fract_z
Si Si1 0.647480 0.162760 0.674739
Si Si2 0.368336 0.944767 0.989662
Si Si3 0.887608 0.537074 0.231188
Si Si4 0.131347 0.199392 0.004251
Si Si5 0.458368 0.167064 0.479837
Si Si6 0.183070 0.038764 0.327155
Si Si7 0.101094 0.388219 0.590839
Si Si8 0.613857 0.047788 0.163436
O O1 0.777646 0.284198 0.649334
O O2 0.524691 0.361376 0.734175
O O3 0.744846 0.037686 0.506188
O O4 0.540964 0.997688 0.828370
O O5 0.323544 0.064605 0.137774
O O6 0.354442 0.662414 0.979443
O O7 0.247260 0.051130 0.992591
O O8 0.897942 0.587523 0.092836
O O9 0.712156 0.564772 0.396714
O O10 0.955594 0.737314 0.261617
O O11 0.976883 0.288882 0.178227
O O12 0.230719 0.438334 0.911384
O O13 0.457865 0.420546 0.543944
O O14 0.548338 0.235158 0.300388
O O15 0.038367 0.027889 0.357406
O O16 0.155614 0.212409 0.449912
#
# Coordination Sequence:
#
# PCOD9119398 Si02
#       8
#     2   2   2   2   2   2   2   2
#     4  11  26  47  80 108 152 203 255 331 401 475
#     4  11  27  48  81 113 153 197 267 325 407 477
#     4  12  28  49  79 114 160 208 272 327 412 484
#     4  11  28  48  75 116 154 206 256 332 400 491
#     4  12  27  48  80 114 163 215 269 338 403 490
#     4  12  27  48  76 111 156 200 261 329 397 479
#     4  12  28  50  75 115 154 209 266 329 401 488
#     4  11  25  50  74 115 154 204 268 327 405 482
#
# _framework density 26.671403999999999
#
# number of rings (size 3 to 8) (size 9 to 14) (size 15 to 20)
#    0.000    0.500    2.500    3.750   14.000    2.000 
#    0.000    0.000    0.000    0.000    0.000    0.000 
#    0.000    0.000    0.000    0.000    0.000    0.000 
#
# Total GULP energy -89525.877295 kJ/mol
# GULP energy per Si atom -5595.367331 kJ/mol
# Density = 2.661070 g / cm^3
# Si number density = 26.671404 Si / 1000 Ang^3
#
#
#
# Elastic Constant Matrix: (Units=GPa)
#
#
# Indices 1 2 3 4 5 6 
#
# 1 107.8427 24.4732 23.8326 0.0000 -9.3579 0.0000
# 2 24.4732 68.6060 24.7124 0.0000 -2.2899 0.0000
# 3 23.8326 24.7124 122.4632 0.0000 -12.4700 0.0000
# 4 0.0000 0.0000 0.0000 47.1015 0.0000 -15.5532
# 5 -9.3579 -2.2899 -12.4700 0.0000 53.7722 0.0000
# 6 0.0000 0.0000 0.0000 -15.5532 0.0000 47.3746
#
#
#
# Elastic Compliance Matrix: (Units=1/GPa)
#
#
# Indices 1 2 3 4 5 6 
#
# 1 0.010396 -0.003218 -0.001233 0.000000 0.001386 0.000000
# 2 -0.003218 0.016715 -0.002797 0.000000 -0.000497 0.000000
# 3 -0.001233 -0.002797 0.009152 0.000000 0.001789 0.000000
# 4 0.000000 0.000000 0.000000 0.023812 0.000000 0.007818
# 5 0.001386 -0.000497 0.001789 0.000000 0.019232 0.000000
# 6 0.000000 0.000000 0.000000 0.007818 0.000000 0.023675
#
#
# Mechanical properties :
#
#
# Convention : Reuss Voigt Hill
#
# Bulk Modulus (GPa) = 45.94121 49.43868 47.68995
# Shear Modulus (GPa) = 40.08546 44.70925 42.39736
#
# Velocity S-wave (km/s) = 3.88098 4.09870 3.99133
# Velocity P-wave (km/s) = 6.11105 6.40122 6.25782
#
# Compressibility (1/GPa) = 0.02176695
#
# Stress axis : x y z
#
# Youngs Moduli (GPa) = 96.19322 59.82654 109.26309
#
# Poissons Ratio (x) = 0.19253 0.13467
# Poissons Ratio (y) = 0.30956 0.30564
# Poissons Ratio (z) = 0.11856 0.16735
#
# Static dielectric constant tensor:
#      x y z
#    x 2.080160 0.000000 0.038750 
#    y 0.000000 2.162400 0.000000 
#    z 0.038750 0.000000 2.066080 
# 
# From -- ./inp_files/11598.got.cif
#   From: 2010.05.17/outbox.cif.g08.bks.cpg/sg4_6_cif.got.tgz:11598.got - 2010.06.03 18:43:04.
