data_PCOD9119459
_publ_section_title
;
Structure prediction by ZEFSAII (Michael W. Deem and Ramdas Pophale) SiO2 
 PCOD9119459
Probable space group: P 21
;
_chemical_formula_sum "Si O2"
_cell_formula_units_Z 10
_cell_length_a 7.650840
_cell_length_b 8.834958
_cell_length_c 5.951048
_cell_angle_alpha 90.000000
_cell_angle_beta 108.859946
_cell_angle_gamma 90.000000
_cell_volume 380.663479
_symmetry_space_group_name_H-M "P 21"
_symmetry_group_IT_number 4
_symmetry_cell_setting 'monoclinic'
loop_
_space_group_symop_operation_xyz
x,y,z
-x,1/2+y,-z
loop_
_atom_site_type_symbol
_atom_site_label
_atom_site_fract_x
_atom_site_fract_y
_atom_site_fract_z
Si Si1 0.915197 0.250000 0.370208
Si Si2 0.538423 0.337407 0.445141
Si Si3 0.378503 0.070800 0.183251
Si Si4 0.330146 0.571990 0.058650
Si Si5 0.003347 0.065304 0.796764
O O1 0.739099 0.333256 0.412453
O O2 0.006023 0.386904 0.268914
O O3 0.047919 0.172844 0.605520
O O4 0.819906 0.107102 0.202622
O O5 0.446935 0.173328 0.416668
O O6 0.557182 0.407648 0.700202
O O7 0.404380 0.421342 0.211164
O O8 0.487792 0.118886 0.004891
O O9 0.163883 0.077324 0.045918
O O10 0.193237 0.627857 0.199590
#
# Coordination Sequence:
#
# PCOD9119459 Si02
#       5
#     2   2   2   2   2
#     4  11  29  50  75 116 152 199 259 308 379 451
#     4  11  26  50  78 109 154 202 251 315 377 446
#     4  11  28  50  77 112 156 199 255 312 376 453
#     4  11  26  50  77 109 152 200 251 311 375 446
#     4  12  29  50  79 112 154 200 256 312 379 450
#
# _framework density 26.269922000000001
#
# number of rings (size 3 to 8) (size 9 to 14) (size 15 to 20)
#    0.000    0.800    2.000    2.400   14.000    0.000 
#    3.600    0.000    0.000    0.000    0.000    0.000 
#    0.000    0.000    0.000    0.000    0.000    0.000 
#
# Total GULP energy -55783.125299 kJ/mol
# GULP energy per Si atom -5578.312530 kJ/mol
# Density = 2.621013 g / cm^3
# Si number density = 26.269922 Si / 1000 Ang^3
#
#
#
# Elastic Constant Matrix: (Units=GPa)
#
#
# Indices 1 2 3 4 5 6 
#
# 1 128.6478 44.7213 49.8763 0.0000 0.6938 0.0000
# 2 44.7213 73.1862 40.4174 0.0000 21.6699 0.0000
# 3 49.8763 40.4174 84.0455 0.0000 18.9249 0.0000
# 4 0.0000 0.0000 0.0000 56.5515 0.0000 7.8287
# 5 0.6938 21.6699 18.9249 0.0000 30.9916 0.0000
# 6 0.0000 0.0000 0.0000 7.8287 0.0000 32.4744
#
#
#
# Elastic Compliance Matrix: (Units=1/GPa)
#
#
# Indices 1 2 3 4 5 6 
#
# 1 0.012331 -0.006622 -0.005929 0.000000 0.007974 0.000000
# 2 -0.006622 0.024459 -0.004655 0.000000 -0.014111 0.000000
# 3 -0.005929 -0.004655 0.019586 0.000000 -0.008572 0.000000
# 4 0.000000 0.000000 0.000000 0.018294 0.000000 -0.004410
# 5 0.007974 -0.014111 -0.008572 0.000000 0.047190 0.000000
# 6 0.000000 0.000000 0.000000 -0.004410 0.000000 0.031857
#
#
# Mechanical properties :
#
#
# Convention : Reuss Voigt Hill
#
# Bulk Modulus (GPa) = 45.52912 61.76770 53.64841
# Shear Modulus (GPa) = 25.58222 34.06114 29.82168
#
# Velocity S-wave (km/s) = 3.12400 3.60472 3.37293
# Velocity P-wave (km/s) = 5.51193 6.39446 5.96952
#
# Compressibility (1/GPa) = 0.02196396
#
# Stress axis : x y z
#
# Youngs Moduli (GPa) = 81.09910 40.88435 51.05776
#
# Poissons Ratio (x) = 0.27072 0.30271
# Poissons Ratio (y) = 0.53702 0.23769
# Poissons Ratio (z) = 0.48082 0.19033
#
# Static dielectric constant tensor:
#      x y z
#    x 1.955170 0.000000 -0.052650 
#    y 0.000000 2.072180 0.000000 
#    z -0.052650 0.000000 2.046820 
# 
# From -- ./inp_files/918.got.cif
#   From: 2010.05.17/outbox.cif.g08.bks.cpg/sg4_1_cif.got.tgz:918.got - 2010.06.03 18:43:04.
