data_PCOD9119262
_publ_section_title
;
Structure prediction by ZEFSAII (Michael W. Deem and Ramdas Pophale) SiO2 
 PCOD9119262
Probable space group: P 21
;
_chemical_formula_sum "Si O2"
_cell_formula_units_Z 14
_cell_length_a 5.122131
_cell_length_b 9.486204
_cell_length_c 11.049971
_cell_angle_alpha 90.000000
_cell_angle_beta 76.105516
_cell_angle_gamma 90.000000
_cell_volume 521.203145
_symmetry_space_group_name_H-M "P 21"
_symmetry_group_IT_number 4
_symmetry_cell_setting 'monoclinic'
loop_
_space_group_symop_operation_xyz
x,y,z
-x,1/2+y,-z
loop_
_atom_site_type_symbol
_atom_site_label
_atom_site_fract_x
_atom_site_fract_y
_atom_site_fract_z
Si Si1 0.466433 0.081110 0.147408
Si Si2 0.806527 0.368936 0.676006
Si Si3 0.052887 0.025046 0.995506
Si Si4 0.853131 0.846226 0.799098
Si Si5 0.408797 0.480916 0.393092
Si Si6 0.747456 0.237891 0.433545
Si Si7 0.741449 0.705962 0.237640
O O1 0.395431 0.244512 0.144102
O O2 0.322580 0.020599 0.283473
O O3 0.779299 0.051955 0.099275
O O4 0.301492 0.003526 0.057821
O O5 0.859378 0.333584 0.530860
O O6 0.554065 0.270974 0.743385
O O7 0.063833 0.317794 0.721119
O O8 0.981988 0.907193 0.905181
O O9 0.132719 0.156738 0.901709
O O10 0.069875 0.752779 0.703318
O O11 0.748867 0.963084 0.715604
O O12 0.477241 0.324158 0.430868
O O13 0.281833 0.582129 0.508910
O O14 0.680523 0.567371 0.326498
#
# Coordination Sequence:
#
# PCOD9119262 Si02
#       7
#     2   2   2   2   2   2   2
#     4  12  31  47  83 115 159 209 269 340 399 482
#     4  11  27  47  78 115 156 202 272 319 408 471
#     4  12  27  51  78 112 158 210 262 333 403 468
#     4  12  30  51  81 119 160 208 280 330 408 481
#     4  11  27  49  80 118 163 210 262 332 405 479
#     4  11  28  47  86 111 166 212 262 339 401 490
#     4  11  24  50  74 110 154 211 259 323 386 485
#
# _framework density 26.860928999999999
#
# number of rings (size 3 to 8) (size 9 to 14) (size 15 to 20)
#    0.000    0.571    1.429    4.286   16.000    0.000 
#    0.000    0.000    0.000    0.000    0.000    0.000 
#    0.000    0.000    0.000    0.000    0.000    0.000 
#
# Total GULP energy -78571.876701 kJ/mol
# GULP energy per Si atom -5612.276907 kJ/mol
# Density = 2.679979 g / cm^3
# Si number density = 26.860929 Si / 1000 Ang^3
#
#
#
# Elastic Constant Matrix: (Units=GPa)
#
#
# Indices 1 2 3 4 5 6 
#
# 1 123.2904 32.6839 39.1848 0.0000 -8.3088 0.0000
# 2 32.6839 112.6295 38.6743 0.0000 2.6943 0.0000
# 3 39.1848 38.6743 109.7902 0.0000 -2.0025 0.0000
# 4 0.0000 0.0000 0.0000 63.4634 0.0000 4.7840
# 5 -8.3088 2.6943 -2.0025 0.0000 45.7952 0.0000
# 6 0.0000 0.0000 0.0000 4.7840 0.0000 38.6684
#
#
#
# Elastic Compliance Matrix: (Units=1/GPa)
#
#
# Indices 1 2 3 4 5 6 
#
# 1 0.009595 -0.001889 -0.002728 0.000000 0.001733 0.000000
# 2 -0.001889 0.010498 -0.003044 0.000000 -0.001094 0.000000
# 3 -0.002728 -0.003044 0.011157 0.000000 0.000172 0.000000
# 4 0.000000 0.000000 0.000000 0.015905 0.000000 -0.001968
# 5 0.001733 -0.001094 0.000172 0.000000 0.022223 0.000000
# 6 0.000000 0.000000 0.000000 -0.001968 0.000000 0.026104
#
#
# Mechanical properties :
#
#
# Convention : Reuss Voigt Hill
#
# Bulk Modulus (GPa) = 62.77639 62.97734 62.87686
# Shear Modulus (GPa) = 43.06107 45.26322 44.16214
#
# Velocity S-wave (km/s) = 4.00823 4.10944 4.05915
# Velocity P-wave (km/s) = 6.69648 6.78331 6.74004
#
# Compressibility (1/GPa) = 0.01592956
#
# Stress axis : x y z
#
# Youngs Moduli (GPa) = 104.21601 95.25411 89.62947
#
# Poissons Ratio (x) = 0.17997 0.24447
# Poissons Ratio (y) = 0.19690 0.27280
# Poissons Ratio (z) = 0.28425 0.28992
#
# Static dielectric constant tensor:
#      x y z
#    x 2.059620 0.000000 0.004970 
#    y 0.000000 2.170520 0.000000 
#    z 0.004970 0.000000 2.111660 
# 
# From -- ./inp_files/10240.got.cif
#   From: 2010.05.17/outbox.cif.g08.bks.cpg/sg4_6_cif.got.tgz:10240.got - 2010.06.03 18:43:04.
