data_PCOD9119034
_publ_section_title
;
Structure prediction by ZEFSAII (Michael W. Deem and Ramdas Pophale) SiO2 
 PCOD9119034
Probable space group: P 21
;
_chemical_formula_sum "Si O2"
_cell_formula_units_Z 16
_cell_length_a 18.305794
_cell_length_b 6.633593
_cell_length_c 6.691627
_cell_angle_alpha 90.000000
_cell_angle_beta 110.055311
_cell_angle_gamma 90.000000
_cell_volume 763.312036
_symmetry_space_group_name_H-M "P 21"
_symmetry_group_IT_number 4
_symmetry_cell_setting 'monoclinic'
loop_
_space_group_symop_operation_xyz
x,y,z
-x,1/2+y,-z
loop_
_atom_site_type_symbol
_atom_site_label
_atom_site_fract_x
_atom_site_fract_y
_atom_site_fract_z
Si Si1 0.584122 0.943440 0.888865
Si Si2 0.678055 0.666179 0.698004
Si Si3 0.819898 0.303737 0.472010
Si Si4 0.583669 0.610146 0.216339
Si Si5 0.680102 0.334250 0.027986
Si Si6 0.084124 0.194549 0.388868
Si Si7 0.178054 0.471813 0.198002
Si Si8 0.083668 0.527845 0.716337
O O1 0.607518 0.783030 0.742701
O O2 0.500852 0.047767 0.783856
O O3 0.583929 0.822857 0.099244
O O4 0.649919 0.114118 0.945148
O O5 0.646309 0.608998 0.451702
O O6 0.750000 0.818997 0.750003
O O7 0.699002 0.474677 0.855819
O O8 0.750000 0.318989 0.249997
O O9 0.850078 0.523874 0.554842
O O10 0.801000 0.163313 0.644180
O O11 0.889608 0.192844 0.419872
O O12 0.610394 0.445149 0.080130
O O13 0.107519 0.354957 0.242702
O O14 0.083930 0.315134 0.599245
O O15 0.000855 0.090219 0.283859
O O16 0.146307 0.528996 0.951701
#
# Coordination Sequence:
#
# PCOD9119034 Si02
#       8
#     2   2   2   2   2   2   2   2
#     4  11  24  42  66  96 131 173 216 271 324 382
#     4  11  26  43  65 101 132 171 218 271 322 392
#     4  11  24  44  69  95 131 176 213 265 327 384
#     4  11  24  43  66  96 134 170 220 269 323 386
#     4  11  24  44  69  95 131 176 213 265 327 384
#     4  11  24  42  66  96 131 173 216 271 324 382
#     4  11  26  43  65 101 132 171 218 271 322 392
#     4  11  24  43  66  96 134 170 220 269 323 386
#
# _framework density 20.961283999999999
#
# number of rings (size 3 to 8) (size 9 to 14) (size 15 to 20)
#    0.000    1.000    2.500    3.000    3.500   10.000 
#    0.000    0.000    0.000    0.000    0.000    0.000 
#    0.000    0.000    0.000    0.000    0.000    0.000 
#
# Total GULP energy -89500.860640 kJ/mol
# GULP energy per Si atom -5593.803790 kJ/mol
# Density = 2.091358 g / cm^3
# Si number density = 20.961284 Si / 1000 Ang^3
#
#
#
# Elastic Constant Matrix: (Units=GPa)
#
#
# Indices 1 2 3 4 5 6 
#
# 1 75.6874 13.3894 6.8917 0.0000 -3.6706 0.0000
# 2 13.3894 103.4777 31.7464 0.0000 -5.1172 0.0000
# 3 6.8917 31.7464 102.0980 0.0000 -0.1578 0.0000
# 4 0.0000 0.0000 0.0000 35.0150 0.0000 -4.2221
# 5 -3.6706 -5.1172 -0.1578 0.0000 31.1297 0.0000
# 6 0.0000 0.0000 0.0000 -4.2221 0.0000 46.8381
#
#
#
# Elastic Compliance Matrix: (Units=1/GPa)
#
#
# Indices 1 2 3 4 5 6 
#
# 1 0.013593 -0.001560 -0.000430 0.000000 0.001344 0.000000
# 2 -0.001560 0.010957 -0.003299 0.000000 0.001600 0.000000
# 3 -0.000430 -0.003299 0.010849 0.000000 -0.000538 0.000000
# 4 0.000000 0.000000 0.000000 0.028873 0.000000 0.002603
# 5 0.001344 0.001600 -0.000538 0.000000 0.032542 0.000000
# 6 0.000000 0.000000 0.000000 0.002603 0.000000 0.021585
#
#
# Mechanical properties :
#
#
# Convention : Reuss Voigt Hill
#
# Bulk Modulus (GPa) = 40.29217 42.81311 41.55264
# Shear Modulus (GPa) = 36.42956 37.87893 37.15425
#
# Velocity S-wave (km/s) = 4.17339 4.25560 4.21470
# Velocity P-wave (km/s) = 6.51819 6.67952 6.59935
#
# Compressibility (1/GPa) = 0.02481872
#
# Stress axis : x y z
#
# Youngs Moduli (GPa) = 73.56929 91.26467 92.17794
#
# Poissons Ratio (x) = 0.14240 0.03966
# Poissons Ratio (y) = 0.11479 0.30411
# Poissons Ratio (z) = 0.03165 0.30110
#
# Static dielectric constant tensor:
#      x y z
#    x 1.751330 0.000000 -0.026760 
#    y 0.000000 1.737420 0.000000 
#    z -0.026760 0.000000 1.701370 
# 
# From -- ./inp_files/3952.got.cif
#   From: 2010.05.17/outbox.cif.g08.bks.cpg/sg4_2_cif.got.tgz:3952.got - 2010.06.03 18:43:04.
