data_PCOD9119957
_publ_section_title
;
Structure prediction by ZEFSAII (Michael W. Deem and Ramdas Pophale) SiO2 
 PCOD9119957
Probable space group: C 2
;
_chemical_formula_sum "Si O2"
_cell_formula_units_Z 32
_cell_length_a 19.931440
_cell_length_b 6.942888
_cell_length_c 9.056975
_cell_angle_alpha 90.000000
_cell_angle_beta 86.321149
_cell_angle_gamma 90.000000
_cell_volume 1250.737472
_symmetry_space_group_name_H-M "C 2"
_symmetry_group_IT_number 5
_symmetry_cell_setting 'monoclinic'
loop_
_space_group_symop_operation_xyz
x,y,z
-x,y,-z
1/2+x,1/2+y,z
1/2-x,1/2+y,-z
loop_
_atom_site_type_symbol
_atom_site_label
_atom_site_fract_x
_atom_site_fract_y
_atom_site_fract_z
Si Si1 0.145162 0.352140 0.918550
Si Si2 0.714018 0.403720 0.198212
Si Si3 0.670119 0.402734 0.881008
Si Si4 0.051143 0.792643 0.715589
Si Si5 0.090190 0.803655 0.388136
Si Si6 0.433865 0.761775 0.602698
Si Si7 0.811563 0.358145 0.762300
Si Si8 0.478232 0.697585 0.158850
O O1 0.205984 0.397401 0.799848
O O2 0.144587 0.116820 0.921291
O O3 0.071207 0.375105 0.862884
O O4 0.161893 0.425727 0.079760
O O5 0.664012 0.284384 0.308896
O O6 0.694909 0.626187 0.219401
O O7 0.699620 0.334297 0.032950
O O8 0.610251 0.268703 0.829187
O O9 0.733757 0.423081 0.761897
O O10 0.078633 0.724909 0.553652
O O11 0.047542 0.028072 0.731740
O O12 0.970981 0.743772 0.714719
O O13 0.080236 0.034850 0.416525
O O14 0.500000 0.819688 0.500000
O O15 0.364039 0.878779 0.619500
O O16 0.457022 0.776551 0.769052
O O17 0.500000 0.608963 0.000000
#
# Coordination Sequence:
#
# PCOD9119957 Si02
#       8
#     4   4   4   4   4   4   4   4
#     4   9  17  30  47  72  94 121 154 190 230 276
#     4   9  18  30  48  68  96 125 152 185 234 278
#     4   9  18  30  47  71  94 121 155 190 230 274
#     4   9  17  27  44  69  94 116 152 196 232 267
#     4   9  16  29  43  67  96 118 147 195 237 267
#     4  10  16  28  45  70  94 120 153 198 237 265
#     4   9  17  30  48  69  96 123 150 193 231 271
#     4  10  16  26  47  70  92 118 158 197 228 268
#
# _framework density 25.584903000000001
#
# number of rings (size 3 to 8) (size 9 to 14) (size 15 to 20)
#    0.000    2.750    3.750    0.000    5.250    0.000 
#    2.250    0.000    0.000    1.500    3.250    0.000 
#    0.000    0.000    0.000    0.000    0.000    0.000 
#
# Total GULP energy -89205.462234 kJ/mol
# GULP energy per Si atom -5575.341390 kJ/mol
# Density = 2.552667 g / cm^3
# Si number density = 25.584903 Si / 1000 Ang^3
#
#
#
# Elastic Constant Matrix: (Units=GPa)
#
#
# Indices 1 2 3 4 5 6 
#
# 1 84.7434 -10.6340 24.7233 0.0000 -32.0369 0.0000
# 2 -10.6340 67.4474 -0.6121 0.0000 -9.5201 0.0000
# 3 24.7233 -0.6121 65.9142 0.0000 -25.5239 0.0000
# 4 0.0000 0.0000 0.0000 6.1671 0.0000 -19.2542
# 5 -32.0369 -9.5201 -25.5239 0.0000 54.2612 0.0000
# 6 0.0000 0.0000 0.0000 -19.2542 0.0000 22.4855
#
#
#
# Elastic Compliance Matrix: (Units=1/GPa)
#
#
# Indices 1 2 3 4 5 6 
#
# 1 0.016531 0.003884 -0.002593 0.000000 0.009222 0.000000
# 2 0.003884 0.016228 0.000837 0.000000 0.005534 0.000000
# 3 -0.002593 0.000837 0.019094 0.000000 0.007597 0.000000
# 4 0.000000 0.000000 0.000000 -0.096898 0.000000 -0.082973
# 5 0.009222 0.005534 0.007597 0.000000 0.028418 0.000000
# 6 0.000000 0.000000 0.000000 -0.082973 0.000000 -0.026576
#
#
# Mechanical properties :
#
#
# Convention : Reuss Voigt Hill
#
# Bulk Modulus (GPa) = 17.82315 27.22885 22.52600
# Shear Modulus (GPa) = -173.86840 30.22461 -71.82190
#
# Velocity S-wave (km/s) = -8.25257 3.44080 -5.30405
# Velocity P-wave (km/s) = 9.15561 5.14306 5.35603
#
# Compressibility (1/GPa) = 0.05610682
#
# Stress axis : x y z
#
# Youngs Moduli (GPa) = 60.49407 61.62376 52.37375
#
# Poissons Ratio (x) = -0.23937 0.13583
# Poissons Ratio (y) = -0.23498 -0.04382
# Poissons Ratio (z) = 0.15689 -0.05156
#
# Static dielectric constant tensor:
#      x y z
#    x 2.249010 0.000000 -0.026040 
#    y 0.000000 2.094150 0.000000 
#    z -0.026040 0.000000 2.009440 
# 
# From -- ./inp_files/29295.got.cif
#   From: 2010.05.17/outbox.cif.g08.bks.cpg/sg5_15_cif.got.tgz:29295.got - 2010.06.03 18:56:24.
