data_PCOD9119629
_publ_section_title
;
Structure prediction by ZEFSAII (Michael W. Deem and Ramdas Pophale) SiO2 
 PCOD9119629
Probable space group: P 21
;
_chemical_formula_sum "Si O2"
_cell_formula_units_Z 14
_cell_length_a 19.013518
_cell_length_b 5.013000
_cell_length_c 10.277915
_cell_angle_alpha 90.000000
_cell_angle_beta 145.361255
_cell_angle_gamma 90.000000
_cell_volume 556.825943
_symmetry_space_group_name_H-M "P 21"
_symmetry_group_IT_number 4
_symmetry_cell_setting 'monoclinic'
loop_
_space_group_symop_operation_xyz
x,y,z
-x,1/2+y,-z
loop_
_atom_site_type_symbol
_atom_site_label
_atom_site_fract_x
_atom_site_fract_y
_atom_site_fract_z
Si Si1 0.523536 0.108100 0.119597
Si Si2 0.476144 0.299717 0.548850
Si Si3 0.344283 0.443403 0.013624
Si Si4 0.801073 0.268694 0.610636
Si Si5 0.143945 0.766554 0.598814
Si Si6 0.859472 0.649449 0.162154
Si Si7 0.800337 0.784612 0.783446
O O1 0.661869 0.167014 0.373716
O O2 0.495386 0.307927 0.956409
O O3 0.427605 0.208126 0.082420
O O4 0.466066 0.064206 0.425693
O O5 0.340222 0.363414 0.393023
O O6 0.562970 0.160152 0.786790
O O7 0.250191 0.542394 0.759695
O O8 0.242333 0.376684 0.967388
O O9 0.857100 0.346678 0.554473
O O10 0.794421 0.543133 0.675676
O O11 0.858800 0.038845 0.794450
O O12 0.178537 0.945551 0.778333
O O13 0.003438 0.686746 0.413094
O O14 0.856585 0.648495 0.000458
#
# Coordination Sequence:
#
# PCOD9119629 Si02
#       7
#     2   2   2   2   2   2   2
#     4  12  25  43  72 110 154 196 247 314 385 461
#     4  12  25  43  72 110 154 196 247 314 385 461
#     4  12  26  42  76 106 144 196 254 308 378 446
#     4  12  28  49  77 116 158 203 253 318 398 465
#     4  12  28  50  80 108 151 204 266 319 379 458
#     4  12  28  50  80 108 151 204 266 319 379 458
#     4  12  28  49  77 116 158 203 253 318 398 465
#
# _framework density 25.142506000000001
#
# number of rings (size 3 to 8) (size 9 to 14) (size 15 to 20)
#    0.000    0.000    5.714    3.429    4.000    1.143 
#    0.000    0.000    0.000    0.000    0.000    0.000 
#    0.000    0.000    0.000    0.000    0.000    0.000 
#
# Total GULP energy -78245.029224 kJ/mol
# GULP energy per Si atom -5588.930659 kJ/mol
# Density = 2.508528 g / cm^3
# Si number density = 25.142506 Si / 1000 Ang^3
#
#
#
# Elastic Constant Matrix: (Units=GPa)
#
#
# Indices 1 2 3 4 5 6 
#
# 1 115.6253 22.5303 43.3460 0.0000 -25.5734 0.0000
# 2 22.5303 62.3038 -2.8279 0.0000 -19.7766 0.0000
# 3 43.3460 -2.8279 71.3801 0.0000 3.5997 0.0000
# 4 0.0000 0.0000 0.0000 29.3131 0.0000 -19.4244
# 5 -25.5734 -19.7766 3.5997 0.0000 46.8078 0.0000
# 6 0.0000 0.0000 0.0000 -19.4244 0.0000 48.4525
#
#
#
# Elastic Compliance Matrix: (Units=1/GPa)
#
#
# Indices 1 2 3 4 5 6 
#
# 1 0.014316 -0.003334 -0.009185 0.000000 0.007119 0.000000
# 2 -0.003334 0.019321 0.002480 0.000000 0.006151 0.000000
# 3 -0.009185 0.002480 0.019963 0.000000 -0.005505 0.000000
# 4 0.000000 0.000000 0.000000 0.046456 0.000000 0.018624
# 5 0.007119 0.006151 -0.005505 0.000000 0.028276 0.000000
# 6 0.000000 0.000000 0.000000 0.018624 0.000000 0.028105
#
#
# Mechanical properties :
#
#
# Convention : Reuss Voigt Hill
#
# Bulk Modulus (GPa) = 29.83085 41.71180 35.77133
# Shear Modulus (GPa) = 26.63997 37.33206 31.98602
#
# Velocity S-wave (km/s) = 3.25862 3.85751 3.57065
# Velocity P-wave (km/s) = 5.10378 6.03877 5.59085
#
# Compressibility (1/GPa) = 0.03352234
#
# Stress axis : x y z
#
# Youngs Moduli (GPa) = 69.85170 51.75697 50.09315
#
# Poissons Ratio (x) = 0.17256 0.46009
# Poissons Ratio (y) = 0.23289 -0.12422
# Poissons Ratio (z) = 0.64156 -0.12835
#
# Static dielectric constant tensor:
#      x y z
#    x 2.044600 0.000000 -0.118760 
#    y 0.000000 2.034170 0.000000 
#    z -0.118760 0.000000 2.040570 
# 
# From -- ./inp_files/9338.got.cif
#   From: 2010.05.17/outbox.cif.g08.bks.cpg/sg4_5_cif.got.tgz:9338.got - 2010.06.03 18:43:04.
