data_PCOD9119891
_publ_section_title
;
Structure prediction by ZEFSAII (Michael W. Deem and Ramdas Pophale) SiO2 
 PCOD9119891
Probable space group: P 21
;
_chemical_formula_sum "Si O2"
_cell_formula_units_Z 16
_cell_length_a 12.000000
_cell_length_b 9.000000
_cell_length_c 9.000000
_cell_angle_alpha 90.000000
_cell_angle_beta 40.000000
_cell_angle_gamma 90.000000
_cell_volume 624.789557
_symmetry_space_group_name_H-M "P 21"
_symmetry_group_IT_number 4
_symmetry_cell_setting 'monoclinic'
loop_
_space_group_symop_operation_xyz
x,y,z
-x,1/2+y,-z
loop_
_atom_site_type_symbol
_atom_site_label
_atom_site_fract_x
_atom_site_fract_y
_atom_site_fract_z
Si Si1 0.843394 0.039060 0.009174
Si Si2 0.482010 0.859076 0.373754
Si Si3 0.363603 0.810957 0.164663
Si Si4 0.218393 0.075098 0.174389
Si Si5 0.702922 0.812818 0.682303
Si Si6 0.320396 0.091646 0.739470
Si Si7 0.869707 0.059072 0.645094
Si Si8 0.061626 0.298538 0.854051
O O1 0.652804 0.964928 0.191571
O O2 0.930699 0.948699 0.057410
O O3 0.916422 0.017306 0.766179
O O4 0.882828 0.214356 0.996188
O O5 0.430041 0.799240 0.264821
O O6 0.525746 0.713101 0.424901
O O7 0.345345 0.960785 0.598188
O O8 0.187300 0.728172 0.306351
O O9 0.321677 0.982210 0.188809
O O10 0.503806 0.764853 0.896437
O O11 0.209766 0.233766 0.263537
O O12 0.021632 0.023016 0.375703
O O13 0.303221 0.051365 0.929424
O O14 0.808795 0.797760 0.422198
O O15 0.704572 0.980929 0.739100
O O16 0.153199 0.186995 0.874504
#
# Coordination Sequence:
#
# PCOD9119891 Si02
#       8
#     2   2   2   2   2   2   2   2
#     4  11  26  50  75 113 153 197 253 308 381 449
#     4  11  26  49  74 112 148 202 248 320 377 459
#     4  12  27  46  82 108 146 202 256 317 382 446
#     4  12  26  49  74 113 152 198 258 312 379 457
#     4  12  24  49  73 110 151 194 258 306 381 448
#     4  11  27  49  71 108 157 195 254 311 381 453
#     4  12  27  49  78 110 151 197 256 315 377 456
#     4  11  27  47  75 108 158 203 243 319 374 462
#
# _framework density 25.608623000000001
#
# number of rings (size 3 to 8) (size 9 to 14) (size 15 to 20)
#    0.000    0.500    3.750    3.000    7.000    1.000 
#    0.000    0.000    0.000    0.000    0.000    0.000 
#    0.000    0.000    0.000    0.000    0.000    0.000 
#
# Total GULP energy -89304.567981 kJ/mol
# GULP energy per Si atom -5581.535499 kJ/mol
# Density = 2.555034 g / cm^3
# Si number density = 25.608623 Si / 1000 Ang^3
#
#
#
# Elastic Constant Matrix: (Units=GPa)
#
#
# Indices 1 2 3 4 5 6 
#
# 1 68.2757 20.9666 18.2243 0.0000 11.6338 0.0000
# 2 20.9666 77.2724 41.4138 0.0000 5.9929 0.0000
# 3 18.2243 41.4138 72.6561 0.0000 -9.6665 0.0000
# 4 0.0000 0.0000 0.0000 34.8134 0.0000 0.1130
# 5 11.6338 5.9929 -9.6665 0.0000 37.2721 0.0000
# 6 0.0000 0.0000 0.0000 0.1130 0.0000 48.2990
#
#
#
# Elastic Compliance Matrix: (Units=1/GPa)
#
#
# Indices 1 2 3 4 5 6 
#
# 1 0.017400 -0.002118 -0.003971 0.000000 -0.006121 0.000000
# 2 -0.002118 0.020262 -0.011770 0.000000 -0.005649 0.000000
# 3 -0.003971 -0.011770 0.022667 0.000000 0.009011 0.000000
# 4 0.000000 0.000000 0.000000 0.028725 0.000000 -0.000067
# 5 -0.006121 -0.005649 0.009011 0.000000 0.031985 0.000000
# 6 0.000000 0.000000 0.000000 -0.000067 0.000000 0.020705
#
#
# Mechanical properties :
#
#
# Convention : Reuss Voigt Hill
#
# Bulk Modulus (GPa) = 40.63256 42.15707 41.39482
# Shear Modulus (GPa) = 26.93021 33.25019 30.09020
#
# Velocity S-wave (km/s) = 3.24637 3.60724 3.43155
# Velocity P-wave (km/s) = 5.47294 5.81785 5.64803
#
# Compressibility (1/GPa) = 0.02461080
#
# Stress axis : x y z
#
# Youngs Moduli (GPa) = 57.47164 49.35376 44.11692
#
# Poissons Ratio (x) = 0.10453 0.17521
# Poissons Ratio (y) = 0.12173 0.51924
# Poissons Ratio (z) = 0.22825 0.58087
#
# Static dielectric constant tensor:
#      x y z
#    x 1.944430 0.000000 -0.066240 
#    y 0.000000 2.038160 0.000000 
#    z -0.066240 0.000000 1.984860 
# 
# From -- ./inp_files/7947.got.cif
#   From: 2010.05.17/outbox.ucp.g08.bks.cvg/sg4_4_cif.got.tgz:7947.got - 2010.06.11 12:51:24.
