data_PCOD9119443
_publ_section_title
;
Structure prediction by ZEFSAII (Michael W. Deem and Ramdas Pophale) SiO2 
 PCOD9119443
Probable space group: P 21
;
_chemical_formula_sum "Si O2"
_cell_formula_units_Z 16
_cell_length_a 8.158212
_cell_length_b 9.359234
_cell_length_c 11.858431
_cell_angle_alpha 90.000000
_cell_angle_beta 44.168797
_cell_angle_gamma 90.000000
_cell_volume 630.891705
_symmetry_space_group_name_H-M "P 21"
_symmetry_group_IT_number 4
_symmetry_cell_setting 'monoclinic'
loop_
_space_group_symop_operation_xyz
x,y,z
-x,1/2+y,-z
loop_
_atom_site_type_symbol
_atom_site_label
_atom_site_fract_x
_atom_site_fract_y
_atom_site_fract_z
Si Si1 0.082104 0.291960 0.087152
Si Si2 0.891641 0.688329 0.448848
Si Si3 0.416113 0.692807 0.754222
Si Si4 0.102113 0.440141 0.707133
Si Si5 0.624866 0.371554 0.025272
Si Si6 0.213974 0.550646 0.120197
Si Si7 0.553028 0.865632 0.263714
Si Si8 0.902496 0.212932 0.414507
O O1 0.852344 0.218288 0.148860
O O2 0.065181 0.262371 0.229568
O O3 0.064766 0.465955 0.099326
O O4 0.316516 0.269897 0.896339
O O5 0.614509 0.692350 0.560253
O O6 0.978865 0.836601 0.353548
O O7 0.039202 0.569928 0.311751
O O8 0.935643 0.675567 0.559180
O O9 0.469007 0.831937 0.804796
O O10 0.455546 0.529702 0.777171
O O11 0.278100 0.373155 0.710537
O O12 0.209519 0.573678 0.588944
O O13 0.863145 0.463580 0.897076
O O14 0.435907 0.454788 0.045260
O O15 0.698216 0.209047 0.954493
O O16 0.302798 0.810417 0.431472
#
# Coordination Sequence:
#
# PCOD9119443 Si02
#       8
#     2   2   2   2   2   2   2   2
#     4  12  26  50  78 116 154 217 261 336 407 485
#     4  11  29  50  76 117 158 210 266 335 409 484
#     4  12  25  49  76 111 159 201 268 330 401 482
#     4  11  27  51  74 119 156 210 270 329 411 487
#     4  11  26  47  80 113 160 206 265 339 397 492
#     4  11  27  49  77 116 159 210 272 334 411 482
#     4  12  27  52  78 116 159 213 271 338 400 491
#     4  12  29  50  81 114 161 211 273 337 406 485
#
# _framework density 25.360928000000001
#
# number of rings (size 3 to 8) (size 9 to 14) (size 15 to 20)
#    0.000    0.500    3.750    2.250   12.250    0.000 
#    6.750    0.000    0.000    0.000    0.000    0.000 
#    0.000    0.000    0.000    0.000    0.000    0.000 
#
# Total GULP energy -89362.897325 kJ/mol
# GULP energy per Si atom -5585.181083 kJ/mol
# Density = 2.530321 g / cm^3
# Si number density = 25.360928 Si / 1000 Ang^3
#
#
#
# Elastic Constant Matrix: (Units=GPa)
#
#
# Indices 1 2 3 4 5 6 
#
# 1 76.3475 18.5931 27.4651 0.0000 -6.0027 0.0000
# 2 18.5931 85.4877 37.5494 0.0000 -5.3175 0.0000
# 3 27.4651 37.5494 130.4451 0.0000 -5.9112 0.0000
# 4 0.0000 0.0000 0.0000 46.9416 0.0000 -4.2151
# 5 -6.0027 -5.3175 -5.9112 0.0000 47.5392 0.0000
# 6 0.0000 0.0000 0.0000 -4.2151 0.0000 43.8241
#
#
#
# Elastic Compliance Matrix: (Units=1/GPa)
#
#
# Indices 1 2 3 4 5 6 
#
# 1 0.014566 -0.002021 -0.002426 0.000000 0.001312 0.000000
# 2 -0.002021 0.013721 -0.003486 0.000000 0.000846 0.000000
# 3 -0.002426 -0.003486 0.009200 0.000000 0.000448 0.000000
# 4 0.000000 0.000000 0.000000 0.021489 0.000000 0.002067
# 5 0.001312 0.000846 0.000448 0.000000 0.021351 0.000000
# 6 0.000000 0.000000 0.000000 0.002067 0.000000 0.023017
#
#
# Mechanical properties :
#
#
# Convention : Reuss Voigt Hill
#
# Bulk Modulus (GPa) = 46.24831 51.05506 48.65168
# Shear Modulus (GPa) = 39.55177 41.57251 40.56214
#
# Velocity S-wave (km/s) = 3.95340 4.05314 4.00358
# Velocity P-wave (km/s) = 6.25419 6.48683 6.37157
#
# Compressibility (1/GPa) = 0.02162241
#
# Stress axis : x y z
#
# Youngs Moduli (GPa) = 68.65352 72.88180 108.69009
#
# Poissons Ratio (x) = 0.14729 0.26364
# Poissons Ratio (y) = 0.13875 0.37887
# Poissons Ratio (z) = 0.16653 0.25405
#
# Static dielectric constant tensor:
#      x y z
#    x 1.983640 0.000000 0.043450 
#    y 0.000000 2.121190 0.000000 
#    z 0.043450 0.000000 2.108450 
# 
# From -- ./inp_files/5656.got.cif
#   From: 2010.05.17/outbox.cif.g08.bks.cpg/sg4_3_cif.got.tgz:5656.got - 2010.06.03 18:43:04.
