data_PCOD9119857
_publ_section_title
;
Structure prediction by ZEFSAII (Michael W. Deem and Ramdas Pophale) SiO2 
 PCOD9119857
Probable space group: P 21
;
_chemical_formula_sum "Si O2"
_cell_formula_units_Z 16
_cell_length_a 15.000000
_cell_length_b 9.000000
_cell_length_c 12.000000
_cell_angle_alpha 90.000000
_cell_angle_beta 150.000000
_cell_angle_gamma 90.000000
_cell_volume 810.000000
_symmetry_space_group_name_H-M "P 21"
_symmetry_group_IT_number 4
_symmetry_cell_setting 'monoclinic'
loop_
_space_group_symop_operation_xyz
x,y,z
-x,1/2+y,-z
loop_
_atom_site_type_symbol
_atom_site_label
_atom_site_fract_x
_atom_site_fract_y
_atom_site_fract_z
Si Si1 0.991348 0.176920 0.264996
Si Si2 0.536765 0.295315 0.119995
Si Si3 0.368060 0.494038 0.122692
Si Si4 0.115243 0.024083 0.854943
Si Si5 0.755684 0.570467 0.260830
Si Si6 0.711615 0.078092 0.495804
Si Si7 0.665261 0.731800 0.502159
Si Si8 0.586307 0.704565 0.681155
O O1 0.910252 0.344606 0.176130
O O2 0.097509 0.129240 0.492301
O O3 0.141112 0.172532 0.329380
O O4 0.827161 0.063861 0.077148
O O5 0.408782 0.404076 0.053365
O O6 0.675397 0.406897 0.207734
O O7 0.630138 0.178432 0.306966
O O8 0.407083 0.189247 0.908665
O O9 0.513058 0.625502 0.287213
O O10 0.394962 0.369197 0.246663
O O11 0.164340 0.068100 0.779286
O O12 0.925289 0.080995 0.701834
O O13 0.273968 0.093382 0.103597
O O14 0.613457 0.148468 0.499400
O O15 0.659008 0.902353 0.448960
O O16 0.632479 0.718211 0.600155
#
# Coordination Sequence:
#
# PCOD9119857 Si02
#       8
#     2   2   2   2   2   2   2   2
#     4  11  28  42  69 105 142 185 235 290 355 430
#     4  11  27  43  73  98 145 189 232 293 354 432
#     4  11  24  45  66 103 142 183 235 297 346 427
#     4  11  26  44  71 102 147 184 236 292 351 432
#     4  12  27  45  72 108 140 192 232 292 359 430
#     4  10  24  47  69 103 142 187 234 299 352 422
#     4  11  24  47  72 102 142 186 241 294 363 417
#     4  11  24  45  74 103 140 190 239 293 358 420
#
# _framework density 19.753086
#
# number of rings (size 3 to 8) (size 9 to 14) (size 15 to 20)
#    0.000    1.000    3.750    1.500   10.500    3.000 
#    0.000    0.000    0.000    0.000    0.000    0.000 
#    0.000    0.000    0.000    0.000    0.000    0.000 
#
# Total GULP energy -89377.605192 kJ/mol
# GULP energy per Si atom -5586.100325 kJ/mol
# Density = 1.970813 g / cm^3
# Si number density = 19.753086 Si / 1000 Ang^3
#
#
#
# Elastic Constant Matrix: (Units=GPa)
#
#
# Indices 1 2 3 4 5 6 
#
# 1 147.7387 41.1654 34.4078 0.0000 11.9123 0.0000
# 2 41.1654 125.7742 48.6936 0.0000 7.7601 0.0000
# 3 34.4078 48.6936 59.1896 0.0000 18.8197 0.0000
# 4 0.0000 0.0000 0.0000 37.2024 0.0000 10.4558
# 5 11.9123 7.7601 18.8197 0.0000 37.2955 0.0000
# 6 0.0000 0.0000 0.0000 10.4558 0.0000 45.4208
#
#
#
# Elastic Compliance Matrix: (Units=1/GPa)
#
#
# Indices 1 2 3 4 5 6 
#
# 1 0.007958 -0.001244 -0.003427 0.000000 -0.000554 0.000000
# 2 -0.001244 0.012126 -0.010216 0.000000 0.003029 0.000000
# 3 -0.003427 -0.010216 0.031287 0.000000 -0.012568 0.000000
# 4 0.000000 0.000000 0.000000 0.028739 0.000000 -0.006616
# 5 -0.000554 0.003029 -0.012568 0.000000 0.032701 0.000000
# 6 0.000000 0.000000 0.000000 -0.006616 0.000000 0.023539
#
#
# Mechanical properties :
#
#
# Convention : Reuss Voigt Hill
#
# Bulk Modulus (GPa) = 46.29982 64.58180 55.44081
# Shear Modulus (GPa) = 28.84776 37.87944 33.36360
#
# Velocity S-wave (km/s) = 3.82569 4.38384 4.11424
# Velocity P-wave (km/s) = 6.55780 7.64131 7.12019
#
# Compressibility (1/GPa) = 0.02159835
#
# Stress axis : x y z
#
# Youngs Moduli (GPa) = 125.65946 82.46731 31.96189
#
# Poissons Ratio (x) = 0.10257 0.10953
# Poissons Ratio (y) = 0.15629 0.32652
# Poissons Ratio (z) = 0.43061 0.84248
#
# Static dielectric constant tensor:
#      x y z
#    x 1.706710 0.000000 -0.008400 
#    y 0.000000 1.690210 0.000000 
#    z -0.008400 0.000000 1.699270 
# 
# From -- ./inp_files/12673.got.cif
#   From: 2010.05.17/outbox.ucp.g08.bks.cvg/sg4_7_cif.got.tgz:12673.got - 2010.06.11 12:51:24.
