data_PCOD9119585
_publ_section_title
;
Structure prediction by ZEFSAII (Michael W. Deem and Ramdas Pophale) SiO2 
 PCOD9119585
Probable space group: P 21
;
_chemical_formula_sum "Si O2"
_cell_formula_units_Z 16
_cell_length_a 26.789618
_cell_length_b 5.329070
_cell_length_c 27.261724
_cell_angle_alpha 90.000000
_cell_angle_beta 10.681018
_cell_angle_gamma 90.000000
_cell_volume 721.344827
_symmetry_space_group_name_H-M "P 21"
_symmetry_group_IT_number 4
_symmetry_cell_setting 'monoclinic'
loop_
_space_group_symop_operation_xyz
x,y,z
-x,1/2+y,-z
loop_
_atom_site_type_symbol
_atom_site_label
_atom_site_fract_x
_atom_site_fract_y
_atom_site_fract_z
Si Si1 0.598770 0.939510 0.999956
Si Si2 0.031336 0.939506 0.499948
Si Si3 0.897114 0.439467 0.999977
Si Si4 0.467360 0.439694 0.499979
Si Si5 0.167424 0.439456 0.999885
Si Si6 0.569031 0.794203 0.749487
Si Si7 0.264197 0.939543 0.500136
Si Si8 0.068056 0.084784 0.250459
O O1 0.318208 0.863290 0.246258
O O2 0.518205 0.142474 0.118444
O O3 0.755067 0.736515 0.881585
O O4 0.810926 0.015758 0.753562
O O5 0.928357 0.689492 0.571652
O O6 0.182144 0.387483 0.750082
O O7 0.682389 0.491733 0.249836
O O8 0.922939 0.689799 0.941940
O O9 0.806860 0.188939 0.058085
O O10 0.450333 0.689751 0.549648
O O11 0.454678 0.369592 0.746315
O O12 0.947724 0.509536 0.253299
O O13 0.658158 0.644131 0.615449
O O14 0.840972 0.939526 0.499998
O O15 0.296348 0.939480 0.999973
O O16 0.110809 0.734868 0.615590
#
# Coordination Sequence:
#
# PCOD9119585 Si02
#       8
#     2   2   2   2   2   2   2   2
#     4  12  27  50  72 112 142 192 246 314 371 436
#     4  12  29  50  78 110 150 194 244 300 383 470
#     4  12  26  47  68 112 140 198 244 293 388 438
#     4  12  24  45  76 104 142 184 246 319 366 438
#     4  12  27  45  74  98 160 194 240 305 357 464
#     4  12  26  46  77 107 146 191 255 314 368 438
#     4  12  27  47  66 112 138 202 250 297 365 432
#     4  12  26  46  77 107 146 191 255 314 368 438
#
# _framework density 22.180789999999998
#
# number of rings (size 3 to 8) (size 9 to 14) (size 15 to 20)
#    0.000    0.000    0.000   10.500   10.500    0.000 
#    0.000    0.000    0.000    0.000    0.000    0.000 
#    0.000    0.000    0.000    0.000    0.000    0.000 
#
# Total GULP energy -89563.717150 kJ/mol
# GULP energy per Si atom -5597.732322 kJ/mol
# Density = 2.213031 g / cm^3
# Si number density = 22.180790 Si / 1000 Ang^3
#
#
#
# Elastic Constant Matrix: (Units=GPa)
#
#
# Indices 1 2 3 4 5 6 
#
# 1 109.4096 50.2818 55.0476 0.0000 -2.2112 0.0000
# 2 50.2818 121.4784 33.2471 0.0000 0.6297 0.0000
# 3 55.0476 33.2471 182.5984 0.0000 -0.9981 0.0000
# 4 0.0000 0.0000 0.0000 49.6946 0.0000 0.3184
# 5 -2.2112 0.6297 -0.9981 0.0000 52.3883 0.0000
# 6 0.0000 0.0000 0.0000 0.3184 0.0000 57.1704
#
#
#
# Elastic Compliance Matrix: (Units=1/GPa)
#
#
# Indices 1 2 3 4 5 6 
#
# 1 0.012710 -0.004437 -0.003021 0.000000 0.000532 0.000000
# 2 -0.004437 0.010213 -0.000524 0.000000 -0.000320 0.000000
# 3 -0.003021 -0.000524 0.006483 0.000000 0.000002 0.000000
# 4 0.000000 0.000000 0.000000 0.020124 0.000000 -0.000112
# 5 0.000532 -0.000320 0.000002 0.000000 0.019115 0.000000
# 6 0.000000 0.000000 0.000000 -0.000112 0.000000 0.017492
#
#
# Mechanical properties :
#
#
# Convention : Reuss Voigt Hill
#
# Bulk Modulus (GPa) = 74.38920 76.73771 75.56346
# Shear Modulus (GPa) = 46.91333 50.17799 48.54566
#
# Velocity S-wave (km/s) = 4.60395 4.76145 4.68336
# Velocity P-wave (km/s) = 7.86589 8.05606 7.96154
#
# Compressibility (1/GPa) = 0.01344281
#
# Stress axis : x y z
#
# Youngs Moduli (GPa) = 78.68089 97.91096 154.25982
#
# Poissons Ratio (x) = 0.43440 0.46599
# Poissons Ratio (y) = 0.34908 0.08081
# Poissons Ratio (z) = 0.23768 0.05129
#
# Static dielectric constant tensor:
#      x y z
#    x 1.806470 0.000000 0.005440 
#    y 0.000000 1.872080 0.000000 
#    z 0.005440 0.000000 1.672670 
# 
# From -- ./inp_files/16475.got.cif
#   From: 2010.05.17/outbox.cif.g08.bks.cpg/sg4_9_cif.got.tgz:16475.got - 2010.06.03 18:43:04.
