data_PCOD9119474
_publ_section_title
;
Structure prediction by ZEFSAII (Michael W. Deem and Ramdas Pophale) SiO2 
 PCOD9119474
Probable space group: P 21
;
_chemical_formula_sum "Si O2"
_cell_formula_units_Z 16
_cell_length_a 14.393107
_cell_length_b 8.946304
_cell_length_c 14.239737
_cell_angle_alpha 90.000000
_cell_angle_beta 160.147658
_cell_angle_gamma 90.000000
_cell_volume 622.679283
_symmetry_space_group_name_H-M "P 21"
_symmetry_group_IT_number 4
_symmetry_cell_setting 'monoclinic'
loop_
_space_group_symop_operation_xyz
x,y,z
-x,1/2+y,-z
loop_
_atom_site_type_symbol
_atom_site_label
_atom_site_fract_x
_atom_site_fract_y
_atom_site_fract_z
Si Si1 0.436391 0.205570 0.521333
Si Si2 0.726585 0.928135 0.868269
Si Si3 0.356017 0.208140 0.817445
Si Si4 0.802692 0.527115 0.051587
Si Si5 0.272402 0.356060 0.550926
Si Si6 0.151933 0.955834 0.125274
Si Si7 0.182099 0.817227 0.430294
Si Si8 0.823684 0.376418 0.359613
O O1 0.286052 0.304694 0.455972
O O2 0.267106 0.097524 0.292249
O O3 0.655512 0.311787 0.679344
O O4 0.601000 0.091132 0.744400
O O5 0.480362 0.816149 0.663166
O O6 0.983886 0.925977 0.182815
O O7 0.862195 0.909658 0.894252
O O8 0.354374 0.232084 0.703850
O O9 0.138609 0.331443 0.646741
O O10 0.256229 0.042858 0.748298
O O11 0.642388 0.251814 0.135284
O O12 0.961006 0.405842 0.265425
O O13 0.979216 0.674549 0.239454
O O14 0.482789 0.495651 0.764382
O O15 0.845216 0.498577 0.980842
O O16 0.239314 0.867543 0.589673
#
# Coordination Sequence:
#
# PCOD9119474 Si02
#       8
#     2   2   2   2   2   2   2   2
#     4  11  28  50  75 109 157 205 263 322 385 459
#     4  12  27  46  75 106 157 198 260 318 372 466
#     4  12  28  51  85 120 158 209 259 330 399 489
#     4  11  28  47  78 115 157 204 259 324 377 463
#     4  11  27  50  79 111 156 205 257 316 401 459
#     4  11  29  46  79 111 158 210 266 319 388 449
#     4  12  28  51  79 115 156 204 259 320 400 461
#     4  12  29  51  86 119 161 203 267 325 410 472
#
# _framework density 25.695412000000001
#
# number of rings (size 3 to 8) (size 9 to 14) (size 15 to 20)
#    0.000    0.500    1.250    3.750   15.750    1.000 
#    2.250    0.000    0.000    0.000    0.000    0.000 
#    0.000    0.000    0.000    0.000    0.000    0.000 
#
# Total GULP energy -89665.415576 kJ/mol
# GULP energy per Si atom -5604.088473 kJ/mol
# Density = 2.563693 g / cm^3
# Si number density = 25.695412 Si / 1000 Ang^3
#
#
#
# Elastic Constant Matrix: (Units=GPa)
#
#
# Indices 1 2 3 4 5 6 
#
# 1 83.9681 -2.9642 2.6029 0.0000 -0.9398 0.0000
# 2 -2.9642 110.2232 22.5657 0.0000 9.0874 0.0000
# 3 2.6029 22.5657 109.5114 0.0000 -1.9676 0.0000
# 4 0.0000 0.0000 0.0000 38.9430 0.0000 -6.0465
# 5 -0.9398 9.0874 -1.9676 0.0000 47.8781 0.0000
# 6 0.0000 0.0000 0.0000 -6.0465 0.0000 30.0509
#
#
#
# Elastic Compliance Matrix: (Units=1/GPa)
#
#
# Indices 1 2 3 4 5 6 
#
# 1 0.011936 0.000383 -0.000360 0.000000 0.000147 0.000000
# 2 0.000383 0.009656 -0.002033 0.000000 -0.001909 0.000000
# 3 -0.000360 -0.002033 0.009573 0.000000 0.000772 0.000000
# 4 0.000000 0.000000 0.000000 0.026507 0.000000 0.005333
# 5 0.000147 -0.001909 0.000772 0.000000 0.021283 0.000000
# 6 0.000000 0.000000 0.000000 0.005333 0.000000 0.034350
#
#
# Mechanical properties :
#
#
# Convention : Reuss Voigt Hill
#
# Bulk Modulus (GPa) = 36.84074 38.67904 37.75989
# Shear Modulus (GPa) = 39.56519 42.14097 40.85308
#
# Velocity S-wave (km/s) = 3.92826 4.05411 3.99168
# Velocity P-wave (km/s) = 5.91131 6.08276 5.99765
#
# Compressibility (1/GPa) = 0.02714386
#
# Stress axis : x y z
#
# Youngs Moduli (GPa) = 83.78301 103.55816 104.46215
#
# Poissons Ratio (x) = -0.03962 0.03759
# Poissons Ratio (y) = -0.03205 0.21239
# Poissons Ratio (z) = 0.03015 0.21055
#
# Static dielectric constant tensor:
#      x y z
#    x 2.037170 0.000000 -0.000190 
#    y 0.000000 2.053990 0.000000 
#    z -0.000190 0.000000 1.964180 
# 
# From -- ./inp_files/14224.got.cif
#   From: 2010.05.17/outbox.cif.g08.bks.cpg/sg4_8_cif.got.tgz:14224.got - 2010.06.03 18:43:04.
