data_PCOD9119694
_publ_section_title
;
Structure prediction by ZEFSAII (Michael W. Deem and Ramdas Pophale) SiO2 
 PCOD9119694
Probable space group: P 21
;
_chemical_formula_sum "Si O2"
_cell_formula_units_Z 14
_cell_length_a 7.047721
_cell_length_b 10.716851
_cell_length_c 10.067857
_cell_angle_alpha 90.000000
_cell_angle_beta 132.623679
_cell_angle_gamma 90.000000
_cell_volume 559.529413
_symmetry_space_group_name_H-M "P 21"
_symmetry_group_IT_number 4
_symmetry_cell_setting 'monoclinic'
loop_
_space_group_symop_operation_xyz
x,y,z
-x,1/2+y,-z
loop_
_atom_site_type_symbol
_atom_site_label
_atom_site_fract_x
_atom_site_fract_y
_atom_site_fract_z
Si Si1 0.433989 0.922990 0.161400
Si Si2 0.855885 0.305505 0.203598
Si Si3 0.326915 0.041966 0.465614
Si Si4 0.670278 0.689167 0.972465
Si Si5 0.549040 0.793225 0.497152
Si Si6 0.812625 0.953355 0.090747
Si Si7 0.694710 0.560279 0.250399
O O1 0.503923 0.856370 0.331323
O O2 0.667985 0.932070 0.164798
O O3 0.317553 0.063905 0.109000
O O4 0.235243 0.837500 0.987484
O O5 0.636030 0.218715 0.162247
O O6 0.830935 0.432278 0.275311
O O7 0.149434 0.270919 0.338983
O O8 0.448341 0.903399 0.543815
O O9 0.239868 0.090013 0.569222
O O10 0.084835 0.011804 0.256165
O O11 0.536627 0.148630 0.523304
O O12 0.814089 0.819655 0.016598
O O13 0.762445 0.653628 0.164873
O O14 0.613752 0.037603 0.913068
#
# Coordination Sequence:
#
# PCOD9119694 Si02
#       7
#     2   2   2   2   2   2   2
#     4   9  19  38  64  90 117 154 203 258 309 360
#     4   9  19  37  62  89 115 150 201 258 309 358
#     4  12  26  40  57  87 128 169 205 246 302 367
#     4   8  16  36  68  94 116 150 202 262 314 360
#     4  12  26  40  57  87 128 169 205 246 302 367
#     4   9  19  38  64  90 117 154 203 258 309 360
#     4   9  19  37  62  89 115 150 201 258 309 358
#
# _framework density 25.021027
#
# number of rings (size 3 to 8) (size 9 to 14) (size 15 to 20)
#    0.000    2.857    0.000    4.286    0.000    5.714 
#    0.000    1.429    0.000    0.000    0.000    0.000 
#    0.000    0.000    0.000    0.000    0.000    0.000 
#
# Total GULP energy -78174.353943 kJ/mol
# GULP energy per Si atom -5583.882425 kJ/mol
# Density = 2.496408 g / cm^3
# Si number density = 25.021027 Si / 1000 Ang^3
#
#
#
# Elastic Constant Matrix: (Units=GPa)
#
#
# Indices 1 2 3 4 5 6 
#
# 1 59.1031 -4.0127 24.3654 0.0000 -7.3328 0.0000
# 2 -4.0127 145.2659 15.1901 0.0000 9.1668 0.0000
# 3 24.3654 15.1901 82.9622 0.0000 10.6892 0.0000
# 4 0.0000 0.0000 0.0000 26.9470 0.0000 1.4953
# 5 -7.3328 9.1668 10.6892 0.0000 19.6450 0.0000
# 6 0.0000 0.0000 0.0000 1.4953 0.0000 -5.4342
#
#
#
# Elastic Compliance Matrix: (Units=1/GPa)
#
#
# Indices 1 2 3 4 5 6 
#
# 1 0.021830 0.000679 -0.008113 0.000000 0.012246 0.000000
# 2 0.000679 0.007182 -0.001199 0.000000 -0.002446 0.000000
# 3 -0.008113 -0.001199 0.016103 0.000000 -0.011231 0.000000
# 4 0.000000 0.000000 0.000000 0.036552 0.000000 0.010058
# 5 0.012246 -0.002446 -0.011231 0.000000 0.062727 0.000000
# 6 0.000000 0.000000 0.000000 0.010058 0.000000 -0.181254
#
#
# Mechanical properties :
#
#
# Convention : Reuss Voigt Hill
#
# Bulk Modulus (GPa) = 35.91014 39.82408 37.86711
# Shear Modulus (GPa) = -484.98229 25.01747 -229.98241
#
# Velocity S-wave (km/s) = -13.93738 3.16548 -9.59767
# Velocity P-wave (km/s) = 15.64026 5.41398 10.37561
#
# Compressibility (1/GPa) = 0.02784729
#
# Stress axis : x y z
#
# Youngs Moduli (GPa) = 45.80893 139.22909 62.09968
#
# Poissons Ratio (x) = -0.09448 0.50384
# Poissons Ratio (y) = -0.03109 0.07447
# Poissons Ratio (z) = 0.37167 0.16697
#
# Static dielectric constant tensor:
#      x y z
#    x 2.017620 0.000000 0.000720 
#    y 0.000000 2.182010 0.000000 
#    z 0.000720 0.000000 1.964240 
# 
# From -- ./inp_files/11189.got.cif
#   From: 2010.05.17/outbox.cif.g08.bks.cpg/sg4_6_cif.got.tgz:11189.got - 2010.06.03 18:43:04.
