data_PCOD9119483
_publ_section_title
;
Structure prediction by ZEFSAII (Michael W. Deem and Ramdas Pophale) SiO2 
 PCOD9119483
Probable space group: P 21
;
_chemical_formula_sum "Si O2"
_cell_formula_units_Z 14
_cell_length_a 9.316372
_cell_length_b 8.072259
_cell_length_c 9.579640
_cell_angle_alpha 90.000000
_cell_angle_beta 132.515960
_cell_angle_gamma 90.000000
_cell_volume 531.020269
_symmetry_space_group_name_H-M "P 21"
_symmetry_group_IT_number 4
_symmetry_cell_setting 'monoclinic'
loop_
_space_group_symop_operation_xyz
x,y,z
-x,1/2+y,-z
loop_
_atom_site_type_symbol
_atom_site_label
_atom_site_fract_x
_atom_site_fract_y
_atom_site_fract_z
Si Si1 0.288438 0.743050 0.060381
Si Si2 0.621158 0.960083 0.263939
Si Si3 0.675525 0.470576 0.156986
Si Si4 0.274842 0.070924 0.211369
Si Si5 0.066199 0.594092 0.352548
Si Si6 0.773591 0.918984 0.812094
Si Si7 0.322339 0.916397 0.515771
O O1 0.466947 0.501196 0.946406
O O2 0.226108 0.566082 0.074294
O O3 0.524491 0.778692 0.227915
O O4 0.246684 0.807851 0.876971
O O5 0.490427 0.072241 0.284004
O O6 0.838475 0.001028 0.449237
O O7 0.669821 0.442747 0.314810
O O8 0.835741 0.607185 0.223114
O O9 0.789920 0.392259 0.891051
O O10 0.169412 0.237627 0.095913
O O11 0.260519 0.060434 0.368249
O O12 0.122303 0.481618 0.257912
O O13 0.172470 0.766892 0.398289
O O14 0.547028 0.890212 0.618736
#
# Coordination Sequence:
#
# PCOD9119483 Si02
#       7
#     2   2   2   2   2   2   2
#     4   8  20  46  63 102 142 181 234 308 341 435
#     4   8  19  45  65  96 141 181 238 296 354 430
#     4   9  26  44  68 103 156 180 240 309 368 434
#     4   9  20  37  70 105 130 189 244 285 355 432
#     4  12  22  44  74  97 145 198 238 298 367 437
#     4  12  20  39  80 102 134 198 243 291 361 434
#     4  12  21  41  70 111 146 189 247 305 362 446
#
# _framework density 26.364341
#
# number of rings (size 3 to 8) (size 9 to 14) (size 15 to 20)
#    1.714    0.000    4.286    0.000    2.000    2.286 
#    5.143    0.000   18.857    0.000    0.000    0.000 
#    0.000    0.000    0.000    0.000    0.000    0.000 
#
# Total GULP energy -78211.074936 kJ/mol
# GULP energy per Si atom -5586.505353 kJ/mol
# Density = 2.630433 g / cm^3
# Si number density = 26.364341 Si / 1000 Ang^3
#
#
#
# Elastic Constant Matrix: (Units=GPa)
#
#
# Indices 1 2 3 4 5 6 
#
# 1 81.4090 28.9823 38.0369 0.0000 -16.9205 0.0000
# 2 28.9823 144.2720 37.4188 0.0000 -12.9873 0.0000
# 3 38.0369 37.4188 119.0944 0.0000 -26.9192 0.0000
# 4 0.0000 0.0000 0.0000 32.9759 0.0000 3.5656
# 5 -16.9205 -12.9873 -26.9192 0.0000 53.5061 0.0000
# 6 0.0000 0.0000 0.0000 3.5656 0.0000 28.2003
#
#
#
# Elastic Compliance Matrix: (Units=1/GPa)
#
#
# Indices 1 2 3 4 5 6 
#
# 1 0.015197 -0.001868 -0.003704 0.000000 0.002489 0.000000
# 2 -0.001868 0.007801 -0.001760 0.000000 0.000417 0.000000
# 3 -0.003704 -0.001760 0.011025 0.000000 0.003948 0.000000
# 4 0.000000 0.000000 0.000000 0.030746 0.000000 -0.003887
# 5 0.002489 0.000417 0.003948 0.000000 0.021564 0.000000
# 6 0.000000 0.000000 0.000000 -0.003887 0.000000 0.035952
#
#
# Mechanical properties :
#
#
# Convention : Reuss Voigt Hill
#
# Bulk Modulus (GPa) = 51.65784 61.51680 56.58732
# Shear Modulus (GPa) = 34.86720 38.95896 36.91308
#
# Velocity S-wave (km/s) = 3.64058 3.84827 3.74587
# Velocity P-wave (km/s) = 6.10804 6.56731 6.34184
#
# Compressibility (1/GPa) = 0.01935815
#
# Stress axis : x y z
#
# Youngs Moduli (GPa) = 65.80401 128.19442 90.70178
#
# Poissons Ratio (x) = 0.23947 0.33597
# Poissons Ratio (y) = 0.12293 0.15963
# Poissons Ratio (z) = 0.24374 0.22562
#
# Static dielectric constant tensor:
#      x y z
#    x 2.098590 0.000000 0.068790 
#    y 0.000000 2.121680 0.000000 
#    z 0.068790 0.000000 2.129930 
# 
# From -- ./inp_files/5249.got.cif
#   From: 2010.05.17/outbox.cif.g08.bks.cpg/sg4_3_cif.got.tgz:5249.got - 2010.06.03 18:43:04.
