data_PCOD9119954
_publ_section_title
;
Structure prediction by ZEFSAII (Michael W. Deem and Ramdas Pophale) SiO2 
 PCOD9119954
Probable space group: C 2
;
_chemical_formula_sum "Si O2"
_cell_formula_units_Z 32
_cell_length_a 25.245306
_cell_length_b 6.801970
_cell_length_c 8.720043
_cell_angle_alpha 90.000000
_cell_angle_beta 56.791056
_cell_angle_gamma 90.000000
_cell_volume 1252.831767
_symmetry_space_group_name_H-M "C 2"
_symmetry_group_IT_number 5
_symmetry_cell_setting 'monoclinic'
loop_
_space_group_symop_operation_xyz
x,y,z
-x,y,-z
1/2+x,1/2+y,z
1/2-x,1/2+y,-z
loop_
_atom_site_type_symbol
_atom_site_label
_atom_site_fract_x
_atom_site_fract_y
_atom_site_fract_z
Si Si1 0.327110 0.556970 0.430017
Si Si2 0.679224 0.978617 0.048787
Si Si3 0.944580 0.899692 0.706137
Si Si4 0.195416 0.701150 0.698928
Si Si5 0.925113 0.568406 0.246397
Si Si6 0.948370 0.482764 0.856536
Si Si7 0.964366 0.035294 0.210633
Si Si8 0.315169 0.332597 0.765312
O O1 0.267595 0.697333 0.529764
O O2 0.326644 0.426914 0.276516
O O3 0.397155 0.640412 0.337116
O O4 0.314560 0.409465 0.593183
O O5 0.689366 0.112586 0.878383
O O6 0.745834 0.865618 0.948926
O O7 0.611938 0.873424 0.123285
O O8 0.671723 0.105517 0.215679
O O9 0.934326 0.706608 0.824059
O O10 0.876632 0.942696 0.739914
O O11 0.000000 0.842042 0.500000
O O12 0.982168 0.059055 0.745992
O O13 0.150828 0.581789 0.649500
O O14 0.975255 0.465145 0.282106
O O15 0.945077 0.801606 0.232125
O O16 0.939156 0.490225 0.053330
O O17 0.000000 0.085654 0.000000
#
# Coordination Sequence:
#
# PCOD9119954 Si02
#       8
#     4   4   4   4   4   4   4   4
#     4  10  20  33  49  76 103 131 166 211 246 296
#     4   9  19  33  50  72 101 135 166 201 251 302
#     4  10  16  26  45  71  95 122 159 213 253 277
#     4   9  19  32  50  73 102 132 164 204 255 295
#     4   8  12  24  45  68  88 116 157 198 240 284
#     4   8  13  24  44  67  90 117 155 201 241 281
#     4  10  16  28  47  71  96 125 163 207 249 290
#     4  10  20  33  49  76 104 131 168 205 247 300
#
# _framework density 25.542135999999999
#
# number of rings (size 3 to 8) (size 9 to 14) (size 15 to 20)
#    0.000    2.750    3.750    0.000    1.750    1.000 
#    0.000    0.000    0.000    1.500    3.250    0.000 
#    0.000    0.000    0.000    0.000    0.000    0.000 
#
# Total GULP energy -89201.646670 kJ/mol
# GULP energy per Si atom -5575.102917 kJ/mol
# Density = 2.548400 g / cm^3
# Si number density = 25.542136 Si / 1000 Ang^3
#
#
#
# Elastic Constant Matrix: (Units=GPa)
#
#
# Indices 1 2 3 4 5 6 
#
# 1 196.0939 31.5573 44.5935 0.0000 -45.9381 0.0000
# 2 31.5573 47.4676 7.5792 0.0000 -7.5203 0.0000
# 3 44.5935 7.5792 55.1250 0.0000 -28.9770 0.0000
# 4 0.0000 0.0000 0.0000 -18.2960 0.0000 -30.8372
# 5 -45.9381 -7.5203 -28.9770 0.0000 54.3712 0.0000
# 6 0.0000 0.0000 0.0000 -30.8372 0.0000 35.3912
#
#
#
# Elastic Compliance Matrix: (Units=1/GPa)
#
#
# Indices 1 2 3 4 5 6 
#
# 1 0.007395 -0.003752 -0.003410 0.000000 0.003912 0.000000
# 2 -0.003752 0.023593 -0.000222 0.000000 -0.000025 0.000000
# 3 -0.003410 -0.000222 0.026949 0.000000 0.011450 0.000000
# 4 0.000000 0.000000 0.000000 -0.022141 0.000000 -0.019292
# 5 0.003912 -0.000025 0.011450 0.000000 0.027796 0.000000
# 6 0.000000 0.000000 0.000000 -0.019292 0.000000 0.011446
#
#
# Mechanical properties :
#
#
# Convention : Reuss Voigt Hill
#
# Bulk Modulus (GPa) = 23.16495 51.79405 37.47950
# Shear Modulus (GPa) = 47.98620 28.62372 38.30496
#
# Velocity S-wave (km/s) = 4.33911 3.35124 3.87677
# Velocity P-wave (km/s) = 5.84746 5.94107 5.89445
#
# Compressibility (1/GPa) = 0.04316868
#
# Stress axis : x y z
#
# Youngs Moduli (GPa) = 135.21913 42.38540 37.10735
#
# Poissons Ratio (x) = 0.15904 0.12655
# Poissons Ratio (y) = 0.50739 0.00823
# Poissons Ratio (z) = 0.46114 0.00940
#
# Static dielectric constant tensor:
#      x y z
#    x 2.123810 0.000000 0.012370 
#    y 0.000000 2.107010 0.000000 
#    z 0.012370 0.000000 2.111950 
# 
# From -- ./inp_files/30797.got.cif
#   From: 2010.05.17/outbox.cif.g08.bks.cpg/sg5_16_cif.got.tgz:30797.got - 2010.06.03 18:56:24.
