data_PCOD9119840
_publ_section_title
;
Structure prediction by ZEFSAII (Michael W. Deem and Ramdas Pophale) SiO2 
 PCOD9119840
Probable space group: P 21
;
_chemical_formula_sum "Si O2"
_cell_formula_units_Z 16
_cell_length_a 15.000000
_cell_length_b 9.000000
_cell_length_c 15.000000
_cell_angle_alpha 90.000000
_cell_angle_beta 160.000000
_cell_angle_gamma 90.000000
_cell_volume 692.590790
_symmetry_space_group_name_H-M "P 21"
_symmetry_group_IT_number 4
_symmetry_cell_setting 'monoclinic'
loop_
_space_group_symop_operation_xyz
x,y,z
-x,1/2+y,-z
loop_
_atom_site_type_symbol
_atom_site_label
_atom_site_fract_x
_atom_site_fract_y
_atom_site_fract_z
Si Si1 0.231437 0.588000 0.371607
Si Si2 0.700038 0.740883 0.560918
Si Si3 0.833391 0.094414 0.900198
Si Si4 0.910300 0.652145 0.583260
Si Si5 0.417113 0.809430 0.031323
Si Si6 0.282005 0.286953 0.099429
Si Si7 0.554761 0.605404 0.029364
Si Si8 0.726690 0.885308 0.108148
O O1 0.257034 0.414266 0.425453
O O2 0.201972 0.569207 0.237621
O O3 0.481420 0.688418 0.636357
O O4 0.970357 0.679863 0.151589
O O5 0.398401 0.710021 0.295697
O O6 0.766366 0.633307 0.540856
O O7 0.894991 0.677028 0.819946
O O8 0.792508 0.935203 0.912389
O O9 0.694912 0.738955 0.321480
O O10 0.164384 0.754513 0.846381
O O11 0.025132 0.495773 0.657555
O O12 0.348785 0.728327 0.871686
O O13 0.453125 0.985529 0.057591
O O14 0.350846 0.347185 0.065374
O O15 0.496542 0.486721 0.054421
O O16 0.767947 0.728057 0.198220
#
# Coordination Sequence:
#
# PCOD9119840 Si02
#       8
#     2   2   2   2   2   2   2   2
#     4  12  27  45  71 111 145 195 245 309 369 435
#     4  12  26  44  73 105 144 195 240 304 365 442
#     4  12  24  48  73 103 149 196 245 304 371 438
#     4  11  24  43  69 101 141 187 245 290 364 436
#     4  10  23  42  68 100 139 183 237 295 363 432
#     4  12  27  46  76 109 150 193 252 305 365 451
#     4   9  22  44  73 102 144 187 237 307 363 433
#     4  10  23  46  73 109 146 196 247 302 374 439
#
# _framework density 23.101664
#
# number of rings (size 3 to 8) (size 9 to 14) (size 15 to 20)
#    0.000    1.000    1.250    4.500    5.250    3.000 
#    0.000    7.500    0.000    0.000    0.000    0.000 
#    0.000    0.000    0.000    0.000    0.000    0.000 
#
# Total GULP energy -89154.821360 kJ/mol
# GULP energy per Si atom -5572.176335 kJ/mol
# Density = 2.304908 g / cm^3
# Si number density = 23.101664 Si / 1000 Ang^3
#
#
#
# Elastic Constant Matrix: (Units=GPa)
#
#
# Indices 1 2 3 4 5 6 
#
# 1 74.2866 17.7549 -7.6331 0.0000 1.5890 0.0000
# 2 17.7549 181.3671 41.4709 0.0000 3.7400 0.0000
# 3 -7.6331 41.4709 99.2384 0.0000 -2.0502 0.0000
# 4 0.0000 0.0000 0.0000 37.5163 0.0000 2.7513
# 5 1.5890 3.7400 -2.0502 0.0000 9.9982 0.0000
# 6 0.0000 0.0000 0.0000 2.7513 0.0000 40.5743
#
#
#
# Elastic Compliance Matrix: (Units=1/GPa)
#
#
# Indices 1 2 3 4 5 6 
#
# 1 0.014094 -0.001766 0.001797 0.000000 -0.001211 0.000000
# 2 -0.001766 0.006397 -0.002865 0.000000 -0.002700 0.000000
# 3 0.001797 -0.002865 0.011477 0.000000 0.003140 0.000000
# 4 0.000000 0.000000 0.000000 0.026788 0.000000 -0.001817
# 5 -0.001211 -0.002700 0.003140 0.000000 0.101864 0.000000
# 6 0.000000 0.000000 0.000000 -0.001817 0.000000 0.024769
#
#
# Mechanical properties :
#
#
# Convention : Reuss Voigt Hill
#
# Bulk Modulus (GPa) = 38.02159 50.89751 44.45955
# Shear Modulus (GPa) = 25.02194 37.83771 31.42982
#
# Velocity S-wave (km/s) = 3.29465 4.05146 3.69250
# Velocity P-wave (km/s) = 5.56481 6.63065 6.12098
#
# Compressibility (1/GPa) = 0.02630085
#
# Stress axis : x y z
#
# Youngs Moduli (GPa) = 70.95266 156.31608 87.13037
#
# Poissons Ratio (x) = 0.27599 -0.15656
# Poissons Ratio (y) = 0.12528 0.24962
# Poissons Ratio (z) = -0.12749 0.44784
#
# Static dielectric constant tensor:
#      x y z
#    x 2.044740 0.000000 -0.006290 
#    y 0.000000 1.889860 0.000000 
#    z -0.006290 0.000000 1.956100 
# 
# From -- ./inp_files/14222.got.cif
#   From: 2010.05.17/outbox.ucp.g08.bks.cvg/sg4_8_cif.got.tgz:14222.got - 2010.06.11 12:51:24.
