data_PCOD9119314
_publ_section_title
;
Structure prediction by ZEFSAII (Michael W. Deem and Ramdas Pophale) SiO2 
 PCOD9119314
Probable space group: P 21
;
_chemical_formula_sum "Si O2"
_cell_formula_units_Z 14
_cell_length_a 9.429641
_cell_length_b 6.266813
_cell_length_c 23.272092
_cell_angle_alpha 90.000000
_cell_angle_beta 156.575597
_cell_angle_gamma 90.000000
_cell_volume 546.709693
_symmetry_space_group_name_H-M "P 21"
_symmetry_group_IT_number 4
_symmetry_cell_setting 'monoclinic'
loop_
_space_group_symop_operation_xyz
x,y,z
-x,1/2+y,-z
loop_
_atom_site_type_symbol
_atom_site_label
_atom_site_fract_x
_atom_site_fract_y
_atom_site_fract_z
Si Si1 0.977369 0.546250 0.640334
Si Si2 0.097774 0.650374 0.897774
Si Si3 0.828990 0.708163 0.113558
Si Si4 0.435303 0.144845 0.815691
Si Si5 0.746531 0.024296 0.811704
Si Si6 0.093792 0.205981 0.513086
Si Si7 0.157651 0.426362 0.337567
O O1 0.976158 0.680730 0.580537
O O2 0.584989 0.435214 0.495808
O O3 0.969599 0.687892 0.695188
O O4 0.316364 0.389863 0.763225
O O5 0.004809 0.441441 0.828449
O O6 0.754699 0.788109 0.787909
O O7 0.424462 0.746937 0.982438
O O8 0.296549 0.607551 0.032048
O O9 0.864531 0.607293 0.062998
O O10 0.020332 0.554416 0.230713
O O11 0.626592 0.045999 0.831687
O O12 0.053188 0.046234 0.689908
O O13 0.497614 0.178413 0.683028
O O14 0.983814 0.957826 0.497028
#
# Coordination Sequence:
#
# PCOD9119314 Si02
#       7
#     2   2   2   2   2   2   2
#     4  12  24  47  80 116 165 210 275 336 425 503
#     4  11  27  49  77 110 159 210 279 338 413 498
#     4  11  25  49  75 114 153 210 272 340 410 496
#     4  11  27  49  74 120 157 211 269 343 413 493
#     4  12  26  47  78 114 155 216 267 338 420 486
#     4  12  28  50  80 119 172 216 278 347 431 509
#     4  11  25  45  78 117 157 209 260 340 418 495
#
# _framework density 25.60774
#
# number of rings (size 3 to 8) (size 9 to 14) (size 15 to 20)
#    0.000    0.571    5.714    0.857    4.000    5.714 
#    0.000    0.000    0.000    0.000    0.000    0.000 
#    0.000    0.000    0.000    0.000    0.000    0.000 
#
# Total GULP energy -78074.473060 kJ/mol
# GULP energy per Si atom -5576.748076 kJ/mol
# Density = 2.554946 g / cm^3
# Si number density = 25.607740 Si / 1000 Ang^3
#
#
#
# Elastic Constant Matrix: (Units=GPa)
#
#
# Indices 1 2 3 4 5 6 
#
# 1 197.0270 70.3920 31.2932 0.0000 5.6880 0.0000
# 2 70.3920 113.4658 37.8193 0.0000 1.0096 0.0000
# 3 31.2932 37.8193 67.3860 0.0000 -0.8988 0.0000
# 4 0.0000 0.0000 0.0000 38.5515 0.0000 15.8881
# 5 5.6880 1.0096 -0.8988 0.0000 36.1577 0.0000
# 6 0.0000 0.0000 0.0000 15.8881 0.0000 61.3820
#
#
#
# Elastic Compliance Matrix: (Units=1/GPa)
#
#
# Indices 1 2 3 4 5 6 
#
# 1 0.006602 -0.003765 -0.000965 0.000000 -0.000957 0.000000
# 2 -0.003765 0.012996 -0.005544 0.000000 0.000092 0.000000
# 3 -0.000965 -0.005544 0.018410 0.000000 0.000764 0.000000
# 4 0.000000 0.000000 0.000000 0.029037 0.000000 -0.007516
# 5 -0.000957 0.000092 0.000764 0.000000 0.027824 0.000000
# 6 0.000000 0.000000 0.000000 -0.007516 0.000000 0.018237
#
#
# Mechanical properties :
#
#
# Convention : Reuss Voigt Hill
#
# Bulk Modulus (GPa) = 57.27922 72.98755 65.13339
# Shear Modulus (GPa) = 35.84898 43.10986 39.47942
#
# Velocity S-wave (km/s) = 3.74562 4.10746 3.93071
# Velocity P-wave (km/s) = 6.41270 7.14556 6.78903
#
# Compressibility (1/GPa) = 0.01745834
#
# Stress axis : x y z
#
# Youngs Moduli (GPa) = 151.47814 76.94541 54.31857
#
# Poissons Ratio (x) = 0.28972 0.05243
# Poissons Ratio (y) = 0.57035 0.30115
# Poissons Ratio (z) = 0.14622 0.42660
#
# Static dielectric constant tensor:
#      x y z
#    x 2.053630 0.000000 0.075280 
#    y 0.000000 2.241970 0.000000 
#    z 0.075280 0.000000 2.044490 
# 
# From -- ./inp_files/13505.got.cif
#   From: 2010.05.17/outbox.cif.g08.bks.cpg/sg4_7_cif.got.tgz:13505.got - 2010.06.03 18:43:04.
