data_PCOD9119887
_publ_section_title
;
Structure prediction by ZEFSAII (Michael W. Deem and Ramdas Pophale) SiO2 
 PCOD9119887
Probable space group: P 21
;
_chemical_formula_sum "Si O2"
_cell_formula_units_Z 16
_cell_length_a 18.000000
_cell_length_b 9.000000
_cell_length_c 9.000000
_cell_angle_alpha 90.000000
_cell_angle_beta 30.000000
_cell_angle_gamma 90.000000
_cell_volume 729.000000
_symmetry_space_group_name_H-M "P 21"
_symmetry_group_IT_number 4
_symmetry_cell_setting 'monoclinic'
loop_
_space_group_symop_operation_xyz
x,y,z
-x,1/2+y,-z
loop_
_atom_site_type_symbol
_atom_site_label
_atom_site_fract_x
_atom_site_fract_y
_atom_site_fract_z
Si Si1 0.922420 0.799230 0.078477
Si Si2 0.618125 0.368801 0.317982
Si Si3 0.081774 0.371057 0.255370
Si Si4 0.803822 0.568765 0.792567
Si Si5 0.203905 0.961591 0.700978
Si Si6 0.334388 0.446575 0.283150
Si Si7 0.595870 0.617292 0.880508
Si Si8 0.346890 0.551116 0.917559
O O1 0.884009 0.622131 0.139362
O O2 0.819729 0.891742 0.374149
O O3 0.891986 0.854421 0.964985
O O4 0.091950 0.842877 0.822080
O O5 0.735695 0.386523 0.251655
O O6 0.462580 0.424943 0.657900
O O7 0.616030 0.213478 0.224407
O O8 0.671666 0.501690 0.118784
O O9 0.119892 0.213587 0.266959
O O10 0.918021 0.433226 0.571307
O O11 0.189074 0.498413 0.130589
O O12 0.728203 0.613285 0.769718
O O13 0.344000 0.015561 0.359301
O O14 0.420379 0.289232 0.129543
O O15 0.437595 0.552833 0.204507
O O16 0.331335 0.528533 0.125623
#
# Coordination Sequence:
#
# PCOD9119887 Si02
#       8
#     2   2   2   2   2   2   2   2
#     4  11  27  46  75 107 147 191 248 305 366 439
#     4  12  28  45  76 107 152 196 246 306 372 443
#     4  12  26  49  71 110 147 197 248 307 373 442
#     4  12  26  46  74 106 150 197 246 306 371 441
#     4  11  25  48  72 107 148 193 244 297 364 441
#     4  11  27  46  75 106 150 188 247 305 369 438
#     4  11  25  47  70 105 147 193 245 298 361 445
#     4  12  28  47  73 110 151 193 250 306 376 441
#
# _framework density 21.947873999999999
#
# number of rings (size 3 to 8) (size 9 to 14) (size 15 to 20)
#    0.000    0.500    5.000    1.500    7.000    2.000 
#    0.000    0.000    0.000    0.000    0.000    0.000 
#    0.000    0.000    0.000    0.000    0.000    0.000 
#
# Total GULP energy -89397.272717 kJ/mol
# GULP energy per Si atom -5587.329545 kJ/mol
# Density = 2.189792 g / cm^3
# Si number density = 21.947874 Si / 1000 Ang^3
#
#
#
# Elastic Constant Matrix: (Units=GPa)
#
#
# Indices 1 2 3 4 5 6 
#
# 1 96.2592 21.2340 12.0863 0.0000 10.6461 0.0000
# 2 21.2340 90.4223 13.3647 0.0000 7.0603 0.0000
# 3 12.0863 13.3647 48.6801 0.0000 11.7552 0.0000
# 4 0.0000 0.0000 0.0000 46.8800 0.0000 -5.4804
# 5 10.6461 7.0603 11.7552 0.0000 34.7732 0.0000
# 6 0.0000 0.0000 0.0000 -5.4804 0.0000 42.6074
#
#
#
# Elastic Compliance Matrix: (Units=1/GPa)
#
#
# Indices 1 2 3 4 5 6 
#
# 1 0.011358 -0.002236 -0.001607 0.000000 -0.002480 0.000000
# 2 -0.002236 0.012029 -0.002529 0.000000 -0.000903 0.000000
# 3 -0.001607 -0.002529 0.023294 0.000000 -0.006869 0.000000
# 4 0.000000 0.000000 0.000000 0.021657 0.000000 0.002786
# 5 -0.002480 -0.000903 -0.006869 0.000000 0.032023 0.000000
# 6 0.000000 0.000000 0.000000 0.002786 0.000000 0.023828
#
#
# Mechanical properties :
#
#
# Convention : Reuss Voigt Hill
#
# Bulk Modulus (GPa) = 29.46708 36.52574 32.99641
# Shear Modulus (GPa) = 33.72782 37.43056 35.57919
#
# Velocity S-wave (km/s) = 3.92436 4.13417 4.03063
# Velocity P-wave (km/s) = 5.83003 6.28224 6.06036
#
# Compressibility (1/GPa) = 0.03393617
#
# Stress axis : x y z
#
# Youngs Moduli (GPa) = 88.04401 83.13508 42.92868
#
# Poissons Ratio (x) = 0.18589 0.06899
# Poissons Ratio (y) = 0.19687 0.10858
# Poissons Ratio (z) = 0.14150 0.21027
#
# Static dielectric constant tensor:
#      x y z
#    x 1.837370 0.000000 0.017040 
#    y 0.000000 1.778150 0.000000 
#    z 0.017040 0.000000 1.832080 
# 
# From -- ./inp_files/7986.got.cif
#   From: 2010.05.17/outbox.ucp.g08.bks.cvg/sg4_4_cif.got.tgz:7986.got - 2010.06.11 12:51:24.
