data_PCOD9119347
_publ_section_title
;
Structure prediction by ZEFSAII (Michael W. Deem and Ramdas Pophale) SiO2 
 PCOD9119347
Probable space group: P 21
;
_chemical_formula_sum "Si O2"
_cell_formula_units_Z 14
_cell_length_a 11.198593
_cell_length_b 4.928941
_cell_length_c 20.129562
_cell_angle_alpha 90.000000
_cell_angle_beta 154.067561
_cell_angle_gamma 90.000000
_cell_volume 485.894324
_symmetry_space_group_name_H-M "P 21"
_symmetry_group_IT_number 4
_symmetry_cell_setting 'monoclinic'
loop_
_space_group_symop_operation_xyz
x,y,z
-x,1/2+y,-z
loop_
_atom_site_type_symbol
_atom_site_label
_atom_site_fract_x
_atom_site_fract_y
_atom_site_fract_z
Si Si1 0.280927 0.053010 0.677456
Si Si2 0.327453 0.446025 0.593679
Si Si3 0.669394 0.038756 0.202400
Si Si4 0.097025 0.213848 0.089297
Si Si5 0.604429 0.560473 0.054631
Si Si6 0.739622 0.616798 0.555047
Si Si7 0.863261 0.880507 0.745281
O O1 0.354715 0.144934 0.639632
O O2 0.403007 0.297067 0.781409
O O3 0.357393 0.783289 0.755127
O O4 0.950251 0.065681 0.516694
O O5 0.599560 0.602587 0.746894
O O6 0.292234 0.409934 0.496888
O O7 0.572869 0.283601 0.088715
O O8 0.994756 0.004369 0.348601
O O9 0.016172 0.306903 0.123063
O O10 0.069960 0.464478 0.025533
O O11 0.910063 0.562365 0.179031
O O12 0.551483 0.829789 0.075814
O O13 0.825663 0.635474 0.674892
O O14 0.437985 0.499034 0.398728
#
# Coordination Sequence:
#
# PCOD9119347 Si02
#       7
#     2   2   2   2   2   2   2
#     4  11  25  46  80 114 152 207 259 330 395 463
#     4  11  25  51  77 120 159 204 276 327 401 466
#     4  11  25  48  76 117 159 205 262 327 400 471
#     4  12  30  54  79 113 166 215 265 326 400 495
#     4  12  28  51  80 119 163 206 267 328 411 485
#     4  11  25  48  82 116 156 207 269 338 388 481
#     4  12  28  52  82 121 159 214 270 332 415 469
#
# _framework density 28.812850999999998
#
# number of rings (size 3 to 8) (size 9 to 14) (size 15 to 20)
#    0.000    0.571    1.429    5.143    6.000    6.857 
#    2.571    0.000    0.000    0.000    0.000    0.000 
#    0.000    0.000    0.000    0.000    0.000    0.000 
#
# Total GULP energy -78403.912082 kJ/mol
# GULP energy per Si atom -5600.279434 kJ/mol
# Density = 2.874727 g / cm^3
# Si number density = 28.812851 Si / 1000 Ang^3
#
#
#
# Elastic Constant Matrix: (Units=GPa)
#
#
# Indices 1 2 3 4 5 6 
#
# 1 123.9216 44.1186 30.6229 0.0000 -16.9975 0.0000
# 2 44.1186 237.8982 49.8657 0.0000 -1.4751 0.0000
# 3 30.6229 49.8657 162.9914 0.0000 -18.0108 0.0000
# 4 0.0000 0.0000 0.0000 49.7814 0.0000 7.6115
# 5 -16.9975 -1.4751 -18.0108 0.0000 76.2817 0.0000
# 6 0.0000 0.0000 0.0000 7.6115 0.0000 47.5487
#
#
#
# Elastic Compliance Matrix: (Units=1/GPa)
#
#
# Indices 1 2 3 4 5 6 
#
# 1 0.009090 -0.001450 -0.001071 0.000000 0.001744 0.000000
# 2 -0.001450 0.004727 -0.001232 0.000000 -0.000523 0.000000
# 3 -0.001071 -0.001232 0.006863 0.000000 0.001358 0.000000
# 4 0.000000 0.000000 0.000000 0.020592 0.000000 -0.003296
# 5 0.001744 -0.000523 0.001358 0.000000 0.013809 0.000000
# 6 0.000000 0.000000 0.000000 -0.003296 0.000000 0.021559
#
#
# Mechanical properties :
#
#
# Convention : Reuss Voigt Hill
#
# Bulk Modulus (GPa) = 75.90553 86.00286 80.95420
# Shear Modulus (GPa) = 56.47304 61.40261 58.93783
#
# Velocity S-wave (km/s) = 4.43199 4.62137 4.52767
# Velocity P-wave (km/s) = 7.25200 7.64132 7.44920
#
# Compressibility (1/GPa) = 0.01317427
#
# Stress axis : x y z
#
# Youngs Moduli (GPa) = 110.01091 211.53480 145.70012
#
# Poissons Ratio (x) = 0.30681 0.15609
# Poissons Ratio (y) = 0.15956 0.17943
# Poissons Ratio (z) = 0.11786 0.26051
#
# Static dielectric constant tensor:
#      x y z
#    x 2.201140 0.000000 -0.095120 
#    y 0.000000 2.290640 0.000000 
#    z -0.095120 0.000000 2.242670 
# 
# From -- ./inp_files/15682.got.cif
#   From: 2010.05.17/outbox.cif.g08.bks.cpg/sg4_8_cif.got.tgz:15682.got - 2010.06.03 18:43:04.
