data_PCOD9119973
_publ_section_title
;
Structure prediction by ZEFSAII (Michael W. Deem and Ramdas Pophale) SiO2 
 PCOD9119973
Probable space group: C 2
;
_chemical_formula_sum "Si O2"
_cell_formula_units_Z 32
_cell_length_a 13.632745
_cell_length_b 20.386883
_cell_length_c 7.296036
_cell_angle_alpha 90.000000
_cell_angle_beta 132.420521
_cell_angle_gamma 90.000000
_cell_volume 1496.936098
_symmetry_space_group_name_H-M "C 2"
_symmetry_group_IT_number 5
_symmetry_cell_setting 'monoclinic'
loop_
_space_group_symop_operation_xyz
x,y,z
-x,y,-z
1/2+x,1/2+y,z
1/2-x,1/2+y,-z
loop_
_atom_site_type_symbol
_atom_site_label
_atom_site_fract_x
_atom_site_fract_y
_atom_site_fract_z
Si Si1 0.713073 0.814030 0.549059
Si Si2 0.835741 0.812306 0.106651
Si Si3 0.561903 0.848661 0.881104
Si Si4 0.455178 0.072085 0.728175
Si Si5 0.754199 0.963631 0.472107
Si Si6 0.057522 0.720378 0.281444
Si Si7 0.042192 0.956075 0.756185
Si Si8 0.176616 0.480734 0.940056
O O1 0.554427 0.802341 0.342470
O O2 0.727802 0.889633 0.504446
O O3 0.811169 0.765534 0.562426
O O4 0.764886 0.809424 0.820612
O O5 0.924983 0.878331 0.219054
O O6 0.938272 0.753076 0.246081
O O7 0.709002 0.817581 0.080758
O O8 0.590996 0.914646 0.801675
O O9 0.500000 0.867603 0.000000
O O10 0.416692 0.145674 0.630477
O O11 0.339376 0.018716 0.559691
O O12 0.585740 0.043236 0.796427
O O13 0.500000 0.072114 0.000000
O O14 0.911167 0.971540 0.703870
O O15 0.720299 0.970421 0.210331
O O16 0.000000 0.719598 0.000000
O O17 0.000000 0.979179 0.500000
O O18 0.184796 0.984031 0.990520
#
# Coordination Sequence:
#
# PCOD9119973 Si02
#       8
#     4   4   4   4   4   4   4   4
#     4  11  19  32  51  82 111 137 176 219 274 320
#     4  10  21  32  49  80 113 141 173 218 277 316
#     4  11  19  33  53  81 103 137 182 230 263 303
#     4   9  16  30  51  74 106 142 178 220 263 312
#     4  10  16  28  51  78 105 133 175 225 261 307
#     4   9  19  33  49  75 113 145 173 214 272 326
#     4   9  18  29  48  79 106 132 178 227 262 302
#     4   9  16  29  49  79 103 130 181 224 261 297
#
# _framework density 21.376996999999999
#
# number of rings (size 3 to 8) (size 9 to 14) (size 15 to 20)
#    0.000    2.250    3.750    0.750    0.000    0.000 
#    0.000    1.250    0.000    6.000   22.750    0.000 
#    0.000    0.000    0.000    0.000    0.000    0.000 
#
# Total GULP energy -89287.541698 kJ/mol
# GULP energy per Si atom -5580.471356 kJ/mol
# Density = 2.132834 g / cm^3
# Si number density = 21.376997 Si / 1000 Ang^3
#
#
#
# Elastic Constant Matrix: (Units=GPa)
#
#
# Indices 1 2 3 4 5 6 
#
# 1 114.3986 61.1010 44.4849 0.0000 54.5772 0.0000
# 2 61.1010 143.8175 45.5808 0.0000 43.7760 0.0000
# 3 44.4849 45.5808 104.5421 0.0000 24.2326 0.0000
# 4 0.0000 0.0000 0.0000 27.9397 0.0000 7.4179
# 5 54.5772 43.7760 24.2326 0.0000 50.5743 0.0000
# 6 0.0000 0.0000 0.0000 7.4179 0.0000 21.3093
#
#
#
# Elastic Compliance Matrix: (Units=1/GPa)
#
#
# Indices 1 2 3 4 5 6 
#
# 1 0.019581 -0.001774 -0.003394 0.000000 -0.017970 0.000000
# 2 -0.001774 0.010220 -0.002356 0.000000 -0.005803 0.000000
# 3 -0.003394 -0.002356 0.012054 0.000000 -0.000074 0.000000
# 4 0.000000 0.000000 0.000000 0.039436 0.000000 -0.013728
# 5 -0.017970 -0.005803 -0.000074 0.000000 0.044223 0.000000
# 6 0.000000 0.000000 0.000000 -0.013728 0.000000 0.051707
#
#
# Mechanical properties :
#
#
# Convention : Reuss Voigt Hill
#
# Bulk Modulus (GPa) = 37.30158 73.89908 55.60033
# Shear Modulus (GPa) = 24.85030 34.07076 29.46053
#
# Velocity S-wave (km/s) = 3.41321 3.99658 3.71636
# Velocity P-wave (km/s) = 5.74636 7.47939 6.66941
#
# Compressibility (1/GPa) = 0.02680852
#
# Stress axis : x y z
#
# Youngs Moduli (GPa) = 51.06866 97.84801 82.96025
#
# Poissons Ratio (x) = 0.17358 0.28153
# Poissons Ratio (y) = 0.09059 0.19545
# Poissons Ratio (z) = 0.17330 0.23053
#
# Static dielectric constant tensor:
#      x y z
#    x 1.864740 0.000000 -0.031370 
#    y 0.000000 1.731850 0.000000 
#    z -0.031370 0.000000 1.870940 
# 
# From -- ./inp_files/21815.got.cif
#   From: 2010.05.17/outbox.cif.g08.bks.cpg/sg5_11_cif.got.tgz:21815.got - 2010.06.03 18:56:24.
