data_PCOD9119702
_publ_section_title
;
Structure prediction by ZEFSAII (Michael W. Deem and Ramdas Pophale) SiO2 
 PCOD9119702
Probable space group: P 21
;
_chemical_formula_sum "Si O2"
_cell_formula_units_Z 16
_cell_length_a 11.741648
_cell_length_b 5.228026
_cell_length_c 12.005115
_cell_angle_alpha 90.000000
_cell_angle_beta 60.429063
_cell_angle_gamma 90.000000
_cell_volume 640.951612
_symmetry_space_group_name_H-M "P 21"
_symmetry_group_IT_number 4
_symmetry_cell_setting 'monoclinic'
loop_
_space_group_symop_operation_xyz
x,y,z
-x,1/2+y,-z
loop_
_atom_site_type_symbol
_atom_site_label
_atom_site_fract_x
_atom_site_fract_y
_atom_site_fract_z
Si Si1 0.588103 0.332730 0.978329
Si Si2 0.870365 0.645372 0.326543
Si Si3 0.616082 0.423169 0.370366
Si Si4 0.558450 0.277508 0.648299
Si Si5 0.945575 0.137026 0.424669
Si Si6 0.326213 0.585204 0.848231
Si Si7 0.801928 0.346817 0.686810
Si Si8 0.044327 0.537022 0.037524
O O1 0.715807 0.295781 0.837805
O O2 0.514169 0.600079 0.993451
O O3 0.636451 0.303469 0.081363
O O4 0.731768 0.629882 0.329312
O O5 0.894502 0.386790 0.385049
O O6 0.986658 0.642873 0.180219
O O7 0.877500 0.894532 0.399158
O O8 0.566533 0.380517 0.518693
O O9 0.490113 0.491231 0.355134
O O10 0.687048 0.198571 0.269254
O O11 0.445030 0.392254 0.778706
O O12 0.689615 0.350095 0.647375
O O13 0.903017 0.154647 0.575065
O O14 0.101557 0.086174 0.340175
O O15 0.195707 0.461753 0.959378
O O16 0.969294 0.279926 0.038431
#
# Coordination Sequence:
#
# PCOD9119702 Si02
#       8
#     2   2   2   2   2   2   2   2
#     4  12  29  52  81 114 158 213 268 331 403 489
#     4  12  27  51  80 119 163 207 272 332 411 485
#     4  12  26  45  79 115 151 203 254 327 409 472
#     4  12  26  48  78 113 155 203 259 335 399 480
#     4  12  29  51  82 116 160 219 268 346 400 485
#     4  12  27  49  74 111 153 205 259 319 409 474
#     4  12  28  54  81 119 164 215 284 336 414 480
#     4  12  26  46  77 113 160 209 260 324 399 497
#
# _framework density 24.962883999999999
#
# number of rings (size 3 to 8) (size 9 to 14) (size 15 to 20)
#    0.000    0.000    5.000    3.750    3.500    5.000 
#    2.250    0.000    0.000    0.000    0.000    0.000 
#    0.000    0.000    0.000    0.000    0.000    0.000 
#
# Total GULP energy -89535.220798 kJ/mol
# GULP energy per Si atom -5595.951300 kJ/mol
# Density = 2.490607 g / cm^3
# Si number density = 24.962884 Si / 1000 Ang^3
#
#
#
# Elastic Constant Matrix: (Units=GPa)
#
#
# Indices 1 2 3 4 5 6 
#
# 1 61.9089 19.8186 10.9778 0.0000 -0.3031 0.0000
# 2 19.8186 99.1419 10.0597 0.0000 6.4016 0.0000
# 3 10.9778 10.0597 171.8860 0.0000 -20.9739 0.0000
# 4 0.0000 0.0000 0.0000 38.6176 0.0000 -0.4329
# 5 -0.3031 6.4016 -20.9739 0.0000 42.5074 0.0000
# 6 0.0000 0.0000 0.0000 -0.4329 0.0000 28.0617
#
#
#
# Elastic Compliance Matrix: (Units=1/GPa)
#
#
# Indices 1 2 3 4 5 6 
#
# 1 0.017400 -0.003401 -0.000888 0.000000 0.000198 0.000000
# 2 -0.003401 0.010964 -0.000669 0.000000 -0.002006 0.000000
# 3 -0.000888 -0.000669 0.006305 0.000000 0.003205 0.000000
# 4 0.000000 0.000000 0.000000 0.025899 0.000000 0.000399
# 5 0.000198 -0.002006 0.003205 0.000000 0.025410 0.000000
# 6 0.000000 0.000000 0.000000 0.000399 0.000000 0.035642
#
#
# Mechanical properties :
#
#
# Convention : Reuss Voigt Hill
#
# Bulk Modulus (GPa) = 40.40049 46.07211 43.23630
# Shear Modulus (GPa) = 35.76861 41.30938 38.53899
#
# Velocity S-wave (km/s) = 3.78944 4.07238 3.93345
# Velocity P-wave (km/s) = 5.94691 6.37249 6.16338
#
# Compressibility (1/GPa) = 0.02475217
#
# Stress axis : x y z
#
# Youngs Moduli (GPa) = 57.47144 91.20913 158.60889
#
# Poissons Ratio (x) = 0.31020 0.14086
# Poissons Ratio (y) = 0.19546 0.10614
# Poissons Ratio (z) = 0.05104 0.06104
#
# Static dielectric constant tensor:
#      x y z
#    x 2.053530 0.000000 0.009880 
#    y 0.000000 2.015800 0.000000 
#    z 0.009880 0.000000 1.955180 
# 
# From -- ./inp_files/11732.got.cif
#   From: 2010.05.17/outbox.cif.g08.bks.cpg/sg4_6_cif.got.tgz:11732.got - 2010.06.03 18:43:04.
