data_PCOD9119078
_publ_section_title
;
Structure prediction by ZEFSAII (Michael W. Deem and Ramdas Pophale) SiO2 
 PCOD9119078
Probable space group: P 21
;
_chemical_formula_sum "Si O2"
_cell_formula_units_Z 16
_cell_length_a 5.409006
_cell_length_b 5.011194
_cell_length_c 21.914606
_cell_angle_alpha 90.000000
_cell_angle_beta 100.635029
_cell_angle_gamma 90.000000
_cell_volume 583.804618
_symmetry_space_group_name_H-M "P 21"
_symmetry_group_IT_number 4
_symmetry_cell_setting 'monoclinic'
loop_
_space_group_symop_operation_xyz
x,y,z
-x,1/2+y,-z
loop_
_atom_site_type_symbol
_atom_site_label
_atom_site_fract_x
_atom_site_fract_y
_atom_site_fract_z
Si Si1 0.441675 0.152380 0.612694
Si Si2 0.381109 0.018508 0.962155
Si Si3 0.117884 0.322073 0.487599
Si Si4 0.973146 0.698437 0.896334
Si Si5 0.536571 0.899774 0.131260
Si Si6 0.326770 0.240902 0.736664
Si Si7 0.150061 0.427458 0.239717
Si Si8 0.748668 0.644657 0.637471
O O1 0.336140 0.210069 0.540989
O O2 0.281952 0.276519 0.662030
O O3 0.687824 0.335666 0.629169
O O4 0.502424 0.840972 0.623900
O O5 0.452583 0.097489 0.895190
O O6 0.093974 0.912696 0.948419
O O7 0.266581 0.016600 0.099609
O O8 0.551403 0.784446 0.997677
O O9 0.117105 0.248051 0.416918
O O10 0.105101 0.637641 0.495673
O O11 0.218003 0.526291 0.888798
O O12 0.896252 0.841576 0.830671
O O13 0.575317 0.939983 0.205839
O O14 0.073969 0.125891 0.753300
O O15 0.571341 0.048939 0.744920
O O16 0.131169 0.204016 0.291633
#
# Coordination Sequence:
#
# PCOD9119078 Si02
#       8
#     2   2   2   2   2   2   2   2
#     4  11  24  44  67 102 144 201 255 317 385 463
#     4  12  28  58  82 124 162 218 266 336 404 492
#     4  12  24  40  66 100 144 198 252 320 386 460
#     4  12  27  51  82 119 160 211 266 331 399 475
#     4  12  27  51  82 119 160 211 266 331 399 475
#     4  11  24  45  77 114 155 202 260 324 393 464
#     4  11  24  45  77 114 155 202 260 324 393 464
#     4  11  24  44  67 102 144 201 255 317 385 463
#
# _framework density 27.406427999999998
#
# number of rings (size 3 to 8) (size 9 to 14) (size 15 to 20)
#    0.000    0.500    2.500    5.250    0.000    5.000 
#    4.500    0.000    0.000    0.000    0.000    0.000 
#    0.000    0.000    0.000    0.000    0.000    0.000 
#
# Total GULP energy -89597.137368 kJ/mol
# GULP energy per Si atom -5599.821085 kJ/mol
# Density = 2.734405 g / cm^3
# Si number density = 27.406428 Si / 1000 Ang^3
#
#
#
# Elastic Constant Matrix: (Units=GPa)
#
#
# Indices 1 2 3 4 5 6 
#
# 1 125.6446 46.8799 30.2635 0.0000 15.7146 0.0000
# 2 46.8799 108.2228 25.6653 0.0000 10.3162 0.0000
# 3 30.2635 25.6653 107.4059 0.0000 10.9700 0.0000
# 4 0.0000 0.0000 0.0000 60.2955 0.0000 -0.5655
# 5 15.7146 10.3162 10.9700 0.0000 54.7054 0.0000
# 6 0.0000 0.0000 0.0000 -0.5655 0.0000 38.1785
#
#
#
# Elastic Compliance Matrix: (Units=1/GPa)
#
#
# Indices 1 2 3 4 5 6 
#
# 1 0.010003 -0.003748 -0.001737 0.000000 -0.001818 0.000000
# 2 -0.003748 0.011307 -0.001570 0.000000 -0.000741 0.000000
# 3 -0.001737 -0.001570 0.010305 0.000000 -0.001271 0.000000
# 4 0.000000 0.000000 0.000000 0.016587 0.000000 0.000246
# 5 -0.001818 -0.000741 -0.001271 0.000000 0.019197 0.000000
# 6 0.000000 0.000000 0.000000 0.000246 0.000000 0.026196
#
#
# Mechanical properties :
#
#
# Convention : Reuss Voigt Hill
#
# Bulk Modulus (GPa) = 57.12857 60.76565 58.94711
# Shear Modulus (GPa) = 44.03713 46.53353 45.28533
#
# Velocity S-wave (km/s) = 4.01286 4.12504 4.06933
# Velocity P-wave (km/s) = 6.50853 6.70135 6.60564
#
# Compressibility (1/GPa) = 0.01750438
#
# Stress axis : x y z
#
# Youngs Moduli (GPa) = 99.96782 88.44347 97.04008
#
# Poissons Ratio (x) = 0.33147 0.16859
# Poissons Ratio (y) = 0.37467 0.15236
# Poissons Ratio (z) = 0.17367 0.13887
#
# Static dielectric constant tensor:
#      x y z
#    x 2.168620 0.000000 -0.002910 
#    y 0.000000 2.174960 0.000000 
#    z -0.002910 0.000000 2.255680 
# 
# From -- ./inp_files/4386.got.cif
#   From: 2010.05.17/outbox.cif.g08.bks.cpg/sg4_3_cif.got.tgz:4386.got - 2010.06.03 18:43:04.
