data_PCOD9119265
_publ_section_title
;
Structure prediction by ZEFSAII (Michael W. Deem and Ramdas Pophale) SiO2 
 PCOD9119265
Probable space group: P 21
;
_chemical_formula_sum "Si O2"
_cell_formula_units_Z 10
_cell_length_a 5.261637
_cell_length_b 13.701176
_cell_length_c 5.088350
_cell_angle_alpha 90.000000
_cell_angle_beta 94.298088
_cell_angle_gamma 90.000000
_cell_volume 365.790641
_symmetry_space_group_name_H-M "P 21"
_symmetry_group_IT_number 4
_symmetry_cell_setting 'monoclinic'
loop_
_space_group_symop_operation_xyz
x,y,z
-x,1/2+y,-z
loop_
_atom_site_type_symbol
_atom_site_label
_atom_site_fract_x
_atom_site_fract_y
_atom_site_fract_z
Si Si1 0.287870 0.746720 0.153749
Si Si2 0.531294 0.566079 0.426577
Si Si3 0.024827 0.289606 0.381133
Si Si4 0.375017 0.389742 0.068057
Si Si5 0.034599 0.493745 0.659629
O O1 0.478211 0.660619 0.247034
O O2 0.458334 0.845472 0.156359
O O3 0.008320 0.903338 0.540276
O O4 0.158565 0.747990 0.858573
O O5 0.061018 0.742721 0.350550
O O6 0.788701 0.561782 0.616400
O O7 0.521345 0.473713 0.230825
O O8 0.297472 0.300448 0.255684
O O9 0.119752 0.440249 0.933124
O O10 0.287220 0.550216 0.591939
#
# Coordination Sequence:
#
# PCOD9119265 Si02
#       5
#     2   2   2   2   2
#     4  12  27  50  78 120 160 208 273 330 393 481
#     4  11  28  47  77 123 159 210 270 332 395 478
#     4  11  25  48  77 108 154 209 262 323 401 466
#     4  11  26  51  83 108 168 213 262 329 409 473
#     4  11  24  50  77 111 159 212 263 326 402 470
#
# _framework density 27.338044
#
# number of rings (size 3 to 8) (size 9 to 14) (size 15 to 20)
#    0.000    0.800    4.000    1.200    8.400    0.000 
#    0.000    2.000    0.000    0.000    0.000    0.000 
#    0.000    0.000    0.000    0.000    0.000    0.000 
#
# Total GULP energy -56007.171697 kJ/mol
# GULP energy per Si atom -5600.717170 kJ/mol
# Density = 2.727582 g / cm^3
# Si number density = 27.338044 Si / 1000 Ang^3
#
#
#
# Elastic Constant Matrix: (Units=GPa)
#
#
# Indices 1 2 3 4 5 6 
#
# 1 149.9428 41.7789 49.0692 0.0000 9.6936 0.0000
# 2 41.7789 60.8448 9.9245 0.0000 -1.2480 0.0000
# 3 49.0692 9.9245 150.4255 0.0000 4.0685 0.0000
# 4 0.0000 0.0000 0.0000 40.5974 0.0000 1.2512
# 5 9.6936 -1.2480 4.0685 0.0000 45.1042 0.0000
# 6 0.0000 0.0000 0.0000 1.2512 0.0000 34.7897
#
#
#
# Elastic Compliance Matrix: (Units=1/GPa)
#
#
# Indices 1 2 3 4 5 6 
#
# 1 0.009318 -0.006015 -0.002590 0.000000 -0.001935 0.000000
# 2 -0.006015 0.020512 0.000560 0.000000 0.001810 0.000000
# 3 -0.002590 0.000560 0.007459 0.000000 -0.000101 0.000000
# 4 0.000000 0.000000 0.000000 0.024659 0.000000 -0.000887
# 5 -0.001935 0.001810 -0.000101 0.000000 0.022646 0.000000
# 6 0.000000 0.000000 0.000000 -0.000887 0.000000 0.028776
#
#
# Mechanical properties :
#
#
# Convention : Reuss Voigt Hill
#
# Bulk Modulus (GPa) = 47.17726 62.52869 54.85297
# Shear Modulus (GPa) = 36.62283 41.46094 39.04188
#
# Velocity S-wave (km/s) = 3.66406 3.89858 3.78314
# Velocity P-wave (km/s) = 5.93253 6.57171 6.26028
#
# Compressibility (1/GPa) = 0.02119665
#
# Stress axis : x y z
#
# Youngs Moduli (GPa) = 107.31755 48.75308 134.07393
#
# Poissons Ratio (x) = 0.29327 0.34730
# Poissons Ratio (y) = 0.64556 -0.07509
# Poissons Ratio (z) = 0.27799 -0.02730
#
# Static dielectric constant tensor:
#      x y z
#    x 2.163430 0.000000 -0.000660 
#    y 0.000000 2.183310 0.000000 
#    z -0.000660 0.000000 2.088820 
# 
# From -- ./inp_files/216.got.cif
#   From: 2010.05.17/outbox.cif.g08.bks.cpg/sg4_1_cif.got.tgz:216.got - 2010.06.03 18:43:04.
