data_PCOD9119577
_publ_section_title
;
Structure prediction by ZEFSAII (Michael W. Deem and Ramdas Pophale) SiO2 
 PCOD9119577
Probable space group: P 21
;
_chemical_formula_sum "Si O2"
_cell_formula_units_Z 16
_cell_length_a 18.138929
_cell_length_b 4.883915
_cell_length_c 11.046127
_cell_angle_alpha 90.000000
_cell_angle_beta 34.413152
_cell_angle_gamma 90.000000
_cell_volume 553.042379
_symmetry_space_group_name_H-M "P 21"
_symmetry_group_IT_number 4
_symmetry_cell_setting 'monoclinic'
loop_
_space_group_symop_operation_xyz
x,y,z
-x,1/2+y,-z
loop_
_atom_site_type_symbol
_atom_site_label
_atom_site_fract_x
_atom_site_fract_y
_atom_site_fract_z
Si Si1 0.660443 0.163930 0.702679
Si Si2 0.715611 0.440346 0.017864
Si Si3 0.548262 0.770398 0.423197
Si Si4 0.368730 0.777622 0.493825
Si Si5 0.524156 0.749601 0.821919
Si Si6 0.063220 0.977086 0.455568
Si Si7 0.946283 0.385300 0.264970
Si Si8 0.888086 0.349394 0.010566
O O1 0.599560 0.029409 0.650741
O O2 0.806381 0.247628 0.472773
O O3 0.651364 0.838943 0.749111
O O4 0.582173 0.278732 0.922714
O O5 0.806760 0.550852 0.790530
O O6 0.799264 0.289741 0.010062
O O7 0.650788 0.689722 0.182744
O O8 0.599135 0.266657 0.119338
O O9 0.420330 0.548270 0.540633
O O10 0.558312 0.500100 0.502059
O O11 0.406343 0.966167 0.319866
O O12 0.218932 0.831081 0.736944
O O13 0.043204 0.039393 0.620819
O O14 0.046425 0.651464 0.464811
O O15 0.998764 0.632929 0.110575
O O16 0.050265 0.143286 0.101240
#
# Coordination Sequence:
#
# PCOD9119577 Si02
#       8
#     2   2   2   2   2   2   2   2
#     4  12  28  50  82 110 163 209 278 323 397 483
#     4  12  25  45  80 114 158 197 261 337 407 471
#     4  12  27  46  75 118 160 204 255 333 417 483
#     4  12  29  48  79 114 162 204 269 328 403 484
#     4  12  27  52  77 124 154 218 263 345 405 474
#     4  12  24  45  72 110 152 202 259 324 394 462
#     4  12  28  52  75 115 156 215 266 323 389 485
#     4  12  30  48  82 115 157 207 263 331 406 478
#
# _framework density 28.930873999999999
#
# number of rings (size 3 to 8) (size 9 to 14) (size 15 to 20)
#    0.000    0.000    7.500    0.750    5.250    3.000 
#    4.500    0.000    0.000    0.000    0.000    0.000 
#    0.000    0.000    0.000    0.000    0.000    0.000 
#
# Total GULP energy -89069.105681 kJ/mol
# GULP energy per Si atom -5566.819105 kJ/mol
# Density = 2.886503 g / cm^3
# Si number density = 28.930874 Si / 1000 Ang^3
#
#
#
# Elastic Constant Matrix: (Units=GPa)
#
#
# Indices 1 2 3 4 5 6 
#
# 1 106.9658 31.8633 70.8358 0.0000 23.4419 0.0000
# 2 31.8633 98.3387 104.7472 0.0000 -0.3810 0.0000
# 3 70.8358 104.7472 281.6102 0.0000 32.3822 0.0000
# 4 0.0000 0.0000 0.0000 53.4049 0.0000 -4.1139
# 5 23.4419 -0.3810 32.3822 0.0000 50.2284 0.0000
# 6 0.0000 0.0000 0.0000 -4.1139 0.0000 40.6313
#
#
#
# Elastic Compliance Matrix: (Units=1/GPa)
#
#
# Indices 1 2 3 4 5 6 
#
# 1 0.012125 -0.002077 -0.001755 0.000000 -0.004543 0.000000
# 2 -0.002077 0.018195 -0.006883 0.000000 0.005545 0.000000
# 3 -0.001755 -0.006883 0.006982 0.000000 -0.003734 0.000000
# 4 0.000000 0.000000 0.000000 0.018872 0.000000 0.001911
# 5 -0.004543 0.005545 -0.003734 0.000000 0.024479 0.000000
# 6 0.000000 0.000000 0.000000 0.001911 0.000000 0.024805
#
#
# Mechanical properties :
#
#
# Convention : Reuss Voigt Hill
#
# Bulk Modulus (GPa) = 63.00243 100.20081 81.60162
# Shear Modulus (GPa) = 37.82752 47.48414 42.65583
#
# Velocity S-wave (km/s) = 3.61988 4.05569 3.84396
# Velocity P-wave (km/s) = 6.26861 7.52604 6.92592
#
# Compressibility (1/GPa) = 0.01587240
#
# Stress axis : x y z
#
# Youngs Moduli (GPa) = 82.47161 54.96083 143.22555
#
# Poissons Ratio (x) = 0.11416 0.25136
# Poissons Ratio (y) = 0.17130 0.98580
# Poissons Ratio (z) = 0.14474 0.37829
#
# Static dielectric constant tensor:
#      x y z
#    x 2.758240 0.000000 0.041670 
#    y 0.000000 2.626310 0.000000 
#    z 0.041670 0.000000 2.143800 
# 
# From -- ./inp_files/12959.got.cif
#   From: 2010.05.17/outbox.cif.g08.bks.cpg/sg4_7_cif.got.tgz:12959.got - 2010.06.03 18:43:04.
