data_PCOD9119812
_publ_section_title
;
Structure prediction by ZEFSAII (Michael W. Deem and Ramdas Pophale) SiO2 
 PCOD9119812
Probable space group: P 21
;
_chemical_formula_sum "Si O2"
_cell_formula_units_Z 16
_cell_length_a 12.000000
_cell_length_b 9.000000
_cell_length_c 9.000000
_cell_angle_alpha 90.000000
_cell_angle_beta 120.000000
_cell_angle_gamma 90.000000
_cell_volume 841.776692
_symmetry_space_group_name_H-M "P 21"
_symmetry_group_IT_number 4
_symmetry_cell_setting 'monoclinic'
loop_
_space_group_symop_operation_xyz
x,y,z
-x,1/2+y,-z
loop_
_atom_site_type_symbol
_atom_site_label
_atom_site_fract_x
_atom_site_fract_y
_atom_site_fract_z
Si Si1 0.476004 0.693810 0.168791
Si Si2 0.186865 0.641662 0.016035
Si Si3 0.037674 0.662200 0.211185
Si Si4 0.241891 0.206328 0.591237
Si Si5 0.209077 0.851781 0.545848
Si Si6 0.485859 0.842488 0.855552
Si Si7 0.224489 0.316881 0.923508
Si Si8 0.981363 0.347231 0.304564
O O1 0.333477 0.696735 0.144807
O O2 0.606862 0.742288 0.342258
O O3 0.504281 0.521473 0.145601
O O4 0.465399 0.788459 0.010569
O O5 0.111826 0.602806 0.116285
O O6 0.201790 0.494610 0.922917
O O7 0.098152 0.765322 0.878313
O O8 0.136803 0.774560 0.359590
O O9 0.900920 0.741788 0.086665
O O10 0.000272 0.521542 0.287352
O O11 0.227850 0.256938 0.755463
O O12 0.124839 0.284353 0.427021
O O13 0.221104 0.030778 0.549085
O O14 0.356321 0.797466 0.678459
O O15 0.110703 0.820680 0.615351
O O16 0.631749 0.787036 0.913429
#
# Coordination Sequence:
#
# PCOD9119812 Si02
#       8
#     2   2   2   2   2   2   2   2
#     4   9  19  37  58  87 119 148 197 246 304 347
#     4  11  24  40  60  87 128 163 192 243 310 371
#     4  12  25  39  58  90 128 161 195 245 306 365
#     4  10  21  37  63  90 113 152 200 262 287 337
#     4  11  20  38  61  92 116 150 208 246 295 345
#     4   9  19  33  62  88 111 149 199 255 288 342
#     4  10  20  39  61  88 121 155 202 250 299 348
#     4  12  22  37  61  92 116 158 205 245 297 351
#
# _framework density 19.007415999999999
#
# number of rings (size 3 to 8) (size 9 to 14) (size 15 to 20)
#    0.000    1.500    3.750    1.500    1.750    1.000 
#    0.000    5.000    0.000    0.000    0.000    0.000 
#    0.000    0.000    0.000    0.000    0.000    0.000 
#
# Total GULP energy -89210.939366 kJ/mol
# GULP energy per Si atom -5575.683710 kJ/mol
# Density = 1.896415 g / cm^3
# Si number density = 19.007416 Si / 1000 Ang^3
#
#
#
# Elastic Constant Matrix: (Units=GPa)
#
#
# Indices 1 2 3 4 5 6 
#
# 1 121.4298 18.6907 34.7839 0.0000 45.0815 0.0000
# 2 18.6907 60.7798 28.0960 0.0000 19.1292 0.0000
# 3 34.7839 28.0960 56.1525 0.0000 36.4282 0.0000
# 4 0.0000 0.0000 0.0000 26.0898 0.0000 9.3209
# 5 45.0815 19.1292 36.4282 0.0000 50.6721 0.0000
# 6 0.0000 0.0000 0.0000 9.3209 0.0000 25.7934
#
#
#
# Elastic Compliance Matrix: (Units=1/GPa)
#
#
# Indices 1 2 3 4 5 6 
#
# 1 0.012326 -0.000141 -0.000909 0.000000 -0.010259 0.000000
# 2 -0.000141 0.021419 -0.010242 0.000000 -0.000597 0.000000
# 3 -0.000909 -0.010242 0.038348 0.000000 -0.022893 0.000000
# 4 0.000000 0.000000 0.000000 0.044011 0.000000 -0.015904
# 5 -0.010259 -0.000597 -0.022893 0.000000 0.045545 0.000000
# 6 0.000000 0.000000 0.000000 -0.015904 0.000000 0.044517
#
#
# Mechanical properties :
#
#
# Convention : Reuss Voigt Hill
#
# Bulk Modulus (GPa) = 20.19883 44.61147 32.40515
# Shear Modulus (GPa) = 20.38705 30.96384 25.67545
#
# Velocity S-wave (km/s) = 3.27859 4.04052 3.67933
# Velocity P-wave (km/s) = 4.99820 6.72972 5.92753
#
# Compressibility (1/GPa) = 0.04950782
#
# Stress axis : x y z
#
# Youngs Moduli (GPa) = 81.12775 46.68824 26.07696
#
# Poissons Ratio (x) = 0.00660 0.02371
# Poissons Ratio (y) = 0.01146 0.26708
# Poissons Ratio (z) = 0.07377 0.47818
#
# Static dielectric constant tensor:
#      x y z
#    x 1.672710 0.000000 0.019260 
#    y 0.000000 1.659460 0.000000 
#    z 0.019260 0.000000 1.659810 
# 
# From -- ./inp_files/7658.got.cif
#   From: 2010.05.17/outbox.ucp.g08.bks.cvg/sg4_4_cif.got.tgz:7658.got - 2010.06.11 12:51:24.
