data_PCOD9119465
_publ_section_title
;
Structure prediction by ZEFSAII (Michael W. Deem and Ramdas Pophale) SiO2 
 PCOD9119465
Probable space group: P 21
;
_chemical_formula_sum "Si O2"
_cell_formula_units_Z 14
_cell_length_a 7.485467
_cell_length_b 10.126714
_cell_length_c 7.762097
_cell_angle_alpha 90.000000
_cell_angle_beta 52.900634
_cell_angle_gamma 90.000000
_cell_volume 469.295662
_symmetry_space_group_name_H-M "P 21"
_symmetry_group_IT_number 4
_symmetry_cell_setting 'monoclinic'
loop_
_space_group_symop_operation_xyz
x,y,z
-x,1/2+y,-z
loop_
_atom_site_type_symbol
_atom_site_label
_atom_site_fract_x
_atom_site_fract_y
_atom_site_fract_z
Si Si1 0.510324 0.448450 0.160639
Si Si2 0.227043 0.631981 0.109528
Si Si3 0.199711 0.315115 0.619691
Si Si4 0.550980 0.103525 0.379994
Si Si5 0.982790 0.397437 0.076351
Si Si6 0.745928 0.430071 0.668981
Si Si7 0.955477 0.178465 0.353969
O O1 0.403296 0.586563 0.152370
O O2 0.312239 0.373357 0.379566
O O3 0.734271 0.439533 0.150990
O O4 0.593643 0.392221 0.924732
O O5 0.037207 0.739337 0.252840
O O6 0.079803 0.502129 0.153625
O O7 0.353620 0.660402 0.856867
O O8 0.375282 0.204136 0.562619
O O9 0.875744 0.308175 0.505973
O O10 0.411877 0.979738 0.393207
O O11 0.734966 0.104164 0.419382
O O12 0.027950 0.253298 0.135054
O O13 0.142571 0.404119 0.817441
O O14 0.886155 0.563313 0.653977
#
# Coordination Sequence:
#
# PCOD9119465 Si02
#       7
#     2   2   2   2   2   2   2
#     4  11  28  54  92 130 182 241 317 391 478 569
#     4  11  27  55  84 127 182 236 315 391 473 575
#     4  12  26  53  89 127 177 240 316 385 476 572
#     4  11  26  53  88 130 181 251 311 392 479 562
#     4  12  28  52  90 130 178 246 309 388 480 570
#     4  11  30  54  99 142 193 253 326 399 484 582
#     4  12  27  59  94 142 195 257 318 402 484 580
#
# _framework density 29.831938999999998
#
# number of rings (size 3 to 8) (size 9 to 14) (size 15 to 20)
#    0.000    0.571    2.857    1.714    8.000    4.571 
#    2.571    7.143    3.143    0.000    0.000    0.000 
#    0.000    0.000    0.000    0.000    0.000    0.000 
#
# Total GULP energy -78368.579133 kJ/mol
# GULP energy per Si atom -5597.755652 kJ/mol
# Density = 2.976404 g / cm^3
# Si number density = 29.831939 Si / 1000 Ang^3
#
#
#
# Elastic Constant Matrix: (Units=GPa)
#
#
# Indices 1 2 3 4 5 6 
#
# 1 179.3098 61.6418 71.5553 0.0000 -13.7891 0.0000
# 2 61.6418 104.5869 54.1577 0.0000 20.5155 0.0000
# 3 71.5553 54.1577 211.5233 0.0000 27.8985 0.0000
# 4 0.0000 0.0000 0.0000 62.6685 0.0000 3.1887
# 5 -13.7891 20.5155 27.8985 0.0000 60.9681 0.0000
# 6 0.0000 0.0000 0.0000 3.1887 0.0000 63.7002
#
#
#
# Elastic Compliance Matrix: (Units=1/GPa)
#
#
# Indices 1 2 3 4 5 6 
#
# 1 0.008434 -0.004693 -0.002247 0.000000 0.004515 0.000000
# 2 -0.004693 0.014027 -0.001321 0.000000 -0.005177 0.000000
# 3 -0.002247 -0.001321 0.006209 0.000000 -0.002905 0.000000
# 4 0.000000 0.000000 0.000000 0.015998 0.000000 -0.000801
# 5 0.004515 -0.005177 -0.002905 0.000000 0.020494 0.000000
# 6 0.000000 0.000000 0.000000 -0.000801 0.000000 0.015739
#
#
# Mechanical properties :
#
#
# Convention : Reuss Voigt Hill
#
# Bulk Modulus (GPa) = 82.31783 96.68107 89.49945
# Shear Modulus (GPa) = 49.27431 58.00504 53.63967
#
# Velocity S-wave (km/s) = 4.06856 4.41431 4.24496
# Velocity P-wave (km/s) = 7.05157 7.64594 7.35476
#
# Compressibility (1/GPa) = 0.01214804
#
# Stress axis : x y z
#
# Youngs Moduli (GPa) = 118.56490 71.29123 161.05287
#
# Poissons Ratio (x) = 0.33457 0.36190
# Poissons Ratio (y) = 0.55643 0.21276
# Poissons Ratio (z) = 0.26642 0.09418
#
# Static dielectric constant tensor:
#      x y z
#    x 2.444470 0.000000 0.085440 
#    y 0.000000 2.750840 0.000000 
#    z 0.085440 0.000000 2.398180 
# 
# From -- ./inp_files/11327.got.cif
#   From: 2010.05.17/outbox.cif.g08.bks.cpg/sg4_6_cif.got.tgz:11327.got - 2010.06.03 18:43:04.
