data_PCOD9119406
_publ_section_title
;
Structure prediction by ZEFSAII (Michael W. Deem and Ramdas Pophale) SiO2 
 PCOD9119406
Probable space group: P 21
;
_chemical_formula_sum "Si O2"
_cell_formula_units_Z 14
_cell_length_a 5.420032
_cell_length_b 19.384687
_cell_length_c 5.094809
_cell_angle_alpha 90.000000
_cell_angle_beta 91.613984
_cell_angle_gamma 90.000000
_cell_volume 535.076921
_symmetry_space_group_name_H-M "P 21"
_symmetry_group_IT_number 4
_symmetry_cell_setting 'monoclinic'
loop_
_space_group_symop_operation_xyz
x,y,z
-x,1/2+y,-z
loop_
_atom_site_type_symbol
_atom_site_label
_atom_site_fract_x
_atom_site_fract_y
_atom_site_fract_z
Si Si1 0.450143 0.833200 0.343680
Si Si2 0.962089 0.825851 0.677207
Si Si3 0.736514 0.222811 0.030893
Si Si4 0.063994 0.123163 0.743458
Si Si5 0.880383 0.975775 0.868877
Si Si6 0.632120 0.634960 0.740241
Si Si7 0.419383 0.484700 0.641595
O O1 0.195172 0.822000 0.489737
O O2 0.451827 0.913999 0.266365
O O3 0.700992 0.822479 0.519367
O O4 0.439062 0.780209 0.103895
O O5 0.019330 0.765035 0.880805
O O6 0.981458 0.899665 0.822412
O O7 0.598114 0.186398 0.268485
O O8 0.820969 0.162161 0.837482
O O9 0.157372 0.147822 0.466281
O O10 0.269655 0.140098 0.963387
O O11 0.029969 0.040876 0.763949
O O12 0.642472 0.978039 0.667862
O O13 0.818304 0.987170 0.171852
O O14 0.552057 0.556402 0.690563
#
# Coordination Sequence:
#
# PCOD9119406 Si02
#       7
#     2   2   2   2   2   2   2
#     4  11  30  52  84 120 170 220 282 344 425 499
#     4  11  30  52  84 120 170 220 282 344 425 499
#     4  12  32  50  80 122 178 214 278 350 422 514
#     4  12  29  50  84 120 164 221 281 343 424 499
#     4  11  25  51  83 119 158 215 283 347 412 496
#     4  12  29  50  84 120 164 221 281 343 424 499
#     4  11  25  51  83 119 158 215 283 347 412 496
#
# _framework density 26.164460999999999
#
# number of rings (size 3 to 8) (size 9 to 14) (size 15 to 20)
#    0.000    0.571    1.429    2.571   18.000    0.000 
#    0.000    0.000    0.000    0.000    0.000    0.000 
#    0.000    0.000    0.000    0.000    0.000    0.000 
#
# Total GULP energy -78560.743338 kJ/mol
# GULP energy per Si atom -5611.481667 kJ/mol
# Density = 2.610491 g / cm^3
# Si number density = 26.164461 Si / 1000 Ang^3
#
#
#
# Elastic Constant Matrix: (Units=GPa)
#
#
# Indices 1 2 3 4 5 6 
#
# 1 113.0342 39.7454 27.0332 0.0000 -7.6586 0.0000
# 2 39.7454 178.1880 27.6004 0.0000 -0.7709 0.0000
# 3 27.0332 27.6004 62.0583 0.0000 -5.5760 0.0000
# 4 0.0000 0.0000 0.0000 35.6583 0.0000 -3.9190
# 5 -7.6586 -0.7709 -5.5760 0.0000 52.0452 0.0000
# 6 0.0000 0.0000 0.0000 -3.9190 0.0000 55.9940
#
#
#
# Elastic Compliance Matrix: (Units=1/GPa)
#
#
# Indices 1 2 3 4 5 6 
#
# 1 0.010413 -0.001751 -0.003657 0.000000 0.001115 0.000000
# 2 -0.001751 0.006324 -0.002084 0.000000 -0.000387 0.000000
# 3 -0.003657 -0.002084 0.018763 0.000000 0.001441 0.000000
# 4 0.000000 0.000000 0.000000 0.028261 0.000000 0.001978
# 5 0.001115 -0.000387 0.001441 0.000000 0.019527 0.000000
# 6 0.000000 0.000000 0.000000 0.001978 0.000000 0.017997
#
#
# Mechanical properties :
#
#
# Convention : Reuss Voigt Hill
#
# Bulk Modulus (GPa) = 48.74539 60.22650 54.48594
# Shear Modulus (GPa) = 40.61434 45.99962 43.30698
#
# Velocity S-wave (km/s) = 3.94416 4.19751 4.07281
# Velocity P-wave (km/s) = 6.27795 6.82353 6.55642
#
# Compressibility (1/GPa) = 0.02051476
#
# Stress axis : x y z
#
# Youngs Moduli (GPa) = 96.03584 158.13058 53.29523
#
# Poissons Ratio (x) = 0.27694 0.19489
# Poissons Ratio (y) = 0.16819 0.11109
# Poissons Ratio (z) = 0.35119 0.32962
#
# Static dielectric constant tensor:
#      x y z
#    x 2.097520 0.000000 0.042630 
#    y 0.000000 2.029270 0.000000 
#    z 0.042630 0.000000 2.030730 
# 
# From -- ./inp_files/680.got.cif
#   From: 2010.05.17/outbox.cif.g08.bks.cpg/sg4_1_cif.got.tgz:680.got - 2010.06.03 18:43:04.
