data_PCOD9119488
_publ_section_title
;
Structure prediction by ZEFSAII (Michael W. Deem and Ramdas Pophale) SiO2 
 PCOD9119488
Probable space group: P 21
;
_chemical_formula_sum "Si O2"
_cell_formula_units_Z 16
_cell_length_a 9.106951
_cell_length_b 6.520348
_cell_length_c 11.166651
_cell_angle_alpha 90.000000
_cell_angle_beta 99.085198
_cell_angle_gamma 90.000000
_cell_volume 654.762608
_symmetry_space_group_name_H-M "P 21"
_symmetry_group_IT_number 4
_symmetry_cell_setting 'monoclinic'
loop_
_space_group_symop_operation_xyz
x,y,z
-x,1/2+y,-z
loop_
_atom_site_type_symbol
_atom_site_label
_atom_site_fract_x
_atom_site_fract_y
_atom_site_fract_z
Si Si1 0.314166 0.691790 0.538109
Si Si2 0.789223 0.141259 0.073220
Si Si3 0.460380 0.599535 0.126151
Si Si4 0.931979 0.117488 0.657961
Si Si5 0.742151 0.772069 0.758898
Si Si6 0.750971 0.452688 0.262296
Si Si7 0.072757 0.913051 0.119884
Si Si8 0.541554 0.405707 0.662279
O O1 0.142367 0.677550 0.476895
O O2 0.334429 0.880846 0.630607
O O3 0.378749 0.487752 0.606836
O O4 0.402230 0.743700 0.428105
O O5 0.803569 0.245815 0.203275
O O6 0.618140 0.114350 0.012405
O O7 0.857627 0.292614 0.981774
O O8 0.896526 0.946204 0.082543
O O9 0.365110 0.420501 0.179017
O O10 0.634301 0.551226 0.155526
O O11 0.445510 0.802229 0.206245
O O12 0.898939 0.285730 0.755656
O O13 0.845512 0.913459 0.689739
O O14 0.107103 0.082704 0.683615
O O15 0.848759 0.632046 0.854218
O O16 0.642132 0.610034 0.673628
#
# Coordination Sequence:
#
# PCOD9119488 Si02
#       8
#     2   2   2   2   2   2   2   2
#     4  12  25  46  75 106 146 192 236 299 361 423
#     4  12  25  46  75 106 146 192 236 299 361 423
#     4  12  26  49  73 109 144 191 244 300 357 425
#     4  12  26  49  73 109 144 191 244 300 357 425
#     4  12  20  48  82 104 138 182 254 298 344 428
#     4  12  30  44  68 114 150 186 238 292 374 428
#     4  12  24  47  81 106 139 194 252 294 351 433
#     4  12  24  47  81 106 139 194 252 294 351 433
#
# _framework density 24.436335
#
# number of rings (size 3 to 8) (size 9 to 14) (size 15 to 20)
#    0.000    0.000    7.500    3.000    0.000    7.000 
#    0.000    0.000    0.000    0.000    0.000    0.000 
#    0.000    0.000    0.000    0.000    0.000    0.000 
#
# Total GULP energy -89666.306406 kJ/mol
# GULP energy per Si atom -5604.144150 kJ/mol
# Density = 2.438072 g / cm^3
# Si number density = 24.436335 Si / 1000 Ang^3
#
#
#
# Elastic Constant Matrix: (Units=GPa)
#
#
# Indices 1 2 3 4 5 6 
#
# 1 105.4402 18.6468 17.2683 0.0000 39.7880 0.0000
# 2 18.6468 77.6824 16.7209 0.0000 15.9369 0.0000
# 3 17.2683 16.7209 77.9305 0.0000 30.1114 0.0000
# 4 0.0000 0.0000 0.0000 27.0055 0.0000 22.1923
# 5 39.7880 15.9369 30.1114 0.0000 41.5006 0.0000
# 6 0.0000 0.0000 0.0000 22.1923 0.0000 41.7976
#
#
#
# Elastic Compliance Matrix: (Units=1/GPa)
#
#
# Indices 1 2 3 4 5 6 
#
# 1 0.015476 -0.000965 0.003290 0.000000 -0.016853 0.000000
# 2 -0.000965 0.014127 -0.001499 0.000000 -0.003412 0.000000
# 3 0.003290 -0.001499 0.018649 0.000000 -0.016110 0.000000
# 4 0.000000 0.000000 0.000000 0.065692 0.000000 -0.034879
# 5 -0.016853 -0.003412 -0.016110 0.000000 0.053253 0.000000
# 6 0.000000 0.000000 0.000000 -0.034879 0.000000 0.042444
#
#
# Mechanical properties :
#
#
# Convention : Reuss Voigt Hill
#
# Bulk Modulus (GPa) = 20.03879 40.70278 30.37079
# Shear Modulus (GPa) = 22.25948 35.95522 29.10735
#
# Velocity S-wave (km/s) = 3.02142 3.84002 3.45505
# Velocity P-wave (km/s) = 4.51554 6.02942 5.32654
#
# Compressibility (1/GPa) = 0.04990321
#
# Stress axis : x y z
#
# Youngs Moduli (GPa) = 64.61807 70.78506 53.62174
#
# Poissons Ratio (x) = 0.06833 -0.17641
# Poissons Ratio (y) = 0.06238 0.08037
# Poissons Ratio (z) = -0.21258 0.10610
#
# Static dielectric constant tensor:
#      x y z
#    x 1.985930 0.000000 0.048370 
#    y 0.000000 1.920850 0.000000 
#    z 0.048370 0.000000 1.913540 
# 
# From -- ./inp_files/10759.got.cif
#   From: 2010.05.17/outbox.cif.g08.bks.cpg/sg4_6_cif.got.tgz:10759.got - 2010.06.03 18:43:04.
