data_PCOD9119390
_publ_section_title
;
Structure prediction by ZEFSAII (Michael W. Deem and Ramdas Pophale) SiO2 
 PCOD9119390
Probable space group: P 21
;
_chemical_formula_sum "Si O2"
_cell_formula_units_Z 16
_cell_length_a 22.995717
_cell_length_b 5.135101
_cell_length_c 16.762988
_cell_angle_alpha 90.000000
_cell_angle_beta 161.327882
_cell_angle_gamma 90.000000
_cell_volume 633.729043
_symmetry_space_group_name_H-M "P 21"
_symmetry_group_IT_number 4
_symmetry_cell_setting 'monoclinic'
loop_
_space_group_symop_operation_xyz
x,y,z
-x,1/2+y,-z
loop_
_atom_site_type_symbol
_atom_site_label
_atom_site_fract_x
_atom_site_fract_y
_atom_site_fract_z
Si Si1 0.582165 0.147170 0.145766
Si Si2 0.853389 0.503669 0.961438
Si Si3 0.790006 0.716260 0.571498
Si Si4 0.267031 0.509002 0.099626
Si Si5 0.892121 0.658250 0.369998
Si Si6 0.340176 0.906005 0.454007
Si Si7 0.477743 0.060563 0.180853
Si Si8 0.093914 0.946341 0.442030
O O1 0.536704 0.216522 0.178048
O O2 0.798656 0.174964 0.416787
O O3 0.492126 0.368541 0.974739
O O4 0.775611 0.786048 0.887822
O O5 0.775770 0.396792 0.777124
O O6 0.783454 0.293463 0.934336
O O7 0.071826 0.462621 0.241904
O O8 0.792048 0.545905 0.654110
O O9 0.848401 0.577930 0.566182
O O10 0.578487 0.791343 0.295047
O O11 0.470389 0.529011 0.331518
O O12 0.122389 0.432325 0.843600
O O13 0.843209 0.596893 0.397807
O O14 0.059279 0.459920 0.573922
O O15 0.737066 0.565571 0.106988
O O16 0.427099 0.664015 0.615625
#
# Coordination Sequence:
#
# PCOD9119390 Si02
#       8
#     2   2   2   2   2   2   2   2
#     4  12  25  44  72 103 142 194 243 305 366 445
#     4  11  28  51  79 112 157 203 261 317 402 467
#     4  11  28  47  79 114 154 199 260 325 394 457
#     4  11  27  51  77 111 151 211 257 318 390 472
#     4  12  31  48  75 109 155 206 257 310 379 460
#     4  12  28  47  81 113 158 199 263 326 390 465
#     4  12  28  45  75 111 154 193 260 310 389 449
#     4  11  25  49  76 105 155 197 255 309 384 455
#
# _framework density 25.247382000000002
#
# number of rings (size 3 to 8) (size 9 to 14) (size 15 to 20)
#    0.000    0.500    2.500    3.000   12.250    4.000 
#    0.000    0.000    0.000    0.000    0.000    0.000 
#    0.000    0.000    0.000    0.000    0.000    0.000 
#
# Total GULP energy -89466.407107 kJ/mol
# GULP energy per Si atom -5591.650444 kJ/mol
# Density = 2.518992 g / cm^3
# Si number density = 25.247382 Si / 1000 Ang^3
#
#
#
# Elastic Constant Matrix: (Units=GPa)
#
#
# Indices 1 2 3 4 5 6 
#
# 1 85.1419 -0.6171 18.2893 0.0000 -1.6561 0.0000
# 2 -0.6171 48.9174 8.9214 0.0000 1.5723 0.0000
# 3 18.2893 8.9214 90.7661 0.0000 -13.0200 0.0000
# 4 0.0000 0.0000 0.0000 30.4864 0.0000 8.5235
# 5 -1.6561 1.5723 -13.0200 0.0000 38.0309 0.0000
# 6 0.0000 0.0000 0.0000 8.5235 0.0000 43.7986
#
#
#
# Elastic Compliance Matrix: (Units=1/GPa)
#
#
# Indices 1 2 3 4 5 6 
#
# 1 0.012300 0.000641 -0.002596 0.000000 -0.000380 0.000000
# 2 0.000641 0.020947 -0.002427 0.000000 -0.001669 0.000000
# 3 -0.002596 -0.002427 0.012385 0.000000 0.004228 0.000000
# 4 0.000000 0.000000 0.000000 0.034689 0.000000 -0.006751
# 5 -0.000380 -0.001669 0.004228 0.000000 0.027794 0.000000
# 6 0.000000 0.000000 0.000000 -0.006751 0.000000 0.024146
#
#
# Mechanical properties :
#
#
# Convention : Reuss Voigt Hill
#
# Bulk Modulus (GPa) = 27.12421 30.89028 29.00724
# Shear Modulus (GPa) = 32.61253 35.67862 34.14558
#
# Velocity S-wave (km/s) = 3.59795 3.76328 3.68154
# Velocity P-wave (km/s) = 5.29405 5.58074 5.43929
#
# Compressibility (1/GPa) = 0.03686744
#
# Stress axis : x y z
#
# Youngs Moduli (GPa) = 81.30100 47.73934 80.74017
#
# Poissons Ratio (x) = -0.03059 0.20959
# Poissons Ratio (y) = -0.05210 0.19599
# Poissons Ratio (z) = 0.21105 0.11588
#
# Static dielectric constant tensor:
#      x y z
#    x 2.029110 0.000000 0.023990 
#    y 0.000000 2.005890 0.000000 
#    z 0.023990 0.000000 2.069450 
# 
# From -- ./inp_files/14416.got.cif
#   From: 2010.05.17/outbox.cif.g08.bks.cpg/sg4_8_cif.got.tgz:14416.got - 2010.06.03 18:43:04.
