data_PCOD9119826
_publ_section_title
;
Structure prediction by ZEFSAII (Michael W. Deem and Ramdas Pophale) SiO2 
 PCOD9119826
Probable space group: P 21
;
_chemical_formula_sum "Si O2"
_cell_formula_units_Z 16
_cell_length_a 24.000000
_cell_length_b 6.000000
_cell_length_c 30.000000
_cell_angle_alpha 90.000000
_cell_angle_beta 10.000000
_cell_angle_gamma 90.000000
_cell_volume 750.160128
_symmetry_space_group_name_H-M "P 21"
_symmetry_group_IT_number 4
_symmetry_cell_setting 'monoclinic'
loop_
_space_group_symop_operation_xyz
x,y,z
-x,1/2+y,-z
loop_
_atom_site_type_symbol
_atom_site_label
_atom_site_fract_x
_atom_site_fract_y
_atom_site_fract_z
Si Si1 0.139253 0.494960 0.803205
Si Si2 0.638315 0.848808 0.951124
Si Si3 0.951748 0.167143 0.639675
Si Si4 0.874475 0.411006 0.581425
Si Si5 0.516223 0.258426 0.325045
Si Si6 0.759927 0.671823 0.359139
Si Si7 0.780118 0.033465 0.519638
Si Si8 0.269570 0.389143 0.911302
O O1 0.467856 0.523543 0.570389
O O2 0.201213 0.375348 0.706767
O O3 0.880154 0.357526 0.036830
O O4 0.987295 0.734693 0.911923
O O5 0.872652 0.641490 0.760435
O O6 0.815438 0.062848 0.792231
O O7 0.328568 0.800991 0.164532
O O8 0.493671 0.885454 0.113774
O O9 0.054252 0.969911 0.525779
O O10 0.217245 0.344167 0.444768
O O11 0.018875 0.158817 0.479878
O O12 0.346616 0.231750 0.506564
O O13 0.322206 0.427520 0.446589
O O14 0.552318 0.035023 0.266876
O O15 0.086749 0.535510 0.092237
O O16 0.526361 0.224248 0.730331
#
# Coordination Sequence:
#
# PCOD9119826 Si02
#       8
#     2   2   2   2   2   2   2   2
#     4  10  22  39  68 106 132 171 234 285 336 419
#     4  11  22  42  74 100 137 183 242 305 362 430
#     4  11  22  42  74 101 136 188 239 307 361 425
#     4  10  24  42  70 112 142 171 244 317 374 437
#     4  10  25  43  66 100 143 183 229 284 358 432
#     4  11  22  42  72 103 138 179 232 287 349 419
#     4  11  24  46  68 100 145 189 235 289 372 432
#     4  10  23  46  64  98 145 178 225 284 348 428
#
# _framework density 21.328779999999998
#
# number of rings (size 3 to 8) (size 9 to 14) (size 15 to 20)
#    0.000    1.500    2.500    1.500    5.250    2.000 
#    0.000   16.250    0.000    0.000    0.000    0.000 
#    0.000    0.000    0.000    0.000    0.000    0.000 
#
# Total GULP energy -89306.750749 kJ/mol
# GULP energy per Si atom -5581.671922 kJ/mol
# Density = 2.128023 g / cm^3
# Si number density = 21.328780 Si / 1000 Ang^3
#
#
#
# Elastic Constant Matrix: (Units=GPa)
#
#
# Indices 1 2 3 4 5 6 
#
# 1 72.5447 30.1934 59.9556 0.0000 8.4898 0.0000
# 2 30.1934 88.8928 27.1341 0.0000 0.2419 0.0000
# 3 59.9556 27.1341 81.2758 0.0000 17.1251 0.0000
# 4 0.0000 0.0000 0.0000 42.5281 0.0000 -10.7836
# 5 8.4898 0.2419 17.1251 0.0000 33.0104 0.0000
# 6 0.0000 0.0000 0.0000 -10.7836 0.0000 29.4859
#
#
#
# Elastic Compliance Matrix: (Units=1/GPa)
#
#
# Indices 1 2 3 4 5 6 
#
# 1 0.037579 -0.004485 -0.027164 0.000000 0.004460 0.000000
# 2 -0.004485 0.013223 -0.001492 0.000000 0.001831 0.000000
# 3 -0.027164 -0.001492 0.035215 0.000000 -0.011272 0.000000
# 4 0.000000 0.000000 0.000000 0.025917 0.000000 0.009478
# 5 0.004460 0.001831 -0.011272 0.000000 0.034981 0.000000
# 6 0.000000 0.000000 0.000000 0.009478 0.000000 0.037381
#
#
# Mechanical properties :
#
#
# Convention : Reuss Voigt Hill
#
# Bulk Modulus (GPa) = 50.66812 53.03107 51.84959
# Shear Modulus (GPa) = 19.44335 29.36688 24.40511
#
# Velocity S-wave (km/s) = 3.02255 3.71464 3.38632
# Velocity P-wave (km/s) = 5.99903 6.58146 6.29699
#
# Compressibility (1/GPa) = 0.01973628
#
# Stress axis : x y z
#
# Youngs Moduli (GPa) = 26.61037 75.62446 28.39664
#
# Poissons Ratio (x) = 0.33915 0.77137
# Poissons Ratio (y) = 0.11934 0.04237
# Poissons Ratio (z) = 0.72285 0.11284
#
# Static dielectric constant tensor:
#      x y z
#    x 1.757370 0.000000 -0.032380 
#    y 0.000000 1.811040 0.000000 
#    z -0.032380 0.000000 1.784240 
# 
# From -- ./inp_files/15394.got.cif
#   From: 2010.05.17/outbox.ucp.g08.bks.cvg/sg4_8_cif.got.tgz:15394.got - 2010.06.11 12:51:24.
