data_PCOD9119191
_publ_section_title
;
Structure prediction by ZEFSAII (Michael W. Deem and Ramdas Pophale) SiO2 
 PCOD9119191
Probable space group: P 21
;
_chemical_formula_sum "Si O2"
_cell_formula_units_Z 16
_cell_length_a 11.767956
_cell_length_b 7.445544
_cell_length_c 9.533732
_cell_angle_alpha 90.000000
_cell_angle_beta 130.006051
_cell_angle_gamma 90.000000
_cell_volume 639.846629
_symmetry_space_group_name_H-M "P 21"
_symmetry_group_IT_number 4
_symmetry_cell_setting 'monoclinic'
loop_
_space_group_symop_operation_xyz
x,y,z
-x,1/2+y,-z
loop_
_atom_site_type_symbol
_atom_site_label
_atom_site_fract_x
_atom_site_fract_y
_atom_site_fract_z
Si Si1 0.312239 0.916620 0.418771
Si Si2 0.168439 0.073693 0.567065
Si Si3 0.833293 0.070542 0.239176
Si Si4 0.077737 0.432719 0.190341
Si Si5 0.168546 0.165139 0.866305
Si Si6 0.680617 0.928341 0.378291
Si Si7 0.427404 0.159911 0.290219
Si Si8 0.822842 0.177318 0.940113
O O1 0.462129 0.823992 0.593194
O O2 0.247400 0.797155 0.238779
O O3 0.206228 0.939756 0.469357
O O4 0.345369 0.105746 0.369250
O O5 0.176311 0.029362 0.738393
O O6 0.296465 0.225536 0.654445
O O7 0.998051 0.140732 0.410204
O O8 0.864332 0.862035 0.220949
O O9 0.725168 0.059260 0.285768
O O10 0.758585 0.163474 0.044680
O O11 0.192758 0.444088 0.405312
O O12 0.160636 0.482261 0.113688
O O13 0.955517 0.583165 0.130947
O O14 0.987057 0.252033 0.101219
O O15 0.317451 0.179621 0.073712
O O16 0.529976 0.989844 0.329178
#
# Coordination Sequence:
#
# PCOD9119191 Si02
#       8
#     2   2   2   2   2   2   2   2
#     4  12  27  46  70 101 147 193 234 295 361 435
#     4  11  24  47  73 106 139 186 240 306 357 416
#     4  11  25  44  74 110 139 185 239 308 358 420
#     4  12  22  43  69 103 136 183 238 294 354 420
#     4  11  26  45  72 105 144 185 245 293 361 437
#     4  11  25  46  71 102 144 184 237 299 359 431
#     4  12  28  48  68 105 146 198 237 292 367 444
#     4  12  25  41  71 106 141 184 236 297 361 425
#
# _framework density 25.005994000000001
#
# number of rings (size 3 to 8) (size 9 to 14) (size 15 to 20)
#    0.000    0.500    5.000    3.000    1.750    5.000 
#    4.500    0.000    0.000    0.000    0.000    0.000 
#    0.000    0.000    0.000    0.000    0.000    0.000 
#
# Total GULP energy -89590.298029 kJ/mol
# GULP energy per Si atom -5599.393627 kJ/mol
# Density = 2.494908 g / cm^3
# Si number density = 25.005994 Si / 1000 Ang^3
#
#
#
# Elastic Constant Matrix: (Units=GPa)
#
#
# Indices 1 2 3 4 5 6 
#
# 1 90.0876 4.4662 50.2649 0.0000 -24.8972 0.0000
# 2 4.4662 41.1225 16.8547 0.0000 -10.7497 0.0000
# 3 50.2649 16.8547 176.6123 0.0000 -19.5192 0.0000
# 4 0.0000 0.0000 0.0000 41.6079 0.0000 -6.0409
# 5 -24.8972 -10.7497 -19.5192 0.0000 48.8504 0.0000
# 6 0.0000 0.0000 0.0000 -6.0409 0.0000 48.2972
#
#
#
# Elastic Compliance Matrix: (Units=1/GPa)
#
#
# Indices 1 2 3 4 5 6 
#
# 1 0.014849 0.001575 -0.003664 0.000000 0.006451 0.000000
# 2 0.001575 0.026606 -0.002356 0.000000 0.005716 0.000000
# 3 -0.003664 -0.002356 0.006974 0.000000 0.000401 0.000000
# 4 0.000000 0.000000 0.000000 0.024478 0.000000 0.003062
# 5 0.006451 0.005716 0.000401 0.000000 0.025176 0.000000
# 6 0.000000 0.000000 0.000000 0.003062 0.000000 0.021088
#
#
# Mechanical properties :
#
#
# Convention : Reuss Voigt Hill
#
# Bulk Modulus (GPa) = 25.29008 50.11046 37.70027
# Shear Modulus (GPa) = 35.40054 43.50022 39.45038
#
# Velocity S-wave (km/s) = 3.76664 4.17537 3.97626
# Velocity P-wave (km/s) = 5.39002 6.58239 6.01582
#
# Compressibility (1/GPa) = 0.03954119
#
# Stress axis : x y z
#
# Youngs Moduli (GPa) = 67.34425 37.58507 143.39154
#
# Poissons Ratio (x) = -0.05920 0.52532
# Poissons Ratio (y) = -0.10607 0.33778
# Poissons Ratio (z) = 0.24672 0.08854
#
# Static dielectric constant tensor:
#      x y z
#    x 1.942230 0.000000 -0.032240 
#    y 0.000000 2.075410 0.000000 
#    z -0.032240 0.000000 1.928080 
# 
# From -- ./inp_files/5488.got.cif
#   From: 2010.05.17/outbox.cif.g08.bks.cpg/sg4_3_cif.got.tgz:5488.got - 2010.06.03 18:43:04.
