data_PCOD9119384
_publ_section_title
;
Structure prediction by ZEFSAII (Michael W. Deem and Ramdas Pophale) SiO2 
 PCOD9119384
Probable space group: P 21
;
_chemical_formula_sum "Si O2"
_cell_formula_units_Z 16
_cell_length_a 9.516918
_cell_length_b 7.275685
_cell_length_c 11.900648
_cell_angle_alpha 90.000000
_cell_angle_beta 50.447818
_cell_angle_gamma 90.000000
_cell_volume 635.360960
_symmetry_space_group_name_H-M "P 21"
_symmetry_group_IT_number 4
_symmetry_cell_setting 'monoclinic'
loop_
_space_group_symop_operation_xyz
x,y,z
-x,1/2+y,-z
loop_
_atom_site_type_symbol
_atom_site_label
_atom_site_fract_x
_atom_site_fract_y
_atom_site_fract_z
Si Si1 0.194500 0.312220 0.662903
Si Si2 0.945259 0.218953 0.600341
Si Si3 0.436112 0.849957 0.290221
Si Si4 0.182188 0.325644 0.281089
Si Si5 0.803513 0.766277 0.981838
Si Si6 0.078744 0.675784 0.014631
Si Si7 0.445838 0.951075 0.523093
Si Si8 0.536174 0.283600 0.236871
O O1 0.316288 0.126964 0.584158
O O2 0.337697 0.473432 0.611456
O O3 0.073839 0.338244 0.615006
O O4 0.065991 0.269257 0.830996
O O5 0.746088 0.301489 0.683102
O O6 0.056835 0.205529 0.427651
O O7 0.921258 0.021078 0.670887
O O8 0.395840 0.818853 0.443069
O O9 0.481227 0.067424 0.264662
O O10 0.612721 0.748400 0.147491
O O11 0.215623 0.240080 0.141768
O O12 0.374147 0.367111 0.245297
O O13 0.971952 0.659201 0.951393
O O14 0.864381 0.977986 0.968428
O O15 0.262824 0.792640 0.915875
O O16 0.446215 0.870445 0.648558
#
# Coordination Sequence:
#
# PCOD9119384 Si02
#       8
#     2   2   2   2   2   2   2   2
#     4  12  25  47  73 111 143 199 247 310 373 438
#     4  12  27  48  74 108 154 195 253 308 367 452
#     4  11  26  45  73 109 148 199 251 306 372 445
#     4  12  26  48  72 110 149 201 246 311 375 442
#     4  11  26  48  73 107 151 193 253 308 376 444
#     4  11  25  49  72 108 147 193 247 312 367 451
#     4  12  23  47  76 105 150 190 254 313 364 436
#     4  11  26  46  71 108 152 196 249 308 376 444
#
# _framework density 25.182538000000001
#
# number of rings (size 3 to 8) (size 9 to 14) (size 15 to 20)
#    0.000    0.500    5.000    2.250    5.250    1.000 
#    6.750    0.000    0.000    0.000    0.000    0.000 
#    0.000    0.000    0.000    0.000    0.000    0.000 
#
# Total GULP energy -89669.048013 kJ/mol
# GULP energy per Si atom -5604.315501 kJ/mol
# Density = 2.512522 g / cm^3
# Si number density = 25.182538 Si / 1000 Ang^3
#
#
#
# Elastic Constant Matrix: (Units=GPa)
#
#
# Indices 1 2 3 4 5 6 
#
# 1 176.2758 21.5711 61.4733 0.0000 -11.3831 0.0000
# 2 21.5711 54.5143 21.5981 0.0000 -12.8592 0.0000
# 3 61.4733 21.5981 150.9678 0.0000 -18.8912 0.0000
# 4 0.0000 0.0000 0.0000 36.2200 0.0000 -7.9530
# 5 -11.3831 -12.8592 -18.8912 0.0000 54.8293 0.0000
# 6 0.0000 0.0000 0.0000 -7.9530 0.0000 42.1881
#
#
#
# Elastic Compliance Matrix: (Units=1/GPa)
#
#
# Indices 1 2 3 4 5 6 
#
# 1 0.006755 -0.001647 -0.002495 0.000000 0.000156 0.000000
# 2 -0.001647 0.020621 -0.001794 0.000000 0.003876 0.000000
# 3 -0.002495 -0.001794 0.008130 0.000000 0.001862 0.000000
# 4 0.000000 0.000000 0.000000 0.028801 0.000000 0.005429
# 5 0.000156 0.003876 0.001862 0.000000 0.019822 0.000000
# 6 0.000000 0.000000 0.000000 0.005429 0.000000 0.024727
#
#
# Mechanical properties :
#
#
# Convention : Reuss Voigt Hill
#
# Bulk Modulus (GPa) = 42.31641 65.67143 53.99392
# Shear Modulus (GPa) = 38.87839 45.12182 42.00011
#
# Velocity S-wave (km/s) = 3.93346 4.23755 4.08833
# Velocity P-wave (km/s) = 6.12126 7.07652 6.61616
#
# Compressibility (1/GPa) = 0.02363149
#
# Stress axis : x y z
#
# Youngs Moduli (GPa) = 148.04291 48.49456 123.00546
#
# Poissons Ratio (x) = 0.07989 0.30693
# Poissons Ratio (y) = 0.24388 0.22071
# Poissons Ratio (z) = 0.36941 0.08701
#
# Static dielectric constant tensor:
#      x y z
#    x 1.974830 0.000000 0.038420 
#    y 0.000000 2.060590 0.000000 
#    z 0.038420 0.000000 1.980470 
# 
# From -- ./inp_files/11027.got.cif
#   From: 2010.05.17/outbox.cif.g08.bks.cpg/sg4_6_cif.got.tgz:11027.got - 2010.06.03 18:43:04.
