data_PCOD9119700
_publ_section_title
;
Structure prediction by ZEFSAII (Michael W. Deem and Ramdas Pophale) SiO2 
 PCOD9119700
Probable space group: P 21
;
_chemical_formula_sum "Si O2"
_cell_formula_units_Z 10
_cell_length_a 17.134125
_cell_length_b 5.032073
_cell_length_c 11.691961
_cell_angle_alpha 90.000000
_cell_angle_beta 22.389525
_cell_angle_gamma 90.000000
_cell_volume 383.980106
_symmetry_space_group_name_H-M "P 21"
_symmetry_group_IT_number 4
_symmetry_cell_setting 'monoclinic'
loop_
_space_group_symop_operation_xyz
x,y,z
-x,1/2+y,-z
loop_
_atom_site_type_symbol
_atom_site_label
_atom_site_fract_x
_atom_site_fract_y
_atom_site_fract_z
Si Si1 0.873014 0.471310 0.657179
Si Si2 0.801484 0.139257 0.131742
Si Si3 0.760460 0.426357 0.414043
Si Si4 0.372585 0.651458 0.196755
Si Si5 0.545085 0.319800 0.264358
O O1 0.790714 0.302430 0.661412
O O2 0.975830 0.751511 0.492155
O O3 0.686419 0.513652 0.998226
O O4 0.808451 0.374529 0.215726
O O5 0.698882 0.199511 0.150075
O O6 0.640598 0.944755 0.412551
O O7 0.033435 0.042692 0.811086
O O8 0.708107 0.174177 0.564087
O O9 0.559513 0.609805 0.679373
O O10 0.565573 0.854763 0.921383
#
# Coordination Sequence:
#
# PCOD9119700 Si02
#       5
#     2   2   2   2   2
#     4  12  28  49  76 110 149 197 252 307 374 443
#     4  12  26  45  76 107 143 197 242 303 378 436
#     4  12  26  46  74 108 147 191 251 303 369 450
#     4  12  26  48  76 106 148 198 243 308 374 434
#     4  12  26  48  74 105 153 189 244 313 367 441
#
# _framework density 26.043018
#
# number of rings (size 3 to 8) (size 9 to 14) (size 15 to 20)
#    0.000    0.000    6.000    3.600    2.800    3.200 
#    0.000    0.000    0.000    0.000    0.000    0.000 
#    0.000    0.000    0.000    0.000    0.000    0.000 
#
# Total GULP energy -56040.730243 kJ/mol
# GULP energy per Si atom -5604.073024 kJ/mol
# Density = 2.598374 g / cm^3
# Si number density = 26.043018 Si / 1000 Ang^3
#
#
#
# Elastic Constant Matrix: (Units=GPa)
#
#
# Indices 1 2 3 4 5 6 
#
# 1 135.8731 12.0917 54.1893 0.0000 -29.4268 0.0000
# 2 12.0917 77.2565 26.9116 0.0000 -9.9730 0.0000
# 3 54.1893 26.9116 105.0000 0.0000 -7.6690 0.0000
# 4 0.0000 0.0000 0.0000 53.4597 0.0000 -5.6005
# 5 -29.4268 -9.9730 -7.6690 0.0000 63.0244 0.0000
# 6 0.0000 0.0000 0.0000 -5.6005 0.0000 36.6699
#
#
#
# Elastic Compliance Matrix: (Units=1/GPa)
#
#
# Indices 1 2 3 4 5 6 
#
# 1 0.010293 0.000751 -0.005191 0.000000 0.004293 0.000000
# 2 0.000751 0.014478 -0.003941 0.000000 0.002162 0.000000
# 3 -0.005191 -0.003941 0.013107 0.000000 -0.001453 0.000000
# 4 0.000000 0.000000 0.000000 0.019010 0.000000 0.002903
# 5 0.004293 0.002162 -0.001453 0.000000 0.018037 0.000000
# 6 0.000000 0.000000 0.000000 0.002903 0.000000 0.027714
#
#
# Mechanical properties :
#
#
# Convention : Reuss Voigt Hill
#
# Bulk Modulus (GPa) = 47.35441 56.05717 51.70579
# Shear Modulus (GPa) = 39.54499 45.62659 42.58579
#
# Velocity S-wave (km/s) = 3.90096 4.19020 4.04816
# Velocity P-wave (km/s) = 6.20585 6.70685 6.46121
#
# Compressibility (1/GPa) = 0.02111736
#
# Stress axis : x y z
#
# Youngs Moduli (GPa) = 97.15248 69.06977 76.29611
#
# Poissons Ratio (x) = -0.05191 0.39607
# Poissons Ratio (y) = -0.07301 0.30066
# Poissons Ratio (z) = 0.50434 0.27218
#
# Static dielectric constant tensor:
#      x y z
#    x 2.078000 0.000000 -0.087580 
#    y 0.000000 2.059630 0.000000 
#    z -0.087580 0.000000 2.035200 
# 
# From -- ./inp_files/882.got.cif
#   From: 2010.05.17/outbox.cif.g08.bks.cpg/sg4_1_cif.got.tgz:882.got - 2010.06.03 18:43:04.
