data_PCOD9119883
_publ_section_title
;
Structure prediction by ZEFSAII (Michael W. Deem and Ramdas Pophale) SiO2 
 PCOD9119883
Probable space group: P 21
;
_chemical_formula_sum "Si O2"
_cell_formula_units_Z 16
_cell_length_a 9.000000
_cell_length_b 12.000000
_cell_length_c 6.000000
_cell_angle_alpha 90.000000
_cell_angle_beta 100.000000
_cell_angle_gamma 90.000000
_cell_volume 638.155424
_symmetry_space_group_name_H-M "P 21"
_symmetry_group_IT_number 4
_symmetry_cell_setting 'monoclinic'
loop_
_space_group_symop_operation_xyz
x,y,z
-x,1/2+y,-z
loop_
_atom_site_type_symbol
_atom_site_label
_atom_site_fract_x
_atom_site_fract_y
_atom_site_fract_z
Si Si1 0.745238 0.528660 0.034359
Si Si2 0.775782 0.957822 0.878463
Si Si3 0.530416 0.509073 0.377113
Si Si4 0.354018 0.252883 0.896903
Si Si5 0.024003 0.642706 0.920694
Si Si6 0.101360 0.306423 0.471339
Si Si7 0.166043 0.827372 0.261733
Si Si8 0.533411 0.258462 0.568164
O O1 0.675839 0.488749 0.252958
O O2 0.637301 0.635674 0.977593
O O3 0.767512 0.438569 0.843095
O O4 0.901958 0.596961 0.068831
O O5 0.627109 0.027627 0.790215
O O6 0.863535 0.910035 0.685424
O O7 0.713457 0.844916 0.965695
O O8 0.872200 0.033892 0.070602
O O9 0.495356 0.385631 0.472708
O O10 0.538431 0.633872 0.493500
O O11 0.246500 0.266653 0.650611
O O12 0.514691 0.274932 0.830909
O O13 0.948700 0.697908 0.685266
O O14 0.108792 0.746342 0.053029
O O15 0.972837 0.345350 0.608765
O O16 0.289515 0.758456 0.433206
#
# Coordination Sequence:
#
# PCOD9119883 Si02
#       8
#     2   2   2   2   2   2   2   2
#     4  11  25  48  73 111 154 202 254 324 392 465
#     4  12  25  50  75 112 152 207 255 315 403 466
#     4  11  26  49  82 111 163 204 269 326 393 471
#     4  11  24  50  75 108 152 205 258 317 397 468
#     4  12  26  46  72 111 155 201 254 320 395 465
#     4  12  25  48  76 112 151 204 258 316 388 477
#     4  12  27  48  71 116 154 201 259 323 393 465
#     4  11  26  49  76 117 151 208 267 323 393 471
#
# _framework density 25.072261999999998
#
# number of rings (size 3 to 8) (size 9 to 14) (size 15 to 20)
#    0.000    0.500    5.000    2.250    3.500    6.000 
#    2.250    1.250    0.000    0.000    0.000    0.000 
#    0.000    0.000    0.000    0.000    0.000    0.000 
#
# Total GULP energy -89153.319576 kJ/mol
# GULP energy per Si atom -5572.082474 kJ/mol
# Density = 2.501520 g / cm^3
# Si number density = 25.072262 Si / 1000 Ang^3
#
#
#
# Elastic Constant Matrix: (Units=GPa)
#
#
# Indices 1 2 3 4 5 6 
#
# 1 82.4940 55.3123 22.6198 0.0000 -16.3719 0.0000
# 2 55.3123 173.1779 68.2990 0.0000 -29.2532 0.0000
# 3 22.6198 68.2990 68.1786 0.0000 -11.6414 0.0000
# 4 0.0000 0.0000 0.0000 34.1270 0.0000 -19.3295
# 5 -16.3719 -29.2532 -11.6414 0.0000 29.0468 0.0000
# 6 0.0000 0.0000 0.0000 -19.3295 0.0000 36.8201
#
#
#
# Elastic Compliance Matrix: (Units=1/GPa)
#
#
# Indices 1 2 3 4 5 6 
#
# 1 0.015933 -0.004186 -0.000299 0.000000 0.004644 0.000000
# 2 -0.004186 0.011815 -0.009466 0.000000 0.005746 0.000000
# 3 -0.000299 -0.009466 0.024253 0.000000 0.000018 0.000000
# 4 0.000000 0.000000 0.000000 0.041702 0.000000 0.021892
# 5 0.004644 0.005746 0.000018 0.000000 0.042839 0.000000
# 6 0.000000 0.000000 0.000000 0.021892 0.000000 0.038652
#
#
# Mechanical properties :
#
#
# Convention : Reuss Voigt Hill
#
# Bulk Modulus (GPa) = 41.49886 68.47919 54.98903
# Shear Modulus (GPa) = 23.68203 31.84007 27.76105
#
# Velocity S-wave (km/s) = 3.07669 3.56748 3.33113
# Velocity P-wave (km/s) = 5.40453 6.65892 6.06425
#
# Compressibility (1/GPa) = 0.02409705
#
# Stress axis : x y z
#
# Youngs Moduli (GPa) = 62.76355 84.63473 41.23243
#
# Poissons Ratio (x) = 0.35430 0.01235
# Poissons Ratio (y) = 0.26275 0.39032
# Poissons Ratio (z) = 0.01879 0.80118
#
# Static dielectric constant tensor:
#      x y z
#    x 2.059020 0.000000 0.034160 
#    y 0.000000 1.979090 0.000000 
#    z 0.034160 0.000000 2.048030 
# 
# From -- ./inp_files/1456.got.cif
#   From: 2010.05.17/outbox.ucp.g08.bks.cvg/sg4_1_cif.got.tgz:1456.got - 2010.06.11 12:51:24.
