data_PCOD9119772
_publ_section_title
;
Structure prediction by ZEFSAII (Michael W. Deem and Ramdas Pophale) SiO2 
 PCOD9119772
Probable space group: P 21
;
_chemical_formula_sum "Si O2"
_cell_formula_units_Z 16
_cell_length_a 22.069622
_cell_length_b 5.662536
_cell_length_c 15.237081
_cell_angle_alpha 90.000000
_cell_angle_beta 19.826221
_cell_angle_gamma 90.000000
_cell_volume 645.837297
_symmetry_space_group_name_H-M "P 21"
_symmetry_group_IT_number 4
_symmetry_cell_setting 'monoclinic'
loop_
_space_group_symop_operation_xyz
x,y,z
-x,1/2+y,-z
loop_
_atom_site_type_symbol
_atom_site_label
_atom_site_fract_x
_atom_site_fract_y
_atom_site_fract_z
Si Si1 0.183394 0.945970 0.508215
Si Si2 0.540196 0.682490 0.404398
Si Si3 0.022931 0.242990 0.866357
Si Si4 0.778494 0.268250 0.863677
Si Si5 0.832648 0.638208 0.653127
Si Si6 0.477088 0.427789 0.848976
Si Si7 0.913194 0.558784 0.850582
Si Si8 0.708871 0.084555 0.414680
O O1 0.387352 0.985293 0.257667
O O2 0.096735 0.705044 0.589215
O O3 0.073457 0.004197 0.746319
O O4 0.155662 0.125492 0.466731
O O5 0.537517 0.447333 0.471504
O O6 0.426008 0.563277 0.482029
O O7 0.746797 0.729469 0.099484
O O8 0.203131 0.357629 0.659484
O O9 0.945676 0.400903 0.892429
O O10 0.880494 0.213486 0.137406
O O11 0.742006 0.418968 0.826124
O O12 0.836031 0.425061 0.869607
O O13 0.963597 0.133651 0.593447
O O14 0.600503 0.113223 0.116344
O O15 0.706220 0.845709 0.856800
O O16 0.592501 0.229931 0.642334
#
# Coordination Sequence:
#
# PCOD9119772 Si02
#       8
#     2   2   2   2   2   2   2   2
#     4  12  29  49  81 115 162 212 279 343 426 506
#     4  12  29  48  80 120 164 219 284 349 418 505
#     4  12  27  52  77 115 161 220 266 345 420 507
#     4  12  27  49  80 113 160 210 273 343 420 497
#     4  12  27  49  78 112 156 211 269 339 423 496
#     4  12  30  48  76 121 158 216 274 346 415 517
#     4  12  27  49  77 115 162 216 277 342 426 497
#     4  12  28  50  81 115 169 214 284 337 428 509
#
# _framework density 24.774042000000001
#
# number of rings (size 3 to 8) (size 9 to 14) (size 15 to 20)
#    0.000    0.000    5.000    3.000   10.500    0.000 
#    0.000    0.000    0.000    0.000    0.000    0.000 
#    0.000    0.000    0.000    0.000    0.000    0.000 
#
# Total GULP energy -89375.879165 kJ/mol
# GULP energy per Si atom -5585.992448 kJ/mol
# Density = 2.471766 g / cm^3
# Si number density = 24.774042 Si / 1000 Ang^3
#
#
#
# Elastic Constant Matrix: (Units=GPa)
#
#
# Indices 1 2 3 4 5 6 
#
# 1 108.5421 25.0966 35.1212 0.0000 -15.6324 0.0000
# 2 25.0966 58.8141 28.2049 0.0000 -6.5375 0.0000
# 3 35.1212 28.2049 110.0206 0.0000 -32.1261 0.0000
# 4 0.0000 0.0000 0.0000 43.7928 0.0000 -11.9151
# 5 -15.6324 -6.5375 -32.1261 0.0000 52.3627 0.0000
# 6 0.0000 0.0000 0.0000 -11.9151 0.0000 46.0553
#
#
#
# Elastic Compliance Matrix: (Units=1/GPa)
#
#
# Indices 1 2 3 4 5 6 
#
# 1 0.010929 -0.003459 -0.002163 0.000000 0.001504 0.000000
# 2 -0.003459 0.020506 -0.004516 0.000000 -0.001243 0.000000
# 3 -0.002163 -0.004516 0.012894 0.000000 0.006701 0.000000
# 4 0.000000 0.000000 0.000000 0.024564 0.000000 0.006355
# 5 0.001504 -0.001243 0.006701 0.000000 0.023503 0.000000
# 6 0.000000 0.000000 0.000000 0.006355 0.000000 0.023357
#
#
# Mechanical properties :
#
#
# Convention : Reuss Voigt Hill
#
# Bulk Modulus (GPa) = 41.57318 50.46913 46.02116
# Shear Modulus (GPa) = 34.71087 41.03910 37.87498
#
# Velocity S-wave (km/s) = 3.74719 4.07447 3.91425
# Velocity P-wave (km/s) = 5.96148 6.52312 6.24861
#
# Compressibility (1/GPa) = 0.02405397
#
# Stress axis : x y z
#
# Youngs Moduli (GPa) = 91.49712 48.76582 77.55472
#
# Poissons Ratio (x) = 0.16869 0.16775
# Poissons Ratio (y) = 0.31651 0.35021
# Poissons Ratio (z) = 0.19790 0.22021
#
# Static dielectric constant tensor:
#      x y z
#    x 2.042830 0.000000 0.002990 
#    y 0.000000 2.117120 0.000000 
#    z 0.002990 0.000000 1.952530 
# 
# From -- ./inp_files/7289.got.cif
#   From: 2010.05.17/outbox.cif.g08.bks.cpg/sg4_4_cif.got.tgz:7289.got - 2010.06.03 18:43:04.
