data_PCOD9119201
_publ_section_title
;
Structure prediction by ZEFSAII (Michael W. Deem and Ramdas Pophale) SiO2 
 PCOD9119201
Probable space group: P 21
;
_chemical_formula_sum "Si O2"
_cell_formula_units_Z 16
_cell_length_a 5.543469
_cell_length_b 16.686153
_cell_length_c 7.350020
_cell_angle_alpha 90.000000
_cell_angle_beta 63.224024
_cell_angle_gamma 90.000000
_cell_volume 606.971479
_symmetry_space_group_name_H-M "P 21"
_symmetry_group_IT_number 4
_symmetry_cell_setting 'monoclinic'
loop_
_space_group_symop_operation_xyz
x,y,z
-x,1/2+y,-z
loop_
_atom_site_type_symbol
_atom_site_label
_atom_site_fract_x
_atom_site_fract_y
_atom_site_fract_z
Si Si1 0.604751 0.529460 0.231828
Si Si2 0.051274 0.650555 0.930712
Si Si3 0.393012 0.159207 0.358253
Si Si4 0.835004 0.160279 0.715655
Si Si5 0.212293 0.832137 0.257686
Si Si6 0.565382 0.490112 0.672989
Si Si7 0.261746 0.293805 0.143829
Si Si8 0.984957 0.909246 0.012210
O O1 0.339703 0.582538 0.275307
O O2 0.570434 0.505261 0.454687
O O3 0.855634 0.583284 0.074790
O O4 0.715643 0.448667 0.096816
O O5 0.220438 0.674830 0.052629
O O6 0.293031 0.643124 0.702032
O O7 0.866227 0.719329 0.918030
O O8 0.352681 0.249785 0.297682
O O9 0.156039 0.150873 0.584378
O O10 0.339829 0.074567 0.266566
O O11 0.791040 0.247196 0.635654
O O12 0.239255 0.915383 0.354302
O O13 0.984815 0.845927 0.180428
O O14 0.485361 0.823220 0.053807
O O15 0.267653 0.467485 0.852210
O O16 0.060199 0.367380 0.169175
#
# Coordination Sequence:
#
# PCOD9119201 Si02
#       8
#     2   2   2   2   2   2   2   2
#     4  12  27  47  76 105 148 202 249 303 377 447
#     4  12  23  48  72 104 145 195 246 297 365 451
#     4  12  26  44  75 110 144 197 248 305 366 452
#     4  12  27  46  75 108 148 196 253 305 369 449
#     4  11  25  49  70 106 152 196 245 316 368 447
#     4  11  28  44  71 113 148 193 252 307 373 437
#     4  11  24  47  75 106 146 195 248 300 379 436
#     4  11  26  49  74 104 157 192 245 319 373 439
#
# _framework density 26.360381
#
# number of rings (size 3 to 8) (size 9 to 14) (size 15 to 20)
#    0.000    0.500    6.250    0.000    8.750    0.000 
#    4.500    0.000    0.000    0.000    0.000    0.000 
#    0.000    0.000    0.000    0.000    0.000    0.000 
#
# Total GULP energy -89184.755157 kJ/mol
# GULP energy per Si atom -5574.047197 kJ/mol
# Density = 2.630038 g / cm^3
# Si number density = 26.360381 Si / 1000 Ang^3
#
#
#
# Elastic Constant Matrix: (Units=GPa)
#
#
# Indices 1 2 3 4 5 6 
#
# 1 42.7961 1.5576 33.2176 0.0000 -15.7849 0.0000
# 2 1.5576 95.3397 38.7156 0.0000 -13.9848 0.0000
# 3 33.2176 38.7156 111.0896 0.0000 -18.6965 0.0000
# 4 0.0000 0.0000 0.0000 34.2047 0.0000 12.8281
# 5 -15.7849 -13.9848 -18.6965 0.0000 27.8071 0.0000
# 6 0.0000 0.0000 0.0000 12.8281 0.0000 42.5857
#
#
#
# Elastic Compliance Matrix: (Units=1/GPa)
#
#
# Indices 1 2 3 4 5 6 
#
# 1 0.037749 0.006217 -0.010511 0.000000 0.017488 0.000000
# 2 0.006217 0.013589 -0.005470 0.000000 0.006686 0.000000
# 3 -0.010511 -0.005470 0.014189 0.000000 0.000823 0.000000
# 4 0.000000 0.000000 0.000000 0.032959 0.000000 -0.009928
# 5 0.017488 0.006686 0.000823 0.000000 0.049805 0.000000
# 6 0.000000 0.000000 0.000000 -0.009928 0.000000 0.026473
#
#
# Mechanical properties :
#
#
# Convention : Reuss Voigt Hill
#
# Bulk Modulus (GPa) = 21.73923 44.02301 32.88112
# Shear Modulus (GPa) = 23.85213 32.63514 28.24363
#
# Velocity S-wave (km/s) = 3.01133 3.52239 3.27684
# Velocity P-wave (km/s) = 4.51173 5.76886 5.17858
#
# Compressibility (1/GPa) = 0.04599978
#
# Stress axis : x y z
#
# Youngs Moduli (GPa) = 26.49084 73.58902 70.47530
#
# Poissons Ratio (x) = -0.45748 0.74076
# Poissons Ratio (y) = -0.16469 0.38547
# Poissons Ratio (z) = 0.27844 0.40250
#
# Static dielectric constant tensor:
#      x y z
#    x 2.135020 0.000000 0.017810 
#    y 0.000000 2.212890 0.000000 
#    z 0.017810 0.000000 2.056490 
# 
# From -- ./inp_files/4920.got.cif
#   From: 2010.05.17/outbox.cif.g08.bks.cpg/sg4_3_cif.got.tgz:4920.got - 2010.06.03 18:43:04.
