data_PCOD9119358
_publ_section_title
;
Structure prediction by ZEFSAII (Michael W. Deem and Ramdas Pophale) SiO2 
 PCOD9119358
Probable space group: P 21
;
_chemical_formula_sum "Si O2"
_cell_formula_units_Z 12
_cell_length_a 12.239922
_cell_length_b 7.492003
_cell_length_c 6.703383
_cell_angle_alpha 90.000000
_cell_angle_beta 45.793892
_cell_angle_gamma 90.000000
_cell_volume 440.646785
_symmetry_space_group_name_H-M "P 21"
_symmetry_group_IT_number 4
_symmetry_cell_setting 'monoclinic'
loop_
_space_group_symop_operation_xyz
x,y,z
-x,1/2+y,-z
loop_
_atom_site_type_symbol
_atom_site_label
_atom_site_fract_x
_atom_site_fract_y
_atom_site_fract_z
Si Si1 0.510934 0.438050 0.819179
Si Si2 0.184589 0.904582 0.040123
Si Si3 0.967849 0.731670 0.542243
Si Si4 0.738063 0.915721 0.526478
Si Si5 0.586137 0.674800 0.397353
Si Si6 0.153928 0.822440 0.642124
O O1 0.479217 0.606990 0.714315
O O2 0.472467 0.272671 0.723549
O O3 0.693028 0.425737 0.625302
O O4 0.413046 0.435412 0.142673
O O5 0.105722 0.059312 0.267739
O O6 0.135474 0.728589 0.223994
O O7 0.346452 0.988204 0.776107
O O8 0.113605 0.886492 0.912187
O O9 0.009377 0.845828 0.685815
O O10 0.854574 0.812612 0.524311
O O11 0.800015 0.113938 0.405988
O O12 0.701818 0.803277 0.372397
#
# Coordination Sequence:
#
# PCOD9119358 Si02
#       6
#     2   2   2   2   2   2
#     4  11  25  47  74 110 150 199 253 309 375 457
#     4  11  28  46  74 107 154 195 253 308 376 444
#     4  12  27  48  76 110 149 200 251 316 369 455
#     4  12  26  46  79 107 153 198 252 312 381 446
#     4  11  26  46  76 109 153 199 252 315 375 451
#     4  11  28  47  75 113 149 201 249 316 378 451
#
# _framework density 27.232697000000002
#
# number of rings (size 3 to 8) (size 9 to 14) (size 15 to 20)
#    0.000    0.667    3.333    2.000    7.000    9.333 
#    3.000    0.000    0.000    0.000    0.000    0.000 
#    0.000    0.000    0.000    0.000    0.000    0.000 
#
# Total GULP energy -67178.562476 kJ/mol
# GULP energy per Si atom -5598.213540 kJ/mol
# Density = 2.717071 g / cm^3
# Si number density = 27.232697 Si / 1000 Ang^3
#
#
#
# Elastic Constant Matrix: (Units=GPa)
#
#
# Indices 1 2 3 4 5 6 
#
# 1 130.0612 35.8075 27.7392 0.0000 29.7982 0.0000
# 2 35.8075 96.5053 45.6457 0.0000 6.3100 0.0000
# 3 27.7392 45.6457 144.8486 0.0000 -12.9057 0.0000
# 4 0.0000 0.0000 0.0000 69.6326 0.0000 9.3936
# 5 29.7982 6.3100 -12.9057 0.0000 37.5325 0.0000
# 6 0.0000 0.0000 0.0000 9.3936 0.0000 50.6119
#
#
#
# Elastic Compliance Matrix: (Units=1/GPa)
#
#
# Indices 1 2 3 4 5 6 
#
# 1 0.010858 -0.002450 -0.002103 0.000000 -0.008932 0.000000
# 2 -0.002450 0.013185 -0.003827 0.000000 -0.001588 0.000000
# 3 -0.002103 -0.003827 0.008994 0.000000 0.005406 0.000000
# 4 0.000000 0.000000 0.000000 0.014730 0.000000 -0.002734
# 5 -0.008932 -0.001588 0.005406 0.000000 0.035861 0.000000
# 6 0.000000 0.000000 0.000000 -0.002734 0.000000 0.020266
#
#
# Mechanical properties :
#
#
# Convention : Reuss Voigt Hill
#
# Bulk Modulus (GPa) = 61.43741 65.53330 63.48535
# Shear Modulus (GPa) = 39.65731 49.03693 44.34712
#
# Velocity S-wave (km/s) = 3.82021 4.24803 4.03979
# Velocity P-wave (km/s) = 6.48597 6.94099 6.71734
#
# Compressibility (1/GPa) = 0.01627673
#
# Stress axis : x y z
#
# Youngs Moduli (GPa) = 92.09676 75.84233 111.18223
#
# Poissons Ratio (x) = 0.18582 0.23383
# Poissons Ratio (y) = 0.22564 0.42552
# Poissons Ratio (z) = 0.19369 0.29027
#
# Static dielectric constant tensor:
#      x y z
#    x 2.176130 0.000000 -0.095160 
#    y 0.000000 2.247060 0.000000 
#    z -0.095160 0.000000 2.113300 
# 
# From -- ./inp_files/3375.got.cif
#   From: 2010.05.17/outbox.cif.g08.bks.cpg/sg4_2_cif.got.tgz:3375.got - 2010.06.03 18:43:04.
