data_PCOD9119619
_publ_section_title
;
Structure prediction by ZEFSAII (Michael W. Deem and Ramdas Pophale) SiO2 
 PCOD9119619
Probable space group: P 21
;
_chemical_formula_sum "Si O2"
_cell_formula_units_Z 16
_cell_length_a 9.315221
_cell_length_b 12.554120
_cell_length_c 8.653913
_cell_angle_alpha 90.000000
_cell_angle_beta 45.679534
_cell_angle_gamma 90.000000
_cell_volume 724.047623
_symmetry_space_group_name_H-M "P 21"
_symmetry_group_IT_number 4
_symmetry_cell_setting 'monoclinic'
loop_
_space_group_symop_operation_xyz
x,y,z
-x,1/2+y,-z
loop_
_atom_site_type_symbol
_atom_site_label
_atom_site_fract_x
_atom_site_fract_y
_atom_site_fract_z
Si Si1 0.732358 0.103080 0.053637
Si Si2 0.679776 0.320236 0.278257
Si Si3 0.079614 0.429213 0.464844
Si Si4 0.099525 0.379596 0.096466
Si Si5 0.506631 0.517456 0.229629
Si Si6 0.304702 0.072496 0.239913
Si Si7 0.946164 0.711497 0.369184
Si Si8 0.668352 0.716067 0.284087
O O1 0.734953 0.206010 0.161451
O O2 0.503456 0.071574 0.193896
O O3 0.848710 0.146814 0.812634
O O4 0.837620 0.993593 0.024520
O O5 0.608008 0.406488 0.206434
O O6 0.493356 0.298098 0.528470
O O7 0.867548 0.362668 0.232084
O O8 0.140073 0.390018 0.248111
O O9 0.269379 0.496381 0.384974
O O10 0.032673 0.336397 0.622826
O O11 0.866806 0.486148 0.601907
O O12 0.215306 0.279422 0.936913
O O13 0.556918 0.609564 0.313952
O O14 0.612166 0.558146 0.993953
O O15 0.182573 0.176244 0.385698
O O16 0.819395 0.689265 0.310004
#
# Coordination Sequence:
#
# PCOD9119619 Si02
#       8
#     2   2   2   2   2   2   2   2
#     4  12  25  49  73 111 156 196 253 310 381 448
#     4  12  28  46  80 110 154 204 246 321 376 454
#     4  12  27  49  77 112 153 201 254 312 381 457
#     4  12  28  48  76 118 150 196 259 314 380 456
#     4  12  27  50  74 118 150 198 262 308 385 455
#     4  12  25  47  79 106 149 206 239 322 373 448
#     4  12  24  51  74 110 153 203 253 311 382 447
#     4  12  28  46  81 111 151 204 252 316 380 453
#
# _framework density 22.097995000000001
#
# number of rings (size 3 to 8) (size 9 to 14) (size 15 to 20)
#    0.000    0.000    6.250    2.250    3.500    3.000 
#    0.000    0.000    0.000    0.000    0.000    0.000 
#    0.000    0.000    0.000    0.000    0.000    0.000 
#
# Total GULP energy -89490.099798 kJ/mol
# GULP energy per Si atom -5593.131237 kJ/mol
# Density = 2.204770 g / cm^3
# Si number density = 22.097995 Si / 1000 Ang^3
#
#
#
# Elastic Constant Matrix: (Units=GPa)
#
#
# Indices 1 2 3 4 5 6 
#
# 1 82.3559 54.4076 22.6225 0.0000 -8.8695 0.0000
# 2 54.4076 108.8783 20.2865 0.0000 -8.3626 0.0000
# 3 22.6225 20.2865 84.0407 0.0000 -23.5987 0.0000
# 4 0.0000 0.0000 0.0000 36.5630 0.0000 11.7849
# 5 -8.8695 -8.3626 -23.5987 0.0000 34.2184 0.0000
# 6 0.0000 0.0000 0.0000 11.7849 0.0000 28.4155
#
#
#
# Elastic Compliance Matrix: (Units=1/GPa)
#
#
# Indices 1 2 3 4 5 6 
#
# 1 0.018808 -0.008831 -0.002689 0.000000 0.000862 0.000000
# 2 -0.008831 0.013788 -0.000803 0.000000 0.000527 0.000000
# 3 -0.002689 -0.000803 0.015584 0.000000 0.009854 0.000000
# 4 0.000000 0.000000 0.000000 0.031570 0.000000 -0.013093
# 5 0.000862 0.000527 0.009854 0.000000 0.036372 0.000000
# 6 0.000000 0.000000 0.000000 -0.013093 0.000000 0.040622
#
#
# Mechanical properties :
#
#
# Convention : Reuss Voigt Hill
#
# Bulk Modulus (GPa) = 42.49359 52.21200 47.35279
# Shear Modulus (GPa) = 26.42206 31.70327 29.06267
#
# Velocity S-wave (km/s) = 3.46161 3.79181 3.63046
# Velocity P-wave (km/s) = 5.93703 6.54593 6.24890
#
# Compressibility (1/GPa) = 0.02353296
#
# Stress axis : x y z
#
# Youngs Moduli (GPa) = 53.16790 72.52785 64.16958
#
# Poissons Ratio (x) = 0.64053 0.17255
# Poissons Ratio (y) = 0.46955 0.05153
# Poissons Ratio (z) = 0.14297 0.05824
#
# Static dielectric constant tensor:
#      x y z
#    x 1.783040 0.000000 0.020690 
#    y 0.000000 1.824980 0.000000 
#    z 0.020690 0.000000 1.825280 
# 
# From -- ./inp_files/6342.got.cif
#   From: 2010.05.17/outbox.cif.g08.bks.cpg/sg4_4_cif.got.tgz:6342.got - 2010.06.03 18:43:04.
