data_PCOD9119751
_publ_section_title
;
Structure prediction by ZEFSAII (Michael W. Deem and Ramdas Pophale) SiO2 
 PCOD9119751
Probable space group: P 21
;
_chemical_formula_sum "Si O2"
_cell_formula_units_Z 16
_cell_length_a 9.421105
_cell_length_b 8.145974
_cell_length_c 9.703898
_cell_angle_alpha 90.000000
_cell_angle_beta 122.366190
_cell_angle_gamma 90.000000
_cell_volume 629.020459
_symmetry_space_group_name_H-M "P 21"
_symmetry_group_IT_number 4
_symmetry_cell_setting 'monoclinic'
loop_
_space_group_symop_operation_xyz
x,y,z
-x,1/2+y,-z
loop_
_atom_site_type_symbol
_atom_site_label
_atom_site_fract_x
_atom_site_fract_y
_atom_site_fract_z
Si Si1 0.761919 0.928360 0.950595
Si Si2 0.509993 0.284886 0.618133
Si Si3 0.065710 0.316958 0.712630
Si Si4 0.345419 0.778127 0.037237
Si Si5 0.210067 0.064335 0.561335
Si Si6 0.572211 0.268490 0.222097
Si Si7 0.988169 0.488196 0.162932
Si Si8 0.701553 0.063986 0.531395
O O1 0.798071 0.921015 0.133146
O O2 0.685510 0.109290 0.898452
O O3 0.620444 0.798146 0.832596
O O4 0.920377 0.938190 0.931045
O O5 0.349444 0.165093 0.548321
O O6 0.667917 0.214596 0.617194
O O7 0.441401 0.438868 0.499253
O O8 0.548444 0.363236 0.788233
O O9 0.121602 0.199630 0.615502
O O10 0.923228 0.447353 0.589745
O O11 0.039956 0.182324 0.824906
O O12 0.436934 0.735464 0.944316
O O13 0.178378 0.880437 0.916875
O O14 0.322862 0.937110 0.707371
O O15 0.674312 0.139570 0.367406
O O16 0.125628 0.467261 0.355840
#
# Coordination Sequence:
#
# PCOD9119751 Si02
#       8
#     2   2   2   2   2   2   2   2
#     4  12  28  49  76 114 160 209 263 334 405 486
#     4  12  28  51  81 113 159 212 270 331 407 491
#     4  12  30  47  78 116 159 206 271 336 405 488
#     4  12  28  49  79 114 157 208 263 332 399 487
#     4  12  27  52  78 116 156 209 269 331 409 483
#     4  12  27  51  78 112 157 209 271 326 400 484
#     4  12  26  51  74 113 155 207 266 328 410 476
#     4  12  28  50  80 114 155 214 269 334 403 489
#
# _framework density 25.436375000000002
#
# number of rings (size 3 to 8) (size 9 to 14) (size 15 to 20)
#    0.000    0.000    5.000    3.000   10.500    0.000 
#    0.000    0.000    0.000    0.000    0.000    0.000 
#    0.000    0.000    0.000    0.000    0.000    0.000 
#
# Total GULP energy -89374.368491 kJ/mol
# GULP energy per Si atom -5585.898031 kJ/mol
# Density = 2.537848 g / cm^3
# Si number density = 25.436375 Si / 1000 Ang^3
#
#
#
# Elastic Constant Matrix: (Units=GPa)
#
#
# Indices 1 2 3 4 5 6 
#
# 1 100.6537 27.4640 26.9552 0.0000 -5.4886 0.0000
# 2 27.4640 42.9350 11.5148 0.0000 6.8555 0.0000
# 3 26.9552 11.5148 88.5923 0.0000 6.0667 0.0000
# 4 0.0000 0.0000 0.0000 48.9115 0.0000 1.1904
# 5 -5.4886 6.8555 6.0667 0.0000 40.1175 0.0000
# 6 0.0000 0.0000 0.0000 1.1904 0.0000 37.2848
#
#
#
# Elastic Compliance Matrix: (Units=1/GPa)
#
#
# Indices 1 2 3 4 5 6 
#
# 1 0.013233 -0.008193 -0.003215 0.000000 0.003697 0.000000
# 2 -0.008193 0.029757 -0.000960 0.000000 -0.006061 0.000000
# 3 -0.003215 -0.000960 0.012539 0.000000 -0.002172 0.000000
# 4 0.000000 0.000000 0.000000 0.020461 0.000000 -0.000653
# 5 0.003697 -0.006061 -0.002172 0.000000 0.026797 0.000000
# 6 0.000000 0.000000 0.000000 -0.000653 0.000000 0.026841
#
#
# Mechanical properties :
#
#
# Convention : Reuss Voigt Hill
#
# Bulk Modulus (GPa) = 32.47324 40.44988 36.46156
# Shear Modulus (GPa) = 30.37166 36.34591 33.35878
#
# Velocity S-wave (km/s) = 3.45921 3.78417 3.62534
# Velocity P-wave (km/s) = 5.36182 5.91863 5.64709
#
# Compressibility (1/GPa) = 0.03079459
#
# Stress axis : x y z
#
# Youngs Moduli (GPa) = 75.56909 33.60580 79.74976
#
# Poissons Ratio (x) = 0.27532 0.25636
# Poissons Ratio (y) = 0.61912 0.07655
# Poissons Ratio (z) = 0.24292 0.03226
#
# Static dielectric constant tensor:
#      x y z
#    x 2.021080 0.000000 0.049750 
#    y 0.000000 2.071090 0.000000 
#    z 0.049750 0.000000 2.059930 
# 
# From -- ./inp_files/5862.got.cif
#   From: 2010.05.17/outbox.cif.g08.bks.cpg/sg4_3_cif.got.tgz:5862.got - 2010.06.03 18:43:04.
