data_PCOD9119744
_publ_section_title
;
Structure prediction by ZEFSAII (Michael W. Deem and Ramdas Pophale) SiO2 
 PCOD9119744
Probable space group: P 21
;
_chemical_formula_sum "Si O2"
_cell_formula_units_Z 14
_cell_length_a 9.294772
_cell_length_b 8.624916
_cell_length_c 11.447213
_cell_angle_alpha 90.000000
_cell_angle_beta 144.139278
_cell_angle_gamma 90.000000
_cell_volume 537.595077
_symmetry_space_group_name_H-M "P 21"
_symmetry_group_IT_number 4
_symmetry_cell_setting 'monoclinic'
loop_
_space_group_symop_operation_xyz
x,y,z
-x,1/2+y,-z
loop_
_atom_site_type_symbol
_atom_site_label
_atom_site_fract_x
_atom_site_fract_y
_atom_site_fract_z
Si Si1 0.097961 0.615660 0.476592
Si Si2 0.680925 0.791967 0.339521
Si Si3 0.466227 0.801018 0.836523
Si Si4 0.506020 0.308195 0.532517
Si Si5 0.181399 0.093424 0.217479
Si Si6 0.301684 0.628846 0.956940
Si Si7 0.979679 0.628763 0.139882
O O1 0.224040 0.465472 0.615145
O O2 0.291775 0.759366 0.611290
O O3 0.866308 0.679857 0.394292
O O4 0.021713 0.559140 0.296790
O O5 0.644530 0.761866 0.451098
O O6 0.413371 0.763717 0.111241
O O7 0.527391 0.976267 0.914137
O O8 0.325399 0.707337 0.846507
O O9 0.733063 0.727654 0.996029
O O10 0.311357 0.262392 0.304803
O O11 0.588987 0.485730 0.595902
O O12 0.771108 0.226323 0.711113
O O13 0.075932 0.048296 0.021033
O O14 0.963270 0.085505 0.167435
#
# Coordination Sequence:
#
# PCOD9119744 Si02
#       7
#     2   2   2   2   2   2   2
#     4  12  28  50  82 121 161 218 274 339 406 482
#     4  12  26  52  81 118 162 213 277 332 405 482
#     4  12  26  49  81 120 162 214 274 338 400 488
#     4  12  27  51  83 117 160 214 269 333 409 485
#     4  12  29  54  82 120 164 215 269 336 414 486
#     4  12  26  53  83 118 165 216 271 341 408 482
#     4  12  26  51  80 118 168 208 268 339 406 485
#
# _framework density 26.041902
#
# number of rings (size 3 to 8) (size 9 to 14) (size 15 to 20)
#    0.000    0.000    4.286    5.143    0.000    5.714 
#   10.286    0.000    0.000    1.714    0.000    0.000 
#    0.000    0.000    0.000    0.000    0.000    0.000 
#
# Total GULP energy -78374.981908 kJ/mol
# GULP energy per Si atom -5598.212993 kJ/mol
# Density = 2.598263 g / cm^3
# Si number density = 26.041902 Si / 1000 Ang^3
#
#
#
# Elastic Constant Matrix: (Units=GPa)
#
#
# Indices 1 2 3 4 5 6 
#
# 1 176.5751 37.2643 40.6832 0.0000 12.5455 0.0000
# 2 37.2643 70.1480 50.1129 0.0000 -2.4208 0.0000
# 3 40.6832 50.1129 135.4832 0.0000 0.2332 0.0000
# 4 0.0000 0.0000 0.0000 49.9485 0.0000 11.2674
# 5 12.5455 -2.4208 0.2332 0.0000 40.0985 0.0000
# 6 0.0000 0.0000 0.0000 11.2674 0.0000 18.0805
#
#
#
# Elastic Compliance Matrix: (Units=1/GPa)
#
#
# Indices 1 2 3 4 5 6 
#
# 1 0.006658 -0.002975 -0.000895 0.000000 -0.002257 0.000000
# 2 -0.002975 0.020764 -0.006791 0.000000 0.002224 0.000000
# 3 -0.000895 -0.006791 0.010162 0.000000 -0.000189 0.000000
# 4 0.000000 0.000000 0.000000 0.023295 0.000000 -0.014517
# 5 -0.002257 0.002224 -0.000189 0.000000 0.025780 0.000000
# 6 0.000000 0.000000 0.000000 -0.014517 0.000000 0.064355
#
#
# Mechanical properties :
#
#
# Convention : Reuss Voigt Hill
#
# Bulk Modulus (GPa) = 61.49339 70.92523 66.20931
# Shear Modulus (GPa) = 28.12835 38.56857 33.34846
#
# Velocity S-wave (km/s) = 3.29008 3.85258 3.58239
# Velocity P-wave (km/s) = 6.17231 6.86178 6.52615
#
# Compressibility (1/GPa) = 0.01626191
#
# Stress axis : x y z
#
# Youngs Moduli (GPa) = 150.19983 48.16000 98.40847
#
# Poissons Ratio (x) = 0.14330 0.08805
# Poissons Ratio (y) = 0.44692 0.66826
# Poissons Ratio (z) = 0.13439 0.32704
#
# Static dielectric constant tensor:
#      x y z
#    x 2.067990 0.000000 -0.093600 
#    y 0.000000 2.099020 0.000000 
#    z -0.093600 0.000000 2.042310 
# 
# From -- ./inp_files/11097.got.cif
#   From: 2010.05.17/outbox.cif.g08.bks.cpg/sg4_6_cif.got.tgz:11097.got - 2010.06.03 18:43:04.
