data_PCOD9119905
_publ_section_title
;
Structure prediction by ZEFSAII (Michael W. Deem and Ramdas Pophale) SiO2 
 PCOD9119905
Probable space group: P 21
;
_chemical_formula_sum "Si O2"
_cell_formula_units_Z 16
_cell_length_a 12.000000
_cell_length_b 6.000000
_cell_length_c 27.000000
_cell_angle_alpha 90.000000
_cell_angle_beta 160.000000
_cell_angle_gamma 90.000000
_cell_volume 664.887159
_symmetry_space_group_name_H-M "P 21"
_symmetry_group_IT_number 4
_symmetry_cell_setting 'monoclinic'
loop_
_space_group_symop_operation_xyz
x,y,z
-x,1/2+y,-z
loop_
_atom_site_type_symbol
_atom_site_label
_atom_site_fract_x
_atom_site_fract_y
_atom_site_fract_z
Si Si1 0.252091 0.754200 0.036536
Si Si2 0.158607 0.631119 0.183409
Si Si3 0.160439 0.671576 0.557480
Si Si4 0.303701 0.969395 0.158823
Si Si5 0.467192 0.237572 0.013545
Si Si6 0.322411 0.630086 0.508601
Si Si7 0.823699 0.537221 0.221512
Si Si8 0.595076 0.127621 0.610357
O O1 0.392419 0.902403 0.140131
O O2 0.487714 0.666477 0.091913
O O3 0.063478 0.561018 0.987862
O O4 0.990313 0.904659 0.898935
O O5 0.302892 0.768802 0.198243
O O6 0.409219 0.602805 0.332097
O O7 0.861702 0.741727 0.091113
O O8 0.451602 0.653230 0.718619
O O9 0.283004 0.648405 0.551509
O O10 0.983307 0.425662 0.494664
O O11 0.747559 0.286250 0.171606
O O12 0.488566 0.483780 0.991939
O O13 0.498448 0.394032 0.566310
O O14 0.981086 0.575503 0.340386
O O15 0.443270 0.872765 0.536266
O O16 0.072503 0.624277 0.283371
#
# Coordination Sequence:
#
# PCOD9119905 Si02
#       8
#     2   2   2   2   2   2   2   2
#     4  12  27  49  74 117 151 209 252 337 390 470
#     4  12  26  45  78 106 153 202 253 315 397 464
#     4  12  28  49  81 111 152 205 258 316 380 466
#     4  12  26  48  78 109 159 198 263 317 404 461
#     4  12  27  45  73 115 150 197 249 318 386 459
#     4  12  28  52  74 115 153 204 262 316 393 450
#     4  12  28  48  80 110 159 196 269 316 387 466
#     4  12  28  48  80 109 155 209 252 323 383 470
#
# _framework density 24.064233999999999
#
# number of rings (size 3 to 8) (size 9 to 14) (size 15 to 20)
#    0.000    0.000    5.000    3.750    3.500    4.000 
#    0.000    0.000    0.000    0.000    0.000    0.000 
#    0.000    0.000    0.000    0.000    0.000    0.000 
#
# Total GULP energy -89116.298151 kJ/mol
# GULP energy per Si atom -5569.768634 kJ/mol
# Density = 2.400946 g / cm^3
# Si number density = 24.064234 Si / 1000 Ang^3
#
#
#
# Elastic Constant Matrix: (Units=GPa)
#
#
# Indices 1 2 3 4 5 6 
#
# 1 85.9793 32.3485 -16.0050 0.0000 11.0364 0.0000
# 2 32.3485 156.6965 41.0114 0.0000 17.3364 0.0000
# 3 -16.0050 41.0114 14.0498 -0.0002 11.0670 -0.0001
# 4 0.0000 0.0000 -0.0002 43.0997 0.0000 13.1760
# 5 11.0364 17.3364 11.0670 0.0000 37.2396 0.0000
# 6 0.0000 0.0000 -0.0001 13.1760 0.0000 43.4479
#
#
#
# Elastic Compliance Matrix: (Units=1/GPa)
#
#
# Indices 1 2 3 4 5 6 
#
# 1 -0.004182 0.013133 -0.051259 0.000000 0.010359 0.000000
# 2 0.013133 -0.006913 0.046572 0.000000 -0.014514 0.000000
# 3 -0.051259 0.046572 -0.154128 -0.000001 0.039315 0.000000
# 4 0.000000 0.000000 -0.000001 0.025573 0.000000 -0.007755
# 5 0.010359 -0.014514 0.039315 0.000000 0.018856 0.000000
# 6 0.000000 0.000000 0.000000 -0.007755 0.000000 0.025368
#
#
# Mechanical properties :
#
#
# Convention : Reuss Voigt Hill
#
# Bulk Modulus (GPa) = -6.74163 41.27061 17.26449
# Shear Modulus (GPa) = -30.90991 38.04881 3.56945
#
# Velocity S-wave (km/s) = -3.58785 3.98066 1.21923
# Velocity P-wave (km/s) = 4.46891 6.18991 3.02852
#
# Compressibility (1/GPa) = -0.14833204
#
# Stress axis : x y z
#
# Youngs Moduli (GPa) = -239.12268 -144.66444 -6.48810
#
# Poissons Ratio (x) = 1.89989 -0.33257
# Poissons Ratio (y) = 3.14042 0.30216
# Poissons Ratio (z) = -12.25724 6.73725
#
# Static dielectric constant tensor:
#      x y z
#    x 1.877640 0.000000 -0.050230 
#    y 0.000000 1.982980 0.000000 
#    z -0.050230 0.000000 2.150760 
# 
# From -- ./inp_files/16367.got.cif
#   From: 2010.05.17/outbox.ucp.g08.bks.cvg/sg4_9_cif.got.tgz:16367.got - 2010.06.11 12:51:24.
