data_PCOD9119421
_publ_section_title
;
Structure prediction by ZEFSAII (Michael W. Deem and Ramdas Pophale) SiO2 
 PCOD9119421
Probable space group: P 21
;
_chemical_formula_sum "Si O2"
_cell_formula_units_Z 16
_cell_length_a 23.630867
_cell_length_b 5.174654
_cell_length_c 29.371713
_cell_angle_alpha 90.000000
_cell_angle_beta 169.451825
_cell_angle_gamma 90.000000
_cell_volume 657.489635
_symmetry_space_group_name_H-M "P 21"
_symmetry_group_IT_number 4
_symmetry_cell_setting 'monoclinic'
loop_
_space_group_symop_operation_xyz
x,y,z
-x,1/2+y,-z
loop_
_atom_site_type_symbol
_atom_site_label
_atom_site_fract_x
_atom_site_fract_y
_atom_site_fract_z
Si Si1 0.064554 0.768000 0.874518
Si Si2 0.726795 0.013483 0.416593
Si Si3 0.403367 0.377297 0.098112
Si Si4 0.173238 0.588628 0.395947
Si Si5 0.354272 0.888580 0.873662
Si Si6 0.795049 0.652779 0.336494
Si Si7 0.355146 0.226126 0.378293
Si Si8 0.798866 0.690861 0.839637
O O1 0.907244 0.837381 0.797134
O O2 0.154667 0.471046 0.938855
O O3 0.879810 0.857218 0.683216
O O4 0.400115 0.891473 0.145770
O O5 0.689610 0.261121 0.353460
O O6 0.768649 0.043966 0.504148
O O7 0.013007 0.854072 0.623577
O O8 0.553411 0.598862 0.185525
O O9 0.166544 0.221888 0.877892
O O10 0.494304 0.716824 0.630533
O O11 0.360467 0.057829 0.832698
O O12 0.491970 0.608191 0.972956
O O13 0.927553 0.940972 0.439972
O O14 0.534051 0.481680 0.504850
O O15 0.290844 0.081973 0.280713
O O16 0.032657 0.462100 0.039051
#
# Coordination Sequence:
#
# PCOD9119421 Si02
#       8
#     2   2   2   2   2   2   2   2
#     4  11  26  45  76 105 143 195 242 304 367 433
#     4  11  26  48  71 106 145 189 244 299 366 437
#     4  11  26  45  76 105 143 195 242 304 367 433
#     4  11  26  48  71 106 145 189 244 299 366 437
#     4  12  27  46  72 106 144 191 242 299 365 433
#     4  12  25  47  73 104 149 190 243 303 364 439
#     4  12  25  47  73 104 149 190 243 303 364 439
#     4  12  27  46  72 106 144 191 242 299 365 433
#
# _framework density 24.334983000000001
#
# number of rings (size 3 to 8) (size 9 to 14) (size 15 to 20)
#    0.000    0.500    2.500    4.500   10.500    1.000 
#    0.000    0.000    0.000    0.000    0.000    0.000 
#    0.000    0.000    0.000    0.000    0.000    0.000 
#
# Total GULP energy -89183.098657 kJ/mol
# GULP energy per Si atom -5573.943666 kJ/mol
# Density = 2.427960 g / cm^3
# Si number density = 24.334983 Si / 1000 Ang^3
#
#
#
# Elastic Constant Matrix: (Units=GPa)
#
#
# Indices 1 2 3 4 5 6 
#
# 1 116.7626 -14.3471 25.5531 0.0000 -9.9787 0.0000
# 2 -14.3471 77.3824 34.2391 0.0000 5.7152 0.0000
# 3 25.5531 34.2391 92.1391 0.0000 12.3532 0.0000
# 4 0.0000 0.0000 0.0000 25.8546 0.0000 3.4642
# 5 -9.9787 5.7152 12.3532 0.0000 59.9748 0.0000
# 6 0.0000 0.0000 0.0000 3.4642 0.0000 26.5136
#
#
#
# Elastic Compliance Matrix: (Units=1/GPa)
#
#
# Indices 1 2 3 4 5 6 
#
# 1 0.010205 0.003724 -0.004519 0.000000 0.002274 0.000000
# 2 0.003724 0.016830 -0.007358 0.000000 0.000531 0.000000
# 3 -0.004519 -0.007358 0.015269 0.000000 -0.003196 0.000000
# 4 0.000000 0.000000 0.000000 0.039367 0.000000 -0.005144
# 5 0.002274 0.000531 -0.003196 0.000000 0.017660 0.000000
# 6 0.000000 0.000000 0.000000 -0.005144 0.000000 0.038389
#
#
# Mechanical properties :
#
#
# Convention : Reuss Voigt Hill
#
# Bulk Modulus (GPa) = 38.46497 41.90825 40.18661
# Shear Modulus (GPa) = 30.73319 38.52455 34.62887
#
# Velocity S-wave (km/s) = 3.55762 3.98313 3.77637
# Velocity P-wave (km/s) = 5.71982 6.19778 5.96359
#
# Compressibility (1/GPa) = 0.02599768
#
# Stress axis : x y z
#
# Youngs Moduli (GPa) = 97.98978 59.41937 65.49238
#
# Poissons Ratio (x) = -0.22125 0.29594
# Poissons Ratio (y) = -0.36487 0.48188
# Poissons Ratio (z) = 0.44279 0.43719
#
# Static dielectric constant tensor:
#      x y z
#    x 1.900220 0.000000 -0.039070 
#    y 0.000000 2.101000 0.000000 
#    z -0.039070 0.000000 1.999920 
# 
# From -- ./inp_files/14060.got.cif
#   From: 2010.05.17/outbox.cif.g08.bks.cpg/sg4_8_cif.got.tgz:14060.got - 2010.06.03 18:43:04.
