data_PCOD9119648
_publ_section_title
;
Structure prediction by ZEFSAII (Michael W. Deem and Ramdas Pophale) SiO2 
 PCOD9119648
Probable space group: P 21
;
_chemical_formula_sum "Si O2"
_cell_formula_units_Z 14
_cell_length_a 14.460486
_cell_length_b 5.538673
_cell_length_c 9.982923
_cell_angle_alpha 90.000000
_cell_angle_beta 45.470736
_cell_angle_gamma 90.000000
_cell_volume 569.994020
_symmetry_space_group_name_H-M "P 21"
_symmetry_group_IT_number 4
_symmetry_cell_setting 'monoclinic'
loop_
_space_group_symop_operation_xyz
x,y,z
-x,1/2+y,-z
loop_
_atom_site_type_symbol
_atom_site_label
_atom_site_fract_x
_atom_site_fract_y
_atom_site_fract_z
Si Si1 0.491729 0.826760 0.429240
Si Si2 0.927025 0.537579 0.052269
Si Si3 0.113292 0.974144 0.215631
Si Si4 0.739944 0.499976 0.474613
Si Si5 0.157320 0.681295 0.418163
Si Si6 0.416768 0.385307 0.202508
Si Si7 0.369974 0.224287 0.962938
O O1 0.515791 0.578134 0.483109
O O2 0.351723 0.798216 0.499767
O O3 0.601466 0.857473 0.203616
O O4 0.818310 0.609390 0.271186
O O5 0.881201 0.462683 0.950137
O O6 0.989400 0.285562 0.044343
O O7 0.968323 0.034793 0.409744
O O8 0.152768 0.747972 0.266909
O O9 0.220431 0.176069 0.144238
O O10 0.839123 0.415243 0.488631
O O11 0.639432 0.670686 0.652040
O O12 0.293647 0.561753 0.314795
O O13 0.549644 0.474966 0.132698
O O14 0.440047 0.326532 0.022991
#
# Coordination Sequence:
#
# PCOD9119648 Si02
#       7
#     2   2   2   2   2   2   2
#     4  12  28  50  77 114 161 211 265 328 402 483
#     4  12  29  50  79 114 160 211 264 327 402 482
#     4  12  27  48  77 119 151 204 275 329 399 477
#     4  12  26  51  78 109 162 215 259 333 407 480
#     4  12  26  50  76 113 159 207 263 337 407 472
#     4  12  25  49  80 114 159 207 266 329 418 471
#     4  12  25  46  77 117 150 203 270 333 391 485
#
# _framework density 24.561662999999999
#
# number of rings (size 3 to 8) (size 9 to 14) (size 15 to 20)
#    0.000    0.000    4.286    5.143    2.000    4.571 
#    0.000    0.000    0.000    0.000    0.000    0.000 
#    0.000    0.000    0.000    0.000    0.000    0.000 
#
# Total GULP energy -78326.526513 kJ/mol
# GULP energy per Si atom -5594.751894 kJ/mol
# Density = 2.450576 g / cm^3
# Si number density = 24.561663 Si / 1000 Ang^3
#
#
#
# Elastic Constant Matrix: (Units=GPa)
#
#
# Indices 1 2 3 4 5 6 
#
# 1 93.0729 34.6484 16.0057 0.0000 13.6870 0.0000
# 2 34.6484 83.8562 30.3384 0.0000 14.9611 0.0000
# 3 16.0057 30.3384 129.6793 0.0000 15.3608 0.0000
# 4 0.0000 0.0000 0.0000 29.9594 0.0000 2.2638
# 5 13.6870 14.9611 15.3608 0.0000 51.4895 0.0000
# 6 0.0000 0.0000 0.0000 2.2638 0.0000 31.8037
#
#
#
# Elastic Compliance Matrix: (Units=1/GPa)
#
#
# Indices 1 2 3 4 5 6 
#
# 1 0.012891 -0.004903 -0.000214 0.000000 -0.001938 0.000000
# 2 -0.004903 0.015350 -0.002708 0.000000 -0.002349 0.000000
# 3 -0.000214 -0.002708 0.008574 0.000000 -0.001714 0.000000
# 4 0.000000 0.000000 0.000000 0.033559 0.000000 -0.002389
# 5 -0.001938 -0.002349 -0.001714 0.000000 0.021131 0.000000
# 6 0.000000 0.000000 0.000000 -0.002389 0.000000 0.031613
#
#
# Mechanical properties :
#
#
# Convention : Reuss Voigt Hill
#
# Bulk Modulus (GPa) = 47.24792 52.06592 49.65692
# Shear Modulus (GPa) = 34.28797 37.69160 35.98978
#
# Velocity S-wave (km/s) = 3.74036 3.92161 3.83205
# Velocity P-wave (km/s) = 6.15889 6.46138 6.31195
#
# Compressibility (1/GPa) = 0.02116496
#
# Stress axis : x y z
#
# Youngs Moduli (GPa) = 77.57052 65.14726 116.62746
#
# Poissons Ratio (x) = 0.31943 0.02501
# Poissons Ratio (y) = 0.38035 0.31579
# Poissons Ratio (z) = 0.01663 0.17640
#
# Static dielectric constant tensor:
#      x y z
#    x 1.944340 0.000000 -0.005520 
#    y 0.000000 2.098200 0.000000 
#    z -0.005520 0.000000 1.956720 
# 
# From -- ./inp_files/8750.got.cif
#   From: 2010.05.17/outbox.cif.g08.bks.cpg/sg4_5_cif.got.tgz:8750.got - 2010.06.03 18:43:04.
