data_PCOD9119753
_publ_section_title
;
Structure prediction by ZEFSAII (Michael W. Deem and Ramdas Pophale) SiO2 
 PCOD9119753
Probable space group: P 21
;
_chemical_formula_sum "Si O2"
_cell_formula_units_Z 8
_cell_length_a 9.062196
_cell_length_b 8.959212
_cell_length_c 4.964136
_cell_angle_alpha 90.000000
_cell_angle_beta 127.630792
_cell_angle_gamma 90.000000
_cell_volume 319.191320
_symmetry_space_group_name_H-M "P 21"
_symmetry_group_IT_number 4
_symmetry_cell_setting 'monoclinic'
loop_
_space_group_symop_operation_xyz
x,y,z
-x,1/2+y,-z
loop_
_atom_site_type_symbol
_atom_site_label
_atom_site_fract_x
_atom_site_fract_y
_atom_site_fract_z
Si Si1 0.245570 0.103120 0.198695
Si Si2 0.751548 0.829854 0.395257
Si Si3 0.129892 0.903431 0.552154
Si Si4 0.424165 0.648870 0.743079
O O1 0.209323 0.274281 0.256372
O O2 0.472373 0.109583 0.423732
O O3 0.135496 0.019186 0.314027
O O4 0.192015 0.000263 0.882862
O O5 0.940402 0.827671 0.437156
O O6 0.667030 0.994094 0.274571
O O7 0.596248 0.718835 0.101607
O O8 0.268773 0.775049 0.600774
#
# Coordination Sequence:
#
# PCOD9119753 Si02
#       4
#     2   2   2   2
#     4  12  26  53  75 118 157 212 266 330 400 473
#     4  12  27  51  82 117 166 210 271 329 406 482
#     4  12  29  51  80 116 161 212 272 329 402 479
#     4  12  26  51  79 117 162 212 263 334 398 482
#
# _framework density 25.063338000000002
#
# number of rings (size 3 to 8) (size 9 to 14) (size 15 to 20)
#    0.000    0.000    5.000    3.000    3.500    0.000 
#    0.000    0.000    0.000    0.000    0.000    0.000 
#    0.000    0.000    0.000    0.000    0.000    0.000 
#
# Total GULP energy -44647.426670 kJ/mol
# GULP energy per Si atom -5580.928334 kJ/mol
# Density = 2.500629 g / cm^3
# Si number density = 25.063338 Si / 1000 Ang^3
#
#
#
# Elastic Constant Matrix: (Units=GPa)
#
#
# Indices 1 2 3 4 5 6 
#
# 1 138.4388 -22.5336 19.0370 0.0000 3.9170 0.0000
# 2 -22.5336 108.1412 39.0147 0.0000 -3.2589 0.0000
# 3 19.0370 39.0147 33.9976 0.0000 -4.5303 0.0000
# 4 0.0000 0.0000 0.0000 22.4443 0.0000 3.3706
# 5 3.9170 -3.2589 -4.5303 0.0000 36.0995 0.0000
# 6 0.0000 0.0000 0.0000 3.3706 0.0000 76.3550
#
#
#
# Elastic Compliance Matrix: (Units=1/GPa)
#
#
# Indices 1 2 3 4 5 6 
#
# 1 0.010529 0.007445 -0.014749 0.000000 -0.002321 0.000000
# 2 0.007445 0.021071 -0.028683 0.000000 -0.002505 0.000000
# 3 -0.014749 -0.028683 0.071655 0.000000 0.008003 0.000000
# 4 0.000000 0.000000 0.000000 0.044852 0.000000 -0.001980
# 5 -0.002321 -0.002505 0.008003 0.000000 0.028731 0.000000
# 6 0.000000 0.000000 0.000000 -0.001980 0.000000 0.013184
#
#
# Mechanical properties :
#
#
# Convention : Reuss Voigt Hill
#
# Bulk Modulus (GPa) = 31.96818 39.06820 35.51819
# Shear Modulus (GPa) = 18.35374 43.31706 30.83540
#
# Velocity S-wave (km/s) = 2.70903 4.16180 3.51137
# Velocity P-wave (km/s) = 4.75055 6.22219 5.53550
#
# Compressibility (1/GPa) = 0.03128110
#
# Stress axis : x y z
#
# Youngs Moduli (GPa) = 94.97570 47.45796 13.95575
#
# Poissons Ratio (x) = -0.35332 0.20583
# Poissons Ratio (y) = -0.70709 0.40030
# Poissons Ratio (z) = 1.40076 1.36126
#
# Static dielectric constant tensor:
#      x y z
#    x 1.968230 0.000000 -0.050090 
#    y 0.000000 1.993250 0.000000 
#    z -0.050090 0.000000 2.205250 
# 
# From -- ./inp_files/888.got.cif
#   From: 2010.05.17/outbox.cif.g08.bks.cpg/sg4_1_cif.got.tgz:888.got - 2010.06.03 18:43:04.
