data_PCOD9119759
_publ_section_title
;
Structure prediction by ZEFSAII (Michael W. Deem and Ramdas Pophale) SiO2 
 PCOD9119759
Probable space group: P 21
;
_chemical_formula_sum "Si O2"
_cell_formula_units_Z 16
_cell_length_a 8.686861
_cell_length_b 8.513815
_cell_length_c 9.018922
_cell_angle_alpha 90.000000
_cell_angle_beta 72.780689
_cell_angle_gamma 90.000000
_cell_volume 637.127448
_symmetry_space_group_name_H-M "P 21"
_symmetry_group_IT_number 4
_symmetry_cell_setting 'monoclinic'
loop_
_space_group_symop_operation_xyz
x,y,z
-x,1/2+y,-z
loop_
_atom_site_type_symbol
_atom_site_label
_atom_site_fract_x
_atom_site_fract_y
_atom_site_fract_z
Si Si1 0.219767 0.964150 0.897250
Si Si2 0.239908 0.451978 0.152161
Si Si3 0.703154 0.663777 0.399078
Si Si4 0.946644 0.159765 0.012520
Si Si5 0.557475 0.418437 0.902100
Si Si6 0.797517 0.629614 0.708247
Si Si7 0.356395 0.665411 0.371489
Si Si8 0.134458 0.506085 0.671280
O O1 0.075722 0.843188 0.963779
O O2 0.261940 0.016682 0.720537
O O3 0.355007 0.892949 0.964561
O O4 0.134686 0.122518 0.978279
O O5 0.153392 0.302712 0.250132
O O6 0.346177 0.523570 0.256185
O O7 0.120613 0.585269 0.120773
O O8 0.369183 0.411709 0.987180
O O9 0.760151 0.625379 0.546255
O O10 0.511947 0.681248 0.431788
O O11 0.788542 0.832560 0.343969
O O12 0.845208 0.088082 0.176243
O O13 0.629119 0.586928 0.835842
O O14 0.622539 0.308914 0.750946
O O15 0.941860 0.507827 0.698876
O O16 0.210899 0.619288 0.523118
#
# Coordination Sequence:
#
# PCOD9119759 Si02
#       8
#     2   2   2   2   2   2   2   2
#     4  12  27  48  77 114 153 214 268 337 402 486
#     4  12  26  52  80 118 155 211 276 345 403 490
#     4  12  30  51  80 116 170 213 277 334 420 500
#     4  12  27  46  79 112 157 206 270 334 407 484
#     4  12  27  49  78 112 160 208 273 335 404 486
#     4  12  30  49  81 118 166 219 271 341 422 491
#     4  12  28  49  80 118 159 215 271 338 422 488
#     4  12  29  50  77 118 168 214 266 340 416 495
#
# _framework density 25.112718000000001
#
# number of rings (size 3 to 8) (size 9 to 14) (size 15 to 20)
#    0.000    0.000    5.000    3.000   10.500    0.000 
#    0.000    0.000    0.000    0.000    0.000    0.000 
#    0.000    0.000    0.000    0.000    0.000    0.000 
#
# Total GULP energy -89463.114815 kJ/mol
# GULP energy per Si atom -5591.444676 kJ/mol
# Density = 2.505556 g / cm^3
# Si number density = 25.112718 Si / 1000 Ang^3
#
#
#
# Elastic Constant Matrix: (Units=GPa)
#
#
# Indices 1 2 3 4 5 6 
#
# 1 95.5810 14.2485 19.2465 0.0000 8.8191 0.0000
# 2 14.2485 55.9073 9.7798 0.0000 8.5432 0.0000
# 3 19.2465 9.7798 120.0019 0.0000 17.6839 0.0000
# 4 0.0000 0.0000 0.0000 50.0216 0.0000 1.9017
# 5 8.8191 8.5432 17.6839 0.0000 44.1715 0.0000
# 6 0.0000 0.0000 0.0000 1.9017 0.0000 33.8682
#
#
#
# Elastic Compliance Matrix: (Units=1/GPa)
#
#
# Indices 1 2 3 4 5 6 
#
# 1 0.011222 -0.002427 -0.001425 0.000000 -0.001201 0.000000
# 2 -0.002427 0.019079 -0.000737 0.000000 -0.002911 0.000000
# 3 -0.001425 -0.000737 0.009095 0.000000 -0.003214 0.000000
# 4 0.000000 0.000000 0.000000 0.020034 0.000000 -0.001125
# 5 -0.001201 -0.002911 -0.003214 0.000000 0.024729 0.000000
# 6 0.000000 0.000000 0.000000 -0.001125 0.000000 0.029589
#
#
# Mechanical properties :
#
#
# Convention : Reuss Voigt Hill
#
# Bulk Modulus (GPa) = 33.09257 39.78222 36.43740
# Shear Modulus (GPa) = 37.59419 40.82659 39.21039
#
# Velocity S-wave (km/s) = 3.87333 4.03641 3.95571
# Velocity P-wave (km/s) = 5.76279 6.13183 5.95017
#
# Compressibility (1/GPa) = 0.03021826
#
# Stress axis : x y z
#
# Youngs Moduli (GPa) = 89.11144 52.41371 109.94474
#
# Poissons Ratio (x) = 0.12722 0.15668
# Poissons Ratio (y) = 0.21630 0.08099
# Poissons Ratio (z) = 0.12699 0.03861
#
# Static dielectric constant tensor:
#      x y z
#    x 1.988140 0.000000 0.001340 
#    y 0.000000 2.072470 0.000000 
#    z 0.001340 0.000000 2.024770 
# 
# From -- ./inp_files/5572.got.cif
#   From: 2010.05.17/outbox.cif.g08.bks.cpg/sg4_3_cif.got.tgz:5572.got - 2010.06.03 18:43:04.
