data_PCOD9119102
_publ_section_title
;
Structure prediction by ZEFSAII (Michael W. Deem and Ramdas Pophale) SiO2 
 PCOD9119102
Probable space group: P 21
;
_chemical_formula_sum "Si O2"
_cell_formula_units_Z 14
_cell_length_a 14.113645
_cell_length_b 8.689601
_cell_length_c 13.637921
_cell_angle_alpha 90.000000
_cell_angle_beta 20.434048
_cell_angle_gamma 90.000000
_cell_volume 583.946523
_symmetry_space_group_name_H-M "P 21"
_symmetry_group_IT_number 4
_symmetry_cell_setting 'monoclinic'
loop_
_space_group_symop_operation_xyz
x,y,z
-x,1/2+y,-z
loop_
_atom_site_type_symbol
_atom_site_label
_atom_site_fract_x
_atom_site_fract_y
_atom_site_fract_z
Si Si1 0.271577 0.685800 0.646460
Si Si2 0.495791 0.515721 0.617747
Si Si3 0.983376 0.755918 0.641529
Si Si4 0.258684 0.082112 0.938739
Si Si5 0.000967 0.521788 0.238822
Si Si6 0.226713 0.448956 0.331492
Si Si7 0.242456 0.817841 0.080740
O O1 0.381357 0.612759 0.639288
O O2 0.961137 0.643055 0.925903
O O3 0.345954 0.864964 0.573669
O O4 0.443071 0.614820 0.389737
O O5 0.736354 0.598929 0.445867
O O6 0.232975 0.469391 0.937062
O O7 0.804614 0.663209 0.895229
O O8 0.171394 0.633668 0.399187
O O9 0.123100 0.883604 0.575722
O O10 0.808114 0.863248 0.738728
O O11 0.224298 0.901119 0.992813
O O12 0.175947 0.640268 0.133039
O O13 0.988168 0.380750 0.626756
O O14 0.489541 0.380449 0.128227
#
# Coordination Sequence:
#
# PCOD9119102 Si02
#       7
#     2   2   2   2   2   2   2
#     4  12  25  46  69 105 137 189 239 305 365 438
#     4  12  27  44  72 105 139 194 238 306 370 444
#     4  11  24  48  73 109 148 195 247 307 371 444
#     4  11  24  44  73  96 148 188 240 297 368 437
#     4  12  26  45  72 104 149 188 247 298 371 441
#     4  11  26  44  74 108 147 195 244 307 365 440
#     4  11  26  45  69 109 142 199 241 300 362 444
#
# _framework density 23.974796000000001
#
# number of rings (size 3 to 8) (size 9 to 14) (size 15 to 20)
#    0.000    0.571    2.857    4.286    4.000    6.857 
#    0.000    0.000    0.000    0.000    0.000    0.000 
#    0.000    0.000    0.000    0.000    0.000    0.000 
#
# Total GULP energy -78281.746348 kJ/mol
# GULP energy per Si atom -5591.553311 kJ/mol
# Density = 2.392023 g / cm^3
# Si number density = 23.974796 Si / 1000 Ang^3
#
#
#
# Elastic Constant Matrix: (Units=GPa)
#
#
# Indices 1 2 3 4 5 6 
#
# 1 119.8760 51.9121 27.5843 0.0000 -25.1124 0.0000
# 2 51.9121 117.0061 23.0852 0.0000 -7.0572 0.0000
# 3 27.5843 23.0852 103.8932 0.0000 -28.5204 0.0000
# 4 0.0000 0.0000 0.0000 27.7444 0.0000 -1.1037
# 5 -25.1124 -7.0572 -28.5204 0.0000 32.9531 0.0000
# 6 0.0000 0.0000 0.0000 -1.1037 0.0000 45.2480
#
#
#
# Elastic Compliance Matrix: (Units=1/GPa)
#
#
# Indices 1 2 3 4 5 6 
#
# 1 0.012199 -0.004938 0.000157 0.000000 0.008375 0.000000
# 2 -0.004938 0.010939 -0.001980 0.000000 -0.003134 0.000000
# 3 0.000157 -0.001980 0.013038 0.000000 0.010980 0.000000
# 4 0.000000 0.000000 0.000000 0.036078 0.000000 0.000880
# 5 0.008375 -0.003134 0.010980 0.000000 0.045560 0.000000
# 6 0.000000 0.000000 0.000000 0.000880 0.000000 0.022122
#
#
# Mechanical properties :
#
#
# Convention : Reuss Voigt Hill
#
# Bulk Modulus (GPa) = 44.14211 60.65985 52.40098
# Shear Modulus (GPa) = 31.05439 37.06867 34.06153
#
# Velocity S-wave (km/s) = 3.60292 3.93638 3.77334
# Velocity P-wave (km/s) = 5.97996 6.78355 6.39439
#
# Compressibility (1/GPa) = 0.02265411
#
# Stress axis : x y z
#
# Youngs Moduli (GPa) = 81.97679 91.41552 76.70162
#
# Poissons Ratio (x) = 0.45142 -0.01208
# Poissons Ratio (y) = 0.40481 0.15186
# Poissons Ratio (z) = -0.01291 0.18100
#
# Static dielectric constant tensor:
#      x y z
#    x 1.957980 0.000000 0.016190 
#    y 0.000000 2.012190 0.000000 
#    z 0.016190 0.000000 1.837770 
# 
# From -- ./inp_files/3652.got.cif
#   From: 2010.05.17/outbox.cif.g08.bks.cpg/sg4_2_cif.got.tgz:3652.got - 2010.06.03 18:43:04.
