data_PCOD9119319
_publ_section_title
;
Structure prediction by ZEFSAII (Michael W. Deem and Ramdas Pophale) SiO2 
 PCOD9119319
Probable space group: P 21
;
_chemical_formula_sum "Si O2"
_cell_formula_units_Z 10
_cell_length_a 9.743816
_cell_length_b 8.603897
_cell_length_c 8.990377
_cell_angle_alpha 90.000000
_cell_angle_beta 150.536155
_cell_angle_gamma 90.000000
_cell_volume 370.728749
_symmetry_space_group_name_H-M "P 21"
_symmetry_group_IT_number 4
_symmetry_cell_setting 'monoclinic'
loop_
_space_group_symop_operation_xyz
x,y,z
-x,1/2+y,-z
loop_
_atom_site_type_symbol
_atom_site_label
_atom_site_fract_x
_atom_site_fract_y
_atom_site_fract_z
Si Si1 0.437833 0.331790 0.273114
Si Si2 0.115592 0.799591 0.070247
Si Si3 0.933513 0.881592 0.474378
Si Si4 0.117126 0.075672 0.403308
Si Si5 0.594807 0.514557 0.892789
O O1 0.159015 0.358026 0.104316
O O2 0.602092 0.486719 0.378099
O O3 0.380518 0.198087 0.098354
O O4 0.662140 0.248535 0.596743
O O5 0.014289 0.671085 0.856808
O O6 0.273080 0.934953 0.128057
O O7 0.858414 0.706207 0.444991
O O8 0.727647 0.979027 0.384774
O O9 0.925021 0.945395 0.299443
O O10 0.244448 0.923335 0.823893
#
# Coordination Sequence:
#
# PCOD9119319 Si02
#       5
#     2   2   2   2   2
#     4  12  26  47  77 109 150 203 256 313 378 451
#     4  11  26  45  74 111 153 197 251 315 379 452
#     4  11  26  47  74 108 151 198 251 314 378 449
#     4  11  27  49  77 112 153 199 255 314 379 451
#     4  11  25  46  70 106 149 197 251 310 378 449
#
# _framework density 26.973898999999999
#
# number of rings (size 3 to 8) (size 9 to 14) (size 15 to 20)
#    0.000    0.800    0.000    6.000    0.000   19.200 
#    0.000    0.000    0.000    0.000    0.000    0.000 
#    0.000    0.000    0.000    0.000    0.000    0.000 
#
# Total GULP energy -56114.649383 kJ/mol
# GULP energy per Si atom -5611.464938 kJ/mol
# Density = 2.691251 g / cm^3
# Si number density = 26.973899 Si / 1000 Ang^3
#
#
#
# Elastic Constant Matrix: (Units=GPa)
#
#
# Indices 1 2 3 4 5 6 
#
# 1 137.8434 71.9749 43.0455 0.0000 19.6007 0.0000
# 2 71.9749 166.5407 19.9511 0.0000 -0.6225 0.0000
# 3 43.0455 19.9511 81.2690 0.0000 15.8880 0.0000
# 4 0.0000 0.0000 0.0000 57.0454 0.0000 0.0719
# 5 19.6007 -0.6225 15.8880 0.0000 50.1320 0.0000
# 6 0.0000 0.0000 0.0000 0.0719 0.0000 52.0554
#
#
#
# Elastic Compliance Matrix: (Units=1/GPa)
#
#
# Indices 1 2 3 4 5 6 
#
# 1 0.011342 -0.004396 -0.004318 0.000000 -0.003121 0.000000
# 2 -0.004396 0.007907 0.000034 0.000000 0.001806 0.000000
# 3 -0.004318 0.000034 0.015195 0.000000 -0.003127 0.000000
# 4 0.000000 0.000000 0.000000 0.017530 0.000000 -0.000024
# 5 -0.003121 0.001806 -0.003127 0.000000 0.022181 0.000000
# 6 0.000000 0.000000 0.000000 -0.000024 0.000000 0.019210
#
#
# Mechanical properties :
#
#
# Convention : Reuss Voigt Hill
#
# Bulk Modulus (GPa) = 58.53471 72.84400 65.68935
# Shear Modulus (GPa) = 42.94764 48.55867 45.75315
#
# Velocity S-wave (km/s) = 3.99456 4.24749 4.12296
# Velocity P-wave (km/s) = 6.55919 7.14975 6.86082
#
# Compressibility (1/GPa) = 0.01708388
#
# Stress axis : x y z
#
# Youngs Moduli (GPa) = 88.16492 126.46805 65.81121
#
# Poissons Ratio (x) = 0.55598 0.28420
# Poissons Ratio (y) = 0.38759 -0.00226
# Poissons Ratio (z) = 0.38073 -0.00434
#
# Static dielectric constant tensor:
#      x y z
#    x 2.076090 0.000000 -0.117340 
#    y 0.000000 2.127650 0.000000 
#    z -0.117340 0.000000 2.090770 
# 
# From -- ./inp_files/11927.got.cif
#   From: 2010.05.17/outbox.cif.g08.bks.cpg/sg4_6_cif.got.tgz:11927.got - 2010.06.03 18:43:04.
