data_PCOD9119958
_publ_section_title
;
Structure prediction by ZEFSAII (Michael W. Deem and Ramdas Pophale) SiO2 
 PCOD9119958
Probable space group: C 2
;
_chemical_formula_sum "Si O2"
_cell_formula_units_Z 26
_cell_length_a 18.376541
_cell_length_b 5.388706
_cell_length_c 15.190291
_cell_angle_alpha 90.000000
_cell_angle_beta 128.763489
_cell_angle_gamma 90.000000
_cell_volume 1172.904226
_symmetry_space_group_name_H-M "C 2"
_symmetry_group_IT_number 5
_symmetry_cell_setting 'monoclinic'
loop_
_space_group_symop_operation_xyz
x,y,z
-x,y,-z
1/2+x,1/2+y,z
1/2-x,1/2+y,-z
loop_
_atom_site_type_symbol
_atom_site_label
_atom_site_fract_x
_atom_site_fract_y
_atom_site_fract_z
Si Si1 0.500000 0.924441 0.000000
Si Si2 0.155650 0.390091 0.622041
Si Si3 0.777407 0.570087 0.136571
Si Si4 0.836788 0.578645 0.991283
Si Si5 0.874984 0.335364 0.750122
Si Si6 0.841547 0.876353 0.435996
Si Si7 0.844730 0.847759 0.645895
O O1 0.434097 0.073154 0.015289
O O2 0.429346 0.789201 0.881393
O O3 0.177343 0.481812 0.737247
O O4 0.103933 0.623046 0.540437
O O5 0.250198 0.360430 0.633171
O O6 0.114399 0.118228 0.575031
O O7 0.726288 0.841389 0.090498
O O8 0.706826 0.344567 0.063555
O O9 0.845189 0.559883 0.103035
O O10 0.763423 0.349495 0.683929
O O11 0.893299 0.593851 0.713393
O O12 0.898399 0.098603 0.709421
O O13 0.823667 0.874457 0.527038
#
# Coordination Sequence:
#
# PCOD9119958 Si02
#       7
#     2   4   4   4   4   4   4
#     4  12  24  38  56  90 120 154 180 230 292 344
#     4  10  16  26  48  73 100 126 171 228 278 312
#     4  10  20  38  55  79 110 156 193 232 271 331
#     4  10  22  36  56  77 114 153 196 226 273 339
#     4  10  20  30  48  72 110 139 172 219 278 332
#     4  10  18  30  50  77 102 136 183 236 271 308
#     4  10  18  32  49  75 103 139 183 234 270 309
#
# _framework density 22.167197999999999
#
# number of rings (size 3 to 8) (size 9 to 14) (size 15 to 20)
#    0.000    1.846    0.000    9.231    0.000    2.462 
#    0.000    0.000    0.000    0.000    0.000   11.846 
#    0.000    0.000    0.000    0.000    0.000    0.000 
#
# Total GULP energy -72430.270375 kJ/mol
# GULP energy per Si atom -5571.559260 kJ/mol
# Density = 2.211674 g / cm^3
# Si number density = 22.167198 Si / 1000 Ang^3
#
#
#
# Elastic Constant Matrix: (Units=GPa)
#
#
# Indices 1 2 3 4 5 6 
#
# 1 74.7409 -12.7081 22.8629 -0.0001 -16.0079 0.0000
# 2 -12.7081 169.1956 16.2738 -0.0002 1.4308 0.0000
# 3 22.8629 16.2738 110.1128 0.0000 -24.6331 0.0000
# 4 -0.0001 -0.0002 0.0000 -2.4944 0.0000 -9.4248
# 5 -16.0079 1.4308 -24.6331 0.0000 28.3851 0.0000
# 6 0.0000 0.0000 0.0000 -9.4248 0.0000 -1.6423
#
#
#
# Elastic Compliance Matrix: (Units=1/GPa)
#
#
# Indices 1 2 3 4 5 6 
#
# 1 0.015704 0.001296 -0.001843 0.000000 0.007191 0.000000
# 2 0.001296 0.006143 -0.001344 0.000000 -0.000745 0.000000
# 3 -0.001843 -0.001344 0.011721 0.000000 0.009200 0.000000
# 4 0.000000 0.000000 0.000000 0.019382 0.000000 -0.111233
# 5 0.007191 -0.000745 0.009200 0.000000 0.047307 0.000000
# 6 0.000000 0.000000 0.000000 -0.111233 0.000000 0.029440
#
#
# Mechanical properties :
#
#
# Convention : Reuss Voigt Hill
#
# Bulk Modulus (GPa) = 33.57271 45.21184 39.39227
# Shear Modulus (GPa) = 34.86566 26.69106 30.77836
#
# Velocity S-wave (km/s) = 3.97022 3.47375 3.73025
# Velocity P-wave (km/s) = 6.01622 6.04395 6.03010
#
# Compressibility (1/GPa) = 0.02978610
#
# Stress axis : x y z
#
# Youngs Moduli (GPa) = 63.67792 162.78182 85.31693
#
# Poissons Ratio (x) = -0.21097 0.15728
# Poissons Ratio (y) = -0.08253 0.11463
# Poissons Ratio (z) = 0.11739 0.21872
#
# Static dielectric constant tensor:
#      x y z
#    x 1.860760 0.000000 -0.003020 
#    y 0.000000 1.957450 0.000000 
#    z -0.003020 0.000000 1.868260 
# 
# From -- ./inp_files/56576.got.cif
#   From: 2010.05.17/outbox.cif.g08.bks.cpg/sg5_29_cif.got.tgz:56576.got - 2010.06.03 18:56:24.
