data_PCOD9119509
_publ_section_title
;
Structure prediction by ZEFSAII (Michael W. Deem and Ramdas Pophale) SiO2 
 PCOD9119509
Probable space group: P 21
;
_chemical_formula_sum "Si O2"
_cell_formula_units_Z 14
_cell_length_a 6.279363
_cell_length_b 10.373911
_cell_length_c 9.369460
_cell_angle_alpha 90.000000
_cell_angle_beta 89.999469
_cell_angle_gamma 90.000000
_cell_volume 610.341174
_symmetry_space_group_name_H-M "P 21"
_symmetry_group_IT_number 4
_symmetry_cell_setting 'monoclinic'
loop_
_space_group_symop_operation_xyz
x,y,z
-x,1/2+y,-z
loop_
_atom_site_type_symbol
_atom_site_label
_atom_site_fract_x
_atom_site_fract_y
_atom_site_fract_z
Si Si1 0.000001 0.919680 0.406360
Si Si2 0.983806 0.558385 0.112364
Si Si3 0.667398 0.537323 0.370531
Si Si4 0.727064 0.195402 0.663467
Si Si5 0.727070 0.143958 0.336537
Si Si6 0.016203 0.280976 0.112365
Si Si7 0.667394 0.802039 0.629471
O O1 0.162236 0.833092 0.313710
O O2 0.842858 0.834098 0.507748
O O3 0.157145 0.005264 0.507744
O O4 0.837767 0.006267 0.313711
O O5 0.796014 0.537607 0.224657
O O6 0.180353 0.602228 0.214622
O O7 0.000003 0.419680 0.039271
O O8 0.945377 0.669680 1.000000
O O9 0.523852 0.667171 0.353002
O O10 0.500001 0.419681 0.383736
O O11 0.798790 0.169678 0.500003
O O12 0.476154 0.172192 0.353004
O O13 0.819659 0.237134 0.214629
O O14 0.203999 0.301754 0.224653
#
# Coordination Sequence:
#
# PCOD9119509 Si02
#       7
#     2   2   2   2   2   2   2
#     4  12  26  44  76 122 148 192 254 318 394 462
#     4  12  27  50  71 104 154 202 256 316 380 456
#     4  12  22  46  74 110 153 192 248 315 387 443
#     4  12  25  44  78 107 149 193 250 319 387 445
#     4  12  25  44  78 107 149 193 250 319 387 445
#     4  12  27  50  71 104 154 202 256 316 380 456
#     4  12  22  46  74 110 153 192 248 315 387 443
#
# _framework density 22.937988000000001
#
# number of rings (size 3 to 8) (size 9 to 14) (size 15 to 20)
#    0.000    0.000   10.000    0.000    6.000    1.143 
#    0.000    0.000    0.000    0.000    0.000    0.000 
#    0.000    0.000    0.000    0.000    0.000    0.000 
#
# Total GULP energy -78074.751173 kJ/mol
# GULP energy per Si atom -5576.767941 kJ/mol
# Density = 2.288578 g / cm^3
# Si number density = 22.937988 Si / 1000 Ang^3
#
#
#
# Elastic Constant Matrix: (Units=GPa)
#
#
# Indices 1 2 3 4 5 6 
#
# 1 135.7364 59.4041 3.2822 0.0000 0.0046 0.0000
# 2 59.4041 160.8307 38.8401 0.0000 0.0032 0.0000
# 3 3.2822 38.8401 44.2383 0.0000 0.0025 0.0000
# 4 0.0000 0.0000 0.0000 40.6811 0.0000 0.0002
# 5 0.0046 0.0032 0.0025 0.0000 4.4605 0.0000
# 6 0.0000 0.0000 0.0000 0.0002 0.0000 54.0036
#
#
#
# Elastic Compliance Matrix: (Units=1/GPa)
#
#
# Indices 1 2 3 4 5 6 
#
# 1 0.009068 -0.004044 0.002878 0.000000 -0.000008 0.000000
# 2 -0.004044 0.009695 -0.008211 0.000000 0.000002 0.000000
# 3 0.002878 -0.008211 0.029601 0.000000 -0.000013 0.000000
# 4 0.000000 0.000000 0.000000 0.024581 0.000000 0.000000
# 5 -0.000008 0.000002 -0.000013 0.000000 0.224191 0.000000
# 6 0.000000 0.000000 0.000000 0.000000 0.000000 0.018517
#
#
# Mechanical properties :
#
#
# Convention : Reuss Voigt Hill
#
# Bulk Modulus (GPa) = 33.77538 60.42868 47.10203
# Shear Modulus (GPa) = 14.52319 35.78099 25.15209
#
# Velocity S-wave (km/s) = 2.51898 3.95384 3.31497
# Velocity P-wave (km/s) = 4.81840 6.87353 5.93558
#
# Compressibility (1/GPa) = 0.02960737
#
# Stress axis : x y z
#
# Youngs Moduli (GPa) = 110.28358 103.15125 33.78293
#
# Poissons Ratio (x) = 0.41716 -0.09722
# Poissons Ratio (y) = 0.44601 0.27741
# Poissons Ratio (z) = -0.31739 0.84702
#
# Static dielectric constant tensor:
#      x y z
#    x 1.856480 0.000000 0.000000 
#    y 0.000000 2.059030 0.000000 
#    z 0.000000 0.000000 1.877390 
# 
# From -- ./inp_files/4552.got.cif
#   From: 2010.05.17/outbox.cif.g08.bks.cpg/sg4_3_cif.got.tgz:4552.got - 2010.06.03 18:43:04.
