data_PCOD9119204
_publ_section_title
;
Structure prediction by ZEFSAII (Michael W. Deem and Ramdas Pophale) SiO2 
 PCOD9119204
Probable space group: P 21
;
_chemical_formula_sum "Si O2"
_cell_formula_units_Z 16
_cell_length_a 5.570453
_cell_length_b 9.259179
_cell_length_c 14.596351
_cell_angle_alpha 90.000000
_cell_angle_beta 59.242147
_cell_angle_gamma 90.000000
_cell_volume 646.949621
_symmetry_space_group_name_H-M "P 21"
_symmetry_group_IT_number 4
_symmetry_cell_setting 'monoclinic'
loop_
_space_group_symop_operation_xyz
x,y,z
-x,1/2+y,-z
loop_
_atom_site_type_symbol
_atom_site_label
_atom_site_fract_x
_atom_site_fract_y
_atom_site_fract_z
Si Si1 0.312406 0.368000 0.463874
Si Si2 0.996124 0.544090 0.845554
Si Si3 0.167761 0.754111 0.204010
Si Si4 0.099470 0.948568 0.943102
Si Si5 0.621598 0.090226 0.392291
Si Si6 0.424006 0.269263 0.039285
Si Si7 0.277805 0.835218 0.385439
Si Si8 0.314220 0.073890 0.720030
O O1 0.502618 0.235509 0.457503
O O2 0.256881 0.488127 0.552292
O O3 0.497382 0.441858 0.349778
O O4 0.008128 0.303670 0.504735
O O5 0.190485 0.621098 0.733387
O O6 0.010266 0.375903 0.814925
O O7 0.697043 0.622574 0.892997
O O8 0.040284 0.538729 0.946277
O O9 0.236860 0.832769 0.284169
O O10 0.991467 0.610537 0.261590
O O11 0.416920 0.727304 0.085308
O O12 0.349397 0.853312 0.941550
O O13 0.853446 0.860481 0.937744
O O14 0.243702 0.051279 0.840029
O O15 0.378153 0.989006 0.400411
O O16 0.506556 0.710571 0.345729
#
# Coordination Sequence:
#
# PCOD9119204 Si02
#       8
#     2   2   2   2   2   2   2   2
#     4  12  27  48  74 107 152 197 265 327 393 473
#     4  11  24  47  75 108 153 204 260 320 387 474
#     4  11  25  45  75 107 154 202 252 317 397 468
#     4  11  28  48  78 117 160 210 259 327 399 470
#     4  12  25  49  72 109 148 200 258 327 392 468
#     4  11  27  47  73 119 157 206 264 322 391 480
#     4  12  23  47  75 108 142 203 261 319 401 464
#     4  12  27  49  74 113 156 204 259 327 402 473
#
# _framework density 24.731449000000001
#
# number of rings (size 3 to 8) (size 9 to 14) (size 15 to 20)
#    0.000    0.500    2.500    4.500   10.500    2.000 
#    6.750    0.000    0.000    0.000    0.000    0.000 
#    0.000    0.000    0.000    0.000    0.000    0.000 
#
# Total GULP energy -89429.436064 kJ/mol
# GULP energy per Si atom -5589.339754 kJ/mol
# Density = 2.467516 g / cm^3
# Si number density = 24.731449 Si / 1000 Ang^3
#
#
#
# Elastic Constant Matrix: (Units=GPa)
#
#
# Indices 1 2 3 4 5 6 
#
# 1 88.9739 16.3825 24.7053 0.0000 -12.7136 0.0000
# 2 16.3825 58.2794 14.5561 0.0000 -23.5238 0.0000
# 3 24.7053 14.5561 106.9666 0.0000 -19.7691 0.0000
# 4 0.0000 0.0000 0.0000 28.8473 0.0000 -2.9747
# 5 -12.7136 -23.5238 -19.7691 0.0000 41.4259 0.0000
# 6 0.0000 0.0000 0.0000 -2.9747 0.0000 36.0970
#
#
#
# Elastic Compliance Matrix: (Units=1/GPa)
#
#
# Indices 1 2 3 4 5 6 
#
# 1 0.012518 -0.002382 -0.002311 0.000000 0.001386 0.000000
# 2 -0.002382 0.022771 -0.000322 0.000000 0.012046 0.000000
# 3 -0.002311 -0.000322 0.010706 0.000000 0.004217 0.000000
# 4 0.000000 0.000000 0.000000 0.034962 0.000000 0.002881
# 5 0.001386 0.012046 0.004217 0.000000 0.033417 0.000000
# 6 0.000000 0.000000 0.000000 0.002881 0.000000 0.027941
#
#
# Mechanical properties :
#
#
# Convention : Reuss Voigt Hill
#
# Bulk Modulus (GPa) = 27.80567 40.61196 34.20881
# Shear Modulus (GPa) = 30.42612 34.51243 32.46928
#
# Velocity S-wave (km/s) = 3.51131 3.73968 3.62729
# Velocity P-wave (km/s) = 5.26370 5.92484 5.60403
#
# Compressibility (1/GPa) = 0.03596389
#
# Stress axis : x y z
#
# Youngs Moduli (GPa) = 79.88779 43.91572 93.40929
#
# Poissons Ratio (x) = 0.10461 0.21584
# Poissons Ratio (y) = 0.19029 0.03011
# Poissons Ratio (z) = 0.18460 0.01415
#
# Static dielectric constant tensor:
#      x y z
#    x 2.033590 0.000000 -0.005070 
#    y 0.000000 1.994910 0.000000 
#    z -0.005070 0.000000 1.971080 
# 
# From -- ./inp_files/13321.got.cif
#   From: 2010.05.17/outbox.cif.g08.bks.cpg/sg4_7_cif.got.tgz:13321.got - 2010.06.03 18:43:04.
