data_PCOD9119531
_publ_section_title
;
Structure prediction by ZEFSAII (Michael W. Deem and Ramdas Pophale) SiO2 
 PCOD9119531
Probable space group: P 21
;
_chemical_formula_sum "Si O2"
_cell_formula_units_Z 14
_cell_length_a 7.356797
_cell_length_b 8.182808
_cell_length_c 15.373142
_cell_angle_alpha 90.000000
_cell_angle_beta 44.629225
_cell_angle_gamma 90.000000
_cell_volume 650.144784
_symmetry_space_group_name_H-M "P 21"
_symmetry_group_IT_number 4
_symmetry_cell_setting 'monoclinic'
loop_
_space_group_symop_operation_xyz
x,y,z
-x,1/2+y,-z
loop_
_atom_site_type_symbol
_atom_site_label
_atom_site_fract_x
_atom_site_fract_y
_atom_site_fract_z
Si Si1 0.374185 0.388070 0.183588
Si Si2 0.510780 0.805505 0.045409
Si Si3 0.067703 0.234357 0.792465
Si Si4 0.164257 0.120473 0.944239
Si Si5 0.361834 0.550757 0.644438
Si Si6 0.789900 0.421932 0.364014
Si Si7 0.428963 0.542024 0.823868
O O1 0.598661 0.496123 0.150586
O O2 0.438533 0.204113 0.185156
O O3 0.078239 0.423837 0.306903
O O4 0.408346 0.401640 0.067768
O O5 0.757620 0.698602 0.989934
O O6 0.240133 0.724880 0.112337
O O7 0.460560 0.900043 0.152712
O O8 0.148064 0.236983 0.866113
O O9 0.149829 0.404298 0.719122
O O10 0.193748 0.068305 0.712406
O O11 0.877269 0.052038 0.050478
O O12 0.577201 0.484042 0.504667
O O13 0.271622 0.736573 0.649902
O O14 0.466330 0.545678 0.707856
#
# Coordination Sequence:
#
# PCOD9119531 Si02
#       7
#     2   2   2   2   2   2   2
#     4  12  24  44  70 111 145 191 248 304 373 453
#     4  12  23  44  73 108 151 186 240 314 384 443
#     4  12  24  50  78 106 148 196 248 314 380 440
#     4  12  23  44  73 108 151 186 240 314 384 443
#     4  12  26  49  75 105 151 204 254 306 367 440
#     4  12  26  49  75 105 151 204 254 306 367 440
#     4  12  24  44  70 111 145 191 248 304 373 453
#
# _framework density 21.533664999999999
#
# number of rings (size 3 to 8) (size 9 to 14) (size 15 to 20)
#    0.000    0.000    5.714    6.000    0.000    0.000 
#    5.143    0.000    0.000    0.000    0.000    0.000 
#    0.000    0.000    0.000    0.000    0.000    0.000 
#
# Total GULP energy -78186.508274 kJ/mol
# GULP energy per Si atom -5584.750591 kJ/mol
# Density = 2.148465 g / cm^3
# Si number density = 21.533665 Si / 1000 Ang^3
#
#
#
# Elastic Constant Matrix: (Units=GPa)
#
#
# Indices 1 2 3 4 5 6 
#
# 1 88.9406 -0.9540 13.1145 0.0000 -6.0418 0.0000
# 2 -0.9540 87.2905 9.1774 0.0000 -5.0847 0.0000
# 3 13.1145 9.1774 80.7994 0.0000 -9.2129 0.0000
# 4 0.0000 0.0000 0.0000 28.4144 0.0000 2.4777
# 5 -6.0418 -5.0847 -9.2129 0.0000 12.4748 0.0000
# 6 0.0000 0.0000 0.0000 2.4777 0.0000 44.7404
#
#
#
# Elastic Compliance Matrix: (Units=1/GPa)
#
#
# Indices 1 2 3 4 5 6 
#
# 1 0.011791 0.000563 -0.001420 0.000000 0.004891 0.000000
# 2 0.000563 0.011816 -0.000932 0.000000 0.004401 0.000000
# 3 -0.001420 -0.000932 0.013749 0.000000 0.009086 0.000000
# 4 0.000000 0.000000 0.000000 0.035364 0.000000 -0.001958
# 5 0.004891 0.004401 0.009086 0.000000 0.091035 0.000000
# 6 0.000000 0.000000 0.000000 -0.001958 0.000000 0.022460
#
#
# Mechanical properties :
#
#
# Convention : Reuss Voigt Hill
#
# Bulk Modulus (GPa) = 29.60422 33.30069 31.45245
# Shear Modulus (GPa) = 24.86920 32.83876 28.85398
#
# Velocity S-wave (km/s) = 3.40207 3.90936 3.66450
# Velocity P-wave (km/s) = 5.40461 5.98961 5.70462
#
# Compressibility (1/GPa) = 0.03377897
#
# Stress axis : x y z
#
# Youngs Moduli (GPa) = 84.80924 84.62763 72.73433
#
# Poissons Ratio (x) = -0.04765 0.10329
# Poissons Ratio (y) = -0.04776 0.06777
# Poissons Ratio (z) = 0.12043 0.07885
#
# Static dielectric constant tensor:
#      x y z
#    x 1.744150 0.000000 0.009720 
#    y 0.000000 1.920990 0.000000 
#    z 0.009720 0.000000 1.753180 
# 
# From -- ./inp_files/2389.got.cif
#   From: 2010.05.17/outbox.cif.g08.bks.cpg/sg4_2_cif.got.tgz:2389.got - 2010.06.03 18:43:04.
