data_PCOD9119716
_publ_section_title
;
Structure prediction by ZEFSAII (Michael W. Deem and Ramdas Pophale) SiO2 
 PCOD9119716
Probable space group: P 21
;
_chemical_formula_sum "Si O2"
_cell_formula_units_Z 14
_cell_length_a 16.425104
_cell_length_b 5.083190
_cell_length_c 9.131144
_cell_angle_alpha 90.000000
_cell_angle_beta 44.482389
_cell_angle_gamma 90.000000
_cell_volume 534.189789
_symmetry_space_group_name_H-M "P 21"
_symmetry_group_IT_number 4
_symmetry_cell_setting 'monoclinic'
loop_
_space_group_symop_operation_xyz
x,y,z
-x,1/2+y,-z
loop_
_atom_site_type_symbol
_atom_site_label
_atom_site_fract_x
_atom_site_fract_y
_atom_site_fract_z
Si Si1 0.183070 0.114860 0.174569
Si Si2 0.053806 0.816607 0.585489
Si Si3 0.069474 0.889664 0.879018
Si Si4 0.280925 0.733784 0.809580
Si Si5 0.740198 0.962574 0.673274
Si Si6 0.566062 0.083083 0.650600
Si Si7 0.413202 0.574922 0.887076
O O1 0.256920 0.223781 0.216234
O O2 0.084923 0.311942 0.238184
O O3 0.097048 0.915885 0.373159
O O4 0.252380 0.969586 0.958609
O O5 0.097810 0.967494 0.674787
O O6 0.127143 0.549469 0.512820
O O7 0.170132 0.752827 0.844792
O O8 0.973883 0.658024 0.992230
O O9 0.385904 0.712056 0.559747
O O10 0.319497 0.513033 0.878776
O O11 0.674393 0.969840 0.605167
O O12 0.659274 0.154406 0.876446
O O13 0.495788 0.326431 0.811788
O O14 0.486218 0.825707 0.738246
#
# Coordination Sequence:
#
# PCOD9119716 Si02
#       7
#     2   2   2   2   2   2   2
#     4  12  27  48  80 123 165 223 278 339 420 525
#     4  12  26  47  76 117 164 212 271 332 414 512
#     4  12  30  48  78 117 166 212 272 337 420 510
#     4  12  27  51  79 117 161 219 274 348 421 496
#     4  12  27  48  79 114 159 217 273 344 420 498
#     4  12  29  52  78 113 158 209 278 352 414 481
#     4  12  28  50  78 113 155 212 280 344 413 494
#
# _framework density 26.207915
#
# number of rings (size 3 to 8) (size 9 to 14) (size 15 to 20)
#    0.000    0.000    5.714    2.571    8.000    3.429 
#    0.000    0.000    0.000    0.000    0.000    0.000 
#    0.000    0.000    0.000    0.000    0.000    0.000 
#
# Total GULP energy -78217.826580 kJ/mol
# GULP energy per Si atom -5586.987613 kJ/mol
# Density = 2.614826 g / cm^3
# Si number density = 26.207915 Si / 1000 Ang^3
#
#
#
# Elastic Constant Matrix: (Units=GPa)
#
#
# Indices 1 2 3 4 5 6 
#
# 1 159.8480 36.0317 26.7014 0.0000 -0.6717 0.0000
# 2 36.0317 104.5428 33.0443 0.0000 -11.5272 0.0000
# 3 26.7014 33.0443 109.9968 0.0000 9.2720 0.0000
# 4 0.0000 0.0000 0.0000 13.7599 0.0000 8.3091
# 5 -0.6717 -11.5272 9.2720 0.0000 43.8849 0.0000
# 6 0.0000 0.0000 0.0000 8.3091 0.0000 36.7119
#
#
#
# Elastic Compliance Matrix: (Units=1/GPa)
#
#
# Indices 1 2 3 4 5 6 
#
# 1 0.006895 -0.002075 -0.001032 0.000000 -0.000221 0.000000
# 2 -0.002075 0.011752 -0.003344 0.000000 0.003762 0.000000
# 3 -0.001032 -0.003344 0.010611 0.000000 -0.003136 0.000000
# 4 0.000000 0.000000 0.000000 0.084180 0.000000 -0.019053
# 5 -0.000221 0.003762 -0.003136 0.000000 0.024434 0.000000
# 6 0.000000 0.000000 0.000000 -0.019053 0.000000 0.031551
#
#
# Mechanical properties :
#
#
# Convention : Reuss Voigt Hill
#
# Bulk Modulus (GPa) = 61.13645 62.88250 62.00947
# Shear Modulus (GPa) = 26.62738 37.44536 32.03637
#
# Velocity S-wave (km/s) = 3.19094 3.78402 3.50007
# Velocity P-wave (km/s) = 6.07900 6.56792 6.32818
#
# Compressibility (1/GPa) = 0.01635685
#
# Stress axis : x y z
#
# Youngs Moduli (GPa) = 145.03188 85.08980 94.24574
#
# Poissons Ratio (x) = 0.17654 0.09724
# Poissons Ratio (y) = 0.30090 0.31516
# Poissons Ratio (z) = 0.14965 0.28454
#
# Static dielectric constant tensor:
#      x y z
#    x 2.098270 0.000000 -0.030110 
#    y 0.000000 2.204420 0.000000 
#    z -0.030110 0.000000 2.165860 
# 
# From -- ./inp_files/8996.got.cif
#   From: 2010.05.17/outbox.cif.g08.bks.cpg/sg4_5_cif.got.tgz:8996.got - 2010.06.03 18:43:04.
