data_PCOD9119524
_publ_section_title
;
Structure prediction by ZEFSAII (Michael W. Deem and Ramdas Pophale) SiO2 
 PCOD9119524
Probable space group: P 21
;
_chemical_formula_sum "Si O2"
_cell_formula_units_Z 14
_cell_length_a 9.092031
_cell_length_b 7.866737
_cell_length_c 12.323253
_cell_angle_alpha 90.000000
_cell_angle_beta 144.027772
_cell_angle_gamma 90.000000
_cell_volume 517.737595
_symmetry_space_group_name_H-M "P 21"
_symmetry_group_IT_number 4
_symmetry_cell_setting 'monoclinic'
loop_
_space_group_symop_operation_xyz
x,y,z
-x,1/2+y,-z
loop_
_atom_site_type_symbol
_atom_site_label
_atom_site_fract_x
_atom_site_fract_y
_atom_site_fract_z
Si Si1 0.319980 0.046710 0.472342
Si Si2 0.833298 0.240511 0.509501
Si Si3 0.210144 0.637057 0.912931
Si Si4 0.970229 0.374453 0.024363
Si Si5 0.457841 0.425459 0.620865
Si Si6 0.621440 0.346086 0.173034
Si Si7 0.120374 0.182567 0.902864
O O1 0.400034 0.228513 0.565401
O O2 0.016083 0.055179 0.290831
O O3 0.378549 0.873871 0.572890
O O4 0.441847 0.012775 0.429149
O O5 0.842491 0.315915 0.392997
O O6 0.029320 0.223322 0.726146
O O7 0.749869 0.046136 0.454272
O O8 0.284017 0.807690 0.891376
O O9 0.059410 0.699295 0.928643
O O10 0.453937 0.518863 0.077941
O O11 0.687871 0.431590 0.838334
O O12 0.071168 0.327277 0.966196
O O13 0.050501 0.526154 0.153043
O O14 0.419484 0.195443 0.072790
#
# Coordination Sequence:
#
# PCOD9119524 Si02
#       7
#     2   2   2   2   2   2   2
#     4  12  24  47  73 119 154 197 255 319 383 468
#     4  12  26  47  77 113 150 204 257 318 382 467
#     4  12  28  51  76 109 154 206 263 312 394 463
#     4  12  24  45  76 114 148 202 253 323 381 461
#     4  12  23  42  77 113 156 192 248 318 390 442
#     4  12  27  52  74 105 156 204 252 323 381 461
#     4  12  24  48  77 109 154 197 260 315 385 452
#
# _framework density 27.040721999999999
#
# number of rings (size 3 to 8) (size 9 to 14) (size 15 to 20)
#    0.000    0.000    5.714    4.286    0.000    1.143 
#   10.286    0.000    0.000    0.000    0.000    0.000 
#    0.000    0.000    0.000    0.000    0.000    0.000 
#
# Total GULP energy -78197.960163 kJ/mol
# GULP energy per Si atom -5585.568583 kJ/mol
# Density = 2.697918 g / cm^3
# Si number density = 27.040722 Si / 1000 Ang^3
#
#
#
# Elastic Constant Matrix: (Units=GPa)
#
#
# Indices 1 2 3 4 5 6 
#
# 1 68.1925 39.6772 36.2099 0.0000 -15.1895 0.0000
# 2 39.6772 93.1562 7.5739 0.0000 2.0527 0.0000
# 3 36.2099 7.5739 108.5194 0.0000 -23.0782 0.0000
# 4 0.0000 0.0000 0.0000 29.4310 0.0000 -2.3664
# 5 -15.1895 2.0527 -23.0782 0.0000 31.0080 0.0000
# 6 0.0000 0.0000 0.0000 -2.3664 0.0000 47.5940
#
#
#
# Elastic Compliance Matrix: (Units=1/GPa)
#
#
# Indices 1 2 3 4 5 6 
#
# 1 0.026234 -0.010880 -0.006069 0.000000 0.009054 0.000000
# 2 -0.010880 0.015368 0.001435 0.000000 -0.005279 0.000000
# 3 -0.006069 0.001435 0.012459 0.000000 0.006205 0.000000
# 4 0.000000 0.000000 0.000000 0.034114 0.000000 0.001696
# 5 0.009054 -0.005279 0.006205 0.000000 0.041653 0.000000
# 6 0.000000 0.000000 0.000000 0.001696 0.000000 0.021095
#
#
# Mechanical properties :
#
#
# Convention : Reuss Voigt Hill
#
# Bulk Modulus (GPa) = 43.41240 48.53223 45.97231
# Shear Modulus (GPa) = 26.36728 34.03373 30.20051
#
# Velocity S-wave (km/s) = 3.12604 3.55154 3.34556
# Velocity P-wave (km/s) = 5.39618 5.89955 5.65347
#
# Compressibility (1/GPa) = 0.02303489
#
# Stress axis : x y z
#
# Youngs Moduli (GPa) = 38.11865 65.06946 80.26089
#
# Poissons Ratio (x) = 0.70794 0.48707
# Poissons Ratio (y) = 0.41472 -0.11518
# Poissons Ratio (z) = 0.23133 -0.09338
#
# Static dielectric constant tensor:
#      x y z
#    x 2.074210 0.000000 -0.049380 
#    y 0.000000 2.390720 0.000000 
#    z -0.049380 0.000000 2.177130 
# 
# From -- ./inp_files/7921.got.cif
#   From: 2010.05.17/outbox.cif.g08.bks.cpg/sg4_4_cif.got.tgz:7921.got - 2010.06.03 18:43:04.
