data_PCOD9119600
_publ_section_title
;
Structure prediction by ZEFSAII (Michael W. Deem and Ramdas Pophale) SiO2 
 PCOD9119600
Probable space group: P 21
;
_chemical_formula_sum "Si O2"
_cell_formula_units_Z 12
_cell_length_a 12.691796
_cell_length_b 8.316507
_cell_length_c 4.769991
_cell_angle_alpha 90.000000
_cell_angle_beta 100.764845
_cell_angle_gamma 90.000000
_cell_volume 494.619068
_symmetry_space_group_name_H-M "P 21"
_symmetry_group_IT_number 4
_symmetry_cell_setting 'monoclinic'
loop_
_space_group_symop_operation_xyz
x,y,z
-x,1/2+y,-z
loop_
_atom_site_type_symbol
_atom_site_label
_atom_site_fract_x
_atom_site_fract_y
_atom_site_fract_z
Si Si1 0.205812 0.611480 0.507858
Si Si2 0.558413 0.213908 0.195475
Si Si3 0.443488 0.085948 0.637941
Si Si4 0.794904 0.615971 0.301093
Si Si5 0.121584 0.427786 0.974713
Si Si6 0.875156 0.426902 0.851312
O O1 0.550584 0.399297 0.277929
O O2 0.326227 0.644885 0.664335
O O3 0.159620 0.764805 0.321128
O O4 0.195182 0.468003 0.277181
O O5 0.469174 0.116738 0.327631
O O6 0.531930 0.183308 0.859094
O O7 0.326171 0.146057 0.664661
O O8 0.137985 0.565055 0.747595
O O9 0.845016 0.765502 0.164402
O O10 0.860030 0.563849 0.607819
O O11 0.801705 0.469981 0.080186
O O12 0.998284 0.421243 0.005273
#
# Coordination Sequence:
#
# PCOD9119600 Si02
#       6
#     2   2   2   2   2   2
#     4  12  27  47  71 107 145 186 238 295 354 418
#     4  12  28  49  74 106 141 188 237 296 358 420
#     4  12  28  49  76 106 141 188 237 296 358 421
#     4  12  27  47  71 108 145 185 239 295 353 418
#     4  12  26  44  75 107 142 190 237 291 348 432
#     4  12  24  48  73 102 146 191 238 287 359 415
#
# _framework density 24.261095000000001
#
# number of rings (size 3 to 8) (size 9 to 14) (size 15 to 20)
#    0.000    0.000    1.667    8.000    9.333    0.000 
#    0.000    0.000    0.000    0.000    0.000    0.000 
#    0.000    0.000    0.000    0.000    0.000    0.000 
#
# Total GULP energy -67377.268829 kJ/mol
# GULP energy per Si atom -5614.772402 kJ/mol
# Density = 2.420588 g / cm^3
# Si number density = 24.261095 Si / 1000 Ang^3
#
#
#
# Elastic Constant Matrix: (Units=GPa)
#
#
# Indices 1 2 3 4 5 6 
#
# 1 90.1968 4.9195 3.4299 0.0000 0.8874 0.0000
# 2 4.9195 57.1500 17.1343 0.0000 17.0815 0.0000
# 3 3.4299 17.1343 78.0433 0.0000 -10.2039 0.0000
# 4 0.0000 0.0000 0.0000 45.8408 0.0000 -1.1866
# 5 0.8874 17.0815 -10.2039 0.0000 35.5347 0.0000
# 6 0.0000 0.0000 0.0000 -1.1866 0.0000 31.0236
#
#
#
# Elastic Compliance Matrix: (Units=1/GPa)
#
#
# Indices 1 2 3 4 5 6 
#
# 1 0.011146 -0.000895 -0.000284 0.000000 0.000070 0.000000
# 2 -0.000895 0.023617 -0.006886 0.000000 -0.013307 0.000000
# 3 -0.000284 -0.006886 0.015347 0.000000 0.007724 0.000000
# 4 0.000000 0.000000 0.000000 0.021836 0.000000 0.000835
# 5 0.000070 -0.013307 0.007724 0.000000 0.036755 0.000000
# 6 0.000000 0.000000 0.000000 0.000835 0.000000 0.032265
#
#
# Mechanical properties :
#
#
# Convention : Reuss Voigt Hill
#
# Bulk Modulus (GPa) = 29.42899 30.70638 30.06769
# Shear Modulus (GPa) = 29.68720 35.80691 32.74705
#
# Velocity S-wave (km/s) = 3.50187 3.84591 3.67792
# Velocity P-wave (km/s) = 5.33922 5.69258 5.51873
#
# Compressibility (1/GPa) = 0.03398010
#
# Stress axis : x y z
#
# Youngs Moduli (GPa) = 89.71979 42.34300 65.15731
#
# Poissons Ratio (x) = 0.03791 0.01851
# Poissons Ratio (y) = 0.08033 0.44864
# Poissons Ratio (z) = 0.02549 0.29155
#
# Static dielectric constant tensor:
#      x y z
#    x 1.846300 0.000000 -0.004770 
#    y 0.000000 1.982970 0.000000 
#    z -0.004770 0.000000 1.864430 
# 
# From -- ./inp_files/2508.got.cif
#   From: 2010.05.17/outbox.cif.g08.bks.cpg/sg4_2_cif.got.tgz:2508.got - 2010.06.03 18:43:04.
