data_PCOD9119155
_publ_section_title
;
Structure prediction by ZEFSAII (Michael W. Deem and Ramdas Pophale) SiO2 
 PCOD9119155
Probable space group: P 21
;
_chemical_formula_sum "Si O2"
_cell_formula_units_Z 12
_cell_length_a 6.932710
_cell_length_b 13.426124
_cell_length_c 5.361781
_cell_angle_alpha 90.000000
_cell_angle_beta 88.200300
_cell_angle_gamma 90.000000
_cell_volume 498.825308
_symmetry_space_group_name_H-M "P 21"
_symmetry_group_IT_number 4
_symmetry_cell_setting 'monoclinic'
loop_
_space_group_symop_operation_xyz
x,y,z
-x,1/2+y,-z
loop_
_atom_site_type_symbol
_atom_site_label
_atom_site_fract_x
_atom_site_fract_y
_atom_site_fract_z
Si Si1 0.480475 0.965700 0.905196
Si Si2 0.251334 0.297333 0.335479
Si Si3 0.015736 0.110133 0.339671
Si Si4 0.864188 0.417839 0.395174
Si Si5 0.231010 0.642728 0.147096
Si Si6 0.548717 0.326045 0.712032
O O1 0.594469 0.864855 0.816678
O O2 0.263924 0.971869 0.809970
O O3 0.609172 0.057321 0.819904
O O4 0.473070 0.940018 0.196265
O O5 0.194307 0.184510 0.276590
O O6 0.345241 0.293374 0.607618
O O7 0.056053 0.360518 0.311415
O O8 0.909117 0.142301 0.604627
O O9 0.076623 0.997736 0.398838
O O10 0.880167 0.118431 0.103648
O O11 0.714824 0.336300 0.498811
O O12 0.348971 0.745389 0.116560
#
# Coordination Sequence:
#
# PCOD9119155 Si02
#       6
#     2   2   2   2   2   2
#     4  11  26  44  74 103 144 187 237 298 353 425
#     4  11  24  46  71 103 141 187 238 289 359 417
#     4  12  27  45  76 103 144 192 238 292 353 430
#     4  11  24  46  71 103 141 187 238 289 359 417
#     4  12  27  47  72 107 144 186 242 290 359 422
#     4  11  26  44  74 103 144 187 237 298 353 425
#
# _framework density 24.056515000000001
#
# number of rings (size 3 to 8) (size 9 to 14) (size 15 to 20)
#    0.000    0.667    3.333    3.000    9.333    4.000 
#    0.000    0.000    0.000    0.000    0.000    0.000 
#    0.000    0.000    0.000    0.000    0.000    0.000 
#
# Total GULP energy -67019.275518 kJ/mol
# GULP energy per Si atom -5584.939626 kJ/mol
# Density = 2.400176 g / cm^3
# Si number density = 24.056515 Si / 1000 Ang^3
#
#
#
# Elastic Constant Matrix: (Units=GPa)
#
#
# Indices 1 2 3 4 5 6 
#
# 1 113.2218 -4.4012 17.6948 0.0000 15.6767 0.0000
# 2 -4.4012 46.6280 -12.9555 0.0000 -5.6767 0.0000
# 3 17.6948 -12.9555 56.5421 0.0000 6.2481 0.0000
# 4 0.0000 0.0000 0.0000 30.7255 0.0000 -2.9468
# 5 15.6767 -5.6767 6.2481 0.0000 49.4330 0.0000
# 6 0.0000 0.0000 0.0000 -2.9468 0.0000 50.3734
#
#
#
# Elastic Compliance Matrix: (Units=1/GPa)
#
#
# Indices 1 2 3 4 5 6 
#
# 1 0.009633 -0.000189 -0.002757 0.000000 -0.002728 0.000000
# 2 -0.000189 0.023104 0.005125 0.000000 0.002065 0.000000
# 3 -0.002757 0.005125 0.019838 0.000000 -0.001045 0.000000
# 4 0.000000 0.000000 0.000000 0.032730 0.000000 0.001915
# 5 -0.002728 0.002065 -0.001045 0.000000 0.021464 0.000000
# 6 0.000000 0.000000 0.000000 0.001915 0.000000 0.019964
#
#
# Mechanical properties :
#
#
# Convention : Reuss Voigt Hill
#
# Bulk Modulus (GPa) = 17.56416 24.11870 20.84143
# Shear Modulus (GPa) = 35.37259 40.50998 37.94129
#
# Velocity S-wave (km/s) = 3.83873 4.10805 3.97567
# Velocity P-wave (km/s) = 5.19277 5.70518 5.45499
#
# Compressibility (1/GPa) = 0.05693413
#
# Stress axis : x y z
#
# Youngs Moduli (GPa) = 103.80498 43.28293 50.40767
#
# Poissons Ratio (x) = 0.00817 0.13895
# Poissons Ratio (y) = 0.01959 -0.25832
# Poissons Ratio (z) = 0.28614 -0.22181
#
# Static dielectric constant tensor:
#      x y z
#    x 1.875390 0.000000 0.023500 
#    y 0.000000 1.898830 0.000000 
#    z 0.023500 0.000000 2.165300 
# 
# From -- ./inp_files/270.got.cif
#   From: 2010.05.17/outbox.cif.g08.bks.cpg/sg4_1_cif.got.tgz:270.got - 2010.06.03 18:43:04.
