data_PCOD9119589
_publ_section_title
;
Structure prediction by ZEFSAII (Michael W. Deem and Ramdas Pophale) SiO2 
 PCOD9119589
Probable space group: P 21
;
_chemical_formula_sum "Si O2"
_cell_formula_units_Z 14
_cell_length_a 15.653517
_cell_length_b 5.674992
_cell_length_c 9.963944
_cell_angle_alpha 90.000000
_cell_angle_beta 38.232184
_cell_angle_gamma 90.000000
_cell_volume 547.764225
_symmetry_space_group_name_H-M "P 21"
_symmetry_group_IT_number 4
_symmetry_cell_setting 'monoclinic'
loop_
_space_group_symop_operation_xyz
x,y,z
-x,1/2+y,-z
loop_
_atom_site_type_symbol
_atom_site_label
_atom_site_fract_x
_atom_site_fract_y
_atom_site_fract_z
Si Si1 0.369576 0.536640 0.760847
Si Si2 0.339111 0.727072 0.065848
Si Si3 0.353800 0.786642 0.500000
Si Si4 0.356760 0.416017 0.269649
Si Si5 0.047786 0.786637 0.500000
Si Si6 0.873591 0.657267 0.269651
Si Si7 0.095040 0.346210 0.065849
O O1 0.360374 0.610590 0.618069
O O2 0.521555 0.462690 0.618070
O O3 0.326372 0.732937 0.921534
O O4 0.252092 0.340343 0.921535
O O5 0.324522 0.471688 0.155197
O O6 0.209123 0.856546 0.290667
O O7 0.494617 0.796462 0.907230
O O8 0.376214 0.654117 0.333026
O O9 0.209241 0.919168 0.666974
O O10 0.233042 0.286642 0.499999
O O11 0.025701 0.536637 0.448599
O O12 0.999791 0.716731 0.709333
O O13 0.020279 0.601593 0.155202
O O14 0.901848 0.776824 0.092770
#
# Coordination Sequence:
#
# PCOD9119589 Si02
#       7
#     2   2   2   2   2   2   2
#     4  12  24  46  76 118 146 206 268 336 404 476
#     4  12  28  47  80 112 163 210 271 340 410 493
#     4  12  25  50  78 113 156 204 272 332 407 496
#     4  12  28  51  77 115 157 214 269 333 414 497
#     4  12  31  52  80 119 164 218 270 340 421 494
#     4  12  28  51  77 115 157 214 269 333 414 497
#     4  12  28  47  80 112 163 210 271 340 410 493
#
# _framework density 25.558440000000001
#
# number of rings (size 3 to 8) (size 9 to 14) (size 15 to 20)
#    0.000    0.000    4.286    4.286   10.000    0.000 
#    0.000    0.000    0.000    0.000    0.000    0.000 
#    0.000    0.000    0.000    0.000    0.000    0.000 
#
# Total GULP energy -78314.236162 kJ/mol
# GULP energy per Si atom -5593.874012 kJ/mol
# Density = 2.550027 g / cm^3
# Si number density = 25.558440 Si / 1000 Ang^3
#
#
#
# Elastic Constant Matrix: (Units=GPa)
#
#
# Indices 1 2 3 4 5 6 
#
# 1 91.4199 17.6378 29.9889 0.0000 4.0862 0.0000
# 2 17.6378 66.5967 30.1461 0.0000 -0.6507 0.0000
# 3 29.9889 30.1461 162.5662 0.0000 -7.7844 0.0000
# 4 0.0000 0.0000 0.0000 46.7303 0.0000 -1.0191
# 5 4.0862 -0.6507 -7.7844 0.0000 -8.0275 0.0000
# 6 0.0000 0.0000 0.0000 -1.0191 0.0000 27.1068
#
#
#
# Elastic Compliance Matrix: (Units=1/GPa)
#
#
# Indices 1 2 3 4 5 6 
#
# 1 0.011505 -0.002373 -0.001331 0.000000 0.007339 0.000000
# 2 -0.002373 0.016861 -0.002687 0.000000 0.000031 0.000000
# 3 -0.001331 -0.002687 0.006568 0.000000 -0.006829 0.000000
# 4 0.000000 0.000000 0.000000 0.021417 0.000000 0.000805
# 5 0.007339 0.000031 -0.006829 0.000000 -0.114217 0.000000
# 6 0.000000 0.000000 0.000000 0.000805 0.000000 0.036921
#
#
# Mechanical properties :
#
#
# Convention : Reuss Voigt Hill
#
# Bulk Modulus (GPa) = 45.14315 52.90312 49.02314
# Shear Modulus (GPa) = -6426.47725 29.34926 -3198.56399
#
# Velocity S-wave (km/s) = -50.19844 3.39236 -35.41451
# Velocity P-wave (km/s) = 57.81127 6.00733 40.65744
#
# Compressibility (1/GPa) = 0.02215175
#
# Stress axis : x y z
#
# Youngs Moduli (GPa) = 86.91972 59.30837 152.24858
#
# Poissons Ratio (x) = 0.14073 0.20262
# Poissons Ratio (y) = 0.20625 0.40916
# Poissons Ratio (z) = 0.11568 0.15939
#
# Static dielectric constant tensor:
#      x y z
#    x 1.981620 0.000000 0.000090 
#    y 0.000000 2.129900 0.000000 
#    z 0.000090 0.000000 1.979960 
# 
# From -- ./inp_files/5162.got.cif
#   From: 2010.05.17/outbox.cif.g08.bks.cpg/sg4_3_cif.got.tgz:5162.got - 2010.06.03 18:43:04.
