data_PCOD9119913
_publ_section_title
;
Structure prediction by ZEFSAII (Michael W. Deem and Ramdas Pophale) SiO2 
 PCOD9119913
Probable space group: C 2
;
_chemical_formula_sum "Si O2"
_cell_formula_units_Z 22
_cell_length_a 23.199040
_cell_length_b 6.986437
_cell_length_c 5.539750
_cell_angle_alpha 90.000000
_cell_angle_beta 103.008178
_cell_angle_gamma 90.000000
_cell_volume 874.833780
_symmetry_space_group_name_H-M "C 2"
_symmetry_group_IT_number 5
_symmetry_cell_setting 'monoclinic'
loop_
_space_group_symop_operation_xyz
x,y,z
-x,y,-z
1/2+x,1/2+y,z
1/2-x,1/2+y,-z
loop_
_atom_site_type_symbol
_atom_site_label
_atom_site_fract_x
_atom_site_fract_y
_atom_site_fract_z
Si Si1 0.210762 0.286150 0.184847
Si Si2 0.436200 0.893573 0.331442
Si Si3 0.396228 0.490027 0.836810
Si Si4 0.500000 0.780563 0.000000
Si Si5 0.687070 0.006995 0.658609
Si Si6 0.568314 0.430847 0.621883
O O1 0.161726 0.118229 0.172344
O O2 0.275513 0.195981 0.263623
O O3 0.203133 0.423132 0.410140
O O4 0.202592 0.376846 0.911324
O O5 0.500000 0.931089 0.500000
O O6 0.383493 0.005932 0.392417
O O7 0.451088 0.920218 0.066975
O O8 0.426531 0.663834 0.336800
O O9 0.392884 0.386096 0.577081
O O10 0.453821 0.627966 0.842693
O O11 0.410407 0.368785 0.091038
O O12 0.500000 0.379200 0.500000
#
# Coordination Sequence:
#
# PCOD9119913 Si02
#       6
#     4   4   4   2   4   4
#     4  12  24  42  61  94 129 172 211 259 310 391
#     4  10  17  30  55  89 117 149 201 279 306 348
#     4  11  16  28  49  80 117 143 188 255 311 336
#     4  10  14  26  50  82 120 130 200 266 318 306
#     4  12  25  42  65  94 131 168 215 255 323 376
#     4  10  15  24  46  77 112 137 177 256 312 329
#
# _framework density 25.147634
#
# number of rings (size 3 to 8) (size 9 to 14) (size 15 to 20)
#    0.000    1.091   10.909    1.091    0.000    0.000 
#    0.000    0.000    0.000    0.000    4.727    0.000 
#    0.000    0.000    0.000    0.000    0.000    0.000 
#
# Total GULP energy -61384.432435 kJ/mol
# GULP energy per Si atom -5580.402949 kJ/mol
# Density = 2.509040 g / cm^3
# Si number density = 25.147634 Si / 1000 Ang^3
#
#
#
# Elastic Constant Matrix: (Units=GPa)
#
#
# Indices 1 2 3 4 5 6 
#
# 1 112.1002 13.5592 9.7575 0.0000 14.8947 0.0000
# 2 13.5592 67.6355 11.3799 0.0000 3.3494 0.0000
# 3 9.7575 11.3799 147.2303 0.0000 -12.5327 0.0000
# 4 0.0000 0.0000 0.0000 19.6980 0.0000 -4.8099
# 5 14.8947 3.3494 -12.5327 0.0000 45.5090 0.0000
# 6 0.0000 0.0000 0.0000 -4.8099 0.0000 -2.7781
#
#
#
# Elastic Compliance Matrix: (Units=1/GPa)
#
#
# Indices 1 2 3 4 5 6 
#
# 1 0.009618 -0.001635 -0.000787 0.000000 -0.003244 0.000000
# 2 -0.001635 0.015353 -0.001156 0.000000 -0.000913 0.000000
# 3 -0.000787 -0.001156 0.007130 0.000000 0.002306 0.000000
# 4 0.000000 0.000000 0.000000 0.035682 0.000000 -0.061777
# 5 -0.003244 -0.000913 0.002306 0.000000 0.023738 0.000000
# 6 0.000000 0.000000 0.000000 -0.061777 0.000000 -0.252997
#
#
# Mechanical properties :
#
#
# Convention : Reuss Voigt Hill
#
# Bulk Modulus (GPa) = 40.08988 44.03994 42.06491
# Shear Modulus (GPa) = -34.24527 31.97040 -1.13744
#
# Velocity S-wave (km/s) = -3.69422 3.56941 -0.67326
# Velocity P-wave (km/s) = 1.48994 5.87692 4.01984
#
# Compressibility (1/GPa) = 0.02494395
#
# Stress axis : x y z
#
# Youngs Moduli (GPa) = 103.97220 65.13537 140.25412
#
# Poissons Ratio (x) = 0.10650 0.11041
# Poissons Ratio (y) = 0.17000 0.16214
# Poissons Ratio (z) = 0.08185 0.07530
#
# Static dielectric constant tensor:
#      x y z
#    x 1.936830 0.000000 0.033750 
#    y 0.000000 1.998310 0.000000 
#    z 0.033750 0.000000 1.721570 
# 
# From -- ./inp_files/10196.got.cif
#   From: 2010.05.17/outbox.cif.g08.bks.cpg/sg5_6_cif.got.tgz:10196.got - 2010.06.03 18:56:24.
