data_PCOD9119079
_publ_section_title
;
Structure prediction by ZEFSAII (Michael W. Deem and Ramdas Pophale) SiO2 
 PCOD9119079
Probable space group: P 21
;
_chemical_formula_sum "Si O2"
_cell_formula_units_Z 16
_cell_length_a 15.226786
_cell_length_b 6.929346
_cell_length_c 20.223713
_cell_angle_alpha 90.000000
_cell_angle_beta 19.148867
_cell_angle_gamma 90.000000
_cell_volume 699.949376
_symmetry_space_group_name_H-M "P 21"
_symmetry_group_IT_number 4
_symmetry_cell_setting 'monoclinic'
loop_
_space_group_symop_operation_xyz
x,y,z
-x,1/2+y,-z
loop_
_atom_site_type_symbol
_atom_site_label
_atom_site_fract_x
_atom_site_fract_y
_atom_site_fract_z
Si Si1 0.950730 0.967160 0.298598
Si Si2 0.546583 0.967198 0.202746
Si Si3 0.342314 0.893779 0.696542
Si Si4 0.774495 0.741438 0.805484
Si Si5 0.035435 0.146252 0.103741
Si Si6 0.313085 0.893598 0.225768
Si Si7 0.021231 0.146134 0.617950
Si Si8 0.954547 0.241513 0.965457
O O1 0.050060 0.776096 0.267032
O O2 0.656237 0.916130 0.482053
O O3 0.098981 0.062231 0.130855
O O4 0.977427 0.133930 0.334989
O O5 0.396937 0.916127 0.241352
O O6 0.320361 0.062151 0.409498
O O7 0.772148 0.134031 0.040241
O O8 0.718345 0.776157 0.098748
O O9 0.225140 0.784617 0.715318
O O10 0.217185 0.770450 0.845912
O O11 0.205784 0.103366 0.796774
O O12 0.695578 0.603208 0.801872
O O13 0.535184 0.770344 0.027905
O O14 0.849635 0.954850 0.731564
O O15 0.975130 0.954944 0.106069
O O16 0.036645 0.784529 0.403787
#
# Coordination Sequence:
#
# PCOD9119079 Si02
#       8
#     2   2   2   2   2   2   2   2
#     4  11  26  45  67 105 136 181 238 287 353 425
#     4  11  26  45  67 105 136 181 238 287 353 425
#     4  11  24  44  68 102 139 179 234 281 355 420
#     4  11  24  44  70  95 137 187 223 293 351 417
#     4  11  26  43  71 100 140 185 231 291 353 416
#     4  11  24  44  68 102 139 179 234 281 355 420
#     4  11  26  43  71 100 140 185 231 291 353 416
#     4  11  24  44  70  95 137 187 223 293 351 417
#
# _framework density 22.858795000000001
#
# number of rings (size 3 to 8) (size 9 to 14) (size 15 to 20)
#    0.000    1.000    5.000    0.000    7.000    2.000 
#    0.000    0.000    0.000    0.000    0.000    0.000 
#    0.000    0.000    0.000    0.000    0.000    0.000 
#
# Total GULP energy -89339.685930 kJ/mol
# GULP energy per Si atom -5583.730371 kJ/mol
# Density = 2.280677 g / cm^3
# Si number density = 22.858795 Si / 1000 Ang^3
#
#
#
# Elastic Constant Matrix: (Units=GPa)
#
#
# Indices 1 2 3 4 5 6 
#
# 1 74.0810 40.0993 -0.1358 0.0000 -13.6380 0.0000
# 2 40.0993 175.2591 29.6612 0.0000 -13.0876 0.0000
# 3 -0.1358 29.6612 48.2139 0.0000 -18.6282 0.0000
# 4 0.0000 0.0000 0.0000 31.4562 0.0000 -0.1709
# 5 -13.6380 -13.0876 -18.6282 0.0000 25.3731 0.0000
# 6 0.0000 0.0000 0.0000 -0.1709 0.0000 31.5830
#
#
#
# Elastic Compliance Matrix: (Units=1/GPa)
#
#
# Indices 1 2 3 4 5 6 
#
# 1 0.018486 -0.004591 0.008098 0.000000 0.013513 0.000000
# 2 -0.004591 0.007515 -0.005712 0.000000 -0.002785 0.000000
# 3 0.008098 -0.005712 0.034650 0.000000 0.026845 0.000000
# 4 0.000000 0.000000 0.000000 0.031791 0.000000 0.000172
# 5 0.013513 -0.002785 0.026845 0.000000 0.064947 0.000000
# 6 0.000000 0.000000 0.000000 0.000172 0.000000 0.031664
#
#
# Mechanical properties :
#
#
# Convention : Reuss Voigt Hill
#
# Bulk Modulus (GPa) = 17.78096 48.53372 33.15734
# Shear Modulus (GPa) = 23.56139 32.87776 28.21958
#
# Velocity S-wave (km/s) = 3.21399 3.79660 3.51738
# Velocity P-wave (km/s) = 4.64419 6.36373 5.57070
#
# Compressibility (1/GPa) = 0.05623992
#
# Stress axis : x y z
#
# Youngs Moduli (GPa) = 54.09378 133.06651 28.86009
#
# Poissons Ratio (x) = 0.61091 -0.23370
# Poissons Ratio (y) = 0.24835 0.16486
# Poissons Ratio (z) = -0.43803 0.76011
#
# Static dielectric constant tensor:
#      x y z
#    x 1.908080 0.000000 0.000090 
#    y 0.000000 1.796600 0.000000 
#    z 0.000090 0.000000 1.908010 
# 
# From -- ./inp_files/8837.got.cif
#   From: 2010.05.17/outbox.cif.g08.bks.cpg/sg4_5_cif.got.tgz:8837.got - 2010.06.03 18:43:04.
