data_PCOD9119288
_publ_section_title
;
Structure prediction by ZEFSAII (Michael W. Deem and Ramdas Pophale) SiO2 
 PCOD9119288
Probable space group: P 21
;
_chemical_formula_sum "Si O2"
_cell_formula_units_Z 14
_cell_length_a 12.947125
_cell_length_b 8.582817
_cell_length_c 13.334193
_cell_angle_alpha 90.000000
_cell_angle_beta 22.374640
_cell_angle_gamma 90.000000
_cell_volume 564.038115
_symmetry_space_group_name_H-M "P 21"
_symmetry_group_IT_number 4
_symmetry_cell_setting 'monoclinic'
loop_
_space_group_symop_operation_xyz
x,y,z
-x,1/2+y,-z
loop_
_atom_site_type_symbol
_atom_site_label
_atom_site_fract_x
_atom_site_fract_y
_atom_site_fract_z
Si Si1 0.199598 0.371600 0.069302
Si Si2 0.296840 0.279926 0.667642
Si Si3 0.056691 0.278654 0.554749
Si Si4 0.352114 0.062800 0.423003
Si Si5 0.746492 0.472930 0.175345
Si Si6 0.679011 0.997434 0.837110
Si Si7 0.253365 0.013636 0.041407
O O1 0.378051 0.408124 0.008643
O O2 0.157931 0.187696 0.102380
O O3 0.907229 0.449491 0.344163
O O4 0.371231 0.463755 0.830717
O O5 0.316666 0.172606 0.550604
O O6 0.572754 0.378501 0.413107
O O7 0.260450 0.152882 0.787164
O O8 0.044469 0.398421 0.898439
O O9 0.819213 0.158913 0.740693
O O10 0.970803 0.390708 0.722666
O O11 0.309569 0.173915 0.363848
O O12 0.115980 0.385632 0.406962
O O13 0.620210 0.457674 0.177199
O O14 0.444616 0.021949 0.966788
#
# Coordination Sequence:
#
# PCOD9119288 Si02
#       7
#     2   2   2   2   2   2   2
#     4  11  28  43  74 108 145 202 242 306 360 450
#     4  12  27  53  78 113 148 195 247 316 378 447
#     4  11  25  44  70 104 148 199 247 303 367 440
#     4  11  26  48  73 102 151 190 249 305 378 429
#     4  12  29  49  82 111 149 197 248 312 380 444
#     4  11  26  42  71 103 152 195 251 301 368 433
#     4  12  27  45  72 107 147 198 252 305 369 447
#
# _framework density 24.821017000000001
#
# number of rings (size 3 to 8) (size 9 to 14) (size 15 to 20)
#    0.000    0.571    1.429    4.286   22.000    0.000 
#    0.000    0.000    0.000    0.000    0.000    0.000 
#    0.000    0.000    0.000    0.000    0.000    0.000 
#
# Total GULP energy -78448.464269 kJ/mol
# GULP energy per Si atom -5603.461733 kJ/mol
# Density = 2.476452 g / cm^3
# Si number density = 24.821017 Si / 1000 Ang^3
#
#
#
# Elastic Constant Matrix: (Units=GPa)
#
#
# Indices 1 2 3 4 5 6 
#
# 1 59.8271 13.0293 -7.1818 0.0000 20.9478 0.0000
# 2 13.0293 143.6943 59.2824 0.0000 11.9694 0.0000
# 3 -7.1818 59.2824 81.0597 0.0000 13.5964 0.0000
# 4 0.0000 0.0000 0.0000 49.1956 0.0000 5.4174
# 5 20.9478 11.9694 13.5964 0.0000 29.7264 0.0000
# 6 0.0000 0.0000 0.0000 5.4174 0.0000 20.2658
#
#
#
# Elastic Compliance Matrix: (Units=1/GPa)
#
#
# Indices 1 2 3 4 5 6 
#
# 1 0.025944 -0.004311 0.008910 0.000000 -0.020622 0.000000
# 2 -0.004311 0.010697 -0.008656 0.000000 0.002690 0.000000
# 3 0.008910 -0.008656 0.021581 0.000000 -0.012664 0.000000
# 4 0.000000 0.000000 0.000000 0.020944 0.000000 -0.005599
# 5 -0.020622 0.002690 -0.012664 0.000000 0.052881 0.000000
# 6 0.000000 0.000000 0.000000 -0.005599 0.000000 0.050841
#
#
# Mechanical properties :
#
#
# Convention : Reuss Voigt Hill
#
# Bulk Modulus (GPa) = 19.95692 46.09342 33.02517
# Shear Modulus (GPa) = 24.07270 34.46765 29.27017
#
# Velocity S-wave (km/s) = 3.11762 3.73050 3.43775
# Velocity P-wave (km/s) = 4.58445 6.09640 5.39367
#
# Compressibility (1/GPa) = 0.05010793
#
# Stress axis : x y z
#
# Youngs Moduli (GPa) = 38.54515 93.48122 46.33704
#
# Poissons Ratio (x) = 0.40296 -0.41286
# Poissons Ratio (y) = 0.16615 0.40111
# Poissons Ratio (z) = -0.34344 0.80922
#
# Static dielectric constant tensor:
#      x y z
#    x 2.022370 0.000000 0.014770 
#    y 0.000000 1.972170 0.000000 
#    z 0.014770 0.000000 1.943880 
# 
# From -- ./inp_files/2555.got.cif
#   From: 2010.05.17/outbox.cif.g08.bks.cpg/sg4_2_cif.got.tgz:2555.got - 2010.06.03 18:43:04.
