data_PCOD9119864
_publ_section_title
;
Structure prediction by ZEFSAII (Michael W. Deem and Ramdas Pophale) SiO2 
 PCOD9119864
Probable space group: P 21
;
_chemical_formula_sum "Si O2"
_cell_formula_units_Z 16
_cell_length_a 30.000000
_cell_length_b 6.000000
_cell_length_c 24.000000
_cell_angle_alpha 90.000000
_cell_angle_beta 10.000000
_cell_angle_gamma 90.000000
_cell_volume 750.160128
_symmetry_space_group_name_H-M "P 21"
_symmetry_group_IT_number 4
_symmetry_cell_setting 'monoclinic'
loop_
_space_group_symop_operation_xyz
x,y,z
-x,1/2+y,-z
loop_
_atom_site_type_symbol
_atom_site_label
_atom_site_fract_x
_atom_site_fract_y
_atom_site_fract_z
Si Si1 0.557907 0.630820 0.366888
Si Si2 0.960945 0.642530 0.576694
Si Si3 0.785953 0.867072 0.398023
Si Si4 0.780558 0.497783 0.208260
Si Si5 0.637353 0.156620 0.688589
Si Si6 0.471175 0.745902 0.683102
Si Si7 0.035320 0.499569 0.164285
Si Si8 0.632732 0.084531 0.824887
O O1 0.592938 0.535603 0.385688
O O2 0.281695 0.743611 0.699727
O O3 0.592128 0.468284 0.273039
O O4 0.783635 0.808912 0.083051
O O5 0.129485 0.610674 0.425036
O O6 0.963829 0.389418 0.543632
O O7 0.661959 0.683339 0.952832
O O8 0.558975 0.774415 0.638396
O O9 0.963213 0.669481 0.203924
O O10 0.722182 0.996915 0.533165
O O11 0.942744 0.016756 0.160092
O O12 0.690941 0.638100 0.371857
O O13 0.783779 0.388864 0.499228
O O14 0.686131 0.076725 0.692251
O O15 0.212401 0.605444 0.994147
O O16 0.487329 0.332568 0.012653
#
# Coordination Sequence:
#
# PCOD9119864 Si02
#       8
#     2   2   2   2   2   2   2   2
#     4  11  20  42  69  94 137 196 246 311 371 447
#     4  12  26  51  82 122 159 202 261 313 382 486
#     4  12  28  45  69 109 151 190 258 320 386 445
#     4  11  21  39  68  97 139 196 254 312 368 447
#     4  12  28  47  81 110 158 192 246 318 391 449
#     4  11  26  43  71 102 144 198 262 308 381 455
#     4  11  25  47  68 101 149 190 243 311 390 441
#     4  12  26  52  86 119 157 208 256 307 389 484
#
# _framework density 21.328779999999998
#
# number of rings (size 3 to 8) (size 9 to 14) (size 15 to 20)
#    0.000    0.500    6.250    0.750    5.250    5.000 
#    0.000    0.000    0.000    0.000    0.000    0.000 
#    0.000    0.000    0.000    0.000    0.000    0.000 
#
# Total GULP energy -89163.289561 kJ/mol
# GULP energy per Si atom -5572.705598 kJ/mol
# Density = 2.128023 g / cm^3
# Si number density = 21.328780 Si / 1000 Ang^3
#
#
#
# Elastic Constant Matrix: (Units=GPa)
#
#
# Indices 1 2 3 4 5 6 
#
# 1 162.6627 42.7129 50.3604 0.0000 -22.4955 0.0000
# 2 42.7129 104.4193 52.3207 0.0000 0.5854 0.0000
# 3 50.3604 52.3207 112.1104 0.0000 -12.7608 0.0000
# 4 0.0000 0.0000 0.0000 15.4006 0.0000 -13.2206
# 5 -22.4955 0.5854 -12.7608 0.0000 41.7248 0.0000
# 6 0.0000 0.0000 0.0000 -13.2206 0.0000 20.1832
#
#
#
# Elastic Compliance Matrix: (Units=1/GPa)
#
#
# Indices 1 2 3 4 5 6 
#
# 1 0.007876 -0.002188 -0.002103 0.000000 0.003634 0.000000
# 2 -0.002188 0.013276 -0.005562 0.000000 -0.003067 0.000000
# 3 -0.002103 -0.005562 0.012785 0.000000 0.002854 0.000000
# 4 0.000000 0.000000 0.000000 0.148351 0.000000 0.097174
# 5 0.003634 -0.003067 0.002854 0.000000 0.026842 0.000000
# 6 0.000000 0.000000 0.000000 0.097174 0.000000 0.113198
#
#
# Mechanical properties :
#
#
# Convention : Reuss Voigt Hill
#
# Bulk Modulus (GPa) = 70.27147 74.44227 72.35687
# Shear Modulus (GPa) = 14.41850 31.04830 22.73340
#
# Velocity S-wave (km/s) = 2.60284 3.81950 3.26829
# Velocity P-wave (km/s) = 6.48470 7.37764 6.94553
#
# Compressibility (1/GPa) = 0.01423053
#
# Stress axis : x y z
#
# Youngs Moduli (GPa) = 126.96907 75.32433 78.21659
#
# Poissons Ratio (x) = 0.16483 0.16449
# Poissons Ratio (y) = 0.27784 0.43503
# Poissons Ratio (z) = 0.26702 0.41894
#
# Static dielectric constant tensor:
#      x y z
#    x 1.736940 0.000000 0.028830 
#    y 0.000000 1.914380 0.000000 
#    z 0.028830 0.000000 1.914820 
# 
# From -- ./inp_files/16256.got.cif
#   From: 2010.05.17/outbox.ucp.g08.bks.cvg/sg4_9_cif.got.tgz:16256.got - 2010.06.11 12:51:24.
