data_PCOD9119277
_publ_section_title
;
Structure prediction by ZEFSAII (Michael W. Deem and Ramdas Pophale) SiO2 
 PCOD9119277
Probable space group: P 21
;
_chemical_formula_sum "Si O2"
_cell_formula_units_Z 16
_cell_length_a 10.233930
_cell_length_b 8.334064
_cell_length_c 10.888083
_cell_angle_alpha 90.000000
_cell_angle_beta 45.586307
_cell_angle_gamma 90.000000
_cell_volume 663.337667
_symmetry_space_group_name_H-M "P 21"
_symmetry_group_IT_number 4
_symmetry_cell_setting 'monoclinic'
loop_
_space_group_symop_operation_xyz
x,y,z
-x,1/2+y,-z
loop_
_atom_site_type_symbol
_atom_site_label
_atom_site_fract_x
_atom_site_fract_y
_atom_site_fract_z
Si Si1 0.270914 0.304010 0.482775
Si Si2 0.613967 0.132145 0.646625
Si Si3 0.694213 0.483271 0.692767
Si Si4 0.649242 0.215427 0.353677
Si Si5 0.963226 0.459091 0.168195
Si Si6 0.294856 0.624732 0.964131
Si Si7 0.886156 0.430467 0.817530
Si Si8 0.814513 0.679673 0.067592
O O1 0.317733 0.454290 0.358839
O O2 0.449017 0.281256 0.451462
O O3 0.082244 0.350060 0.670567
O O4 0.248771 0.127702 0.435776
O O5 0.703815 0.298641 0.636537
O O6 0.632504 0.112465 0.486880
O O7 0.400591 0.164976 0.811354
O O8 0.484388 0.534185 0.862966
O O9 0.816535 0.491229 0.732780
O O10 0.791889 0.348459 0.307397
O O11 0.715908 0.143903 0.178808
O O12 0.870042 0.602050 0.157717
O O13 0.126500 0.531737 0.140823
O O14 0.093144 0.351148 0.995831
O O15 0.265122 0.805438 0.031298
O O16 0.902907 0.576483 0.900364
#
# Coordination Sequence:
#
# PCOD9119277 Si02
#       8
#     2   2   2   2   2   2   2   2
#     4  11  28  49  73 111 151 191 251 312 371 452
#     4  12  27  48  77 111 151 198 243 312 386 448
#     4  11  29  52  75 106 147 205 257 302 380 437
#     4  11  25  41  74 112 151 185 240 304 389 444
#     4  12  22  42  70 109 148 183 245 303 374 445
#     4  11  25  47  72 111 144 193 249 311 369 440
#     4  12  28  51  75 104 151 200 253 312 366 448
#     4  12  24  44  72 108 147 197 246 306 379 446
#
# _framework density 24.120445
#
# number of rings (size 3 to 8) (size 9 to 14) (size 15 to 20)
#    0.000    0.500    5.000    1.500   12.250    0.000 
#    2.250    0.000    0.000    0.000    0.000    0.000 
#    0.000    0.000    0.000    0.000    0.000    0.000 
#
# Total GULP energy -89365.133014 kJ/mol
# GULP energy per Si atom -5585.320813 kJ/mol
# Density = 2.406555 g / cm^3
# Si number density = 24.120445 Si / 1000 Ang^3
#
#
#
# Elastic Constant Matrix: (Units=GPa)
#
#
# Indices 1 2 3 4 5 6 
#
# 1 68.4083 11.8424 30.4674 0.0000 -7.2164 0.0000
# 2 11.8424 113.4292 9.1300 0.0000 -6.7420 0.0000
# 3 30.4674 9.1300 75.5714 0.0000 -20.5273 0.0000
# 4 0.0000 0.0000 0.0000 50.6261 0.0000 -11.7414
# 5 -7.2164 -6.7420 -20.5273 0.0000 14.5092 0.0000
# 6 0.0000 0.0000 0.0000 -11.7414 0.0000 16.6533
#
#
#
# Elastic Compliance Matrix: (Units=1/GPa)
#
#
# Indices 1 2 3 4 5 6 
#
# 1 0.018077 -0.001421 -0.007883 0.000000 -0.002821 0.000000
# 2 -0.001421 0.009178 0.000699 0.000000 0.004547 0.000000
# 3 -0.007883 0.000699 0.024930 0.000000 0.031674 0.000000
# 4 0.000000 0.000000 0.000000 0.023614 0.000000 0.016649
# 5 -0.002821 0.004547 0.031674 0.000000 0.114444 0.000000
# 6 0.000000 0.000000 0.000000 0.016649 0.000000 0.071787
#
#
# Mechanical properties :
#
#
# Convention : Reuss Voigt Hill
#
# Bulk Modulus (GPa) = 28.59038 40.03205 34.31121
# Shear Modulus (GPa) = 17.18818 30.08897 23.63858
#
# Velocity S-wave (km/s) = 2.67235 3.53575 3.13393
# Velocity P-wave (km/s) = 4.62610 5.77074 5.22983
#
# Compressibility (1/GPa) = 0.03497680
#
# Stress axis : x y z
#
# Youngs Moduli (GPa) = 55.31834 108.95141 40.11275
#
# Poissons Ratio (x) = 0.15477 0.31620
# Poissons Ratio (y) = 0.07858 -0.02804
# Poissons Ratio (z) = 0.43606 -0.07616
#
# Static dielectric constant tensor:
#      x y z
#    x 1.896940 0.000000 -0.004210 
#    y 0.000000 2.043950 0.000000 
#    z -0.004210 0.000000 1.950810 
# 
# From -- ./inp_files/12108.got.cif
#   From: 2010.05.17/outbox.cif.g08.bks.cpg/sg4_7_cif.got.tgz:12108.got - 2010.06.03 18:43:04.
