data_PCOD9119256
_publ_section_title
;
Structure prediction by ZEFSAII (Michael W. Deem and Ramdas Pophale) SiO2 
 PCOD9119256
Probable space group: P 21
;
_chemical_formula_sum "Si O2"
_cell_formula_units_Z 14
_cell_length_a 9.185495
_cell_length_b 10.645103
_cell_length_c 5.500403
_cell_angle_alpha 90.000000
_cell_angle_beta 71.420832
_cell_angle_gamma 90.000000
_cell_volume 509.802876
_symmetry_space_group_name_H-M "P 21"
_symmetry_group_IT_number 4
_symmetry_cell_setting 'monoclinic'
loop_
_space_group_symop_operation_xyz
x,y,z
-x,1/2+y,-z
loop_
_atom_site_type_symbol
_atom_site_label
_atom_site_fract_x
_atom_site_fract_y
_atom_site_fract_z
Si Si1 0.581396 0.905760 0.404010
Si Si2 0.494455 0.644763 0.247987
Si Si3 0.886175 0.403845 0.282025
Si Si4 0.116102 0.517771 0.799640
Si Si5 0.963709 0.691633 0.512347
Si Si6 0.680245 0.548626 0.734988
Si Si7 0.763692 0.238481 0.981219
O O1 0.524634 0.760386 0.420294
O O2 0.765652 0.903635 0.272644
O O3 0.481854 0.986749 0.259094
O O4 0.560963 0.006618 0.634843
O O5 0.646211 0.610302 0.012890
O O6 0.369793 0.705370 0.132062
O O7 0.004417 0.295561 0.298799
O O8 0.789594 0.437811 0.573062
O O9 0.760053 0.361201 0.148753
O O10 0.987345 0.499925 0.072920
O O11 0.041924 0.565591 0.588911
O O12 0.226592 0.629344 0.825701
O O13 0.070643 0.735854 0.237058
O O14 0.787161 0.658944 0.559945
#
# Coordination Sequence:
#
# PCOD9119256 Si02
#       7
#     2   2   2   2   2   2   2
#     4  12  29  50  82 125 167 222 289 342 419 517
#     4  12  29  55  83 122 174 226 277 355 428 501
#     4  11  27  46  82 116 157 216 287 345 414 515
#     4  11  24  49  76 116 156 213 280 342 411 510
#     4  11  25  47  77 115 157 214 272 342 425 481
#     4  12  28  48  82 124 162 223 277 348 423 505
#     4  11  24  51  78 112 167 216 272 356 430 487
#
# _framework density 27.461596
#
# number of rings (size 3 to 8) (size 9 to 14) (size 15 to 20)
#    0.000    0.571    4.286    1.714    8.000    2.286 
#    2.571    0.000    0.000    0.000    0.000    0.000 
#    0.000    0.000    0.000    0.000    0.000    0.000 
#
# Total GULP energy -78149.976179 kJ/mol
# GULP energy per Si atom -5582.141156 kJ/mol
# Density = 2.739909 g / cm^3
# Si number density = 27.461596 Si / 1000 Ang^3
#
#
#
# Elastic Constant Matrix: (Units=GPa)
#
#
# Indices 1 2 3 4 5 6 
#
# 1 112.5197 75.6235 36.5149 0.0000 -2.1155 0.0000
# 2 75.6235 123.7645 38.0109 0.0000 -1.3108 0.0000
# 3 36.5149 38.0109 69.9195 0.0000 -28.8410 0.0000
# 4 0.0000 0.0000 0.0000 47.5117 0.0000 -3.2297
# 5 -2.1155 -1.3108 -28.8410 0.0000 56.7242 0.0000
# 6 0.0000 0.0000 0.0000 -3.2297 0.0000 50.7373
#
#
#
# Elastic Compliance Matrix: (Units=1/GPa)
#
#
# Indices 1 2 3 4 5 6 
#
# 1 0.015961 -0.008365 -0.004583 0.000000 -0.001928 0.000000
# 2 -0.008365 0.014537 -0.004460 0.000000 -0.002244 0.000000
# 3 -0.004583 -0.004460 0.024051 0.000000 0.011955 0.000000
# 4 0.000000 0.000000 0.000000 0.021139 0.000000 0.001346
# 5 -0.001928 -0.002244 0.011955 0.000000 0.023584 0.000000
# 6 0.000000 0.000000 0.000000 0.001346 0.000000 0.019795
#
#
# Mechanical properties :
#
#
# Convention : Reuss Voigt Hill
#
# Bulk Modulus (GPa) = 50.67633 67.38915 59.03274
# Shear Modulus (GPa) = 31.16036 41.39825 36.27931
#
# Velocity S-wave (km/s) = 3.37217 3.88686 3.63863
# Velocity P-wave (km/s) = 5.80135 6.68852 6.26067
#
# Compressibility (1/GPa) = 0.01973308
#
# Stress axis : x y z
#
# Youngs Moduli (GPa) = 62.65451 68.78921 41.57781
#
# Poissons Ratio (x) = 0.57544 0.19055
# Poissons Ratio (y) = 0.52412 0.18543
# Poissons Ratio (z) = 0.28715 0.30678
#
# Static dielectric constant tensor:
#      x y z
#    x 2.126880 0.000000 0.039760 
#    y 0.000000 2.357960 0.000000 
#    z 0.039760 0.000000 2.122750 
# 
# From -- ./inp_files/1374.got.cif
#   From: 2010.05.17/outbox.cif.g08.bks.cpg/sg4_1_cif.got.tgz:1374.got - 2010.06.03 18:43:04.
