data_PCOD9119924
_publ_section_title
;
Structure prediction by ZEFSAII (Michael W. Deem and Ramdas Pophale) SiO2 
 PCOD9119924
Probable space group: C 2
;
_chemical_formula_sum "Si O2"
_cell_formula_units_Z 26
_cell_length_a 12.925547
_cell_length_b 8.686644
_cell_length_c 17.068942
_cell_angle_alpha 90.000000
_cell_angle_beta 34.562526
_cell_angle_gamma 90.000000
_cell_volume 1087.237352
_symmetry_space_group_name_H-M "C 2"
_symmetry_group_IT_number 5
_symmetry_cell_setting 'monoclinic'
loop_
_space_group_symop_operation_xyz
x,y,z
-x,y,-z
1/2+x,1/2+y,z
1/2-x,1/2+y,-z
loop_
_atom_site_type_symbol
_atom_site_label
_atom_site_fract_x
_atom_site_fract_y
_atom_site_fract_z
Si Si1 0.690668 0.849390 0.346051
Si Si2 0.542733 0.633104 0.302335
Si Si3 0.443506 0.863433 0.840103
Si Si4 0.500000 0.349477 0.500000
Si Si5 0.713651 0.089925 0.601752
Si Si6 0.807605 0.387377 0.084659
Si Si7 0.769495 0.169834 0.233554
O O1 0.500000 0.909174 0.500000
O O2 0.625594 0.720827 0.325021
O O3 0.793571 0.752687 0.348738
O O4 0.789189 0.992512 0.244439
O O5 0.607001 0.733981 0.189521
O O6 0.323538 0.620451 0.451980
O O7 0.641039 0.472939 0.229422
O O8 0.590507 0.776384 0.804558
O O9 0.526368 0.000226 0.734814
O O10 0.301086 0.909929 0.995681
O O11 0.352454 0.467170 0.555844
O O12 0.578933 0.236681 0.384490
O O13 0.796267 0.214395 0.126220
O O14 0.000000 0.452371 0.000000
#
# Coordination Sequence:
#
# PCOD9119924 Si02
#       7
#     4   4   4   2   4   4   4
#     4  10  19  33  60  89 117 150 207 244 290 356
#     4  11  21  39  62  88 118 158 199 255 304 357
#     4  10  24  39  58  88 123 156 202 247 311 358
#     4  10  14  32  62  86 108 156 194 236 282 352
#     4  10  19  39  61  88 119 161 196 247 299 364
#     4  10  21  42  62  82 118 168 203 241 303 370
#     4  10  19  35  60  88 117 155 200 244 292 361
#
# _framework density 23.913820000000001
#
# number of rings (size 3 to 8) (size 9 to 14) (size 15 to 20)
#    0.000    1.846    4.615    1.846    0.000    3.692 
#    0.000   13.077    0.000    0.000    0.000    0.000 
#    0.000    0.000    0.000    0.000    0.000    0.000 
#
# Total GULP energy -72550.922900 kJ/mol
# GULP energy per Si atom -5580.840223 kJ/mol
# Density = 2.385939 g / cm^3
# Si number density = 23.913820 Si / 1000 Ang^3
#
#
#
# Elastic Constant Matrix: (Units=GPa)
#
#
# Indices 1 2 3 4 5 6 
#
# 1 19.5357 -4.7507 2.4868 0.0000 -1.0248 0.0000
# 2 -4.7507 114.4294 37.2977 0.0000 -8.5235 0.0000
# 3 2.4868 37.2977 126.3605 0.0001 18.1454 0.0000
# 4 0.0000 0.0000 0.0001 35.8559 0.0000 -0.5718
# 5 -1.0248 -8.5235 18.1454 0.0000 17.6326 0.0000
# 6 0.0000 0.0000 0.0000 -0.5718 0.0000 14.5998
#
#
#
# Elastic Compliance Matrix: (Units=1/GPa)
#
#
# Indices 1 2 3 4 5 6 
#
# 1 0.053036 0.003958 -0.003437 0.000000 0.008533 0.000000
# 2 0.003958 0.011333 -0.004978 0.000000 0.010831 0.000000
# 3 -0.003437 -0.004978 0.011529 0.000000 -0.014471 0.000000
# 4 0.000000 0.000000 0.000000 0.027907 0.000000 0.001093
# 5 0.008533 0.010831 -0.014471 0.000000 0.077336 0.000000
# 6 0.000000 0.000000 0.000000 0.001093 0.000000 0.068537
#
#
# Mechanical properties :
#
#
# Convention : Reuss Voigt Hill
#
# Bulk Modulus (GPa) = 14.92936 36.71036 25.81986
# Shear Modulus (GPa) = 17.79858 28.63710 23.21784
#
# Velocity S-wave (km/s) = 2.73111 3.46426 3.11930
# Velocity P-wave (km/s) = 4.02515 5.60231 4.87790
#
# Compressibility (1/GPa) = 0.06698211
#
# Stress axis : x y z
#
# Youngs Moduli (GPa) = 18.85508 88.23931 86.73818
#
# Poissons Ratio (x) = -0.34924 0.29815
# Poissons Ratio (y) = -0.07463 0.43182
# Poissons Ratio (z) = 0.06481 0.43929
#
# Static dielectric constant tensor:
#      x y z
#    x 1.953330 0.000000 0.000370 
#    y 0.000000 1.883110 0.000000 
#    z 0.000370 0.000000 2.023980 
# 
# From -- ./inp_files/29134.got.cif
#   From: 2010.05.17/outbox.cif.g08.bks.cpg/sg5_15_cif.got.tgz:29134.got - 2010.06.03 18:56:24.
