data_PCOD9119962
_publ_section_title
;
Structure prediction by ZEFSAII (Michael W. Deem and Ramdas Pophale) SiO2 
 PCOD9119962
Probable space group: C 2
;
_chemical_formula_sum "Si O2"
_cell_formula_units_Z 20
_cell_length_a 7.909280
_cell_length_b 22.324954
_cell_length_c 6.812672
_cell_angle_alpha 90.000000
_cell_angle_beta 43.529191
_cell_angle_gamma 90.000000
_cell_volume 828.495686
_symmetry_space_group_name_H-M "C 2"
_symmetry_group_IT_number 5
_symmetry_cell_setting 'monoclinic'
loop_
_space_group_symop_operation_xyz
x,y,z
-x,y,-z
1/2+x,1/2+y,z
1/2-x,1/2+y,-z
loop_
_atom_site_type_symbol
_atom_site_label
_atom_site_fract_x
_atom_site_fract_y
_atom_site_fract_z
Si Si1 0.708631 0.139980 0.064472
Si Si2 0.694926 0.450146 0.563262
Si Si3 0.294722 0.997958 0.924780
Si Si4 0.278093 0.317449 0.349145
Si Si5 0.786891 0.187243 0.441726
O O1 0.743502 0.068997 0.044564
O O2 0.747313 0.166520 0.250847
O O3 0.422290 0.151764 0.262771
O O4 0.927190 0.172093 0.761087
O O5 0.745710 0.469866 0.749332
O O6 0.696733 0.378565 0.550925
O O7 0.925674 0.481000 0.265489
O O8 0.418363 0.471055 0.762249
O O9 0.278186 0.256506 0.472578
O O10 0.000000 0.320424 0.500000
O O11 0.500000 0.315780 0.000000
#
# Coordination Sequence:
#
# PCOD9119962 Si02
#       5
#     4   4   4   4   4
#     4  10  19  35  52  80 102 126 176 212 264 306
#     4  10  16  27  43  72 100 128 149 202 269 295
#     4  10  16  28  51  71 103 113 158 228 264 295
#     4  12  21  34  47  74 118 138 172 197 247 330
#     4  10  20  32  51  71 109 139 163 211 250 306
#
# _framework density 24.140135999999998
#
# number of rings (size 3 to 8) (size 9 to 14) (size 15 to 20)
#    0.000    1.600    4.000    7.200    0.000    0.000 
#    0.000    0.000    0.000    0.000    0.000    0.000 
#  204.000    0.000    0.000    0.000    0.000    0.000 
#
# Total GULP energy -55919.809019 kJ/mol
# GULP energy per Si atom -5591.980902 kJ/mol
# Density = 2.408519 g / cm^3
# Si number density = 24.140136 Si / 1000 Ang^3
#
#
#
# Elastic Constant Matrix: (Units=GPa)
#
#
# Indices 1 2 3 4 5 6 
#
# 1 73.1784 -2.9419 45.5986 0.0000 -31.0642 0.0000
# 2 -2.9419 225.4547 54.3888 0.0000 -9.0251 0.0000
# 3 45.5986 54.3888 246.2403 0.0000 -32.8331 0.0000
# 4 0.0000 0.0000 0.0000 43.4040 0.0000 -18.6869
# 5 -31.0642 -9.0251 -32.8331 0.0000 56.6120 0.0000
# 6 0.0000 0.0000 0.0000 -18.6869 0.0000 15.1744
#
#
#
# Elastic Compliance Matrix: (Units=1/GPa)
#
#
# Indices 1 2 3 4 5 6 
#
# 1 0.019274 0.001252 -0.002611 0.000000 0.009261 0.000000
# 2 0.001252 0.004768 -0.001184 0.000000 0.000761 0.000000
# 3 -0.002611 -0.001184 0.004974 0.000000 0.001264 0.000000
# 4 0.000000 0.000000 0.000000 0.049040 0.000000 0.060392
# 5 0.009261 0.000761 0.001264 0.000000 0.023600 0.000000
# 6 0.000000 0.000000 0.000000 0.060392 0.000000 0.140272
#
#
# Mechanical properties :
#
#
# Convention : Reuss Voigt Hill
#
# Bulk Modulus (GPa) = 41.78570 82.10716 61.94643
# Shear Modulus (GPa) = 19.60863 52.89327 36.25095
#
# Velocity S-wave (km/s) = 2.85315 4.68599 3.87937
# Velocity P-wave (km/s) = 5.31048 7.96018 6.76630
#
# Compressibility (1/GPa) = 0.02393163
#
# Stress axis : x y z
#
# Youngs Moduli (GPa) = 51.88374 209.74109 201.02707
#
# Poissons Ratio (x) = -0.26261 0.52484
# Poissons Ratio (y) = -0.06496 0.23792
# Poissons Ratio (z) = 0.13546 0.24823
#
# Static dielectric constant tensor:
#      x y z
#    x 1.930250 0.000000 -0.031090 
#    y 0.000000 1.818800 0.000000 
#    z -0.031090 0.000000 1.943340 
# 
# From -- ./inp_files/16651.got.cif
#   From: 2010.05.17/outbox.cif.g08.bks.cpg/sg5_9_cif.got.tgz:16651.got - 2010.06.03 18:56:24.
