data_PCOD9119481
_publ_section_title
;
Structure prediction by ZEFSAII (Michael W. Deem and Ramdas Pophale) SiO2 
 PCOD9119481
Probable space group: P 21
;
_chemical_formula_sum "Si O2"
_cell_formula_units_Z 14
_cell_length_a 7.896485
_cell_length_b 8.095914
_cell_length_c 8.878805
_cell_angle_alpha 90.000000
_cell_angle_beta 68.814310
_cell_angle_gamma 90.000000
_cell_volume 529.252657
_symmetry_space_group_name_H-M "P 21"
_symmetry_group_IT_number 4
_symmetry_cell_setting 'monoclinic'
loop_
_space_group_symop_operation_xyz
x,y,z
-x,1/2+y,-z
loop_
_atom_site_type_symbol
_atom_site_label
_atom_site_fract_x
_atom_site_fract_y
_atom_site_fract_z
Si Si1 0.796059 0.425160 0.001048
Si Si2 0.332416 0.457702 0.878945
Si Si3 0.041200 0.708109 0.840228
Si Si4 0.814567 0.902559 0.731570
Si Si5 0.692777 0.567114 0.637623
Si Si6 0.725427 0.638006 0.300768
Si Si7 0.130639 0.752539 0.292921
O O1 0.971351 0.333064 0.016184
O O2 0.705330 0.492696 0.180602
O O3 0.742039 0.292244 0.894832
O O4 0.871948 0.585062 0.892979
O O5 0.209024 0.593699 0.829432
O O6 0.531580 0.533580 0.805287
O O7 0.345162 0.295939 0.768426
O O8 0.279450 0.424013 0.071797
O O9 0.015304 0.830193 0.710466
O O10 0.744742 0.756277 0.652153
O O11 0.805538 0.080673 0.656961
O O12 0.634255 0.571170 0.481797
O O13 0.840870 0.420683 0.622378
O O14 0.929667 0.697821 0.294614
#
# Coordination Sequence:
#
# PCOD9119481 Si02
#       7
#     2   2   2   2   2   2   2
#     4  12  18  40  78 106 132 186 258 293 326 425
#     4  12  25  48  73 105 145 194 245 291 360 441
#     4  12  18  40  78 106 132 186 258 293 326 425
#     4  12  24  48  77 108 137 193 249 294 354 434
#     4  12  32  48  66 114 160 182 224 316 384 414
#     4  12  25  48  73 105 145 194 245 291 360 441
#     4  12  24  48  77 108 137 193 249 294 354 434
#
# _framework density 26.452394999999999
#
# number of rings (size 3 to 8) (size 9 to 14) (size 15 to 20)
#    0.000    0.000   10.000    0.000    4.000    1.143 
#    7.714    0.000    0.000    0.000    0.000    0.000 
#    0.000    0.000    0.000    0.000    0.000    0.000 
#
# Total GULP energy -78045.935745 kJ/mol
# GULP energy per Si atom -5574.709696 kJ/mol
# Density = 2.639219 g / cm^3
# Si number density = 26.452395 Si / 1000 Ang^3
#
#
#
# Elastic Constant Matrix: (Units=GPa)
#
#
# Indices 1 2 3 4 5 6 
#
# 1 25.3113 14.2512 -2.5931 0.0000 -2.2548 0.0000
# 2 14.2512 209.2713 37.1796 0.0000 15.7751 0.0000
# 3 -2.5931 37.1796 124.4310 0.0000 16.1217 0.0000
# 4 0.0000 0.0000 0.0000 34.9875 0.0000 12.0383
# 5 -2.2548 15.7751 16.1217 0.0000 23.2826 0.0000
# 6 0.0000 0.0000 0.0000 12.0383 0.0000 31.2572
#
#
#
# Elastic Compliance Matrix: (Units=1/GPa)
#
#
# Indices 1 2 3 4 5 6 
#
# 1 0.042104 -0.003504 0.001196 0.000000 0.005624 0.000000
# 2 -0.003504 0.005486 -0.001304 0.000000 -0.003154 0.000000
# 3 0.001196 -0.001304 0.009142 0.000000 -0.005331 0.000000
# 4 0.000000 0.000000 0.000000 0.032948 0.000000 -0.012689
# 5 0.005624 -0.003154 -0.005331 0.000000 0.049323 0.000000
# 6 0.000000 0.000000 0.000000 -0.012689 0.000000 0.036880
#
#
# Mechanical properties :
#
#
# Convention : Reuss Voigt Hill
#
# Bulk Modulus (GPa) = 20.19833 50.74324 35.47078
# Shear Modulus (GPa) = 25.04890 38.58384 31.81637
#
# Velocity S-wave (km/s) = 3.08058 3.82332 3.47187
# Velocity P-wave (km/s) = 4.50618 6.22213 5.43233
#
# Compressibility (1/GPa) = 0.04950904
#
# Stress axis : x y z
#
# Youngs Moduli (GPa) = 23.75064 182.26741 109.38835
#
# Poissons Ratio (x) = 0.63859 -0.13079
# Poissons Ratio (y) = 0.08321 0.14261
# Poissons Ratio (z) = -0.02840 0.23762
#
# Static dielectric constant tensor:
#      x y z
#    x 2.185650 0.000000 -0.050770 
#    y 0.000000 2.099230 0.000000 
#    z -0.050770 0.000000 2.094010 
# 
# From -- ./inp_files/5775.got.cif
#   From: 2010.05.17/outbox.cif.g08.bks.cpg/sg4_3_cif.got.tgz:5775.got - 2010.06.03 18:43:04.
