data_PCOD9119914
_publ_section_title
;
Structure prediction by ZEFSAII (Michael W. Deem and Ramdas Pophale) SiO2 
 PCOD9119914
Probable space group: C 2
;
_chemical_formula_sum "Si O2"
_cell_formula_units_Z 22
_cell_length_a 15.841690
_cell_length_b 8.175531
_cell_length_c 18.912043
_cell_angle_alpha 90.000000
_cell_angle_beta 159.136416
_cell_angle_gamma 90.000000
_cell_volume 872.331915
_symmetry_space_group_name_H-M "C 2"
_symmetry_group_IT_number 5
_symmetry_cell_setting 'monoclinic'
loop_
_space_group_symop_operation_xyz
x,y,z
-x,y,-z
1/2+x,1/2+y,z
1/2-x,1/2+y,-z
loop_
_atom_site_type_symbol
_atom_site_label
_atom_site_fract_x
_atom_site_fract_y
_atom_site_fract_z
Si Si1 0.575859 0.224780 0.488550
Si Si2 0.000000 0.661810 0.000000
Si Si3 0.228244 0.670927 0.310424
Si Si4 0.888761 0.812232 0.643345
Si Si5 0.636187 0.945864 0.749955
Si Si6 0.014719 0.012584 0.857599
O O1 0.500000 0.317122 0.500000
O O2 0.552120 0.295224 0.391956
O O3 0.395622 0.070617 0.339913
O O4 0.845535 0.164503 0.710026
O O5 0.078109 0.574552 0.133532
O O6 0.220387 0.780814 0.153081
O O7 0.500000 0.664764 0.500000
O O8 0.163464 0.657570 0.343429
O O9 0.140513 0.860032 0.234460
O O10 0.632604 0.900003 0.443591
O O11 0.075671 0.930654 0.829541
O O12 0.775158 0.033759 0.922858
#
# Coordination Sequence:
#
# PCOD9119914 Si02
#       6
#     4   2   4   4   4   4
#     4  11  20  33  51  79 105 132 170 211 252 298
#     4  10  14  26  54  74  94 132 156 204 258 294
#     4   9  14  27  46  72  96 125 157 199 249 291
#     4   9  20  30  47  77 107 133 165 205 254 303
#     4  10  18  31  52  76 105 127 163 212 256 300
#     4   8  18  32  50  74 101 131 159 207 258 296
#
# _framework density 25.219757000000001
#
# number of rings (size 3 to 8) (size 9 to 14) (size 15 to 20)
#    1.091    1.455    1.818    2.727    0.000    1.455 
#    0.000    0.000    0.000    4.364    0.000    0.000 
#    0.000    0.000    0.000    0.000    0.000    0.000 
#
# Total GULP energy -61272.879703 kJ/mol
# GULP energy per Si atom -5570.261791 kJ/mol
# Density = 2.516236 g / cm^3
# Si number density = 25.219757 Si / 1000 Ang^3
#
#
#
# Elastic Constant Matrix: (Units=GPa)
#
#
# Indices 1 2 3 4 5 6 
#
# 1 184.6267 14.2905 35.2614 0.0004 -40.4932 -0.0006
# 2 14.2905 24.7797 13.3226 0.0055 -5.8631 0.0039
# 3 35.2614 13.3226 135.5279 0.0031 -47.5306 0.0037
# 4 0.0004 0.0055 0.0031 12.6101 0.0012 -5.2556
# 5 -40.4932 -5.8631 -47.5306 0.0012 50.4066 0.0004
# 6 -0.0006 0.0039 0.0037 -5.2556 0.0004 24.8235
#
#
#
# Elastic Compliance Matrix: (Units=1/GPa)
#
#
# Indices 1 2 3 4 5 6 
#
# 1 0.006762 -0.002838 0.000462 0.000001 0.005538 0.000001
# 2 -0.002838 0.043875 -0.003861 -0.000023 -0.000817 -0.000011
# 3 0.000462 -0.003861 0.011371 -0.000003 0.010644 -0.000002
# 4 0.000001 -0.000023 -0.000003 0.086976 -0.000007 0.018415
# 5 0.005538 -0.000817 0.010644 -0.000007 0.034229 -0.000003
# 6 0.000001 -0.000011 -0.000002 0.018415 -0.000003 0.044183
#
#
# Mechanical properties :
#
#
# Convention : Reuss Voigt Hill
#
# Bulk Modulus (GPa) = 20.18849 52.29815 36.24332
# Shear Modulus (GPa) = 19.50217 36.37203 27.93710
#
# Velocity S-wave (km/s) = 2.78383 3.80176 3.33189
# Velocity P-wave (km/s) = 4.28431 6.32875 5.40409
#
# Compressibility (1/GPa) = 0.04953318
#
# Stress axis : x y z
#
# Youngs Moduli (GPa) = 147.87733 22.79213 87.94410
#
# Poissons Ratio (x) = 0.06468 -0.04060
# Poissons Ratio (y) = 0.41965 0.33957
# Poissons Ratio (z) = -0.06826 0.08801
#
# Static dielectric constant tensor:
#      x y z
#    x 2.171310 0.000000 -0.106440 
#    y 0.000000 2.086900 0.000000 
#    z -0.106440 0.000000 1.971550 
# 
# From -- ./inp_files/66667.got.cif
#   From: 2010.05.17/outbox.cif.g08.bks.cpg/sg5_34_cif.got.tgz:66667.got - 2010.06.03 18:56:24.
