data_PCOD9119049
_publ_section_title
;
Structure prediction by ZEFSAII (Michael W. Deem and Ramdas Pophale) SiO2 
 PCOD9119049
Probable space group: P 21
;
_chemical_formula_sum "Si O2"
_cell_formula_units_Z 16
_cell_length_a 19.471945
_cell_length_b 7.728302
_cell_length_c 6.780303
_cell_angle_alpha 90.000000
_cell_angle_beta 39.429414
_cell_angle_gamma 90.000000
_cell_volume 648.042046
_symmetry_space_group_name_H-M "P 21"
_symmetry_group_IT_number 4
_symmetry_cell_setting 'monoclinic'
loop_
_space_group_symop_operation_xyz
x,y,z
-x,1/2+y,-z
loop_
_atom_site_type_symbol
_atom_site_label
_atom_site_fract_x
_atom_site_fract_y
_atom_site_fract_z
Si Si1 0.984639 0.290860 0.478378
Si Si2 0.644955 0.003779 0.719525
Si Si3 0.782959 0.501850 0.474134
Si Si4 0.452030 0.785754 0.348279
Si Si5 0.623314 0.558935 0.171631
Si Si6 0.978134 0.616266 0.239084
Si Si7 0.236769 0.234968 0.830774
Si Si8 0.851470 0.125130 0.447490
O O1 0.975779 0.270285 0.731402
O O2 0.950100 0.475014 0.468716
O O3 0.908401 0.153752 0.531599
O O4 0.111313 0.274368 0.145765
O O5 0.703398 0.881007 0.429845
O O6 0.612751 0.179955 0.675844
O O7 0.734460 0.040608 0.689622
O O8 0.541593 0.906267 0.040388
O O9 0.868683 0.644968 0.363317
O O10 0.756480 0.560648 0.315150
O O11 0.837054 0.317649 0.388764
O O12 0.680970 0.503821 0.842928
O O13 0.511894 0.642788 0.350073
O O14 0.390858 0.903998 0.642810
O O15 0.698266 0.700090 0.113745
O O16 0.063655 0.543039 0.893711
#
# Coordination Sequence:
#
# PCOD9119049 Si02
#       8
#     2   2   2   2   2   2   2   2
#     4  11  25  41  69 106 143 188 236 284 356 448
#     4  12  27  50  78 107 142 198 245 316 373 430
#     4  11  25  44  73 105 145 193 238 296 368 444
#     4  12  29  49  78 108 147 191 264 311 373 434
#     4  12  27  49  75 107 143 194 243 311 365 436
#     4  11  24  43  66 106 147 189 232 288 355 441
#     4  12  23  47  75 105 147 190 238 299 372 440
#     4  11  26  43  72 104 148 187 236 295 366 435
#
# _framework density 24.689754000000001
#
# number of rings (size 3 to 8) (size 9 to 14) (size 15 to 20)
#    0.000    0.500    5.000    2.250    5.250    4.000 
#    0.000    0.000    0.000    0.000    0.000    0.000 
#    0.000    0.000    0.000    0.000    0.000    0.000 
#
# Total GULP energy -89639.809850 kJ/mol
# GULP energy per Si atom -5602.488116 kJ/mol
# Density = 2.463356 g / cm^3
# Si number density = 24.689754 Si / 1000 Ang^3
#
#
#
# Elastic Constant Matrix: (Units=GPa)
#
#
# Indices 1 2 3 4 5 6 
#
# 1 108.7462 7.7771 -3.4026 0.0000 -1.1595 0.0000
# 2 7.7771 62.7842 3.1343 0.0000 0.5537 0.0000
# 3 -3.4026 3.1343 57.2773 0.0000 -3.0052 0.0000
# 4 0.0000 0.0000 0.0000 40.9266 0.0000 -0.3760
# 5 -1.1595 0.5537 -3.0052 0.0000 29.0483 0.0000
# 6 0.0000 0.0000 0.0000 -0.3760 0.0000 42.3668
#
#
#
# Elastic Compliance Matrix: (Units=1/GPa)
#
#
# Indices 1 2 3 4 5 6 
#
# 1 0.009306 -0.001189 0.000642 0.000000 0.000461 0.000000
# 2 -0.001189 0.016128 -0.000977 0.000000 -0.000456 0.000000
# 3 0.000642 -0.000977 0.017649 0.000000 0.001870 0.000000
# 4 0.000000 0.000000 0.000000 0.024436 0.000000 0.000217
# 5 0.000461 -0.000456 0.001870 0.000000 0.034646 0.000000
# 6 0.000000 0.000000 0.000000 0.000217 0.000000 0.023605
#
#
# Mechanical properties :
#
#
# Convention : Reuss Voigt Hill
#
# Bulk Modulus (GPa) = 24.97858 27.09170 26.03514
# Shear Modulus (GPa) = 35.17119 37.22159 36.19639
#
# Velocity S-wave (km/s) = 3.77838 3.88696 3.83306
# Velocity P-wave (km/s) = 5.40128 5.58044 5.49159
#
# Compressibility (1/GPa) = 0.04003430
#
# Stress axis : x y z
#
# Youngs Moduli (GPa) = 107.46054 62.00539 56.66159
#
# Poissons Ratio (x) = 0.07371 -0.03638
# Poissons Ratio (y) = 0.12775 0.05536
# Poissons Ratio (z) = -0.06899 0.06058
#
# Static dielectric constant tensor:
#      x y z
#    x 1.957420 0.000000 -0.029390 
#    y 0.000000 2.036260 0.000000 
#    z -0.029390 0.000000 1.894490 
# 
# From -- ./inp_files/2592.got.cif
#   From: 2010.05.17/outbox.cif.g08.bks.cpg/sg4_2_cif.got.tgz:2592.got - 2010.06.03 18:43:04.
