data_PCOD9119833
_publ_section_title
;
Structure prediction by ZEFSAII (Michael W. Deem and Ramdas Pophale) SiO2 
 PCOD9119833
Probable space group: P 21
;
_chemical_formula_sum "Si O2"
_cell_formula_units_Z 14
_cell_length_a 12.000000
_cell_length_b 9.000000
_cell_length_c 18.000000
_cell_angle_alpha 90.000000
_cell_angle_beta 20.000000
_cell_angle_gamma 90.000000
_cell_volume 664.887159
_symmetry_space_group_name_H-M "P 21"
_symmetry_group_IT_number 4
_symmetry_cell_setting 'monoclinic'
loop_
_space_group_symop_operation_xyz
x,y,z
-x,1/2+y,-z
loop_
_atom_site_type_symbol
_atom_site_label
_atom_site_fract_x
_atom_site_fract_y
_atom_site_fract_z
Si Si1 0.792423 0.647830 0.697413
Si Si2 0.159336 0.945820 0.464514
Si Si3 0.235683 0.835606 0.051494
Si Si4 0.334972 0.488150 0.100805
Si Si5 0.921676 0.064074 0.147167
Si Si6 0.199222 0.052904 0.672047
Si Si7 0.060761 0.409012 0.019437
O O1 0.920832 0.515515 0.565576
O O2 0.061201 0.774372 0.540705
O O3 0.502239 0.741077 0.837985
O O4 0.604013 0.584421 0.887393
O O5 0.552107 0.947946 0.218826
O O6 0.926695 0.033912 0.669823
O O7 0.935653 0.722542 0.249545
O O8 0.138600 0.991151 0.076289
O O9 0.431272 0.872638 0.004187
O O10 0.070447 0.451747 0.202370
O O11 0.549579 0.046201 0.412131
O O12 0.995573 0.234770 0.078520
O O13 0.004497 0.961175 0.023943
O O14 0.157128 0.000426 0.783779
#
# Coordination Sequence:
#
# PCOD9119833 Si02
#       7
#     2   2   2   2   2   2   2
#     4  10  24  43  69 103 140 173 229 281 347 407
#     4  11  23  43  70 102 133 183 221 288 341 401
#     4  10  23  45  70  99 137 179 228 281 340 409
#     4  10  22  43  69 100 138 174 221 281 342 402
#     4  12  27  46  69 100 140 183 231 280 347 409
#     4  11  23  49  70  99 139 180 229 287 342 404
#     4  12  26  45  71  99 137 182 233 282 337 416
#
# _framework density 21.056204999999999
#
# number of rings (size 3 to 8) (size 9 to 14) (size 15 to 20)
#    0.000    1.143    4.286    1.714    4.000    6.857 
#    7.714    0.000    0.000    0.000    0.000    0.000 
#    0.000    0.000    0.000    0.000    0.000    0.000 
#
# Total GULP energy -77947.562414 kJ/mol
# GULP energy per Si atom -5567.683030 kJ/mol
# Density = 2.100828 g / cm^3
# Si number density = 21.056205 Si / 1000 Ang^3
#
#
#
# Elastic Constant Matrix: (Units=GPa)
#
#
# Indices 1 2 3 4 5 6 
#
# 1 50.4149 7.3822 25.0230 0.0000 24.2359 0.0000
# 2 7.3822 64.7225 24.4049 0.0000 15.8057 0.0000
# 3 25.0230 24.4049 109.0837 0.0000 37.7801 0.0000
# 4 0.0000 0.0000 0.0000 41.5389 0.0000 3.9332
# 5 24.2359 15.8057 37.7801 0.0000 37.2737 0.0000
# 6 0.0000 0.0000 0.0000 3.9332 0.0000 32.3648
#
#
#
# Elastic Compliance Matrix: (Units=1/GPa)
#
#
# Indices 1 2 3 4 5 6 
#
# 1 0.028985 0.001499 -0.000365 0.000000 -0.019112 0.000000
# 2 0.001499 0.017613 -0.002096 0.000000 -0.006319 0.000000
# 3 -0.000365 -0.002096 0.014377 0.000000 -0.013446 0.000000
# 4 0.000000 0.000000 0.000000 0.024354 0.000000 -0.002960
# 5 -0.019112 -0.006319 -0.013446 0.000000 0.055564 0.000000
# 6 0.000000 0.000000 0.000000 -0.002960 0.000000 0.031257
#
#
# Mechanical properties :
#
#
# Convention : Reuss Voigt Hill
#
# Bulk Modulus (GPa) = 16.93454 37.53791 27.23622
# Shear Modulus (GPa) = 25.80548 33.39621 29.60084
#
# Velocity S-wave (km/s) = 3.50459 3.98685 3.75347
# Velocity P-wave (km/s) = 4.94330 6.24975 5.63452
#
# Compressibility (1/GPa) = 0.05905092
#
# Stress axis : x y z
#
# Youngs Moduli (GPa) = 34.50087 56.77616 69.55642
#
# Poissons Ratio (x) = -0.08510 0.02539
# Poissons Ratio (y) = -0.05171 0.14578
# Poissons Ratio (z) = 0.01259 0.11899
#
# Static dielectric constant tensor:
#      x y z
#    x 1.823450 0.000000 -0.023360 
#    y 0.000000 1.816490 0.000000 
#    z -0.023360 0.000000 1.755600 
# 
# From -- ./inp_files/12891.got.cif
#   From: 2010.05.17/outbox.ucp.g08.bks.cvg/sg4_7_cif.got.tgz:12891.got - 2010.06.11 12:51:24.
