data_PCOD9119658
_publ_section_title
;
Structure prediction by ZEFSAII (Michael W. Deem and Ramdas Pophale) SiO2 
 PCOD9119658
Probable space group: P 21
;
_chemical_formula_sum "Si O2"
_cell_formula_units_Z 14
_cell_length_a 16.137666
_cell_length_b 8.746628
_cell_length_c 5.115367
_cell_angle_alpha 90.000000
_cell_angle_beta 134.577356
_cell_angle_gamma 90.000000
_cell_volume 514.307963
_symmetry_space_group_name_H-M "P 21"
_symmetry_group_IT_number 4
_symmetry_cell_setting 'monoclinic'
loop_
_space_group_symop_operation_xyz
x,y,z
-x,1/2+y,-z
loop_
_atom_site_type_symbol
_atom_site_label
_atom_site_fract_x
_atom_site_fract_y
_atom_site_fract_z
Si Si1 0.365665 0.157360 0.320241
Si Si2 0.790289 0.936654 0.825534
Si Si3 0.434707 0.619755 0.559502
Si Si4 0.952984 0.186255 0.383694
Si Si5 0.391141 0.899025 0.786883
Si Si6 0.833502 0.696055 0.485927
Si Si7 0.139800 0.859333 0.321928
O O1 0.297770 0.302713 0.279763
O O2 0.505089 0.157775 0.584751
O O3 0.343059 0.014009 0.455524
O O4 0.297311 0.153565 0.891213
O O5 0.832442 0.856172 0.644693
O O6 0.697245 0.075011 0.669849
O O7 0.900333 0.016312 0.214713
O O8 0.457473 0.768696 0.777887
O O9 0.514376 0.482081 0.831184
O O10 0.924422 0.259762 0.598937
O O11 0.088391 0.197155 0.604398
O O12 0.894471 0.291113 0.031084
O O13 0.277098 0.837645 0.678886
O O14 0.882619 0.541896 0.729644
#
# Coordination Sequence:
#
# PCOD9119658 Si02
#       7
#     2   2   2   2   2   2   2
#     4  12  25  47  74 113 158 216 268 340 412 489
#     4  12  28  49  76 118 156 218 275 339 409 499
#     4  12  26  46  76 111 157 213 274 336 415 492
#     4  12  31  50  84 119 163 212 278 336 408 496
#     4  12  25  47  74 112 161 209 273 339 414 490
#     4  12  28  50  80 111 166 211 271 338 416 491
#     4  12  27  53  78 118 161 213 263 342 406 481
#
# _framework density 27.221046000000001
#
# number of rings (size 3 to 8) (size 9 to 14) (size 15 to 20)
#    0.000    0.000    4.286    4.286    6.000    3.429 
#    0.000    0.000    0.000    0.000    0.000    0.000 
#    0.000    0.000    0.000    0.000    0.000    0.000 
#
# Total GULP energy -78311.265393 kJ/mol
# GULP energy per Si atom -5593.661814 kJ/mol
# Density = 2.715909 g / cm^3
# Si number density = 27.221046 Si / 1000 Ang^3
#
#
#
# Elastic Constant Matrix: (Units=GPa)
#
#
# Indices 1 2 3 4 5 6 
#
# 1 161.8008 61.2999 32.0838 0.0000 28.6282 0.0000
# 2 61.2999 112.2430 10.5594 0.0000 1.5516 0.0000
# 3 32.0838 10.5594 82.1234 0.0000 23.2721 0.0000
# 4 0.0000 0.0000 0.0000 46.0669 0.0000 -0.3355
# 5 28.6282 1.5516 23.2721 0.0000 52.6848 0.0000
# 6 0.0000 0.0000 0.0000 -0.3355 0.0000 45.2596
#
#
#
# Elastic Compliance Matrix: (Units=1/GPa)
#
#
# Indices 1 2 3 4 5 6 
#
# 1 0.009020 -0.004703 -0.001794 0.000000 -0.003971 0.000000
# 2 -0.004703 0.011474 -0.000305 0.000000 0.002352 0.000000
# 3 -0.001794 -0.000305 0.014446 0.000000 -0.005397 0.000000
# 4 0.000000 0.000000 0.000000 0.021709 0.000000 0.000161
# 5 -0.003971 0.002352 -0.005397 0.000000 0.023453 0.000000
# 6 0.000000 0.000000 0.000000 0.000161 0.000000 0.022096
#
#
# Mechanical properties :
#
#
# Convention : Reuss Voigt Hill
#
# Bulk Modulus (GPa) = 46.86571 62.67261 54.76916
# Shear Modulus (GPa) = 40.67886 45.61718 43.14802
#
# Velocity S-wave (km/s) = 3.86993 4.09810 3.98565
# Velocity P-wave (km/s) = 6.10103 6.74286 6.42996
#
# Compressibility (1/GPa) = 0.02133756
#
# Stress axis : x y z
#
# Youngs Moduli (GPa) = 110.85975 87.15596 69.22123
#
# Poissons Ratio (x) = 0.40987 0.12420
# Poissons Ratio (y) = 0.52134 0.02108
# Poissons Ratio (z) = 0.19891 0.02654
#
# Static dielectric constant tensor:
#      x y z
#    x 2.165910 0.000000 -0.048860 
#    y 0.000000 2.181840 0.000000 
#    z -0.048860 0.000000 2.133140 
# 
# From -- ./inp_files/2385.got.cif
#   From: 2010.05.17/outbox.cif.g08.bks.cpg/sg4_2_cif.got.tgz:2385.got - 2010.06.03 18:43:04.
