data_PCOD9119725
_publ_section_title
;
Structure prediction by ZEFSAII (Michael W. Deem and Ramdas Pophale) SiO2 
 PCOD9119725
Probable space group: P 21
;
_chemical_formula_sum "Si O2"
_cell_formula_units_Z 16
_cell_length_a 6.787561
_cell_length_b 11.614555
_cell_length_c 9.610839
_cell_angle_alpha 90.000000
_cell_angle_beta 78.203094
_cell_angle_gamma 90.000000
_cell_volume 741.662604
_symmetry_space_group_name_H-M "P 21"
_symmetry_group_IT_number 4
_symmetry_cell_setting 'monoclinic'
loop_
_space_group_symop_operation_xyz
x,y,z
-x,1/2+y,-z
loop_
_atom_site_type_symbol
_atom_site_label
_atom_site_fract_x
_atom_site_fract_y
_atom_site_fract_z
Si Si1 0.495161 0.398460 0.149987
Si Si2 0.339771 0.326442 0.872262
Si Si3 0.867005 0.507126 0.547198
Si Si4 0.839721 0.579116 0.065690
Si Si5 0.849721 0.082594 0.738984
Si Si6 0.512392 0.167690 0.331737
Si Si7 0.899907 0.018339 0.208965
Si Si8 0.358524 0.779683 0.399303
O O1 0.704865 0.468739 0.124788
O O2 0.320192 0.484282 0.228987
O O3 0.490209 0.282481 0.241830
O O4 0.450449 0.369059 0.994924
O O5 0.290873 0.192707 0.892743
O O6 0.143854 0.403569 0.873343
O O7 0.465057 0.340170 0.712659
O O8 0.688527 0.590937 0.625352
O O9 0.781494 0.381467 0.526522
O O10 0.976339 0.555372 0.396654
O O11 0.030354 0.494319 0.645444
O O12 0.039513 0.589753 0.129917
O O13 0.915479 0.577712 0.896793
O O14 0.750388 0.199497 0.698195
O O15 0.698415 0.094742 0.242461
O O16 0.567950 0.205585 0.481121
#
# Coordination Sequence:
#
# PCOD9119725 Si02
#       8
#     2   2   2   2   2   2   2   2
#     4  12  29  48  74 109 149 186 241 304 358 423
#     4  12  26  48  77 103 147 192 240 298 356 430
#     4  12  27  47  75 105 145 192 241 293 364 426
#     4  12  27  47  75 105 145 192 241 293 364 426
#     4  12  27  48  72 109 145 190 240 295 362 431
#     4  12  29  48  74 109 149 186 241 304 358 423
#     4  12  27  48  72 109 145 190 240 295 362 431
#     4  12  26  48  77 103 147 192 240 298 356 430
#
# _framework density 21.573153000000001
#
# number of rings (size 3 to 8) (size 9 to 14) (size 15 to 20)
#    0.000    0.000    5.000    3.750   10.500    2.000 
#    0.000    0.000    0.000    0.000    0.000    0.000 
#    0.000    0.000    0.000    0.000    0.000    0.000 
#
# Total GULP energy -89578.705701 kJ/mol
# GULP energy per Si atom -5598.669106 kJ/mol
# Density = 2.152405 g / cm^3
# Si number density = 21.573153 Si / 1000 Ang^3
#
#
#
# Elastic Constant Matrix: (Units=GPa)
#
#
# Indices 1 2 3 4 5 6 
#
# 1 69.1979 29.9077 0.7135 0.0000 -4.6827 0.0000
# 2 29.9077 95.9086 0.6493 0.0000 4.7653 0.0000
# 3 0.7135 0.6493 64.8287 0.0000 -4.3075 0.0000
# 4 0.0000 0.0000 0.0000 36.4866 0.0000 2.2770
# 5 -4.6827 4.7653 -4.3075 0.0000 44.7340 0.0000
# 6 0.0000 0.0000 0.0000 2.2770 0.0000 24.3087
#
#
#
# Elastic Compliance Matrix: (Units=1/GPa)
#
#
# Indices 1 2 3 4 5 6 
#
# 1 0.016944 -0.005401 0.000024 0.000000 0.002351 0.000000
# 2 -0.005401 0.012206 -0.000188 0.000000 -0.001884 0.000000
# 3 0.000024 -0.000188 0.015528 0.000000 0.001518 0.000000
# 4 0.000000 0.000000 0.000000 0.027568 0.000000 -0.002582
# 5 0.002351 -0.001884 0.001518 0.000000 0.022947 0.000000
# 6 0.000000 0.000000 0.000000 -0.002582 0.000000 0.041379
#
#
# Mechanical properties :
#
#
# Convention : Reuss Voigt Hill
#
# Bulk Modulus (GPa) = 29.80818 32.49736 31.15277
# Shear Modulus (GPa) = 31.46919 34.35019 32.90969
#
# Velocity S-wave (km/s) = 3.82346 3.99465 3.90999
# Velocity P-wave (km/s) = 5.77400 6.03099 5.90389
#
# Compressibility (1/GPa) = 0.03354784
#
# Stress axis : x y z
#
# Youngs Moduli (GPa) = 59.01631 81.92937 64.40090
#
# Poissons Ratio (x) = 0.44249 -0.00154
# Poissons Ratio (y) = 0.31874 0.01211
# Poissons Ratio (z) = -0.00141 0.01540
#
# Static dielectric constant tensor:
#      x y z
#    x 1.776360 0.000000 -0.008130 
#    y 0.000000 1.753290 0.000000 
#    z -0.008130 0.000000 1.724230 
# 
# From -- ./inp_files/1355.got.cif
#   From: 2010.05.17/outbox.cif.g08.bks.cpg/sg4_1_cif.got.tgz:1355.got - 2010.06.03 18:43:04.
