data_PCOD9119109
_publ_section_title
;
Structure prediction by ZEFSAII (Michael W. Deem and Ramdas Pophale) SiO2 
 PCOD9119109
Probable space group: P 21
;
_chemical_formula_sum "Si O2"
_cell_formula_units_Z 12
_cell_length_a 15.264319
_cell_length_b 5.089040
_cell_length_c 5.682767
_cell_angle_alpha 90.000000
_cell_angle_beta 80.258593
_cell_angle_gamma 90.000000
_cell_volume 435.076541
_symmetry_space_group_name_H-M "P 21"
_symmetry_group_IT_number 4
_symmetry_cell_setting 'monoclinic'
loop_
_space_group_symop_operation_xyz
x,y,z
-x,1/2+y,-z
loop_
_atom_site_type_symbol
_atom_site_label
_atom_site_fract_x
_atom_site_fract_y
_atom_site_fract_z
Si Si1 0.990982 0.921880 0.842726
Si Si2 0.394705 0.629942 0.423320
Si Si3 0.252376 0.407170 0.784092
Si Si4 0.139161 0.156464 0.445914
Si Si5 0.712965 0.356478 0.897778
Si Si6 0.604525 0.608820 0.239296
O O1 0.903794 0.816862 0.749347
O O2 0.062536 0.990096 0.609551
O O3 0.021008 0.686184 0.000535
O O4 0.361793 0.406042 0.640012
O O5 0.327084 0.593558 0.244911
O O6 0.497496 0.630376 0.324467
O O7 0.373397 0.896257 0.567869
O O8 0.181248 0.346755 0.623275
O O9 0.278304 0.148189 0.913367
O O10 0.240166 0.668965 0.925421
O O11 0.216534 0.970500 0.320925
O O12 0.607787 0.458581 0.983213
#
# Coordination Sequence:
#
# PCOD9119109 Si02
#       6
#     2   2   2   2   2   2
#     4  12  32  60  93 129 166 222 282 353 443 537
#     4  11  24  44  75 109 168 221 276 336 406 479
#     4  11  27  49  77 114 162 217 272 342 407 495
#     4  12  30  59  85 125 169 212 279 356 431 506
#     4  11  29  46  77 120 159 222 278 339 417 499
#     4  11  24  46  69 115 158 218 275 332 402 486
#
# _framework density 27.581356
#
# number of rings (size 3 to 8) (size 9 to 14) (size 15 to 20)
#    0.000    0.667    3.333    1.000    7.000    8.000 
#    0.000    0.000    0.000    0.000    0.000    0.000 
#    0.000    0.000    0.000    0.000    0.000    0.000 
#
# Total GULP energy -67047.778558 kJ/mol
# GULP energy per Si atom -5587.314880 kJ/mol
# Density = 2.751858 g / cm^3
# Si number density = 27.581356 Si / 1000 Ang^3
#
#
#
# Elastic Constant Matrix: (Units=GPa)
#
#
# Indices 1 2 3 4 5 6 
#
# 1 141.2326 47.0964 46.0015 0.0000 1.3911 0.0000
# 2 47.0964 187.3678 51.6875 0.0000 -4.1080 0.0000
# 3 46.0015 51.6875 83.7120 0.0000 -9.6272 0.0000
# 4 0.0000 0.0000 0.0000 55.9202 0.0000 5.0366
# 5 1.3911 -4.1080 -9.6272 0.0000 58.4567 0.0000
# 6 0.0000 0.0000 0.0000 5.0366 0.0000 48.0767
#
#
#
# Elastic Compliance Matrix: (Units=1/GPa)
#
#
# Indices 1 2 3 4 5 6 
#
# 1 0.008851 -0.001053 -0.004329 0.000000 -0.000998 0.000000
# 2 -0.001053 0.006560 -0.003482 0.000000 -0.000087 0.000000
# 3 -0.004329 -0.003482 0.016776 0.000000 0.002621 0.000000
# 4 0.000000 0.000000 0.000000 0.018053 0.000000 -0.001891
# 5 -0.000998 -0.000087 0.002621 0.000000 0.017556 0.000000
# 6 0.000000 0.000000 0.000000 -0.001891 0.000000 0.020998
#
#
# Mechanical properties :
#
#
# Convention : Reuss Voigt Hill
#
# Bulk Modulus (GPa) = 69.15441 77.98702 73.57071
# Shear Modulus (GPa) = 44.90654 50.32585 47.61620
#
# Velocity S-wave (km/s) = 4.03941 4.27621 4.15949
# Velocity P-wave (km/s) = 6.84712 7.26071 7.05695
#
# Compressibility (1/GPa) = 0.01446039
#
# Stress axis : x y z
#
# Youngs Moduli (GPa) = 112.97795 152.43003 59.60876
#
# Poissons Ratio (x) = 0.16044 0.25803
# Poissons Ratio (y) = 0.11892 0.20758
# Poissons Ratio (z) = 0.48906 0.53081
#
# Static dielectric constant tensor:
#      x y z
#    x 2.143400 0.000000 -0.143390 
#    y 0.000000 2.164020 0.000000 
#    z -0.143390 0.000000 2.432670 
# 
# From -- ./inp_files/3321.got.cif
#   From: 2010.05.17/outbox.cif.g08.bks.cpg/sg4_2_cif.got.tgz:3321.got - 2010.06.03 18:43:04.
