data_PCOD9119327
_publ_section_title
;
Structure prediction by ZEFSAII (Michael W. Deem and Ramdas Pophale) SiO2 
 PCOD9119327
Probable space group: P 21
;
_chemical_formula_sum "Si O2"
_cell_formula_units_Z 14
_cell_length_a 9.120662
_cell_length_b 7.651138
_cell_length_c 8.237076
_cell_angle_alpha 90.000000
_cell_angle_beta 118.030565
_cell_angle_gamma 90.000000
_cell_volume 507.384425
_symmetry_space_group_name_H-M "P 21"
_symmetry_group_IT_number 4
_symmetry_cell_setting 'monoclinic'
loop_
_space_group_symop_operation_xyz
x,y,z
-x,1/2+y,-z
loop_
_atom_site_type_symbol
_atom_site_label
_atom_site_fract_x
_atom_site_fract_y
_atom_site_fract_z
Si Si1 0.424400 0.150950 0.728818
Si Si2 0.780159 0.101076 0.287743
Si Si3 0.905730 0.940731 0.808772
Si Si4 0.091474 0.991745 0.605907
Si Si5 0.451039 0.551096 0.513971
Si Si6 0.613342 0.851697 0.971465
Si Si7 0.805838 0.584345 0.835974
O O1 0.485861 0.203300 0.582491
O O2 0.464624 0.270014 0.905005
O O3 0.227842 0.130919 0.628202
O O4 0.480985 0.950908 0.791255
O O5 0.832934 0.302116 0.319081
O O6 0.642079 0.077791 0.360694
O O7 0.716171 0.017902 0.088310
O O8 0.942328 0.985606 0.404604
O O9 0.711323 0.991987 0.681397
O O10 0.894402 0.734029 0.777265
O O11 0.997947 0.049887 0.719235
O O12 0.041737 0.965093 0.023925
O O13 0.644907 0.501904 0.665207
O O14 0.718233 0.703131 0.934375
#
# Coordination Sequence:
#
# PCOD9119327 Si02
#       7
#     2   2   2   2   2   2   2
#     4  12  25  47  79 106 154 202 257 320 399 458
#     4  11  27  47  76 109 155 200 266 321 398 469
#     4  11  28  49  81 116 156 206 263 322 401 464
#     4  11  25  46  73 111 148 204 252 326 392 469
#     4  11  28  50  76 115 154 205 259 325 389 472
#     4  12  26  47  73 113 148 205 258 322 393 473
#     4  12  27  52  76 120 157 202 265 328 392 473
#
# _framework density 27.592490999999999
#
# number of rings (size 3 to 8) (size 9 to 14) (size 15 to 20)
#    0.000    0.571    2.857    3.429   10.000    2.286 
#    0.000    0.000    0.000    0.000    0.000    0.000 
#    0.000    0.000    0.000    0.000    0.000    0.000 
#
# Total GULP energy -78061.923970 kJ/mol
# GULP energy per Si atom -5575.851712 kJ/mol
# Density = 2.752969 g / cm^3
# Si number density = 27.592491 Si / 1000 Ang^3
#
#
#
# Elastic Constant Matrix: (Units=GPa)
#
#
# Indices 1 2 3 4 5 6 
#
# 1 144.1588 27.6832 67.4109 0.0000 24.1671 0.0000
# 2 27.6832 77.3336 42.6101 0.0000 40.5469 0.0000
# 3 67.4109 42.6101 144.1153 0.0000 52.4046 0.0000
# 4 0.0000 0.0000 0.0000 30.1772 0.0000 5.1563
# 5 24.1671 40.5469 52.4046 0.0000 72.8763 0.0000
# 6 0.0000 0.0000 0.0000 5.1563 0.0000 31.8578
#
#
#
# Elastic Compliance Matrix: (Units=1/GPa)
#
#
# Indices 1 2 3 4 5 6 
#
# 1 0.008973 -0.001338 -0.004049 0.000000 0.000680 0.000000
# 2 -0.001338 0.019041 -0.001778 0.000000 -0.008872 0.000000
# 3 -0.004049 -0.001778 0.011524 0.000000 -0.005955 0.000000
# 4 0.000000 0.000000 0.000000 0.034080 0.000000 -0.005516
# 5 0.000680 -0.008872 -0.005955 0.000000 0.022714 0.000000
# 6 0.000000 0.000000 0.000000 -0.005516 0.000000 0.032282
#
#
# Mechanical properties :
#
#
# Convention : Reuss Voigt Hill
#
# Bulk Modulus (GPa) = 39.66917 71.22403 55.44660
# Shear Modulus (GPa) = 33.03657 42.17581 37.60619
#
# Velocity S-wave (km/s) = 3.46396 3.91388 3.69577
# Velocity P-wave (km/s) = 5.51423 6.80393 6.19274
#
# Compressibility (1/GPa) = 0.02520849
#
# Stress axis : x y z
#
# Youngs Moduli (GPa) = 111.44492 52.51760 86.77641
#
# Poissons Ratio (x) = 0.07026 0.35136
# Poissons Ratio (y) = 0.14909 0.15429
# Poissons Ratio (z) = 0.45125 0.09337
#
# Static dielectric constant tensor:
#      x y z
#    x 2.180450 0.000000 -0.028500 
#    y 0.000000 2.148470 0.000000 
#    z -0.028500 0.000000 2.219550 
# 
# From -- ./inp_files/5288.got.cif
#   From: 2010.05.17/outbox.cif.g08.bks.cpg/sg4_3_cif.got.tgz:5288.got - 2010.06.03 18:43:04.
