data_PCOD9119250
_publ_section_title
;
Structure prediction by ZEFSAII (Michael W. Deem and Ramdas Pophale) SiO2 
 PCOD9119250
Probable space group: P 21
;
_chemical_formula_sum "Si O2"
_cell_formula_units_Z 14
_cell_length_a 5.181564
_cell_length_b 9.611241
_cell_length_c 15.078196
_cell_angle_alpha 90.000000
_cell_angle_beta 127.294016
_cell_angle_gamma 90.000000
_cell_volume 597.379031
_symmetry_space_group_name_H-M "P 21"
_symmetry_group_IT_number 4
_symmetry_cell_setting 'monoclinic'
loop_
_space_group_symop_operation_xyz
x,y,z
-x,1/2+y,-z
loop_
_atom_site_type_symbol
_atom_site_label
_atom_site_fract_x
_atom_site_fract_y
_atom_site_fract_z
Si Si1 0.632460 0.779930 0.948028
Si Si2 0.886819 0.100938 0.241233
Si Si3 0.345103 0.484236 0.298737
Si Si4 0.409719 0.674952 0.640097
Si Si5 0.699514 0.796388 0.171183
Si Si6 0.139906 0.576969 0.077943
Si Si7 0.984829 0.125802 0.617486
O O1 0.276902 0.729833 0.845550
O O2 0.722459 0.934698 0.935724
O O3 0.707552 0.774326 0.067754
O O4 0.859847 0.651508 0.962932
O O5 0.835585 0.129006 0.334519
O O6 0.263065 0.083830 0.295674
O O7 0.693687 0.960784 0.180019
O O8 0.463232 0.328082 0.310474
O O9 0.087799 0.527842 0.168876
O O10 0.188140 0.503827 0.362326
O O11 0.669474 0.576260 0.349933
O O12 0.235188 0.673785 0.509224
O O13 0.396241 0.702450 0.136066
O O14 0.970567 0.741718 0.296331
#
# Coordination Sequence:
#
# PCOD9119250 Si02
#       7
#     2   2   2   2   2   2   2
#     4  12  25  46  75 106 148 194 242 306 365 442
#     4  12  29  47  75 109 151 190 246 301 367 433
#     4  11  24  49  72 108 145 194 244 297 365 431
#     4  12  28  48  74 110 148 195 245 303 361 437
#     4  11  27  45  72 108 143 195 241 305 361 437
#     4  11  25  45  73 106 150 191 245 299 371 437
#     4  11  26  46  77 103 147 193 243 301 362 431
#
# _framework density 23.435708000000002
#
# number of rings (size 3 to 8) (size 9 to 14) (size 15 to 20)
#    0.000    0.571    2.857    3.429   12.000    1.143 
#    0.000    0.000    0.000    0.000    0.000    0.000 
#    0.000    0.000    0.000    0.000    0.000    0.000 
#
# Total GULP energy -78276.024264 kJ/mol
# GULP energy per Si atom -5591.144590 kJ/mol
# Density = 2.338237 g / cm^3
# Si number density = 23.435708 Si / 1000 Ang^3
#
#
#
# Elastic Constant Matrix: (Units=GPa)
#
#
# Indices 1 2 3 4 5 6 
#
# 1 48.4944 12.1444 35.1287 0.0000 -4.0750 0.0000
# 2 12.1444 43.8791 -12.7487 0.0000 4.8641 0.0000
# 3 35.1287 -12.7487 83.5637 0.0000 -11.7394 0.0000
# 4 0.0000 0.0000 0.0000 28.5235 0.0000 -5.6140
# 5 -4.0750 4.8641 -11.7394 0.0000 38.3526 0.0000
# 6 0.0000 0.0000 0.0000 -5.6140 0.0000 27.3942
#
#
#
# Elastic Compliance Matrix: (Units=1/GPa)
#
#
# Indices 1 2 3 4 5 6 
#
# 1 0.037856 -0.015834 -0.018268 0.000000 0.000439 0.000000
# 2 -0.015834 0.030617 0.011019 0.000000 -0.002192 0.000000
# 3 -0.018268 0.011019 0.021796 0.000000 0.003333 0.000000
# 4 0.000000 0.000000 0.000000 0.036532 0.000000 0.007487
# 5 0.000439 -0.002192 0.003333 0.000000 0.027419 0.000000
# 6 0.000000 0.000000 0.000000 0.007487 0.000000 0.038038
#
#
# Mechanical properties :
#
#
# Convention : Reuss Voigt Hill
#
# Bulk Modulus (GPa) = 22.67389 27.22067 24.94728
# Shear Modulus (GPa) = 19.75310 28.28159 24.01735
#
# Velocity S-wave (km/s) = 2.90636 3.47763 3.20475
# Velocity P-wave (km/s) = 4.57805 5.26930 4.93579
#
# Compressibility (1/GPa) = 0.04410360
#
# Stress axis : x y z
#
# Youngs Moduli (GPa) = 26.41575 32.66179 45.88023
#
# Poissons Ratio (x) = 0.51716 0.83815
# Poissons Ratio (y) = 0.41826 -0.50557
# Poissons Ratio (z) = 0.48257 -0.35991
#
# Static dielectric constant tensor:
#      x y z
#    x 1.904500 0.000000 0.035280 
#    y 0.000000 1.897220 0.000000 
#    z 0.035280 0.000000 1.898150 
# 
# From -- ./inp_files/2368.got.cif
#   From: 2010.05.17/outbox.cif.g08.bks.cpg/sg4_2_cif.got.tgz:2368.got - 2010.06.03 18:43:04.
