data_PCOD9119877
_publ_section_title
;
Structure prediction by ZEFSAII (Michael W. Deem and Ramdas Pophale) SiO2 
 PCOD9119877
Probable space group: P 21
;
_chemical_formula_sum "Si O2"
_cell_formula_units_Z 16
_cell_length_a 6.000000
_cell_length_b 9.000000
_cell_length_c 15.000000
_cell_angle_alpha 90.000000
_cell_angle_beta 110.000000
_cell_angle_gamma 90.000000
_cell_volume 761.151023
_symmetry_space_group_name_H-M "P 21"
_symmetry_group_IT_number 4
_symmetry_cell_setting 'monoclinic'
loop_
_space_group_symop_operation_xyz
x,y,z
-x,1/2+y,-z
loop_
_atom_site_type_symbol
_atom_site_label
_atom_site_fract_x
_atom_site_fract_y
_atom_site_fract_z
Si Si1 0.008904 0.292020 0.272671
Si Si2 0.449964 0.364072 0.018923
Si Si3 0.979833 0.026060 0.127695
Si Si4 0.533667 0.942597 0.774088
Si Si5 0.174416 0.081347 0.960417
Si Si6 0.194354 0.725568 0.227410
Si Si7 0.787849 0.633592 0.521819
Si Si8 0.218706 0.765974 0.443432
O O1 0.954107 0.158773 0.195142
O O2 0.252655 0.372435 0.262098
O O3 0.100876 0.211589 0.375235
O O4 0.751085 0.381231 0.263061
O O5 0.391497 0.406298 0.113614
O O6 0.716782 0.418906 0.039756
O O7 0.398726 0.192346 0.994429
O O8 0.268012 0.443926 0.926513
O O9 0.164532 0.895215 0.185366
O O10 0.059116 0.087173 0.041953
O O11 0.571400 0.120694 0.759509
O O12 0.005089 0.135261 0.857292
O O13 0.157687 0.741255 0.329484
O O14 0.501312 0.696164 0.483545
O O15 0.777830 0.447824 0.530167
O O16 0.996212 0.686777 0.473101
#
# Coordination Sequence:
#
# PCOD9119877 Si02
#       8
#     2   2   2   2   2   2   2   2
#     4  12  27  51  77 113 150 211 259 327 399 482
#     4  11  24  40  67 105 150 207 249 316 374 466
#     4  11  24  49  71 107 161 205 267 311 403 464
#     4  12  26  43  77 112 158 200 262 317 389 472
#     4  11  24  45  71 108 158 210 260 321 393 472
#     4  11  27  49  77 116 155 210 263 337 392 489
#     4  12  29  55  85 117 159 209 267 344 411 480
#     4  12  29  56  83 120 159 208 269 339 413 483
#
# _framework density 21.020796000000001
#
# number of rings (size 3 to 8) (size 9 to 14) (size 15 to 20)
#    0.000    0.500    3.750    3.000    7.000    1.000 
#    2.250    0.000    0.000    0.000    0.000    0.000 
#    0.000    0.000    0.000    0.000    0.000    0.000 
#
# Total GULP energy -89113.745880 kJ/mol
# GULP energy per Si atom -5569.609117 kJ/mol
# Density = 2.097295 g / cm^3
# Si number density = 21.020796 Si / 1000 Ang^3
#
#
#
# Elastic Constant Matrix: (Units=GPa)
#
#
# Indices 1 2 3 4 5 6 
#
# 1 145.4441 52.0006 43.8868 0.0000 -2.6080 0.0000
# 2 52.0006 129.3540 32.1979 0.0000 5.2820 0.0000
# 3 43.8868 32.1979 152.0601 0.0000 -14.0733 0.0000
# 4 0.0000 0.0000 0.0000 42.7400 0.0000 0.5311
# 5 -2.6080 5.2820 -14.0733 0.0000 42.0270 0.0000
# 6 0.0000 0.0000 0.0000 0.5311 0.0000 57.5742
#
#
#
# Elastic Compliance Matrix: (Units=1/GPa)
#
#
# Indices 1 2 3 4 5 6 
#
# 1 0.008486 -0.002978 -0.001791 0.000000 0.000301 0.000000
# 2 -0.002978 0.009319 -0.001279 0.000000 -0.001784 0.000000
# 3 -0.001791 -0.001279 0.007604 0.000000 0.002596 0.000000
# 4 0.000000 0.000000 0.000000 0.023400 0.000000 -0.000216
# 5 0.000301 -0.001784 0.002596 0.000000 0.024906 0.000000
# 6 0.000000 0.000000 0.000000 -0.000216 0.000000 0.017371
#
#
# Mechanical properties :
#
#
# Convention : Reuss Voigt Hill
#
# Bulk Modulus (GPa) = 75.10848 75.89208 75.50028
# Shear Modulus (GPa) = 46.45987 48.38642 47.42315
#
# Velocity S-wave (km/s) = 4.70636 4.80295 4.75490
# Velocity P-wave (km/s) = 8.08339 8.18166 8.13267
#
# Compressibility (1/GPa) = 0.01331408
#
# Stress axis : x y z
#
# Youngs Moduli (GPa) = 117.84207 107.30693 131.50548
#
# Poissons Ratio (x) = 0.31955 0.23549
# Poissons Ratio (y) = 0.35093 0.16819
# Poissons Ratio (z) = 0.21102 0.13724
#
# Static dielectric constant tensor:
#      x y z
#    x 1.846130 0.000000 0.018970 
#    y 0.000000 1.826790 0.000000 
#    z 0.018970 0.000000 1.778670 
# 
# From -- ./inp_files/13235.got.cif
#   From: 2010.05.17/outbox.ucp.g08.bks.cvg/sg4_7_cif.got.tgz:13235.got - 2010.06.11 12:51:24.
