data_PCOD9119086
_publ_section_title
;
Structure prediction by ZEFSAII (Michael W. Deem and Ramdas Pophale) SiO2 
 PCOD9119086
Probable space group: P 21
;
_chemical_formula_sum "Si O2"
_cell_formula_units_Z 14
_cell_length_a 13.622853
_cell_length_b 8.395543
_cell_length_c 5.684769
_cell_angle_alpha 90.000000
_cell_angle_beta 122.370797
_cell_angle_gamma 90.000000
_cell_volume 549.137665
_symmetry_space_group_name_H-M "P 21"
_symmetry_group_IT_number 4
_symmetry_cell_setting 'monoclinic'
loop_
_space_group_symop_operation_xyz
x,y,z
-x,1/2+y,-z
loop_
_atom_site_type_symbol
_atom_site_label
_atom_site_fract_x
_atom_site_fract_y
_atom_site_fract_z
Si Si1 0.385922 0.539730 0.400345
Si Si2 0.357262 0.838930 0.032192
Si Si3 0.768107 0.806831 0.485217
Si Si4 0.869325 0.322898 0.558840
Si Si5 0.199366 0.006709 0.135568
Si Si6 0.973648 0.001285 0.534812
Si Si7 0.544918 0.781113 0.887902
O O1 0.286927 0.449035 0.424982
O O2 0.468629 0.636776 0.685457
O O3 0.444984 0.403853 0.315294
O O4 0.348842 0.671477 0.159094
O O5 0.252810 0.863932 0.715545
O O6 0.471895 0.839782 0.021619
O O7 0.323043 0.972930 0.177641
O O8 0.788141 0.652213 0.670583
O O9 0.889244 0.866814 0.532516
O O10 0.674519 0.763248 0.161600
O O11 0.840347 0.340658 0.792876
O O12 0.902911 0.161374 0.474876
O O13 0.977155 0.441829 0.650206
O O14 0.093214 0.035906 0.825666
#
# Coordination Sequence:
#
# PCOD9119086 Si02
#       7
#     2   2   2   2   2   2   2
#     4  12  28  47  73 105 147 196 243 300 368 438
#     4  11  26  48  72 104 144 192 244 301 364 438
#     4  12  28  47  75 113 149 194 249 304 367 442
#     4  11  24  44  71 102 144 194 247 308 368 432
#     4  11  26  46  75 105 144 194 246 307 374 433
#     4  11  24  45  71 106 146 190 248 309 369 434
#     4  12  28  49  73 107 148 192 245 303 366 441
#
# _framework density 25.494516000000001
#
# number of rings (size 3 to 8) (size 9 to 14) (size 15 to 20)
#    0.000    0.571    0.000    6.857    0.000   20.571 
#    0.000    0.000    0.000    0.000    0.000    0.000 
#    0.000    0.000    0.000    0.000    0.000    0.000 
#
# Total GULP energy -78394.244064 kJ/mol
# GULP energy per Si atom -5599.588862 kJ/mol
# Density = 2.543649 g / cm^3
# Si number density = 25.494516 Si / 1000 Ang^3
#
#
#
# Elastic Constant Matrix: (Units=GPa)
#
#
# Indices 1 2 3 4 5 6 
#
# 1 146.9474 50.2034 41.4521 0.0000 -0.6807 0.0000
# 2 50.2034 87.8252 5.1750 0.0000 -10.0675 0.0000
# 3 41.4521 5.1750 64.2908 0.0000 4.1991 0.0000
# 4 0.0000 0.0000 0.0000 49.1567 0.0000 -0.7729
# 5 -0.6807 -10.0675 4.1991 0.0000 40.8569 0.0000
# 6 0.0000 0.0000 0.0000 -0.7729 0.0000 54.1480
#
#
#
# Elastic Compliance Matrix: (Units=1/GPa)
#
#
# Indices 1 2 3 4 5 6 
#
# 1 0.010530 -0.005716 -0.006291 0.000000 -0.000586 0.000000
# 2 -0.005716 0.014903 0.002267 0.000000 0.003344 0.000000
# 3 -0.006291 0.002267 0.019529 0.000000 -0.001553 0.000000
# 4 0.000000 0.000000 0.000000 0.020348 0.000000 0.000290
# 5 -0.000586 0.003344 -0.001553 0.000000 0.025450 0.000000
# 6 0.000000 0.000000 0.000000 0.000290 0.000000 0.018472
#
#
# Mechanical properties :
#
#
# Convention : Reuss Voigt Hill
#
# Bulk Modulus (GPa) = 39.24059 54.74714 46.99386
# Shear Modulus (GPa) = 36.44198 42.31450 39.37824
#
# Velocity S-wave (km/s) = 3.78485 4.07842 3.93437
# Velocity P-wave (km/s) = 5.87582 6.61050 6.25396
#
# Compressibility (1/GPa) = 0.02548382
#
# Stress axis : x y z
#
# Youngs Moduli (GPa) = 94.96971 67.09970 51.20512
#
# Poissons Ratio (x) = 0.38352 0.32212
# Poissons Ratio (y) = 0.54281 -0.11609
# Poissons Ratio (z) = 0.59743 -0.15213
#
# Static dielectric constant tensor:
#      x y z
#    x 1.994150 0.000000 -0.038430 
#    y 0.000000 2.084720 0.000000 
#    z -0.038430 0.000000 2.008650 
# 
# From -- ./inp_files/2518.got.cif
#   From: 2010.05.17/outbox.cif.g08.bks.cpg/sg4_2_cif.got.tgz:2518.got - 2010.06.03 18:43:04.
