data_PCOD9119007
_publ_section_title
;
Structure prediction by ZEFSAII (Michael W. Deem and Ramdas Pophale) SiO2 
 PCOD9119007
Probable space group: P 21
;
_chemical_formula_sum "Si O2"
_cell_formula_units_Z 16
_cell_length_a 12.868717
_cell_length_b 5.476093
_cell_length_c 15.334183
_cell_angle_alpha 90.000000
_cell_angle_beta 141.668889
_cell_angle_gamma 90.000000
_cell_volume 670.196285
_symmetry_space_group_name_H-M "P 21"
_symmetry_group_IT_number 4
_symmetry_cell_setting 'monoclinic'
loop_
_space_group_symop_operation_xyz
x,y,z
-x,1/2+y,-z
loop_
_atom_site_type_symbol
_atom_site_label
_atom_site_fract_x
_atom_site_fract_y
_atom_site_fract_z
Si Si1 0.133753 0.507490 0.222923
Si Si2 0.212327 0.769106 0.966779
Si Si3 0.609752 0.140215 0.305663
Si Si4 0.007034 0.400103 0.738138
Si Si5 0.379871 0.516417 0.232103
Si Si6 0.950508 0.329956 0.513832
Si Si7 0.298799 0.261885 0.485994
Si Si8 0.529307 0.516548 0.967082
O O1 0.075614 0.747133 0.237758
O O2 0.213932 0.523456 0.181006
O O3 0.277605 0.391663 0.379012
O O4 0.964549 0.348646 0.109394
O O5 0.170534 0.534352 0.880646
O O6 0.344105 0.694053 0.127286
O O7 0.286113 0.975054 0.952482
O O8 0.439367 0.258785 0.231226
O O9 0.748729 0.351306 0.387546
O O10 0.686411 0.957559 0.426997
O O11 0.585410 0.030831 0.194468
O O12 0.027128 0.267105 0.659326
O O13 0.870778 0.606661 0.622107
O O14 0.534056 0.604610 0.393120
O O15 0.016745 0.588712 0.522652
O O16 0.509634 0.768918 0.005707
#
# Coordination Sequence:
#
# PCOD9119007 Si02
#       8
#     2   2   2   2   2   2   2   2
#     4  11  28  45  82 112 158 208 262 324 405 478
#     4  11  29  50  74 113 162 204 261 329 387 489
#     4  12  27  51  75 112 163 197 273 336 389 478
#     4  11  26  50  73 112 160 198 265 326 394 472
#     4  12  27  48  80 113 158 210 262 323 407 479
#     4  12  28  47  80 115 152 210 259 328 400 466
#     4  11  23  48  76 109 154 199 258 324 394 460
#     4  12  30  53  82 116 155 218 268 328 404 472
#
# _framework density 23.873605000000001
#
# number of rings (size 3 to 8) (size 9 to 14) (size 15 to 20)
#    0.000    0.500    3.750    1.500   12.250    1.000 
#    0.000    0.000    0.000    0.000    0.000    0.000 
#    0.000    0.000    0.000    0.000    0.000    0.000 
#
# Total GULP energy -89567.228924 kJ/mol
# GULP energy per Si atom -5597.951808 kJ/mol
# Density = 2.381927 g / cm^3
# Si number density = 23.873605 Si / 1000 Ang^3
#
#
#
# Elastic Constant Matrix: (Units=GPa)
#
#
# Indices 1 2 3 4 5 6 
#
# 1 101.7710 33.0213 14.9143 0.0000 -6.1992 0.0000
# 2 33.0213 106.0184 20.6339 0.0000 -14.4837 0.0000
# 3 14.9143 20.6339 85.9829 0.0000 -13.0255 0.0000
# 4 0.0000 0.0000 0.0000 46.7312 0.0000 3.8809
# 5 -6.1992 -14.4837 -13.0255 0.0000 34.0223 0.0000
# 6 0.0000 0.0000 0.0000 3.8809 0.0000 24.8540
#
#
#
# Elastic Compliance Matrix: (Units=1/GPa)
#
#
# Indices 1 2 3 4 5 6 
#
# 1 0.011038 -0.003190 -0.001115 0.000000 0.000226 0.000000
# 2 -0.003190 0.011227 -0.001598 0.000000 0.003587 0.000000
# 3 -0.001115 -0.001598 0.012816 0.000000 0.004024 0.000000
# 4 0.000000 0.000000 0.000000 0.021680 0.000000 -0.003385
# 5 0.000226 0.003587 0.004024 0.000000 0.032501 0.000000
# 6 0.000000 0.000000 0.000000 -0.003385 0.000000 0.040764
#
#
# Mechanical properties :
#
#
# Convention : Reuss Voigt Hill
#
# Bulk Modulus (GPa) = 42.96152 47.87903 45.42027
# Shear Modulus (GPa) = 33.42467 36.13502 34.77984
#
# Velocity S-wave (km/s) = 3.74581 3.89472 3.82099
# Velocity P-wave (km/s) = 6.06157 6.35011 6.20751
#
# Compressibility (1/GPa) = 0.02327664
#
# Stress axis : x y z
#
# Youngs Moduli (GPa) = 90.59410 89.07222 78.02443
#
# Poissons Ratio (x) = 0.28415 0.08698
# Poissons Ratio (y) = 0.28901 0.12465
# Poissons Ratio (z) = 0.10099 0.14229
#
# Static dielectric constant tensor:
#      x y z
#    x 1.933560 0.000000 0.028500 
#    y 0.000000 1.962290 0.000000 
#    z 0.028500 0.000000 1.888910 
# 
# From -- ./inp_files/13868.got.cif
#   From: 2010.05.17/outbox.cif.g08.bks.cpg/sg4_7_cif.got.tgz:13868.got - 2010.06.03 18:43:04.
