data_PCOD9119371
_publ_section_title
;
Structure prediction by ZEFSAII (Michael W. Deem and Ramdas Pophale) SiO2 
 PCOD9119371
Probable space group: P 21
;
_chemical_formula_sum "Si O2"
_cell_formula_units_Z 14
_cell_length_a 6.022217
_cell_length_b 15.800867
_cell_length_c 6.078651
_cell_angle_alpha 90.000000
_cell_angle_beta 80.825323
_cell_angle_gamma 90.000000
_cell_volume 571.021788
_symmetry_space_group_name_H-M "P 21"
_symmetry_group_IT_number 4
_symmetry_cell_setting 'monoclinic'
loop_
_space_group_symop_operation_xyz
x,y,z
-x,1/2+y,-z
loop_
_atom_site_type_symbol
_atom_site_label
_atom_site_fract_x
_atom_site_fract_y
_atom_site_fract_z
Si Si1 0.661579 0.013020 0.202202
Si Si2 0.363898 0.874025 0.089392
Si Si3 0.984277 0.434575 0.146584
Si Si4 0.017186 0.658364 0.752223
Si Si5 0.999823 0.821337 0.482941
Si Si6 0.302596 0.232916 0.825267
Si Si7 0.698333 0.569887 0.441753
O O1 0.516901 0.015284 0.448254
O O2 0.770600 0.106355 0.186743
O O3 0.483653 0.966023 0.070370
O O4 0.877326 0.958884 0.092286
O O5 0.205726 0.866905 0.329215
O O6 0.523484 0.793308 0.079589
O O7 0.209907 0.871711 0.901156
O O8 0.107315 0.384171 0.320430
O O9 0.871854 0.517317 0.266940
O O10 0.844229 0.601136 0.631670
O O11 0.084170 0.734934 0.582121
O O12 0.876835 0.697523 0.973626
O O13 0.818862 0.791673 0.334487
O O14 0.388727 0.151128 0.679426
#
# Coordination Sequence:
#
# PCOD9119371 Si02
#       7
#     2   2   2   2   2   2   2
#     4  12  25  46  78 108 153 197 247 314 377 446
#     4  12  26  45  74 112 150 197 254 311 380 452
#     4  12  27  50  74 113 153 194 255 311 375 458
#     4  11  25  48  75 113 151 196 259 317 372 454
#     4  11  25  48  74 107 153 201 253 314 376 451
#     4  11  26  50  78 108 153 201 257 313 379 450
#     4  11  26  49  77 111 149 202 253 306 385 449
#
# _framework density 24.517455000000002
#
# number of rings (size 3 to 8) (size 9 to 14) (size 15 to 20)
#    0.000    0.571    2.857    4.286    2.000    6.857 
#    2.571    0.000    0.000    0.000    0.000    0.000 
#    0.000    0.000    0.000    0.000    0.000    0.000 
#
# Total GULP energy -78265.686757 kJ/mol
# GULP energy per Si atom -5590.406197 kJ/mol
# Density = 2.446165 g / cm^3
# Si number density = 24.517455 Si / 1000 Ang^3
#
#
#
# Elastic Constant Matrix: (Units=GPa)
#
#
# Indices 1 2 3 4 5 6 
#
# 1 69.2218 44.6618 42.3975 0.0000 -4.0500 0.0000
# 2 44.6618 112.1960 54.8290 0.0000 7.1875 0.0000
# 3 42.3975 54.8290 89.2177 0.0000 -0.5512 0.0000
# 4 0.0000 0.0000 0.0000 54.7740 0.0000 -9.5509
# 5 -4.0500 7.1875 -0.5512 0.0000 32.2513 0.0000
# 6 0.0000 0.0000 0.0000 -9.5509 0.0000 57.6786
#
#
#
# Elastic Compliance Matrix: (Units=1/GPa)
#
#
# Indices 1 2 3 4 5 6 
#
# 1 0.022894 -0.005814 -0.007281 0.000000 0.004046 0.000000
# 2 -0.005814 0.014507 -0.006177 0.000000 -0.004069 0.000000
# 3 -0.007281 -0.006177 0.018470 0.000000 0.000778 0.000000
# 4 0.000000 0.000000 0.000000 0.018800 0.000000 0.003113
# 5 0.004046 -0.004069 0.000778 0.000000 0.032435 0.000000
# 6 0.000000 0.000000 0.000000 0.003113 0.000000 0.017853
#
#
# Mechanical properties :
#
#
# Convention : Reuss Voigt Hill
#
# Bulk Modulus (GPa) = 57.72078 61.60138 59.66108
# Shear Modulus (GPa) = 29.53693 37.52393 33.53043
#
# Velocity S-wave (km/s) = 3.47469 3.91640 3.70214
# Velocity P-wave (km/s) = 6.30014 6.75507 6.53157
#
# Compressibility (1/GPa) = 0.01732478
#
# Stress axis : x y z
#
# Youngs Moduli (GPa) = 43.67908 68.93242 54.14209
#
# Poissons Ratio (x) = 0.40080 0.39423
# Poissons Ratio (y) = 0.25397 0.33446
# Poissons Ratio (z) = 0.31805 0.42582
#
# Static dielectric constant tensor:
#      x y z
#    x 1.949590 0.000000 -0.009470 
#    y 0.000000 1.941730 0.000000 
#    z -0.009470 0.000000 1.904850 
# 
# From -- ./inp_files/310.got.cif
#   From: 2010.05.17/outbox.cif.g08.bks.cpg/sg4_1_cif.got.tgz:310.got - 2010.06.03 18:43:04.
