data_PCOD9119503
_publ_section_title
;
Structure prediction by ZEFSAII (Michael W. Deem and Ramdas Pophale) SiO2 
 PCOD9119503
Probable space group: P 21
;
_chemical_formula_sum "Si O2"
_cell_formula_units_Z 14
_cell_length_a 9.881126
_cell_length_b 6.794077
_cell_length_c 16.953291
_cell_angle_alpha 90.000000
_cell_angle_beta 30.530577
_cell_angle_gamma 90.000000
_cell_volume 578.166627
_symmetry_space_group_name_H-M "P 21"
_symmetry_group_IT_number 4
_symmetry_cell_setting 'monoclinic'
loop_
_space_group_symop_operation_xyz
x,y,z
-x,1/2+y,-z
loop_
_atom_site_type_symbol
_atom_site_label
_atom_site_fract_x
_atom_site_fract_y
_atom_site_fract_z
Si Si1 0.324977 0.297540 0.835391
Si Si2 0.827010 0.880546 0.252921
Si Si3 0.309708 0.148455 0.532229
Si Si4 0.740302 0.678206 0.961314
Si Si5 0.260715 0.479734 0.434266
Si Si6 0.329173 0.146246 0.270405
Si Si7 0.227390 0.446939 0.193363
O O1 0.129643 0.325048 0.859902
O O2 0.451185 0.496064 0.808235
O O3 0.560168 0.166643 0.678108
O O4 0.204592 0.198525 0.973499
O O5 0.577382 0.030059 0.381824
O O6 0.079506 0.998225 0.159402
O O7 0.748378 0.699356 0.347731
O O8 0.323943 0.359068 0.481783
O O9 0.057919 0.017380 0.630388
O O10 0.803172 0.873522 0.880675
O O11 0.432710 0.622924 0.103685
O O12 0.311911 0.322817 0.340484
O O13 0.952672 0.536321 0.590271
O O14 0.350562 0.257607 0.176409
#
# Coordination Sequence:
#
# PCOD9119503 Si02
#       7
#     2   2   2   2   2   2   2
#     4  12  26  44  70 108 148 190 232 294 366 446
#     4  12  27  46  71 105 147 194 237 294 365 432
#     4  12  25  48  74 105 145 190 251 305 355 426
#     4  12  27  46  71 105 147 194 237 294 365 432
#     4  12  22  42  73 108 144 181 245 301 358 418
#     4  12  22  42  73 108 144 181 245 301 358 418
#     4  12  25  48  74 105 145 190 251 305 355 426
#
# _framework density 24.214471
#
# number of rings (size 3 to 8) (size 9 to 14) (size 15 to 20)
#    0.000    0.000    4.286    6.857    0.000    3.429 
#    0.000    0.000    0.000    0.000    0.000    0.000 
#    0.000    0.000    0.000    0.000    0.000    0.000 
#
# Total GULP energy -78455.552797 kJ/mol
# GULP energy per Si atom -5603.968057 kJ/mol
# Density = 2.415936 g / cm^3
# Si number density = 24.214471 Si / 1000 Ang^3
#
#
#
# Elastic Constant Matrix: (Units=GPa)
#
#
# Indices 1 2 3 4 5 6 
#
# 1 73.1119 23.4452 13.1354 0.0000 28.5188 0.0000
# 2 23.4452 61.3387 8.7264 0.0000 8.5920 0.0000
# 3 13.1354 8.7264 53.3094 0.0000 12.8559 0.0000
# 4 0.0000 0.0000 0.0000 50.1206 0.0000 8.4680
# 5 28.5188 8.5920 12.8559 0.0000 48.1894 0.0000
# 6 0.0000 0.0000 0.0000 8.4680 0.0000 55.0815
#
#
#
# Elastic Compliance Matrix: (Units=1/GPa)
#
#
# Indices 1 2 3 4 5 6 
#
# 1 0.019864 -0.005944 -0.001434 0.000000 -0.010313 0.000000
# 2 -0.005944 0.018734 -0.001758 0.000000 0.000646 0.000000
# 3 -0.001434 -0.001758 0.020434 0.000000 -0.004289 0.000000
# 4 0.000000 0.000000 0.000000 0.020484 0.000000 -0.003149
# 5 -0.010313 0.000646 -0.004289 0.000000 0.027884 0.000000
# 6 0.000000 0.000000 0.000000 -0.003149 0.000000 0.018639
#
#
# Mechanical properties :
#
#
# Convention : Reuss Voigt Hill
#
# Bulk Modulus (GPa) = 24.53386 30.93043 27.73214
# Shear Modulus (GPa) = 31.66580 40.17519 35.92049
#
# Velocity S-wave (km/s) = 3.62017 4.07767 3.85571
# Velocity P-wave (km/s) = 5.25624 5.91364 5.59460
#
# Compressibility (1/GPa) = 0.04076000
#
# Stress axis : x y z
#
# Youngs Moduli (GPa) = 50.34132 53.37777 48.93813
#
# Poissons Ratio (x) = 0.31727 0.07020
# Poissons Ratio (y) = 0.29923 0.08603
# Poissons Ratio (z) = 0.07221 0.09384
#
# Static dielectric constant tensor:
#      x y z
#    x 1.971900 0.000000 0.070220 
#    y 0.000000 1.920810 0.000000 
#    z 0.070220 0.000000 1.892420 
# 
# From -- ./inp_files/5161.got.cif
#   From: 2010.05.17/outbox.cif.g08.bks.cpg/sg4_3_cif.got.tgz:5161.got - 2010.06.03 18:43:04.
