data_PCOD9119266
_publ_section_title
;
Structure prediction by ZEFSAII (Michael W. Deem and Ramdas Pophale) SiO2 
 PCOD9119266
Probable space group: P 21
;
_chemical_formula_sum "Si O2"
_cell_formula_units_Z 14
_cell_length_a 12.481836
_cell_length_b 8.013658
_cell_length_c 11.818503
_cell_angle_alpha 90.000000
_cell_angle_beta 155.017436
_cell_angle_gamma 90.000000
_cell_volume 499.271147
_symmetry_space_group_name_H-M "P 21"
_symmetry_group_IT_number 4
_symmetry_cell_setting 'monoclinic'
loop_
_space_group_symop_operation_xyz
x,y,z
-x,1/2+y,-z
loop_
_atom_site_type_symbol
_atom_site_label
_atom_site_fract_x
_atom_site_fract_y
_atom_site_fract_z
Si Si1 0.264810 0.001290 0.126961
Si Si2 0.644142 0.727104 0.099830
Si Si3 0.036505 0.450584 0.452958
Si Si4 0.669333 0.204627 0.423865
Si Si5 0.269496 0.730035 0.948791
Si Si6 0.853487 0.789733 0.857508
Si Si7 0.547292 0.529005 0.405111
O O1 0.537862 0.091981 0.394992
O O2 0.114374 0.866044 0.059084
O O3 0.093130 0.163684 0.986962
O O4 0.305227 0.905616 0.049137
O O5 0.812022 0.887942 0.293085
O O6 0.791509 0.552837 0.257423
O O7 0.545279 0.741929 0.877984
O O8 0.420496 0.723979 0.977072
O O9 0.151390 0.585086 0.476693
O O10 0.014289 0.272608 0.364236
O O11 0.732624 0.387285 0.531383
O O12 0.375756 0.603030 0.140581
O O13 0.289946 0.170994 0.373218
O O14 0.654271 0.927616 0.710083
#
# Coordination Sequence:
#
# PCOD9119266 Si02
#       7
#     2   2   2   2   2   2   2
#     4  11  24  50  78 114 157 206 266 336 403 486
#     4  12  27  49  77 121 166 212 269 336 394 499
#     4  12  27  48  81 113 170 217 263 330 407 469
#     4  11  27  53  77 119 164 213 273 331 400 502
#     4  12  27  47  75 121 159 213 268 325 400 497
#     4  11  26  52  80 115 160 209 268 349 410 474
#     4  11  28  49  82 115 160 212 277 333 414 483
#
# _framework density 28.040875
#
# number of rings (size 3 to 8) (size 9 to 14) (size 15 to 20)
#    0.000    0.571    2.857    2.571   10.000    3.429 
#    2.571    0.000    0.000    0.000    0.000    0.000 
#    0.000    0.000    0.000    0.000    0.000    0.000 
#
# Total GULP energy -78290.826150 kJ/mol
# GULP energy per Si atom -5592.201868 kJ/mol
# Density = 2.797705 g / cm^3
# Si number density = 28.040875 Si / 1000 Ang^3
#
#
#
# Elastic Constant Matrix: (Units=GPa)
#
#
# Indices 1 2 3 4 5 6 
#
# 1 134.8747 79.4740 19.5324 0.0000 -3.8169 0.0000
# 2 79.4740 182.1894 59.9374 0.0000 -7.3321 0.0000
# 3 19.5324 59.9374 63.1834 0.0000 -5.3487 0.0000
# 4 0.0000 0.0000 0.0000 67.4609 0.0000 -6.9411
# 5 -3.8169 -7.3321 -5.3487 0.0000 39.4044 0.0000
# 6 0.0000 0.0000 0.0000 -6.9411 0.0000 70.6368
#
#
#
# Elastic Compliance Matrix: (Units=1/GPa)
#
#
# Indices 1 2 3 4 5 6 
#
# 1 0.010084 -0.004898 0.001553 0.000000 0.000276 0.000000
# 2 -0.004898 0.010367 -0.008292 0.000000 0.000329 0.000000
# 3 0.001553 -0.008292 0.023364 0.000000 0.001779 0.000000
# 4 0.000000 0.000000 0.000000 0.014975 0.000000 0.001471
# 5 0.000276 0.000329 0.001779 0.000000 0.025707 0.000000
# 6 0.000000 0.000000 0.000000 0.001471 0.000000 0.014302
#
#
# Mechanical properties :
#
#
# Convention : Reuss Voigt Hill
#
# Bulk Modulus (GPa) = 48.68844 77.57057 63.12951
# Shear Modulus (GPa) = 38.78414 50.25400 44.51907
#
# Velocity S-wave (km/s) = 3.72308 4.23799 3.98885
# Velocity P-wave (km/s) = 5.99023 7.18825 6.61641
#
# Compressibility (1/GPa) = 0.02053876
#
# Stress axis : x y z
#
# Youngs Moduli (GPa) = 99.17145 96.46248 42.80177
#
# Poissons Ratio (x) = 0.47251 -0.06647
# Poissons Ratio (y) = 0.48578 0.35491
# Poissons Ratio (z) = -0.15400 0.79987
#
# Static dielectric constant tensor:
#      x y z
#    x 2.177640 0.000000 -0.029200 
#    y 0.000000 2.187470 0.000000 
#    z -0.029200 0.000000 2.431860 
# 
# From -- ./inp_files/12069.got.cif
#   From: 2010.05.17/outbox.cif.g08.bks.cpg/sg4_7_cif.got.tgz:12069.got - 2010.06.03 18:43:04.
