data_PCOD9119185
_publ_section_title
;
Structure prediction by ZEFSAII (Michael W. Deem and Ramdas Pophale) SiO2 
 PCOD9119185
Probable space group: P 21
;
_chemical_formula_sum "Si O2"
_cell_formula_units_Z 14
_cell_length_a 21.430529
_cell_length_b 4.864690
_cell_length_c 27.600124
_cell_angle_alpha 90.000000
_cell_angle_beta 169.636670
_cell_angle_gamma 90.000000
_cell_volume 517.613002
_symmetry_space_group_name_H-M "P 21"
_symmetry_group_IT_number 4
_symmetry_cell_setting 'monoclinic'
loop_
_space_group_symop_operation_xyz
x,y,z
-x,1/2+y,-z
loop_
_atom_site_type_symbol
_atom_site_label
_atom_site_fract_x
_atom_site_fract_y
_atom_site_fract_z
Si Si1 0.136861 0.298900 0.407608
Si Si2 0.136062 0.769623 0.576046
Si Si3 0.473229 0.207386 0.402993
Si Si4 0.597615 0.791710 0.758663
Si Si5 0.835263 0.073194 0.084019
Si Si6 0.970793 0.923819 0.848653
Si Si7 0.286472 0.465119 0.837341
O O1 0.260958 0.604308 0.512768
O O2 0.924953 0.279599 0.196178
O O3 0.913671 0.149806 0.277254
O O4 0.479019 0.105222 0.664405
O O5 0.933614 0.960194 0.460464
O O6 0.949997 0.825984 0.383277
O O7 0.526390 0.876250 0.865838
O O8 0.305995 0.189067 0.222078
O O9 0.653947 0.953412 0.568484
O O10 0.197219 0.301773 0.231528
O O11 0.812299 0.399316 0.654973
O O12 0.861206 0.704072 0.002175
O O13 0.760053 0.247270 0.977820
O O14 0.483193 0.206689 0.011503
#
# Coordination Sequence:
#
# PCOD9119185 Si02
#       7
#     2   2   2   2   2   2   2
#     4  11  24  47  69 105 142 191 240 301 366 431
#     4  12  28  47  74 109 142 193 247 301 371 439
#     4  11  26  46  70 109 147 195 243 306 362 435
#     4  11  27  44  72 105 146 191 245 297 359 434
#     4  11  25  46  74 101 149 189 243 305 365 435
#     4  12  25  45  76 103 148 198 245 298 370 435
#     4  12  25  45  71 104 144 187 239 308 369 433
#
# _framework density 27.047232999999999
#
# number of rings (size 3 to 8) (size 9 to 14) (size 15 to 20)
#    0.000    0.571    2.857    4.286    6.000    4.571 
#    0.000    0.000    0.000    0.000    0.000    0.000 
#    0.000    0.000    0.000    0.000    0.000    0.000 
#
# Total GULP energy -78516.696582 kJ/mol
# GULP energy per Si atom -5608.335470 kJ/mol
# Density = 2.698567 g / cm^3
# Si number density = 27.047233 Si / 1000 Ang^3
#
#
#
# Elastic Constant Matrix: (Units=GPa)
#
#
# Indices 1 2 3 4 5 6 
#
# 1 142.3022 -2.3550 15.6738 -0.0001 -10.6702 -0.0001
# 2 -2.3550 86.6825 15.0846 0.0002 5.0720 0.0002
# 3 15.6738 15.0846 78.9434 -0.0001 4.6770 -0.0001
# 4 -0.0001 0.0002 -0.0001 43.1643 -0.0002 -1.0627
# 5 -10.6702 5.0720 4.6770 -0.0002 45.3436 -0.0002
# 6 -0.0001 0.0002 -0.0001 -1.0627 -0.0002 45.0580
#
#
#
# Elastic Compliance Matrix: (Units=1/GPa)
#
#
# Indices 1 2 3 4 5 6 
#
# 1 0.007354 0.000377 -0.001642 0.000000 0.001858 0.000000
# 2 0.000377 0.012008 -0.002309 0.000000 -0.001016 0.000000
# 3 -0.001642 -0.002309 0.013525 0.000000 -0.001523 0.000000
# 4 0.000000 0.000000 0.000000 0.023181 0.000000 0.000547
# 5 0.001858 -0.001016 -0.001523 0.000000 0.022762 0.000000
# 6 0.000000 0.000000 0.000000 0.000547 0.000000 0.022206
#
#
# Mechanical properties :
#
#
# Convention : Reuss Voigt Hill
#
# Bulk Modulus (GPa) = 38.85351 40.52609 39.68980
# Shear Modulus (GPa) = 42.82168 45.34818 44.08493
#
# Velocity S-wave (km/s) = 3.98328 4.09911 4.04161
# Velocity P-wave (km/s) = 5.96252 6.11715 6.04033
#
# Compressibility (1/GPa) = 0.02573770
#
# Stress axis : x y z
#
# Youngs Moduli (GPa) = 135.98605 83.27862 73.93825
#
# Poissons Ratio (x) = -0.03138 0.12141
# Poissons Ratio (y) = -0.05125 0.17073
# Poissons Ratio (z) = 0.22330 0.19230
#
# Static dielectric constant tensor:
#      x y z
#    x 2.096830 0.000000 0.040840 
#    y 0.000000 2.144870 0.000000 
#    z 0.040840 0.000000 2.156590 
# 
# From -- ./inp_files/15751.got.cif
#   From: 2010.05.17/outbox.cif.g08.bks.cpg/sg4_8_cif.got.tgz:15751.got - 2010.06.03 18:43:04.
