data_PCOD9119129
_publ_section_title
;
Structure prediction by ZEFSAII (Michael W. Deem and Ramdas Pophale) SiO2 
 PCOD9119129
Probable space group: P 21
;
_chemical_formula_sum "Si O2"
_cell_formula_units_Z 14
_cell_length_a 9.228800
_cell_length_b 11.509660
_cell_length_c 5.241752
_cell_angle_alpha 90.000000
_cell_angle_beta 85.793911
_cell_angle_gamma 90.000000
_cell_volume 555.281149
_symmetry_space_group_name_H-M "P 21"
_symmetry_group_IT_number 4
_symmetry_cell_setting 'monoclinic'
loop_
_space_group_symop_operation_xyz
x,y,z
-x,1/2+y,-z
loop_
_atom_site_type_symbol
_atom_site_label
_atom_site_fract_x
_atom_site_fract_y
_atom_site_fract_z
Si Si1 0.556984 0.075540 0.966488
Si Si2 0.914670 0.908705 0.248119
Si Si3 0.816476 0.330625 0.459539
Si Si4 0.825158 0.089982 0.601821
Si Si5 0.500819 0.920719 0.466457
Si Si6 0.325526 0.242016 0.844572
Si Si7 0.901928 0.539448 0.140044
O O1 0.719331 0.104370 0.855030
O O2 0.461166 0.193594 0.990551
O O3 0.510504 0.987072 0.737774
O O4 0.544349 0.007853 0.231902
O O5 0.806236 0.834163 0.082552
O O6 0.047439 0.840847 0.363642
O O7 0.812113 0.964021 0.477948
O O8 0.995121 0.019217 0.113624
O O9 0.789234 0.195839 0.421928
O O10 0.667171 0.388252 0.569056
O O11 0.860714 0.407571 0.213650
O O12 0.991857 0.090100 0.661850
O O13 0.592528 0.801610 0.406628
O O14 0.233814 0.123243 0.842537
#
# Coordination Sequence:
#
# PCOD9119129 Si02
#       7
#     2   2   2   2   2   2   2
#     4  12  27  50  74 111 151 194 249 306 377 451
#     4  11  25  46  71 105 145 194 255 303 381 447
#     4  11  24  45  71 104 145 192 244 318 372 444
#     4  11  24  45  71 104 145 192 244 318 372 444
#     4  12  27  50  74 111 151 194 249 306 377 451
#     4  12  24  48  76 108 150 204 250 316 378 452
#     4  11  25  46  71 105 145 194 255 303 381 447
#
# _framework density 25.21245
#
# number of rings (size 3 to 8) (size 9 to 14) (size 15 to 20)
#    0.000    0.571    5.714    1.714    2.000    1.143 
#   10.286    0.000    0.000    0.000    0.000    0.000 
#    0.000    0.000    0.000    0.000    0.000    0.000 
#
# Total GULP energy -78153.381424 kJ/mol
# GULP energy per Si atom -5582.384387 kJ/mol
# Density = 2.515507 g / cm^3
# Si number density = 25.212450 Si / 1000 Ang^3
#
#
#
# Elastic Constant Matrix: (Units=GPa)
#
#
# Indices 1 2 3 4 5 6 
#
# 1 115.1352 16.7500 21.6318 0.0000 -24.3601 0.0000
# 2 16.7500 66.5642 26.4722 0.0000 -5.1152 0.0000
# 3 21.6318 26.4722 78.1368 0.0000 -1.7795 0.0000
# 4 0.0000 0.0000 0.0000 19.1454 0.0000 -15.1844
# 5 -24.3601 -5.1152 -1.7795 0.0000 20.3296 0.0000
# 6 0.0000 0.0000 0.0000 -15.1844 0.0000 59.6075
#
#
#
# Elastic Compliance Matrix: (Units=1/GPa)
#
#
# Indices 1 2 3 4 5 6 
#
# 1 0.012381 -0.000900 -0.002796 0.000000 0.014364 0.000000
# 2 -0.000900 0.017736 -0.005694 0.000000 0.002886 0.000000
# 3 -0.002796 -0.005694 0.015423 0.000000 -0.003432 0.000000
# 4 0.000000 0.000000 0.000000 0.065457 0.000000 0.016674
# 5 0.014364 0.002886 -0.003432 0.000000 0.066827 0.000000
# 6 0.000000 0.000000 0.000000 0.016674 0.000000 0.021024
#
#
# Mechanical properties :
#
#
# Convention : Reuss Voigt Hill
#
# Bulk Modulus (GPa) = 37.36820 43.28270 40.32545
# Shear Modulus (GPa) = 22.07059 32.81530 27.44294
#
# Velocity S-wave (km/s) = 2.96190 3.61162 3.30277
# Velocity P-wave (km/s) = 5.15273 5.88185 5.52932
#
# Compressibility (1/GPa) = 0.02676072
#
# Stress axis : x y z
#
# Youngs Moduli (GPa) = 80.77071 56.38338 64.83871
#
# Poissons Ratio (x) = 0.05074 0.18126
# Poissons Ratio (y) = 0.07268 0.36919
# Poissons Ratio (z) = 0.22580 0.32104
#
# Static dielectric constant tensor:
#      x y z
#    x 2.091300 0.000000 0.072220 
#    y 0.000000 2.016780 0.000000 
#    z 0.072220 0.000000 2.086540 
# 
# From -- ./inp_files/1135.got.cif
#   From: 2010.05.17/outbox.cif.g08.bks.cpg/sg4_1_cif.got.tgz:1135.got - 2010.06.03 18:43:04.
