data_PCOD9119192
_publ_section_title
;
Structure prediction by ZEFSAII (Michael W. Deem and Ramdas Pophale) SiO2 
 PCOD9119192
Probable space group: P 21
;
_chemical_formula_sum "Si O2"
_cell_formula_units_Z 16
_cell_length_a 8.789518
_cell_length_b 8.901348
_cell_length_c 18.034435
_cell_angle_alpha 90.000000
_cell_angle_beta 151.029462
_cell_angle_gamma 90.000000
_cell_volume 683.425988
_symmetry_space_group_name_H-M "P 21"
_symmetry_group_IT_number 4
_symmetry_cell_setting 'monoclinic'
loop_
_space_group_symop_operation_xyz
x,y,z
-x,1/2+y,-z
loop_
_atom_site_type_symbol
_atom_site_label
_atom_site_fract_x
_atom_site_fract_y
_atom_site_fract_z
Si Si1 0.862149 0.644270 0.691276
Si Si2 0.650223 0.978403 0.904390
Si Si3 0.616385 0.396675 0.357045
Si Si4 0.555035 0.678730 0.936378
Si Si5 0.705930 0.907791 0.277386
Si Si6 0.694024 0.572478 0.786251
Si Si7 0.593059 0.959420 0.580552
Si Si8 0.179216 0.143835 0.793030
O O1 0.792999 0.574503 0.741994
O O2 0.643446 0.787186 0.581956
O O3 0.750050 0.517407 0.587140
O O4 0.210521 0.705170 0.826608
O O5 0.460576 0.030240 0.895262
O O6 0.433467 0.986029 0.739734
O O7 0.693229 0.803101 0.940182
O O8 0.965338 0.072778 0.029427
O O9 0.526042 0.221501 0.303242
O O10 0.376946 0.457698 0.317694
O O11 0.958689 0.417978 0.537483
O O12 0.463766 0.533172 0.847974
O O13 0.782029 0.681176 0.104093
O O14 0.756133 0.770109 0.241486
O O15 0.477635 0.927325 0.252283
O O16 0.849209 0.058001 0.646875
#
# Coordination Sequence:
#
# PCOD9119192 Si02
#       8
#     2   2   2   2   2   2   2   2
#     4  11  24  47  73 107 150 205 258 326 381 475
#     4  12  27  46  75 111 151 208 259 328 396 469
#     4  11  27  49  75 114 158 205 261 329 397 475
#     4  12  25  49  74 107 157 201 263 322 386 473
#     4  12  28  49  77 114 161 210 258 327 405 471
#     4  11  27  48  77 110 161 202 264 324 399 477
#     4  11  25  45  75 106 152 201 262 319 392 464
#     4  12  27  45  74 113 150 208 259 323 392 466
#
# _framework density 23.411460000000002
#
# number of rings (size 3 to 8) (size 9 to 14) (size 15 to 20)
#    0.000    0.500    5.000    2.250    7.000    0.000 
#    2.250    0.000    0.000    0.000    0.000    0.000 
#    0.000    0.000    0.000    0.000    0.000    0.000 
#
# Total GULP energy -89224.243947 kJ/mol
# GULP energy per Si atom -5576.515247 kJ/mol
# Density = 2.335817 g / cm^3
# Si number density = 23.411460 Si / 1000 Ang^3
#
#
#
# Elastic Constant Matrix: (Units=GPa)
#
#
# Indices 1 2 3 4 5 6 
#
# 1 75.9581 31.8812 13.3800 0.0000 0.3259 0.0000
# 2 31.8812 74.9889 24.4981 0.0000 -3.1830 0.0000
# 3 13.3800 24.4981 102.6856 0.0000 -7.0726 0.0000
# 4 0.0000 0.0000 0.0000 32.5721 0.0000 -2.9877
# 5 0.3259 -3.1830 -7.0726 0.0000 44.6232 0.0000
# 6 0.0000 0.0000 0.0000 -2.9877 0.0000 43.8915
#
#
#
# Elastic Compliance Matrix: (Units=1/GPa)
#
#
# Indices 1 2 3 4 5 6 
#
# 1 0.016069 -0.006682 -0.000547 0.000000 -0.000681 0.000000
# 2 -0.006682 0.017252 -0.003192 0.000000 0.000773 0.000000
# 3 -0.000547 -0.003192 0.010672 0.000000 0.001468 0.000000
# 4 0.000000 0.000000 0.000000 0.030894 0.000000 0.002103
# 5 -0.000681 0.000773 0.001468 0.000000 0.022703 0.000000
# 6 0.000000 0.000000 0.000000 0.002103 0.000000 0.022927
#
#
# Mechanical properties :
#
#
# Convention : Reuss Voigt Hill
#
# Bulk Modulus (GPa) = 43.19254 43.68348 43.43801
# Shear Modulus (GPa) = 33.54034 36.47558 35.00796
#
# Velocity S-wave (km/s) = 3.78914 3.95146 3.87115
# Velocity P-wave (km/s) = 6.13456 6.28635 6.21092
#
# Compressibility (1/GPa) = 0.02315215
#
# Stress axis : x y z
#
# Youngs Moduli (GPa) = 62.23208 57.96538 93.70074
#
# Poissons Ratio (x) = 0.38732 0.05121
# Poissons Ratio (y) = 0.41583 0.29908
# Poissons Ratio (z) = 0.03401 0.18502
#
# Static dielectric constant tensor:
#      x y z
#    x 1.884590 0.000000 0.008900 
#    y 0.000000 1.929670 0.000000 
#    z 0.008900 0.000000 1.862380 
# 
# From -- ./inp_files/14977.got.cif
#   From: 2010.05.17/outbox.cif.g08.bks.cpg/sg4_8_cif.got.tgz:14977.got - 2010.06.03 18:43:04.
