data_PCOD9119466
_publ_section_title
;
Structure prediction by ZEFSAII (Michael W. Deem and Ramdas Pophale) SiO2 
 PCOD9119466
Probable space group: P 21
;
_chemical_formula_sum "Si O2"
_cell_formula_units_Z 16
_cell_length_a 8.927729
_cell_length_b 4.877383
_cell_length_c 19.230973
_cell_angle_alpha 90.000000
_cell_angle_beta 46.335972
_cell_angle_gamma 90.000000
_cell_volume 605.770441
_symmetry_space_group_name_H-M "P 21"
_symmetry_group_IT_number 4
_symmetry_cell_setting 'monoclinic'
loop_
_space_group_symop_operation_xyz
x,y,z
-x,1/2+y,-z
loop_
_atom_site_type_symbol
_atom_site_label
_atom_site_fract_x
_atom_site_fract_y
_atom_site_fract_z
Si Si1 0.557265 0.375000 0.886386
Si Si2 0.845434 0.116506 0.677327
Si Si3 0.588277 0.228379 0.621322
Si Si4 0.249612 0.045607 0.671070
Si Si5 0.300782 0.882069 0.934213
Si Si6 0.887142 0.129862 0.397455
Si Si7 0.678046 0.216759 0.231552
Si Si8 0.934539 0.354606 0.865312
O O1 0.689677 0.239830 0.783097
O O2 0.485702 0.681676 0.896895
O O3 0.707198 0.379617 0.904919
O O4 0.352044 0.184784 0.946789
O O5 0.742725 0.128618 0.636156
O O6 0.052584 0.307040 0.623229
O O7 0.897573 0.799893 0.673775
O O8 0.411286 0.280761 0.607017
O O9 0.773738 0.203652 0.504251
O O10 0.481143 0.475588 0.703388
O O11 0.049069 0.145968 0.776434
O O12 0.221312 0.791509 0.631305
O O13 0.402914 0.955640 0.689707
O O14 0.293919 0.842497 0.853609
O O15 0.101372 0.781335 0.042233
O O16 0.902828 0.105286 0.183745
#
# Coordination Sequence:
#
# PCOD9119466 Si02
#       8
#     2   2   2   2   2   2   2   2
#     4  12  25  49  74 105 144 189 241 298 356 419
#     4  12  25  49  74 105 144 189 241 298 356 419
#     4  11  27  46  72 107 145 188 242 292 362 427
#     4  11  27  46  72 103 149 188 235 299 357 429
#     4  12  28  46  78 105 144 191 241 295 357 431
#     4  12  28  46  78 105 144 191 241 295 357 431
#     4  11  27  46  72 103 149 188 235 299 357 429
#     4  11  27  46  72 107 145 188 242 292 362 427
#
# _framework density 26.412648000000001
#
# number of rings (size 3 to 8) (size 9 to 14) (size 15 to 20)
#    0.000    0.500    2.500    3.750   14.000    0.000 
#    0.000    0.000    0.000    0.000    0.000    0.000 
#    0.000    0.000    0.000    0.000    0.000    0.000 
#
# Total GULP energy -89247.297148 kJ/mol
# GULP energy per Si atom -5577.956072 kJ/mol
# Density = 2.635253 g / cm^3
# Si number density = 26.412648 Si / 1000 Ang^3
#
#
#
# Elastic Constant Matrix: (Units=GPa)
#
#
# Indices 1 2 3 4 5 6 
#
# 1 54.1309 8.6045 6.9657 0.0000 22.7479 0.0000
# 2 8.6045 122.5000 15.8003 0.0000 1.7947 0.0000
# 3 6.9657 15.8003 147.6559 0.0000 23.6397 0.0000
# 4 0.0000 0.0000 0.0000 -115.9302 0.0000 17.1636
# 5 22.7479 1.7947 23.6397 0.0000 41.9597 0.0000
# 6 0.0000 0.0000 0.0000 17.1636 0.0000 31.4212
#
#
#
# Elastic Compliance Matrix: (Units=1/GPa)
#
#
# Indices 1 2 3 4 5 6 
#
# 1 0.024404 -0.001672 0.001247 0.000000 -0.013861 0.000000
# 2 -0.001672 0.008393 -0.000997 0.000000 0.001109 0.000000
# 3 0.001247 -0.000997 0.007608 0.000000 -0.004920 0.000000
# 4 0.000000 0.000000 0.000000 -0.007980 0.000000 0.004359
# 5 -0.013861 0.001109 -0.004920 0.000000 0.034071 0.000000
# 6 0.000000 0.000000 0.000000 0.004359 0.000000 0.029444
#
#
# Mechanical properties :
#
#
# Convention : Reuss Voigt Hill
#
# Bulk Modulus (GPa) = 26.62307 43.00308 34.81308
# Shear Modulus (GPa) = 44.92181 11.01792 27.96986
#
# Velocity S-wave (km/s) = 4.12851 2.04463 3.25769
# Velocity P-wave (km/s) = 5.72955 4.67874 5.23060
#
# Compressibility (1/GPa) = 0.03756140
#
# Stress axis : x y z
#
# Youngs Moduli (GPa) = 40.97670 119.14660 131.44101
#
# Poissons Ratio (x) = 0.19920 -0.16389
# Poissons Ratio (y) = 0.06851 0.13102
# Poissons Ratio (z) = -0.05109 0.11876
#
# Static dielectric constant tensor:
#      x y z
#    x 2.268230 0.000000 0.015100 
#    y 0.000000 2.089800 0.000000 
#    z 0.015100 0.000000 2.092100 
# 
# From -- ./inp_files/14829.got.cif
#   From: 2010.05.17/outbox.cif.g08.bks.cpg/sg4_8_cif.got.tgz:14829.got - 2010.06.03 18:43:04.
