data_PCOD9119938
_publ_section_title
;
Structure prediction by ZEFSAII (Michael W. Deem and Ramdas Pophale) SiO2 
 PCOD9119938
Probable space group: C 2
;
_chemical_formula_sum "Si O2"
_cell_formula_units_Z 28
_cell_length_a 23.970908
_cell_length_b 10.201995
_cell_length_c 5.287688
_cell_angle_alpha 90.000000
_cell_angle_beta 55.898957
_cell_angle_gamma 90.000000
_cell_volume 1070.759761
_symmetry_space_group_name_H-M "C 2"
_symmetry_group_IT_number 5
_symmetry_cell_setting 'monoclinic'
loop_
_space_group_symop_operation_xyz
x,y,z
-x,y,-z
1/2+x,1/2+y,z
1/2-x,1/2+y,-z
loop_
_atom_site_type_symbol
_atom_site_label
_atom_site_fract_x
_atom_site_fract_y
_atom_site_fract_z
Si Si1 0.871431 0.813690 0.099109
Si Si2 0.135830 0.376214 0.478720
Si Si3 0.000000 0.846601 0.000000
Si Si4 0.747894 0.992500 0.503216
Si Si5 0.790885 0.143282 0.887373
Si Si6 0.070114 0.576385 0.249799
Si Si7 0.500000 0.890676 0.000000
Si Si8 0.564802 0.533482 0.416889
O O1 0.872112 0.687498 0.923069
O O2 0.905159 0.937824 0.875814
O O3 0.932461 0.763764 0.122205
O O4 0.801758 0.871583 0.374576
O O5 0.174453 0.437721 0.622146
O O6 0.197492 0.298109 0.185334
O O7 0.103660 0.482228 0.373017
O O8 0.065624 0.308617 0.746937
O O9 0.967720 0.941393 0.291191
O O10 0.756752 0.071261 0.738520
O O11 0.764987 0.089193 0.221316
O O12 0.868996 0.103397 0.664314
O O13 0.000000 0.652041 0.500000
O O14 0.036419 0.482622 0.119451
O O15 0.500000 0.618129 0.500000
#
# Coordination Sequence:
#
# PCOD9119938 Si02
#       8
#     4   4   2   4   4   4   2   4
#     4  10  20  37  64 102 143 185 240 307 363 439
#     4  11  28  47  76 104 149 199 252 312 382 453
#     4  10  15  31  60  96 138 181 237 294 366 426
#     4  11  27  47  74 110 145 200 251 305 383 444
#     4  11  26  49  71 108 149 192 251 308 375 454
#     4  10  22  43  67 107 141 194 247 310 371 442
#     4  10  25  47  72 108 144 193 261 298 380 454
#     4   9  19  34  60  95 137 184 238 295 363 425
#
# _framework density 26.149657000000001
#
# number of rings (size 3 to 8) (size 9 to 14) (size 15 to 20)
#    0.000    1.714    1.429    1.714    6.000    3.429 
#    2.571    0.000    0.000    0.000    0.000    0.000 
#    0.000    0.000    0.000    0.000    0.000    0.000 
#
# Total GULP energy -78081.711093 kJ/mol
# GULP energy per Si atom -5577.265078 kJ/mol
# Density = 2.609014 g / cm^3
# Si number density = 26.149657 Si / 1000 Ang^3
#
#
#
# Elastic Constant Matrix: (Units=GPa)
#
#
# Indices 1 2 3 4 5 6 
#
# 1 98.8077 -27.7794 25.5538 0.0000 4.6529 0.0000
# 2 -27.7794 11.2318 -6.2438 0.0000 9.2592 0.0000
# 3 25.5538 -6.2438 60.6940 0.0000 -23.2351 0.0000
# 4 0.0000 0.0000 0.0000 26.2448 0.0000 -12.6068
# 5 4.6529 9.2592 -23.2351 0.0000 39.0756 0.0000
# 6 0.0000 0.0000 0.0000 -12.6068 0.0000 15.7433
#
#
#
# Elastic Compliance Matrix: (Units=1/GPa)
#
#
# Indices 1 2 3 4 5 6 
#
# 1 -0.118472 -0.373236 0.065696 0.000000 0.141612 0.000000
# 2 -0.373236 -1.065055 0.208713 0.000000 0.420920 0.000000
# 3 0.065696 0.208713 -0.015071 0.000000 -0.066240 0.000000
# 4 0.000000 0.000000 0.000000 0.061921 0.000000 0.049585
# 5 0.141612 0.420920 -0.066240 0.000000 -0.130398 0.000000
# 6 0.000000 0.000000 0.000000 0.049585 0.000000 0.103225
#
#
# Mechanical properties :
#
#
# Convention : Reuss Voigt Hill
#
# Bulk Modulus (GPa) = -0.71620 17.08827 8.18603
# Shear Modulus (GPa) = -3.49256 28.15960 12.33352
#
# Velocity S-wave (km/s) = -1.15694 3.28512 2.17411
# Velocity P-wave (km/s) = 1.43498 4.57584 3.07239
#
# Compressibility (1/GPa) = -1.39625052
#
# Stress axis : x y z
#
# Youngs Moduli (GPa) = -8.44080 -0.93892 -66.35428
#
# Poissons Ratio (x) = -0.35044 4.35920
# Poissons Ratio (y) = -3.15041 13.84901
# Poissons Ratio (z) = 0.55453 0.19596
#
# Static dielectric constant tensor:
#      x y z
#    x 2.285730 0.000000 0.221290 
#    y 0.000000 2.232030 0.000000 
#    z 0.221290 0.000000 2.312060 
# 
# From -- ./inp_files/9536.got.cif
#   From: 2010.05.17/outbox.cif.g08.bks.cpg/sg5_5_cif.got.tgz:9536.got - 2010.06.03 18:56:24.
