data_PCOD9119501
_publ_section_title
;
Structure prediction by ZEFSAII (Michael W. Deem and Ramdas Pophale) SiO2 
 PCOD9119501
Probable space group: P 21
;
_chemical_formula_sum "Si O2"
_cell_formula_units_Z 16
_cell_length_a 11.215760
_cell_length_b 13.065971
_cell_length_c 11.187239
_cell_angle_alpha 90.000000
_cell_angle_beta 26.905351
_cell_angle_gamma 90.000000
_cell_volume 741.872320
_symmetry_space_group_name_H-M "P 21"
_symmetry_group_IT_number 4
_symmetry_cell_setting 'monoclinic'
loop_
_space_group_symop_operation_xyz
x,y,z
-x,1/2+y,-z
loop_
_atom_site_type_symbol
_atom_site_label
_atom_site_fract_x
_atom_site_fract_y
_atom_site_fract_z
Si Si1 0.478156 0.510790 0.462258
Si Si2 0.197068 0.663321 0.119697
Si Si3 0.379033 0.127534 0.460748
Si Si4 0.130731 0.301533 0.068323
Si Si5 0.795434 0.394970 0.789801
Si Si6 0.905265 0.570509 0.886972
Si Si7 0.449376 0.803336 0.518665
Si Si8 0.781744 0.948294 0.788337
O O1 0.559751 0.520796 0.529040
O O2 0.468126 0.388970 0.458977
O O3 0.198967 0.555899 0.674332
O O4 0.704247 0.554532 0.175734
O O5 0.198409 0.778764 0.167208
O O6 0.197503 0.570971 0.214863
O O7 0.926980 0.646958 0.287381
O O8 0.450940 0.644408 0.809335
O O9 0.490947 0.200107 0.464004
O O10 0.367987 0.306320 0.761569
O O11 0.129474 0.187170 0.127081
O O12 0.155701 0.390456 0.143565
O O13 0.855993 0.311166 0.242935
O O14 0.849879 0.481270 0.841400
O O15 0.013921 0.409702 0.492904
O O16 0.510151 0.417924 0.990199
#
# Coordination Sequence:
#
# PCOD9119501 Si02
#       8
#     2   2   2   2   2   2   2   2
#     4  12  23  41  68 101 140 180 218 267 332 407
#     4  12  26  46  69 102 139 174 234 282 334 418
#     4  12  22  42  67 102 139 180 212 270 344 400
#     4  12  24  44  67 104 137 177 228 276 335 406
#     4  12  28  47  73  99 132 185 230 291 343 388
#     4  12  24  44  67 104 137 177 228 276 335 406
#     4  12  23  41  68 101 140 180 218 267 332 407
#     4  12  28  47  73  99 132 185 230 291 343 388
#
# _framework density 21.567055
#
# number of rings (size 3 to 8) (size 9 to 14) (size 15 to 20)
#    0.000    0.000    2.500    8.250    3.500    0.000 
#    0.000    0.000    0.000    0.000    0.000    0.000 
#    0.000    0.000    0.000    0.000    0.000    0.000 
#
# Total GULP energy -89570.128800 kJ/mol
# GULP energy per Si atom -5598.133050 kJ/mol
# Density = 2.151797 g / cm^3
# Si number density = 21.567055 Si / 1000 Ang^3
#
#
#
# Elastic Constant Matrix: (Units=GPa)
#
#
# Indices 1 2 3 4 5 6 
#
# 1 51.3741 13.3825 7.7057 0.0000 -21.6524 0.0000
# 2 13.3825 108.3439 9.4299 0.0000 -4.7045 0.0000
# 3 7.7057 9.4299 96.6914 0.0000 -6.3261 0.0000
# 4 0.0000 0.0000 0.0000 28.0909 0.0000 3.9108
# 5 -21.6524 -4.7045 -6.3261 0.0000 52.6428 0.0000
# 6 0.0000 0.0000 0.0000 3.9108 0.0000 48.1930
#
#
#
# Elastic Compliance Matrix: (Units=1/GPa)
#
#
# Indices 1 2 3 4 5 6 
#
# 1 0.024347 -0.002495 -0.001065 0.000000 0.009663 0.000000
# 2 -0.002495 0.009592 -0.000754 0.000000 -0.000260 0.000000
# 3 -0.001065 -0.000754 0.010550 0.000000 0.000763 0.000000
# 4 0.000000 0.000000 0.000000 0.036005 0.000000 -0.002922
# 5 0.009663 -0.000260 0.000763 0.000000 0.023039 0.000000
# 6 0.000000 0.000000 0.000000 -0.002922 0.000000 0.020987
#
#
# Mechanical properties :
#
#
# Convention : Reuss Voigt Hill
#
# Bulk Modulus (GPa) = 27.88367 35.27173 31.57770
# Shear Modulus (GPa) = 34.45821 40.84475 37.65148
#
# Velocity S-wave (km/s) = 4.00149 4.35656 4.18279
# Velocity P-wave (km/s) = 5.85714 6.45725 6.16450
#
# Compressibility (1/GPa) = 0.03586329
#
# Stress axis : x y z
#
# Youngs Moduli (GPa) = 41.07199 104.24940 94.78285
#
# Poissons Ratio (x) = 0.26011 0.10092
# Poissons Ratio (y) = 0.10248 0.07143
# Poissons Ratio (z) = 0.04373 0.07857
#
# Static dielectric constant tensor:
#      x y z
#    x 1.774050 0.000000 0.022440 
#    y 0.000000 1.804930 0.000000 
#    z 0.022440 0.000000 1.718110 
# 
# From -- ./inp_files/12251.got.cif
#   From: 2010.05.17/outbox.cif.g08.bks.cpg/sg4_7_cif.got.tgz:12251.got - 2010.06.03 18:43:04.
