data_PCOD9119783
_publ_section_title
;
Structure prediction by ZEFSAII (Michael W. Deem and Ramdas Pophale) SiO2 
 PCOD9119783
Probable space group: P 21
;
_chemical_formula_sum "Si O2"
_cell_formula_units_Z 14
_cell_length_a 10.515525
_cell_length_b 5.006583
_cell_length_c 9.405951
_cell_angle_alpha 90.000000
_cell_angle_beta 91.455188
_cell_angle_gamma 90.000000
_cell_volume 495.033976
_symmetry_space_group_name_H-M "P 21"
_symmetry_group_IT_number 4
_symmetry_cell_setting 'monoclinic'
loop_
_space_group_symop_operation_xyz
x,y,z
-x,1/2+y,-z
loop_
_atom_site_type_symbol
_atom_site_label
_atom_site_fract_x
_atom_site_fract_y
_atom_site_fract_z
Si Si1 0.640851 0.701970 0.590651
Si Si2 0.228852 0.869265 0.189897
Si Si3 0.886180 0.044578 0.316626
Si Si4 0.578604 0.245637 0.017629
Si Si5 0.905047 0.969842 0.640211
Si Si6 0.636287 0.392017 0.327102
Si Si7 0.913235 0.763753 0.024926
O O1 0.666799 0.442837 0.687789
O O2 0.759005 0.874293 0.648292
O O3 0.662990 0.645819 0.425624
O O4 0.499724 0.797982 0.615782
O O5 0.303368 0.683492 0.080630
O O6 0.027612 0.544718 0.026468
O O7 0.184417 0.112190 0.084182
O O8 0.754661 0.195911 0.348004
O O9 0.989045 0.279793 0.287016
O O10 0.929088 0.939564 0.472474
O O11 0.865148 0.845493 0.182224
O O12 0.488016 0.468701 0.943828
O O13 0.619949 0.404101 0.159157
O O14 0.887342 0.254436 0.718685
#
# Coordination Sequence:
#
# PCOD9119783 Si02
#       7
#     2   2   2   2   2   2   2
#     4  12  27  53  85 128 182 237 299 374 463 544
#     4  12  30  55  88 125 182 243 296 379 462 543
#     4  12  30  54  91 138 176 239 307 381 451 548
#     4  12  30  52  84 127 179 232 299 373 456 538
#     4  12  29  57  90 129 188 238 306 377 465 544
#     4  12  28  50  89 133 176 235 307 375 451 550
#     4  12  34  55  89 130 183 236 306 375 460 545
#
# _framework density 28.280892000000001
#
# number of rings (size 3 to 8) (size 9 to 14) (size 15 to 20)
#    0.000    0.000    2.857    3.429   14.000    0.000 
#    0.000    0.000    0.000    0.000    0.000    0.000 
#    0.000    0.000    0.000    0.000    0.000    0.000 
#
# Total GULP energy -78463.153085 kJ/mol
# GULP energy per Si atom -5604.510935 kJ/mol
# Density = 2.821652 g / cm^3
# Si number density = 28.280892 Si / 1000 Ang^3
#
#
#
# Elastic Constant Matrix: (Units=GPa)
#
#
# Indices 1 2 3 4 5 6 
#
# 1 152.9016 63.9602 31.9395 0.0000 -11.5964 0.0000
# 2 63.9602 117.9543 46.7117 0.0000 -11.8807 0.0000
# 3 31.9395 46.7117 184.3205 0.0000 -30.4394 0.0000
# 4 0.0000 0.0000 0.0000 61.2289 0.0000 -1.8115
# 5 -11.5964 -11.8807 -30.4394 0.0000 61.5448 0.0000
# 6 0.0000 0.0000 0.0000 -1.8115 0.0000 32.2436
#
#
#
# Elastic Compliance Matrix: (Units=1/GPa)
#
#
# Indices 1 2 3 4 5 6 
#
# 1 0.008500 -0.004450 -0.000242 0.000000 0.000623 0.000000
# 2 -0.004450 0.011781 -0.002153 0.000000 0.000371 0.000000
# 3 -0.000242 -0.002153 0.006465 0.000000 0.002736 0.000000
# 4 0.000000 0.000000 0.000000 0.016359 0.000000 0.000919
# 5 0.000623 0.000371 0.002736 0.000000 0.017790 0.000000
# 6 0.000000 0.000000 0.000000 0.000919 0.000000 0.031066
#
#
# Mechanical properties :
#
#
# Convention : Reuss Voigt Hill
#
# Bulk Modulus (GPa) = 76.60434 82.26659 79.43547
# Shear Modulus (GPa) = 45.45312 51.84113 48.64712
#
# Velocity S-wave (km/s) = 4.01334 4.28609 4.15196
# Velocity P-wave (km/s) = 6.97292 7.32437 7.15081
#
# Compressibility (1/GPa) = 0.01305409
#
# Stress axis : x y z
#
# Youngs Moduli (GPa) = 117.65346 84.88217 154.68261
#
# Poissons Ratio (x) = 0.37774 0.03746
# Poissons Ratio (y) = 0.52358 0.33307
# Poissons Ratio (z) = 0.02849 0.18277
#
# Static dielectric constant tensor:
#      x y z
#    x 2.219790 0.000000 0.053210 
#    y 0.000000 2.391790 0.000000 
#    z 0.053210 0.000000 2.206240 
# 
# From -- ./inp_files/7389.got.cif
#   From: 2010.05.17/outbox.cif.g08.bks.cpg/sg4_4_cif.got.tgz:7389.got - 2010.06.03 18:43:04.
