data_PCOD9119186
_publ_section_title
;
Structure prediction by ZEFSAII (Michael W. Deem and Ramdas Pophale) SiO2 
 PCOD9119186
Probable space group: P 21
;
_chemical_formula_sum "Si O2"
_cell_formula_units_Z 16
_cell_length_a 6.953616
_cell_length_b 5.093086
_cell_length_c 18.552752
_cell_angle_alpha 90.000000
_cell_angle_beta 102.813288
_cell_angle_gamma 90.000000
_cell_volume 640.690515
_symmetry_space_group_name_H-M "P 21"
_symmetry_group_IT_number 4
_symmetry_cell_setting 'monoclinic'
loop_
_space_group_symop_operation_xyz
x,y,z
-x,1/2+y,-z
loop_
_atom_site_type_symbol
_atom_site_label
_atom_site_fract_x
_atom_site_fract_y
_atom_site_fract_z
Si Si1 0.239140 0.423530 0.146394
Si Si2 0.950848 0.431811 0.614695
Si Si3 0.376327 0.572650 0.010402
Si Si4 0.784418 0.434437 0.348955
Si Si5 0.391639 0.828384 0.518727
Si Si6 0.075073 0.523329 0.868002
Si Si7 0.728429 0.295155 0.741202
Si Si8 0.589910 0.117359 0.214469
O O1 0.300733 0.611150 0.085962
O O2 0.278437 0.494888 0.234066
O O3 0.410063 0.207195 0.149840
O O4 0.020503 0.309672 0.125155
O O5 0.822544 0.383597 0.533105
O O6 0.809634 0.369768 0.670807
O O7 0.039167 0.722571 0.625084
O O8 0.126461 0.222278 0.635695
O O9 0.545099 0.350010 0.013902
O O10 0.188685 0.457990 0.950458
O O11 0.625055 0.382213 0.398084
O O12 0.694915 0.355841 0.264866
O O13 0.460388 0.536339 0.505379
O O14 0.242009 0.499659 0.821201
O O15 0.890932 0.378331 0.815422
O O16 0.517226 0.422375 0.738935
#
# Coordination Sequence:
#
# PCOD9119186 Si02
#       8
#     2   2   2   2   2   2   2   2
#     4  11  27  43  73 102 140 188 239 294 354 431
#     4  12  26  46  72 107 144 188 244 287 358 424
#     4  12  28  47  73 102 143 188 237 297 361 426
#     4  12  26  45  75 103 146 191 235 297 354 422
#     4  12  26  46  72 106 147 190 241 294 353 421
#     4  11  25  47  69 103 141 186 238 293 360 419
#     4  11  26  43  74 103 142 188 239 294 352 430
#     4  11  24  47  70 104 143 185 239 290 360 419
#
# _framework density 24.973057000000001
#
# number of rings (size 3 to 8) (size 9 to 14) (size 15 to 20)
#    0.000    0.500    2.500    4.500   10.500    2.000 
#    0.000    0.000    0.000    0.000    0.000    0.000 
#    0.000    0.000    0.000    0.000    0.000    0.000 
#
# Total GULP energy -89503.348941 kJ/mol
# GULP energy per Si atom -5593.959309 kJ/mol
# Density = 2.491622 g / cm^3
# Si number density = 24.973057 Si / 1000 Ang^3
#
#
#
# Elastic Constant Matrix: (Units=GPa)
#
#
# Indices 1 2 3 4 5 6 
#
# 1 94.6039 3.3425 11.7028 0.0000 -1.8627 0.0000
# 2 3.3425 45.1527 -1.8501 0.0000 1.8468 0.0000
# 3 11.7028 -1.8501 76.8874 0.0000 -22.2042 0.0000
# 4 0.0000 0.0000 0.0000 27.0648 0.0000 -1.6859
# 5 -1.8627 1.8468 -22.2042 0.0000 63.4672 0.0000
# 6 0.0000 0.0000 0.0000 -1.6859 0.0000 51.4150
#
#
#
# Elastic Compliance Matrix: (Units=1/GPa)
#
#
# Indices 1 2 3 4 5 6 
#
# 1 0.010811 -0.000861 -0.001744 0.000000 -0.000268 0.000000
# 2 -0.000861 0.022252 0.000525 0.000000 -0.000489 0.000000
# 3 -0.001744 0.000525 0.014756 0.000000 0.005096 0.000000
# 4 0.000000 0.000000 0.000000 0.037024 0.000000 0.001214
# 5 -0.000268 -0.000489 0.005096 0.000000 0.017545 0.000000
# 6 0.000000 0.000000 0.000000 0.001214 0.000000 0.019489
#
#
# Mechanical properties :
#
#
# Convention : Reuss Voigt Hill
#
# Bulk Modulus (GPa) = 22.90375 27.00383 24.95379
# Shear Modulus (GPa) = 35.56445 41.95266 38.75855
#
# Velocity S-wave (km/s) = 3.77784 4.10313 3.94384
# Velocity P-wave (km/s) = 5.31231 5.76924 5.54549
#
# Compressibility (1/GPa) = 0.04366097
#
# Stress axis : x y z
#
# Youngs Moduli (GPa) = 92.49652 44.93912 67.77045
#
# Poissons Ratio (x) = 0.03868 0.11816
# Poissons Ratio (y) = 0.07962 -0.03560
# Poissons Ratio (z) = 0.16127 -0.02360
#
# Static dielectric constant tensor:
#      x y z
#    x 1.939050 0.000000 0.006650 
#    y 0.000000 2.212500 0.000000 
#    z 0.006650 0.000000 1.940250 
# 
# From -- ./inp_files/3958.got.cif
#   From: 2010.05.17/outbox.cif.g08.bks.cpg/sg4_2_cif.got.tgz:3958.got - 2010.06.03 18:43:04.
