data_PCOD9119801
_publ_section_title
;
Structure prediction by ZEFSAII (Michael W. Deem and Ramdas Pophale) SiO2 
 PCOD9119801
Probable space group: P 21
;
_chemical_formula_sum "Si O2"
_cell_formula_units_Z 12
_cell_length_a 7.581643
_cell_length_b 5.055423
_cell_length_c 14.747059
_cell_angle_alpha 90.000000
_cell_angle_beta 136.955396
_cell_angle_gamma 90.000000
_cell_volume 385.808557
_symmetry_space_group_name_H-M "P 21"
_symmetry_group_IT_number 4
_symmetry_cell_setting 'monoclinic'
loop_
_space_group_symop_operation_xyz
x,y,z
-x,1/2+y,-z
loop_
_atom_site_type_symbol
_atom_site_label
_atom_site_fract_x
_atom_site_fract_y
_atom_site_fract_z
Si Si1 0.634187 0.911030 0.846169
Si Si2 0.152025 0.122964 0.681658
Si Si3 0.702541 0.403617 0.450025
Si Si4 0.383066 0.622697 0.881892
Si Si5 0.177567 0.258159 0.332966
Si Si6 0.167512 0.867171 0.952518
O O1 0.393232 0.038284 0.680261
O O2 0.706243 0.647456 0.947397
O O3 0.749011 0.147800 0.946385
O O4 0.860899 0.899819 0.854445
O O5 0.274601 0.387422 0.769435
O O6 0.940548 0.206295 0.524413
O O7 0.920516 0.048369 0.674087
O O8 0.332784 0.866781 0.785701
O O9 0.453522 0.240783 0.389726
O O10 0.776920 0.608722 0.555258
O O11 0.440795 0.899252 0.989035
O O12 0.918286 0.160850 0.178831
#
# Coordination Sequence:
#
# PCOD9119801 Si02
#       6
#     2   2   2   2   2   2
#     4   8  18  34  50  70 102 128 156 200 244 280
#     4   9  17  33  53  70  96 132 159 198 242 284
#     4   9  17  33  53  70  96 132 159 198 242 284
#     4   9  17  33  53  70  96 132 159 198 242 284
#     4   8  18  34  50  70 102 128 156 200 244 280
#     4   9  17  33  53  70  96 132 159 198 242 284
#
# _framework density 31.103511000000001
#
# number of rings (size 3 to 8) (size 9 to 14) (size 15 to 20)
#    2.000    1.333    0.000    0.000    0.000    2.667 
#    0.000    3.333    0.000    0.000    0.000    0.000 
#    0.000    0.000    0.000    0.000    0.000    0.000 
#
# Total GULP energy -66953.418885 kJ/mol
# GULP energy per Si atom -5579.451574 kJ/mol
# Density = 3.103272 g / cm^3
# Si number density = 31.103511 Si / 1000 Ang^3
#
#
#
# Elastic Constant Matrix: (Units=GPa)
#
#
# Indices 1 2 3 4 5 6 
#
# 1 292.9582 85.3464 124.8875 0.0000 52.1545 0.0000
# 2 85.3464 211.0245 103.2728 0.0000 24.7793 0.0000
# 3 124.8875 103.2728 334.2520 0.0000 40.5507 0.0000
# 4 0.0000 0.0000 0.0000 65.9166 0.0000 -13.4850
# 5 52.1545 24.7793 40.5507 0.0000 75.2599 0.0000
# 6 0.0000 0.0000 0.0000 -13.4850 0.0000 65.1239
#
#
#
# Elastic Compliance Matrix: (Units=1/GPa)
#
#
# Indices 1 2 3 4 5 6 
#
# 1 0.004595 -0.001047 -0.001122 0.000000 -0.002235 0.000000
# 2 -0.001047 0.005889 -0.001371 0.000000 -0.000475 0.000000
# 3 -0.001122 -0.001371 0.003943 0.000000 -0.000896 0.000000
# 4 0.000000 0.000000 0.000000 0.015842 0.000000 0.003280
# 5 -0.002235 -0.000475 -0.000896 0.000000 0.015475 0.000000
# 6 0.000000 0.000000 0.000000 0.003280 0.000000 0.016035
#
#
# Mechanical properties :
#
#
# Convention : Reuss Voigt Hill
#
# Bulk Modulus (GPa) = 136.10298 162.80534 149.45416
# Shear Modulus (GPa) = 70.12029 76.24194 73.18112
#
# Velocity S-wave (km/s) = 4.75322 4.95636 4.85585
# Velocity P-wave (km/s) = 8.60100 9.23097 8.92155
#
# Compressibility (1/GPa) = 0.00734738
#
# Stress axis : x y z
#
# Youngs Moduli (GPa) = 217.64625 169.81753 253.60012
#
# Poissons Ratio (x) = 0.17774 0.28459
# Poissons Ratio (y) = 0.22779 0.34762
# Poissons Ratio (z) = 0.24424 0.23277
#
# Static dielectric constant tensor:
#      x y z
#    x 2.622300 0.000000 -0.041590 
#    y 0.000000 2.426340 0.000000 
#    z -0.041590 0.000000 2.494510 
# 
# From -- ./inp_files/7268.got.cif
#   From: 2010.05.17/outbox.cif.g08.bks.cpg/sg4_4_cif.got.tgz:7268.got - 2010.06.03 18:43:04.
