data_PCOD9119884
_publ_section_title
;
Structure prediction by ZEFSAII (Michael W. Deem and Ramdas Pophale) SiO2 
 PCOD9119884
Probable space group: P 21
;
_chemical_formula_sum "Si O2"
_cell_formula_units_Z 14
_cell_length_a 18.000000
_cell_length_b 6.000000
_cell_length_c 9.000000
_cell_angle_alpha 90.000000
_cell_angle_beta 140.000000
_cell_angle_gamma 90.000000
_cell_volume 624.789557
_symmetry_space_group_name_H-M "P 21"
_symmetry_group_IT_number 4
_symmetry_cell_setting 'monoclinic'
loop_
_space_group_symop_operation_xyz
x,y,z
-x,1/2+y,-z
loop_
_atom_site_type_symbol
_atom_site_label
_atom_site_fract_x
_atom_site_fract_y
_atom_site_fract_z
Si Si1 0.505665 0.978110 0.759519
Si Si2 0.369991 0.810258 0.828538
Si Si3 0.973797 0.692842 0.527132
Si Si4 0.157154 0.749247 0.312387
Si Si5 0.727293 0.553181 0.772866
Si Si6 0.293055 0.148246 0.943894
Si Si7 0.912658 0.935868 0.038158
O O1 0.439090 0.831149 0.781141
O O2 0.404780 0.065330 0.493763
O O3 0.613928 0.836317 0.862633
O O4 0.562682 0.167860 0.947617
O O5 0.246225 0.721730 0.583412
O O6 0.345513 0.039201 0.875855
O O7 0.834569 0.719214 0.306416
O O8 0.988078 0.443904 0.468512
O O9 0.048136 0.634406 0.789737
O O10 0.034567 0.819895 0.191434
O O11 0.206821 0.916518 0.258816
O O12 0.135515 0.525353 0.190422
O O13 0.715105 0.477469 0.927257
O O14 0.810630 0.768526 0.930588
#
# Coordination Sequence:
#
# PCOD9119884 Si02
#       7
#     2   2   2   2   2   2   2
#     4  11  27  46  73 103 150 199 262 316 394 467
#     4  11  25  46  71 105 141 200 256 321 385 474
#     4  12  28  50  78 121 165 204 265 332 407 480
#     4  11  25  43  73 107 148 196 252 314 395 472
#     4  11  27  48  69 112 147 198 255 323 392 467
#     4  12  26  47  75 109 151 200 259 326 393 470
#     4  12  24  44  77 109 158 203 253 324 402 480
#
# _framework density 22.407544999999999
#
# number of rings (size 3 to 8) (size 9 to 14) (size 15 to 20)
#    0.000    0.571    5.714    0.857    6.000    2.286 
#    0.000    0.000    0.000    0.000    0.000    0.000 
#    0.000    0.000    0.000    0.000    0.000    0.000 
#
# Total GULP energy -78046.553630 kJ/mol
# GULP energy per Si atom -5574.753831 kJ/mol
# Density = 2.235654 g / cm^3
# Si number density = 22.407545 Si / 1000 Ang^3
#
#
#
# Elastic Constant Matrix: (Units=GPa)
#
#
# Indices 1 2 3 4 5 6 
#
# 1 71.9182 16.1940 30.6777 0.0000 15.9584 0.0000
# 2 16.1940 38.1678 14.4600 0.0000 29.4384 0.0000
# 3 30.6777 14.4600 177.2755 0.0000 28.6128 0.0000
# 4 0.0000 0.0000 0.0000 44.4014 0.0000 -2.4942
# 5 15.9584 29.4384 28.6128 0.0000 40.6875 0.0000
# 6 0.0000 0.0000 0.0000 -2.4942 0.0000 35.7211
#
#
#
# Elastic Compliance Matrix: (Units=1/GPa)
#
#
# Indices 1 2 3 4 5 6 
#
# 1 0.016265 -0.005304 -0.002224 0.000000 -0.000977 0.000000
# 2 -0.005304 0.061897 0.003115 0.000000 -0.044894 0.000000
# 3 -0.002224 0.003115 0.006762 0.000000 -0.006137 0.000000
# 4 0.000000 0.000000 0.000000 0.022611 0.000000 0.001579
# 5 -0.000977 -0.044894 -0.006137 0.000000 0.061758 0.000000
# 6 0.000000 0.000000 0.000000 0.001579 0.000000 0.028105
#
#
# Mechanical properties :
#
#
# Convention : Reuss Voigt Hill
#
# Bulk Modulus (GPa) = 13.14117 45.55832 29.34974
# Shear Modulus (GPa) = 21.58988 39.23066 30.41027
#
# Velocity S-wave (km/s) = 3.10741 4.18877 3.68794
# Velocity P-wave (km/s) = 4.33036 6.61591 5.59116
#
# Compressibility (1/GPa) = 0.07609674
#
# Stress axis : x y z
#
# Youngs Moduli (GPa) = 61.48277 16.15595 147.87948
#
# Poissons Ratio (x) = 0.08570 0.32891
# Poissons Ratio (y) = 0.32613 -0.46066
# Poissons Ratio (z) = 0.13675 -0.05033
#
# Static dielectric constant tensor:
#      x y z
#    x 1.939420 0.000000 -0.003330 
#    y 0.000000 1.914950 0.000000 
#    z -0.003330 0.000000 1.807060 
# 
# From -- ./inp_files/7059.got.cif
#   From: 2010.05.17/outbox.ucp.g08.bks.cvg/sg4_4_cif.got.tgz:7059.got - 2010.06.11 12:51:24.
