data_PCOD9119785
_publ_section_title
;
Structure prediction by ZEFSAII (Michael W. Deem and Ramdas Pophale) SiO2 
 PCOD9119785
Probable space group: P 21
;
_chemical_formula_sum "Si O2"
_cell_formula_units_Z 10
_cell_length_a 9.957201
_cell_length_b 4.925844
_cell_length_c 8.596845
_cell_angle_alpha 90.000000
_cell_angle_beta 68.689255
_cell_angle_gamma 90.000000
_cell_volume 392.823325
_symmetry_space_group_name_H-M "P 21"
_symmetry_group_IT_number 4
_symmetry_cell_setting 'monoclinic'
loop_
_space_group_symop_operation_xyz
x,y,z
-x,1/2+y,-z
loop_
_atom_site_type_symbol
_atom_site_label
_atom_site_fract_x
_atom_site_fract_y
_atom_site_fract_z
Si Si1 0.952265 0.075470 0.108735
Si Si2 0.486037 0.222080 0.899678
Si Si3 0.065201 0.284663 0.391486
Si Si4 0.356911 0.085438 0.393612
Si Si5 0.334821 0.874250 0.736207
O O1 0.783692 0.146806 0.186941
O O2 0.021613 0.179688 0.239980
O O3 0.015472 0.265606 0.944813
O O4 0.597913 0.317502 0.720848
O O5 0.351140 0.082027 0.871857
O O6 0.453651 0.494639 0.009103
O O7 0.233412 0.238383 0.352420
O O8 0.980860 0.089460 0.548986
O O9 0.301057 0.018755 0.588270
O O10 0.505904 0.247613 0.347603
#
# Coordination Sequence:
#
# PCOD9119785 Si02
#       5
#     2   2   2   2   2
#     4  12  31  53  79 116 164 212 261 326 400 470
#     4  12  28  47  76 124 158 197 256 334 397 454
#     4  12  29  52  78 115 160 209 264 320 397 478
#     4  12  28  49  87 116 161 207 270 329 390 475
#     4  12  28  51  84 119 159 209 271 321 400 471
#
# _framework density 25.456741000000001
#
# number of rings (size 3 to 8) (size 9 to 14) (size 15 to 20)
#    0.000    0.000    6.000    1.200   11.200    1.600 
#    0.000    0.000    0.000    0.000    0.000    0.000 
#    0.000    0.000    0.000    0.000    0.000    0.000 
#
# Total GULP energy -56162.839618 kJ/mol
# GULP energy per Si atom -5616.283962 kJ/mol
# Density = 2.539880 g / cm^3
# Si number density = 25.456741 Si / 1000 Ang^3
#
#
#
# Elastic Constant Matrix: (Units=GPa)
#
#
# Indices 1 2 3 4 5 6 
#
# 1 130.0934 5.9385 14.4209 0.0000 -10.4828 0.0000
# 2 5.9385 103.3657 7.5553 0.0000 4.3980 0.0000
# 3 14.4209 7.5553 79.8835 0.0000 31.4596 0.0000
# 4 0.0000 0.0000 0.0000 58.1036 0.0000 -6.0046
# 5 -10.4828 4.3980 31.4596 0.0000 46.6194 0.0000
# 6 0.0000 0.0000 0.0000 -6.0046 0.0000 35.1118
#
#
#
# Elastic Compliance Matrix: (Units=1/GPa)
#
#
# Indices 1 2 3 4 5 6 
#
# 1 0.008362 -0.000428 -0.003031 0.000000 0.003966 0.000000
# 2 -0.000428 0.009769 -0.000607 0.000000 -0.000608 0.000000
# 3 -0.003031 -0.000607 0.018207 0.000000 -0.012911 0.000000
# 4 0.000000 0.000000 0.000000 0.017520 0.000000 0.002996
# 5 0.003966 -0.000608 -0.012911 0.000000 0.031112 0.000000
# 6 0.000000 0.000000 0.000000 0.002996 0.000000 0.028993
#
#
# Mechanical properties :
#
#
# Convention : Reuss Voigt Hill
#
# Bulk Modulus (GPa) = 35.45262 41.01911 38.23586
# Shear Modulus (GPa) = 38.02357 46.99550 42.50953
#
# Velocity S-wave (km/s) = 3.86898 4.30128 4.09084
# Velocity P-wave (km/s) = 5.82370 6.38876 6.11276
#
# Compressibility (1/GPa) = 0.02820666
#
# Stress axis : x y z
#
# Youngs Moduli (GPa) = 119.59084 102.36235 54.92284
#
# Poissons Ratio (x) = 0.04377 0.16647
# Poissons Ratio (y) = 0.05114 0.03336
# Poissons Ratio (z) = 0.36247 0.06217
#
# Static dielectric constant tensor:
#      x y z
#    x 1.967010 0.000000 -0.009620 
#    y 0.000000 1.965650 0.000000 
#    z -0.009620 0.000000 2.015140 
# 
# From -- ./inp_files/5071.got.cif
#   From: 2010.05.17/outbox.cif.g08.bks.cpg/sg4_3_cif.got.tgz:5071.got - 2010.06.03 18:43:04.
