data_PCOD9119003
_publ_section_title
;
Structure prediction by ZEFSAII (Michael W. Deem and Ramdas Pophale) SiO2 
 PCOD9119003
Probable space group: P 21
;
_chemical_formula_sum "Si O2"
_cell_formula_units_Z 16
_cell_length_a 14.533386
_cell_length_b 7.953065
_cell_length_c 5.365031
_cell_angle_alpha 90.000000
_cell_angle_beta 103.947873
_cell_angle_gamma 90.000000
_cell_volume 601.833027
_symmetry_space_group_name_H-M "P 21"
_symmetry_group_IT_number 4
_symmetry_cell_setting 'monoclinic'
loop_
_space_group_symop_operation_xyz
x,y,z
-x,1/2+y,-z
loop_
_atom_site_type_symbol
_atom_site_label
_atom_site_fract_x
_atom_site_fract_y
_atom_site_fract_z
Si Si1 0.301802 0.756040 0.839575
Si Si2 0.447493 0.319481 0.282717
Si Si3 0.797448 0.478835 0.605483
Si Si4 0.000390 0.490248 0.263155
Si Si5 0.661209 0.912919 0.280171
Si Si6 0.131863 0.272485 0.619269
Si Si7 0.879448 0.200293 0.981070
Si Si8 0.600906 0.454410 0.721764
O O1 0.223265 0.674289 0.970093
O O2 0.390853 0.812692 0.062540
O O3 0.253091 0.917548 0.681147
O O4 0.320237 0.609578 0.654663
O O5 0.384295 0.338270 0.496945
O O6 0.547515 0.391850 0.440617
O O7 0.450874 0.122000 0.227799
O O8 0.403289 0.403087 0.009569
O O9 0.855502 0.648886 0.613215
O O10 0.862087 0.324389 0.733739
O O11 0.710289 0.497760 0.736886
O O12 0.073941 0.442318 0.528733
O O13 0.067141 0.536665 0.075821
O O14 0.928537 0.645717 0.248926
O O15 0.941522 0.319759 0.196277
O O16 0.759020 0.821181 0.266160
#
# Coordination Sequence:
#
# PCOD9119003 Si02
#       8
#     2   2   2   2   2   2   2   2
#     4  11  26  47  77 107 153 205 253 321 390 464
#     4  12  29  51  79 120 152 210 254 322 385 473
#     4  11  23  48  74 106 149 200 249 320 391 457
#     4  12  27  44  73 105 149 195 260 320 377 472
#     4  12  30  48  82 112 162 201 260 318 399 462
#     4  12  26  48  75 109 153 202 257 319 400 453
#     4  11  26  43  72 105 144 194 256 316 388 447
#     4  11  27  47  80 112 158 199 261 318 386 468
#
# _framework density 26.585449000000001
#
# number of rings (size 3 to 8) (size 9 to 14) (size 15 to 20)
#    0.000    0.500    2.500    3.750   14.000    0.000 
#    0.000    0.000    0.000    0.000    0.000    0.000 
#    0.000    0.000    0.000    0.000    0.000    0.000 
#
# Total GULP energy -89680.330948 kJ/mol
# GULP energy per Si atom -5605.020684 kJ/mol
# Density = 2.652494 g / cm^3
# Si number density = 26.585449 Si / 1000 Ang^3
#
#
#
# Elastic Constant Matrix: (Units=GPa)
#
#
# Indices 1 2 3 4 5 6 
#
# 1 110.5551 28.0009 27.9594 0.0000 6.7626 0.0000
# 2 28.0009 109.9196 -0.4235 0.0000 -5.7305 0.0000
# 3 27.9594 -0.4235 101.5695 0.0000 6.4954 0.0000
# 4 0.0000 0.0000 0.0000 40.5704 0.0000 -6.2495
# 5 6.7626 -5.7305 6.4954 0.0000 32.6126 0.0000
# 6 0.0000 0.0000 0.0000 -6.2495 0.0000 41.2230
#
#
#
# Elastic Compliance Matrix: (Units=1/GPa)
#
#
# Indices 1 2 3 4 5 6 
#
# 1 0.010597 -0.002822 -0.002792 0.000000 -0.002137 0.000000
# 2 -0.002822 0.009933 0.000678 0.000000 0.002196 0.000000
# 3 -0.002792 0.000678 0.010709 0.000000 -0.001435 0.000000
# 4 0.000000 0.000000 0.000000 0.025238 0.000000 0.003826
# 5 -0.002137 0.002196 -0.001435 0.000000 0.031778 0.000000
# 6 0.000000 0.000000 0.000000 0.003826 0.000000 0.024838
#
#
# Mechanical properties :
#
#
# Convention : Reuss Voigt Hill
#
# Bulk Modulus (GPa) = 46.80145 48.12420 47.46283
# Shear Modulus (GPa) = 38.43581 40.64835 39.54208
#
# Velocity S-wave (km/s) = 3.80642 3.91445 3.86081
# Velocity P-wave (km/s) = 6.07954 6.21060 6.14542
#
# Compressibility (1/GPa) = 0.02136686
#
# Stress axis : x y z
#
# Youngs Moduli (GPa) = 94.36853 100.67041 93.38252
#
# Poissons Ratio (x) = 0.28405 0.26073
# Poissons Ratio (y) = 0.26627 -0.06329
# Poissons Ratio (z) = 0.26349 -0.06823
#
# Static dielectric constant tensor:
#      x y z
#    x 2.117840 0.000000 -0.019850 
#    y 0.000000 2.037950 0.000000 
#    z -0.019850 0.000000 2.113740 
# 
# From -- ./inp_files/3724.got.cif
#   From: 2010.05.17/outbox.cif.g08.bks.cpg/sg4_2_cif.got.tgz:3724.got - 2010.06.03 18:43:04.
