data_PCOD9119420
_publ_section_title
;
Structure prediction by ZEFSAII (Michael W. Deem and Ramdas Pophale) SiO2 
 PCOD9119420
Probable space group: P 21
;
_chemical_formula_sum "Si O2"
_cell_formula_units_Z 14
_cell_length_a 5.264686
_cell_length_b 8.507465
_cell_length_c 16.513546
_cell_angle_alpha 90.000000
_cell_angle_beta 50.741078
_cell_angle_gamma 90.000000
_cell_volume 572.689132
_symmetry_space_group_name_H-M "P 21"
_symmetry_group_IT_number 4
_symmetry_cell_setting 'monoclinic'
loop_
_space_group_symop_operation_xyz
x,y,z
-x,1/2+y,-z
loop_
_atom_site_type_symbol
_atom_site_label
_atom_site_fract_x
_atom_site_fract_y
_atom_site_fract_z
Si Si1 0.900556 0.273990 0.916181
Si Si2 0.280036 0.723611 0.496417
Si Si3 0.107720 0.078319 0.285761
Si Si4 0.995788 0.727701 0.285443
Si Si5 0.218674 0.429265 0.001721
Si Si6 0.806153 0.004372 0.630844
Si Si7 0.272000 0.768386 0.773335
O O1 0.067508 0.224198 0.797748
O O2 0.803144 0.115199 0.982338
O O3 0.572006 0.366876 0.958095
O O4 0.120342 0.376420 0.931641
O O5 0.663510 0.734349 0.404056
O O6 0.157135 0.648778 0.437399
O O7 0.163912 0.607142 0.590122
O O8 0.104369 0.886001 0.554009
O O9 0.436141 0.167488 0.245727
O O10 0.950642 0.158597 0.238309
O O11 0.167123 0.894290 0.265713
O O12 0.190190 0.576766 0.279581
O O13 0.952399 0.350215 0.114844
O O14 0.474877 0.903453 0.683716
#
# Coordination Sequence:
#
# PCOD9119420 Si02
#       7
#     2   2   2   2   2   2   2
#     4  12  31  50  85 112 156 200 265 313 401 446
#     4  11  26  45  75 108 158 204 253 317 376 460
#     4  11  28  46  79 112 151 206 256 307 391 457
#     4  12  29  47  76 113 155 202 259 321 377 466
#     4  12  29  55  78 115 151 205 253 333 381 465
#     4  11  27  46  76 111 155 206 261 307 393 450
#     4  11  28  51  77 107 156 199 257 326 381 458
#
# _framework density 24.446072999999998
#
# number of rings (size 3 to 8) (size 9 to 14) (size 15 to 20)
#    0.000    0.571    0.000    4.286   32.000    0.000 
#    0.000    0.000    0.000    0.000    0.000    0.000 
#    0.000    0.000    0.000    0.000    0.000    0.000 
#
# Total GULP energy -78558.282419 kJ/mol
# GULP energy per Si atom -5611.305887 kJ/mol
# Density = 2.439043 g / cm^3
# Si number density = 24.446073 Si / 1000 Ang^3
#
#
#
# Elastic Constant Matrix: (Units=GPa)
#
#
# Indices 1 2 3 4 5 6 
#
# 1 136.7839 60.9496 31.8805 0.0000 -4.3555 0.0000
# 2 60.9496 128.7044 27.4156 0.0000 10.1816 0.0000
# 3 31.8805 27.4156 113.7600 0.0000 -8.5193 0.0000
# 4 0.0000 0.0000 0.0000 30.3406 0.0000 2.1447
# 5 -4.3555 10.1816 -8.5193 0.0000 26.9669 0.0000
# 6 0.0000 0.0000 0.0000 2.1447 0.0000 35.8223
#
#
#
# Elastic Compliance Matrix: (Units=1/GPa)
#
#
# Indices 1 2 3 4 5 6 
#
# 1 0.009757 -0.004541 -0.001427 0.000000 0.002840 0.000000
# 2 -0.004541 0.010704 -0.001705 0.000000 -0.005313 0.000000
# 3 -0.001427 -0.001705 0.009866 0.000000 0.003530 0.000000
# 4 0.000000 0.000000 0.000000 0.033099 0.000000 -0.001982
# 5 0.002840 -0.005313 0.003530 0.000000 0.040662 0.000000
# 6 0.000000 0.000000 0.000000 -0.001982 0.000000 0.028034
#
#
# Mechanical properties :
#
#
# Convention : Reuss Voigt Hill
#
# Bulk Modulus (GPa) = 66.75615 68.85998 67.80806
# Shear Modulus (GPa) = 32.79479 35.89279 34.34379
#
# Velocity S-wave (km/s) = 3.66664 3.83592 3.75224
# Velocity P-wave (km/s) = 6.72997 6.91725 6.82425
#
# Compressibility (1/GPa) = 0.01497989
#
# Stress axis : x y z
#
# Youngs Moduli (GPa) = 102.48532 93.42436 101.36192
#
# Poissons Ratio (x) = 0.42428 0.14468
# Poissons Ratio (y) = 0.46542 0.17280
# Poissons Ratio (z) = 0.14628 0.15927
#
# Static dielectric constant tensor:
#      x y z
#    x 1.916870 0.000000 0.015750 
#    y 0.000000 1.928070 0.000000 
#    z 0.015750 0.000000 1.929100 
# 
# From -- ./inp_files/14705.got.cif
#   From: 2010.05.17/outbox.cif.g08.bks.cpg/sg4_8_cif.got.tgz:14705.got - 2010.06.03 18:43:04.
