data_PCOD9119510
_publ_section_title
;
Structure prediction by ZEFSAII (Michael W. Deem and Ramdas Pophale) SiO2 
 PCOD9119510
Probable space group: P 21
;
_chemical_formula_sum "Si O2"
_cell_formula_units_Z 12
_cell_length_a 8.252840
_cell_length_b 11.909646
_cell_length_c 6.260770
_cell_angle_alpha 90.000000
_cell_angle_beta 55.121874
_cell_angle_gamma 90.000000
_cell_volume 504.823924
_symmetry_space_group_name_H-M "P 21"
_symmetry_group_IT_number 4
_symmetry_cell_setting 'monoclinic'
loop_
_space_group_symop_operation_xyz
x,y,z
-x,1/2+y,-z
loop_
_atom_site_type_symbol
_atom_site_label
_atom_site_fract_x
_atom_site_fract_y
_atom_site_fract_z
Si Si1 0.263298 0.003990 0.686699
Si Si2 0.128247 0.528746 0.781558
Si Si3 0.630787 0.260007 0.387242
Si Si4 0.395550 0.509328 0.225999
Si Si5 0.367492 0.174203 0.232534
Si Si6 0.305332 0.333358 0.952423
O O1 0.277513 0.082387 0.466262
O O2 0.238481 0.870474 0.668420
O O3 0.465509 0.005132 0.670174
O O4 0.094022 0.045005 0.973439
O O5 0.241646 0.647070 0.730223
O O6 0.177558 0.504668 0.495601
O O7 0.196610 0.420914 0.874706
O O8 0.491915 0.259752 0.284185
O O9 0.463135 0.266489 0.693546
O O10 0.466317 0.615262 0.037254
O O11 0.415756 0.415760 0.031663
O O12 0.219199 0.241323 0.185982
#
# Coordination Sequence:
#
# PCOD9119510 Si02
#       6
#     2   2   2   2   2   2
#     4  12  27  46  75 115 148 190 257 313 372 442
#     4  12  27  46  75 115 148 190 257 313 372 442
#     4  12  22  46  76 102 150 196 246 320 362 442
#     4  12  22  46  76 106 146 192 246 302 374 446
#     4  12  23  45  80 103 147 206 245 299 381 445
#     4  12  23  45  80 103 147 206 245 299 381 445
#
# _framework density 23.770662000000002
#
# number of rings (size 3 to 8) (size 9 to 14) (size 15 to 20)
#    0.000    0.000   10.000    0.000    0.000    5.333 
#    0.000    1.667    7.333    0.000    0.000    0.000 
#    0.000    0.000    0.000    0.000    0.000    0.000 
#
# Total GULP energy -66892.878898 kJ/mol
# GULP energy per Si atom -5574.406575 kJ/mol
# Density = 2.371656 g / cm^3
# Si number density = 23.770662 Si / 1000 Ang^3
#
#
#
# Elastic Constant Matrix: (Units=GPa)
#
#
# Indices 1 2 3 4 5 6 
#
# 1 20.3223 25.8970 24.5311 0.0000 4.0247 0.0000
# 2 25.8970 133.6368 38.0090 0.0000 16.2382 0.0000
# 3 24.5311 38.0090 117.1463 0.0000 9.2515 0.0000
# 4 0.0000 0.0000 0.0000 47.9041 0.0000 19.0480
# 5 4.0247 16.2382 9.2515 0.0000 38.8490 0.0000
# 6 0.0000 0.0000 0.0000 19.0480 0.0000 32.3087
#
#
#
# Elastic Compliance Matrix: (Units=1/GPa)
#
#
# Indices 1 2 3 4 5 6 
#
# 1 0.079793 -0.011768 -0.012868 0.000000 -0.000283 0.000000
# 2 -0.011768 0.010304 -0.000647 0.000000 -0.002934 0.000000
# 3 -0.012868 -0.000647 0.011531 0.000000 -0.001142 0.000000
# 4 0.000000 0.000000 0.000000 0.027267 0.000000 -0.016076
# 5 -0.000283 -0.002934 -0.001142 0.000000 0.027268 0.000000
# 6 0.000000 0.000000 0.000000 -0.016076 0.000000 0.040429
#
#
# Mechanical properties :
#
#
# Convention : Reuss Voigt Hill
#
# Bulk Modulus (GPa) = 19.58467 49.77551 34.68009
# Shear Modulus (GPa) = 18.92640 35.99025 27.45833
#
# Velocity S-wave (km/s) = 2.82478 3.89532 3.40242
# Velocity P-wave (km/s) = 4.34696 6.42002 5.48237
#
# Compressibility (1/GPa) = 0.05106034
#
# Stress axis : x y z
#
# Youngs Moduli (GPa) = 12.53241 97.04900 86.72078
#
# Poissons Ratio (x) = 1.14212 1.11596
# Poissons Ratio (y) = 0.14749 0.05612
# Poissons Ratio (z) = 0.16127 0.06281
#
# Static dielectric constant tensor:
#      x y z
#    x 1.927920 0.000000 -0.013060 
#    y 0.000000 2.035090 0.000000 
#    z -0.013060 0.000000 1.892100 
# 
# From -- ./inp_files/1460.got.cif
#   From: 2010.05.17/outbox.cif.g08.bks.cpg/sg4_1_cif.got.tgz:1460.got - 2010.06.03 18:43:04.
