data_PCOD9119393
_publ_section_title
;
Structure prediction by ZEFSAII (Michael W. Deem and Ramdas Pophale) SiO2 
 PCOD9119393
Probable space group: P 21
;
_chemical_formula_sum "Si O2"
_cell_formula_units_Z 16
_cell_length_a 14.281819
_cell_length_b 7.791547
_cell_length_c 10.914782
_cell_angle_alpha 90.000000
_cell_angle_beta 149.835481
_cell_angle_gamma 90.000000
_cell_volume 610.302397
_symmetry_space_group_name_H-M "P 21"
_symmetry_group_IT_number 4
_symmetry_cell_setting 'monoclinic'
loop_
_space_group_symop_operation_xyz
x,y,z
-x,1/2+y,-z
loop_
_atom_site_type_symbol
_atom_site_label
_atom_site_fract_x
_atom_site_fract_y
_atom_site_fract_z
Si Si1 0.419817 0.742920 0.970680
Si Si2 0.961092 0.943709 0.687898
Si Si3 0.388263 0.502597 0.327516
Si Si4 0.748941 0.866517 0.207078
Si Si5 0.093995 0.277691 0.114001
Si Si6 0.901187 0.331209 0.556294
Si Si7 0.392867 0.871108 0.200176
Si Si8 0.751643 0.423896 0.631034
O O1 0.346542 0.552272 0.910646
O O2 0.241845 0.844604 0.717346
O O3 0.577840 0.742345 0.044985
O O4 0.481490 0.828893 0.168095
O O5 0.880754 0.852720 0.476275
O O6 0.897104 0.857432 0.741215
O O7 0.889506 0.137551 0.593749
O O8 0.185405 0.939961 0.943257
O O9 0.198654 0.399243 0.135297
O O10 0.373722 0.688893 0.250367
O O11 0.487561 0.489447 0.573595
O O12 0.533288 0.403609 0.401938
O O13 0.888990 0.852060 0.252556
O O14 0.189322 0.093639 0.226902
O O15 0.878833 0.274272 0.831470
O O16 0.821027 0.450031 0.571999
#
# Coordination Sequence:
#
# PCOD9119393 Si02
#       8
#     2   2   2   2   2   2   2   2
#     4  11  28  50  77 113 152 207 251 319 385 460
#     4  11  25  49  78 107 156 203 256 320 383 462
#     4  12  28  48  78 111 151 203 254 318 390 451
#     4  11  27  49  77 114 154 203 257 315 384 459
#     4  12  26  47  74 109 156 207 249 328 383 451
#     4  11  28  48  78 113 151 204 262 317 389 466
#     4  12  26  53  77 112 155 200 258 321 387 456
#     4  12  28  46  75 115 153 201 263 314 387 469
#
# _framework density 26.216514
#
# number of rings (size 3 to 8) (size 9 to 14) (size 15 to 20)
#    0.000    0.500    3.750    2.250    8.750    0.000 
#    0.000    0.000    0.000    0.000    0.000    0.000 
#    0.000    0.000    0.000    0.000    0.000    0.000 
#
# Total GULP energy -89761.959134 kJ/mol
# GULP energy per Si atom -5610.122446 kJ/mol
# Density = 2.615684 g / cm^3
# Si number density = 26.216514 Si / 1000 Ang^3
#
#
#
# Elastic Constant Matrix: (Units=GPa)
#
#
# Indices 1 2 3 4 5 6 
#
# 1 154.2390 8.4037 25.5469 0.0000 2.7093 0.0000
# 2 8.4037 55.4101 -3.2696 0.0000 -9.5193 0.0000
# 3 25.5469 -3.2696 95.7697 0.0000 4.6725 0.0000
# 4 0.0000 0.0000 0.0000 35.7916 0.0000 1.2046
# 5 2.7093 -9.5193 4.6725 0.0000 49.5888 0.0000
# 6 0.0000 0.0000 0.0000 1.2046 0.0000 36.2713
#
#
#
# Elastic Compliance Matrix: (Units=1/GPa)
#
#
# Indices 1 2 3 4 5 6 
#
# 1 0.006865 -0.001225 -0.001852 0.000000 -0.000436 0.000000
# 2 -0.001225 0.018902 0.000796 0.000000 0.003621 0.000000
# 3 -0.001852 0.000796 0.011001 0.000000 -0.000783 0.000000
# 4 0.000000 0.000000 0.000000 0.027971 0.000000 -0.000929
# 5 -0.000436 0.003621 -0.000783 0.000000 0.020958 0.000000
# 6 0.000000 0.000000 0.000000 -0.000929 0.000000 0.027601
#
#
# Mechanical properties :
#
#
# Convention : Reuss Voigt Hill
#
# Bulk Modulus (GPa) = 31.05134 40.75342 35.90238
# Shear Modulus (GPa) = 38.88164 42.64619 40.76392
#
# Velocity S-wave (km/s) = 3.85528 4.03760 3.94749
# Velocity P-wave (km/s) = 5.62916 6.10860 5.87377
#
# Compressibility (1/GPa) = 0.03220473
#
# Stress axis : x y z
#
# Youngs Moduli (GPa) = 145.67573 52.90439 90.90073
#
# Poissons Ratio (x) = 0.06482 0.16832
# Poissons Ratio (y) = 0.17849 -0.07231
# Poissons Ratio (z) = 0.26975 -0.04209
#
# Static dielectric constant tensor:
#      x y z
#    x 2.061640 0.000000 -0.018670 
#    y 0.000000 2.031870 0.000000 
#    z -0.018670 0.000000 2.035080 
# 
# From -- ./inp_files/12676.got.cif
#   From: 2010.05.17/outbox.cif.g08.bks.cpg/sg4_7_cif.got.tgz:12676.got - 2010.06.03 18:43:04.
