data_PCOD9119322
_publ_section_title
;
Structure prediction by ZEFSAII (Michael W. Deem and Ramdas Pophale) SiO2 
 PCOD9119322
Probable space group: P 21
;
_chemical_formula_sum "Si O2"
_cell_formula_units_Z 16
_cell_length_a 7.716375
_cell_length_b 10.028739
_cell_length_c 15.620536
_cell_angle_alpha 90.000000
_cell_angle_beta 32.969830
_cell_angle_gamma 90.000000
_cell_volume 657.827469
_symmetry_space_group_name_H-M "P 21"
_symmetry_group_IT_number 4
_symmetry_cell_setting 'monoclinic'
loop_
_space_group_symop_operation_xyz
x,y,z
-x,1/2+y,-z
loop_
_atom_site_type_symbol
_atom_site_label
_atom_site_fract_x
_atom_site_fract_y
_atom_site_fract_z
Si Si1 0.586193 0.578350 0.223103
Si Si2 0.564527 0.927262 0.884206
Si Si3 0.259069 0.630646 0.611880
Si Si4 0.726604 0.396488 0.485554
Si Si5 0.379458 0.974134 0.153869
Si Si6 0.216367 0.694102 0.957407
Si Si7 0.125105 0.790738 0.393228
Si Si8 0.380485 0.810954 0.707164
O O1 0.607129 0.512754 0.119819
O O2 0.242048 0.644393 0.370685
O O3 0.654980 0.469163 0.267347
O O4 0.842624 0.694644 0.125273
O O5 0.407380 0.781056 0.946001
O O6 0.930259 0.919335 0.702030
O O7 0.496003 0.974155 0.008033
O O8 0.492164 0.512964 0.549227
O O9 0.389375 0.747204 0.494921
O O10 0.174687 0.724537 0.727961
O O11 0.945294 0.560525 0.704925
O O12 0.787984 0.385763 0.562128
O O13 0.297841 0.836461 0.234702
O O14 0.660680 0.044019 0.089410
O O15 0.313956 0.753255 0.827153
O O16 0.750474 0.790300 0.532679
#
# Coordination Sequence:
#
# PCOD9119322 Si02
#       8
#     2   2   2   2   2   2   2   2
#     4  11  27  44  80 107 150 202 264 311 399 463
#     4  11  26  49  70 108 148 200 246 328 379 462
#     4  12  27  47  77 115 151 201 257 323 387 459
#     4  12  27  50  79 110 159 197 261 320 395 464
#     4  12  28  45  74 107 153 199 254 314 388 456
#     4  11  25  46  72 103 150 196 254 306 390 458
#     4  12  27  48  77 113 151 204 258 321 390 466
#     4  11  25  49  77 109 150 199 256 323 384 466
#
# _framework density 24.322488
#
# number of rings (size 3 to 8) (size 9 to 14) (size 15 to 20)
#    0.000    0.500    3.750    3.000   14.000    0.000 
#    0.000    0.000    0.000    0.000    0.000    0.000 
#    0.000    0.000    0.000    0.000    0.000    0.000 
#
# Total GULP energy -89552.106256 kJ/mol
# GULP energy per Si atom -5597.006641 kJ/mol
# Density = 2.426713 g / cm^3
# Si number density = 24.322488 Si / 1000 Ang^3
#
#
#
# Elastic Constant Matrix: (Units=GPa)
#
#
# Indices 1 2 3 4 5 6 
#
# 1 76.0579 18.9799 12.5590 0.0000 9.0629 0.0000
# 2 18.9799 86.7028 17.3094 0.0000 0.6400 0.0000
# 3 12.5590 17.3094 79.3986 0.0000 1.7400 0.0000
# 4 0.0000 0.0000 0.0000 35.0809 0.0000 -0.9281
# 5 9.0629 0.6400 1.7400 0.0000 40.9736 0.0000
# 6 0.0000 0.0000 0.0000 -0.9281 0.0000 42.0059
#
#
#
# Elastic Compliance Matrix: (Units=1/GPa)
#
#
# Indices 1 2 3 4 5 6 
#
# 1 0.014487 -0.002828 -0.001607 0.000000 -0.003092 0.000000
# 2 -0.002828 0.012611 -0.002313 0.000000 0.000527 0.000000
# 3 -0.001607 -0.002313 0.013357 0.000000 -0.000176 0.000000
# 4 0.000000 0.000000 0.000000 0.028522 0.000000 0.000630
# 5 -0.003092 0.000527 -0.000176 0.000000 0.025089 0.000000
# 6 0.000000 0.000000 0.000000 0.000630 0.000000 0.023820
#
#
# Mechanical properties :
#
#
# Convention : Reuss Voigt Hill
#
# Bulk Modulus (GPa) = 37.09459 37.76179 37.42819
# Shear Modulus (GPa) = 35.62026 36.49948 36.05987
#
# Velocity S-wave (km/s) = 3.83103 3.87802 3.85460
# Velocity P-wave (km/s) = 5.90367 5.96752 5.93568
#
# Compressibility (1/GPa) = 0.02695811
#
# Stress axis : x y z
#
# Youngs Moduli (GPa) = 69.02568 79.29822 74.86644
#
# Poissons Ratio (x) = 0.22423 0.12034
# Poissons Ratio (y) = 0.19518 0.17320
# Poissons Ratio (z) = 0.11095 0.18345
#
# Static dielectric constant tensor:
#      x y z
#    x 1.943150 0.000000 0.011520 
#    y 0.000000 1.979740 0.000000 
#    z 0.011520 0.000000 1.923580 
# 
# From -- ./inp_files/14963.got.cif
#   From: 2010.05.17/outbox.cif.g08.bks.cpg/sg4_8_cif.got.tgz:14963.got - 2010.06.03 18:43:04.
