data_PCOD9119475
_publ_section_title
;
Structure prediction by ZEFSAII (Michael W. Deem and Ramdas Pophale) SiO2 
 PCOD9119475
Probable space group: P 21
;
_chemical_formula_sum "Si O2"
_cell_formula_units_Z 14
_cell_length_a 8.844080
_cell_length_b 8.636869
_cell_length_c 8.992701
_cell_angle_alpha 90.000000
_cell_angle_beta 134.437864
_cell_angle_gamma 90.000000
_cell_volume 490.459933
_symmetry_space_group_name_H-M "P 21"
_symmetry_group_IT_number 4
_symmetry_cell_setting 'monoclinic'
loop_
_space_group_symop_operation_xyz
x,y,z
-x,1/2+y,-z
loop_
_atom_site_type_symbol
_atom_site_label
_atom_site_fract_x
_atom_site_fract_y
_atom_site_fract_z
Si Si1 0.453897 0.616130 0.339296
Si Si2 0.063755 0.338518 0.839057
Si Si3 0.027413 0.996078 0.489941
Si Si4 0.847609 0.505734 0.966358
Si Si5 0.816594 0.225400 0.130062
Si Si6 0.448847 0.902524 0.827907
Si Si7 0.361093 0.446309 0.559641
O O1 0.543106 0.451039 0.341002
O O2 0.337753 0.565984 0.407820
O O3 0.602752 0.765800 0.462182
O O4 0.303657 0.665989 0.099506
O O5 0.953891 0.340610 0.601449
O O6 0.018379 0.623475 0.666154
O O7 0.941258 0.448375 0.873006
O O8 0.302572 0.397035 0.964626
O O9 0.823554 0.972041 0.450145
O O10 0.251805 0.022179 0.726728
O O11 0.093597 0.177026 0.943532
O O12 0.592191 0.493540 0.785442
O O13 0.924304 0.378716 0.137922
O O14 0.641179 0.263111 0.135138
#
# Coordination Sequence:
#
# PCOD9119475 Si02
#       7
#     2   2   2   2   2   2   2
#     4  11  27  51  81 124 171 226 289 356 433 518
#     4  12  26  53  84 121 175 226 288 358 439 519
#     4  12  28  54  85 125 171 226 289 358 434 522
#     4  11  27  50  88 123 173 230 285 369 432 514
#     4  11  27  53  84 126 168 233 292 351 439 513
#     4  12  29  50  86 121 172 219 288 354 426 522
#     4  11  28  51  84 124 170 228 293 358 437 514
#
# _framework density 28.544636000000001
#
# number of rings (size 3 to 8) (size 9 to 14) (size 15 to 20)
#    0.000    0.571    1.429    4.286   12.000    1.143 
#    0.000    0.000    0.000    0.000    0.000    0.000 
#    0.000    0.000    0.000    0.000    0.000    0.000 
#
# Total GULP energy -78310.120527 kJ/mol
# GULP energy per Si atom -5593.580038 kJ/mol
# Density = 2.847967 g / cm^3
# Si number density = 28.544636 Si / 1000 Ang^3
#
#
#
# Elastic Constant Matrix: (Units=GPa)
#
#
# Indices 1 2 3 4 5 6 
#
# 1 205.1997 60.8994 85.6991 0.0000 -4.2415 0.0000
# 2 60.8994 119.9278 79.4681 0.0000 -19.9151 0.0000
# 3 85.6991 79.4681 153.9285 0.0000 6.6214 0.0000
# 4 0.0000 0.0000 0.0000 56.0699 0.0000 -18.2838
# 5 -4.2415 -19.9151 6.6214 0.0000 64.1559 0.0000
# 6 0.0000 0.0000 0.0000 -18.2838 0.0000 57.5600
#
#
#
# Elastic Compliance Matrix: (Units=1/GPa)
#
#
# Indices 1 2 3 4 5 6 
#
# 1 0.006501 -0.001271 -0.002978 0.000000 0.000343 0.000000
# 2 -0.001271 0.014458 -0.006977 0.000000 0.005124 0.000000
# 3 -0.002978 -0.006977 0.011911 0.000000 -0.003592 0.000000
# 4 0.000000 0.000000 0.000000 0.019896 0.000000 0.006320
# 5 0.000343 0.005124 -0.003592 0.000000 0.017571 0.000000
# 6 0.000000 0.000000 0.000000 0.006320 0.000000 0.019381
#
#
# Mechanical properties :
#
#
# Convention : Reuss Voigt Hill
#
# Bulk Modulus (GPa) = 95.98698 103.46545 99.72622
# Shear Modulus (GPa) = 43.23681 52.42311 47.82996
#
# Velocity S-wave (km/s) = 3.89615 4.29013 4.09787
# Velocity P-wave (km/s) = 7.34438 7.80166 7.57647
#
# Compressibility (1/GPa) = 0.01041808
#
# Stress axis : x y z
#
# Youngs Moduli (GPa) = 153.81281 69.16709 83.95621
#
# Poissons Ratio (x) = 0.08792 0.25003
# Poissons Ratio (y) = 0.19551 0.58574
# Poissons Ratio (z) = 0.45808 0.48256
#
# Static dielectric constant tensor:
#      x y z
#    x 2.249770 0.000000 0.077790 
#    y 0.000000 2.445140 0.000000 
#    z 0.077790 0.000000 2.253650 
# 
# From -- ./inp_files/6446.got.cif
#   From: 2010.05.17/outbox.cif.g08.bks.cpg/sg4_4_cif.got.tgz:6446.got - 2010.06.03 18:43:04.
