data_PCOD9119395
_publ_section_title
;
Structure prediction by ZEFSAII (Michael W. Deem and Ramdas Pophale) SiO2 
 PCOD9119395
Probable space group: P 21
;
_chemical_formula_sum "Si O2"
_cell_formula_units_Z 16
_cell_length_a 9.333826
_cell_length_b 9.271358
_cell_length_c 12.137746
_cell_angle_alpha 90.000000
_cell_angle_beta 38.511057
_cell_angle_gamma 90.000000
_cell_volume 654.027496
_symmetry_space_group_name_H-M "P 21"
_symmetry_group_IT_number 4
_symmetry_cell_setting 'monoclinic'
loop_
_space_group_symop_operation_xyz
x,y,z
-x,1/2+y,-z
loop_
_atom_site_type_symbol
_atom_site_label
_atom_site_fract_x
_atom_site_fract_y
_atom_site_fract_z
Si Si1 0.487186 0.910970 0.524473
Si Si2 0.996990 0.920959 0.906970
Si Si3 0.444959 0.678033 0.397963
Si Si4 0.312504 0.230342 0.396056
Si Si5 0.846918 0.283076 0.747255
Si Si6 0.636251 0.696394 0.059911
Si Si7 0.913556 0.614221 0.681835
Si Si8 0.183421 0.731370 0.982781
O O1 0.539183 0.833450 0.379007
O O2 0.627863 0.854015 0.546946
O O3 0.217812 0.879569 0.701494
O O4 0.521719 0.080978 0.513006
O O5 0.970450 0.090172 0.923414
O O6 0.767354 0.846727 0.000660
O O7 0.062328 0.852950 0.984030
O O8 0.593374 0.623802 0.204663
O O9 0.176810 0.667163 0.528790
O O10 0.220951 0.217264 0.323613
O O11 0.069982 0.179994 0.596172
O O12 0.574196 0.181750 0.216550
O O13 0.619700 0.221235 0.829151
O O14 0.901150 0.441831 0.662808
O O15 0.792125 0.289690 0.909058
O O16 0.790230 0.621986 0.874802
#
# Coordination Sequence:
#
# PCOD9119395 Si02
#       8
#     2   2   2   2   2   2   2   2
#     4  11  27  48  77 112 150 197 251 313 371 452
#     4  11  26  48  76 109 147 202 245 306 378 440
#     4  12  27  50  75 111 154 198 250 310 374 450
#     4  11  25  50  70 109 148 195 247 308 372 438
#     4  12  27  46  79 110 148 200 246 314 379 442
#     4  12  27  47  77 113 147 200 248 313 378 449
#     4  12  26  49  75 112 148 195 255 309 374 450
#     4  11  27  50  75 110 154 193 252 311 370 453
#
# _framework density 24.463802000000001
#
# number of rings (size 3 to 8) (size 9 to 14) (size 15 to 20)
#    0.000    0.500    5.000    1.500    8.750    3.000 
#    2.250    0.000    0.000    0.000    0.000    0.000 
#    0.000    0.000    0.000    0.000    0.000    0.000 
#
# Total GULP energy -89308.039415 kJ/mol
# GULP energy per Si atom -5581.752463 kJ/mol
# Density = 2.440812 g / cm^3
# Si number density = 24.463802 Si / 1000 Ang^3
#
#
#
# Elastic Constant Matrix: (Units=GPa)
#
#
# Indices 1 2 3 4 5 6 
#
# 1 48.3038 27.1099 27.9793 0.0000 -4.3775 0.0000
# 2 27.1099 59.7621 0.7568 0.0000 8.3159 0.0000
# 3 27.9793 0.7568 135.1163 0.0000 -4.5779 0.0000
# 4 0.0000 0.0000 0.0000 23.0033 0.0000 -2.3541
# 5 -4.3775 8.3159 -4.5779 0.0000 41.8149 0.0000
# 6 0.0000 0.0000 0.0000 -2.3541 0.0000 5.2837
#
#
#
# Elastic Compliance Matrix: (Units=1/GPa)
#
#
# Indices 1 2 3 4 5 6 
#
# 1 0.034393 -0.016365 -0.006823 0.000000 0.006108 0.000000
# 2 -0.016365 0.025002 0.003034 0.000000 -0.006353 0.000000
# 3 -0.006823 0.003034 0.008785 0.000000 -0.000356 0.000000
# 4 0.000000 0.000000 0.000000 0.045549 0.000000 0.020294
# 5 0.006108 -0.006353 -0.000356 0.000000 0.025779 0.000000
# 6 0.000000 0.000000 0.000000 0.020294 0.000000 0.198304
#
#
# Mechanical properties :
#
#
# Convention : Reuss Voigt Hill
#
# Bulk Modulus (GPa) = 35.88049 39.43046 37.65548
# Shear Modulus (GPa) = 12.90617 26.50948 19.70782
#
# Velocity S-wave (km/s) = 2.29936 3.29541 2.84137
# Velocity P-wave (km/s) = 4.66348 5.53466 5.11764
#
# Compressibility (1/GPa) = 0.02787030
#
# Stress axis : x y z
#
# Youngs Moduli (GPa) = 29.07579 39.99616 113.83141
#
# Poissons Ratio (x) = 0.65454 0.77671
# Poissons Ratio (y) = 0.47583 -0.34531
# Poissons Ratio (z) = 0.19839 -0.12133
#
# Static dielectric constant tensor:
#      x y z
#    x 1.931050 0.000000 0.032030 
#    y 0.000000 1.958830 0.000000 
#    z 0.032030 0.000000 1.924860 
# 
# From -- ./inp_files/11007.got.cif
#   From: 2010.05.17/outbox.cif.g08.bks.cpg/sg4_6_cif.got.tgz:11007.got - 2010.06.03 18:43:04.
