data_PCOD9119908
_publ_section_title
;
Structure prediction by ZEFSAII (Michael W. Deem and Ramdas Pophale) SiO2 
 PCOD9119908
Probable space group: C 2
;
_chemical_formula_sum "Si O2"
_cell_formula_units_Z 22
_cell_length_a 22.201381
_cell_length_b 6.633455
_cell_length_c 10.682537
_cell_angle_alpha 90.000000
_cell_angle_beta 30.876278
_cell_angle_gamma 90.000000
_cell_volume 807.363176
_symmetry_space_group_name_H-M "C 2"
_symmetry_group_IT_number 5
_symmetry_cell_setting 'monoclinic'
loop_
_space_group_symop_operation_xyz
x,y,z
-x,y,-z
1/2+x,1/2+y,z
1/2-x,1/2+y,-z
loop_
_atom_site_type_symbol
_atom_site_label
_atom_site_fract_x
_atom_site_fract_y
_atom_site_fract_z
Si Si1 0.540876 0.660330 0.130970
Si Si2 0.292023 0.381314 0.062508
Si Si3 0.871957 0.732299 0.667721
Si Si4 0.238747 0.486923 0.726834
Si Si5 0.608800 0.950392 0.719356
Si Si6 0.000000 0.842535 0.000000
O O1 0.591649 0.521571 0.150956
O O2 0.414546 0.773711 0.341380
O O3 0.635001 0.839792 0.960486
O O4 0.563027 0.499336 0.979517
O O5 0.286341 0.286633 0.935786
O O6 0.181371 0.524072 0.289085
O O7 0.297534 0.201519 0.152529
O O8 0.851937 0.898292 0.595202
O O9 0.000000 0.706599 0.500000
O O10 0.223270 0.461705 0.603615
O O11 0.570192 0.186305 0.782587
O O12 0.500000 0.879671 0.000000
#
# Coordination Sequence:
#
# PCOD9119908 Si02
#       6
#     4   4   4   4   4   2
#     4  10  16  28  53  89 123 157 209 251 303 382
#     4  11  21  39  62  90 127 166 210 257 313 372
#     4  11  25  41  61  93 126 161 217 261 310 367
#     4  10  18  33  55  87 122 158 203 259 303 369
#     4   8  15  24  46  87 117 152 206 243 307 373
#     4  10  12  24  46  84 120 152 200 248 300 368
#
# _framework density 27.249198
#
# number of rings (size 3 to 8) (size 9 to 14) (size 15 to 20)
#    0.545    1.455    6.364    0.000    0.000    0.727 
#    0.000    0.000    0.000    0.000   23.636    0.000 
#    0.000    0.000    0.000    0.000    0.000    0.000 
#
# Total GULP energy -61282.732374 kJ/mol
# GULP energy per Si atom -5571.157489 kJ/mol
# Density = 2.718718 g / cm^3
# Si number density = 27.249198 Si / 1000 Ang^3
#
#
#
# Elastic Constant Matrix: (Units=GPa)
#
#
# Indices 1 2 3 4 5 6 
#
# 1 119.4641 87.6678 45.8599 0.0000 -47.3623 0.0000
# 2 87.6678 247.2977 52.6992 -0.0002 -32.9967 0.0000
# 3 45.8599 52.6992 85.2336 0.0000 -35.7332 0.0000
# 4 0.0000 -0.0002 0.0000 16.0491 0.0000 -4.5366
# 5 -47.3623 -32.9967 -35.7332 0.0000 61.2159 0.0000
# 6 0.0000 0.0000 0.0000 -4.5366 0.0000 67.1525
#
#
#
# Elastic Compliance Matrix: (Units=1/GPa)
#
#
# Indices 1 2 3 4 5 6 
#
# 1 0.015483 -0.003845 -0.002384 0.000000 0.008515 0.000000
# 2 -0.003845 0.005668 -0.001857 0.000000 -0.001003 0.000000
# 3 -0.002384 -0.001857 0.017173 0.000000 0.007179 0.000000
# 4 0.000000 0.000000 0.000000 0.063522 0.000000 0.004291
# 5 0.008515 -0.001003 0.007179 0.000000 0.026574 0.000000
# 6 0.000000 0.000000 0.000000 0.004291 0.000000 0.015181
#
#
# Mechanical properties :
#
#
# Convention : Reuss Voigt Hill
#
# Bulk Modulus (GPa) = 45.13734 91.60545 68.37139
# Shear Modulus (GPa) = 29.91216 46.60139 38.25678
#
# Velocity S-wave (km/s) = 3.31679 4.13993 3.75101
# Velocity P-wave (km/s) = 5.59185 7.51949 6.62614
#
# Compressibility (1/GPa) = 0.02215461
#
# Stress axis : x y z
#
# Youngs Moduli (GPa) = 64.58663 176.41415 58.23214
#
# Poissons Ratio (x) = 0.67825 0.13880
# Poissons Ratio (y) = 0.24831 0.10811
# Poissons Ratio (z) = 0.15394 0.32753
#
# Static dielectric constant tensor:
#      x y z
#    x 2.260190 0.000000 -0.069660 
#    y 0.000000 2.100960 0.000000 
#    z -0.069660 0.000000 2.189990 
# 
# From -- ./inp_files/57436.got.cif
#   From: 2010.05.17/outbox.cif.g08.bks.cpg/sg5_29_cif.got.tgz:57436.got - 2010.06.03 18:56:24.
