data_PCOD9119828
_publ_section_title
;
Structure prediction by ZEFSAII (Michael W. Deem and Ramdas Pophale) SiO2 
 PCOD9119828
Probable space group: P 21
;
_chemical_formula_sum "Si O2"
_cell_formula_units_Z 16
_cell_length_a 18.000000
_cell_length_b 9.000000
_cell_length_c 9.000000
_cell_angle_alpha 90.000000
_cell_angle_beta 30.000000
_cell_angle_gamma 90.000000
_cell_volume 729.000000
_symmetry_space_group_name_H-M "P 21"
_symmetry_group_IT_number 4
_symmetry_cell_setting 'monoclinic'
loop_
_space_group_symop_operation_xyz
x,y,z
-x,1/2+y,-z
loop_
_atom_site_type_symbol
_atom_site_label
_atom_site_fract_x
_atom_site_fract_y
_atom_site_fract_z
Si Si1 0.546040 0.666180 0.802998
Si Si2 0.691818 0.194299 0.359805
Si Si3 0.776169 0.238987 0.514917
Si Si4 0.510314 0.943316 0.663026
Si Si5 0.767963 0.551046 0.664656
Si Si6 0.118098 0.521344 0.440819
Si Si7 0.951327 0.229380 0.694088
Si Si8 0.559043 0.921375 0.230906
O O1 0.541300 0.779842 0.672384
O O2 0.679706 0.642851 0.688177
O O3 0.520346 0.512246 0.762975
O O4 0.399930 0.716192 0.146815
O O5 0.792367 0.263449 0.313039
O O6 0.530282 0.267259 0.619999
O O7 0.650044 0.031883 0.487112
O O8 0.792012 0.197817 0.042547
O O9 0.822566 0.392254 0.510074
O O10 0.849153 0.090500 0.455119
O O11 0.526586 0.966035 0.457914
O O12 0.355008 0.003923 0.998120
O O13 0.909166 0.641951 0.476899
O O14 0.070074 0.666201 0.432359
O O15 0.990408 0.400808 0.645271
O O16 0.267377 0.444452 0.111563
#
# Coordination Sequence:
#
# PCOD9119828 Si02
#       8
#     2   2   2   2   2   2   2   2
#     4  10  22  40  69 103 131 176 233 281 345 395
#     4  12  24  43  66 102 134 171 229 284 329 406
#     4  10  23  43  71  96 135 176 235 281 328 405
#     4  11  23  40  72  98 136 171 234 284 334 394
#     4  11  23  44  68  99 139 184 219 281 349 405
#     4  11  26  48  69  97 139 185 225 278 351 409
#     4  12  28  45  67 100 142 179 223 275 356 415
#     4  11  23  45  70 103 130 178 234 292 324 403
#
# _framework density 21.947873999999999
#
# number of rings (size 3 to 8) (size 9 to 14) (size 15 to 20)
#    0.000    1.000    3.750    2.250    7.000    1.000 
#    0.000    0.000    0.000    0.000    0.000    0.000 
#    0.000    0.000    0.000    0.000    0.000    0.000 
#
# Total GULP energy -89234.316928 kJ/mol
# GULP energy per Si atom -5577.144808 kJ/mol
# Density = 2.189792 g / cm^3
# Si number density = 21.947874 Si / 1000 Ang^3
#
#
#
# Elastic Constant Matrix: (Units=GPa)
#
#
# Indices 1 2 3 4 5 6 
#
# 1 69.2067 -0.4079 -19.4991 0.0000 -0.1106 0.0000
# 2 -0.4079 61.6208 -4.1451 0.0000 -4.5228 0.0000
# 3 -19.4991 -4.1451 -14.1139 0.0000 -2.4893 0.0000
# 4 0.0000 0.0000 0.0000 20.5287 0.0000 -3.0017
# 5 -0.1106 -4.5228 -2.4893 0.0000 29.5649 0.0000
# 6 0.0000 0.0000 0.0000 -3.0017 0.0000 36.7340
#
#
#
# Elastic Compliance Matrix: (Units=1/GPa)
#
#
# Indices 1 2 3 4 5 6 
#
# 1 0.010499 -0.000966 -0.013994 0.000000 -0.001287 0.000000
# 2 -0.000966 0.016125 -0.003779 0.000000 0.002145 0.000000
# 3 -0.013994 -0.003779 -0.049561 0.000000 -0.004803 0.000000
# 4 0.000000 0.000000 0.000000 0.049301 0.000000 0.004029
# 5 -0.001287 0.002145 -0.004803 0.000000 0.033743 0.000000
# 6 0.000000 0.000000 0.000000 0.004029 0.000000 0.027552
#
#
# Mechanical properties :
#
#
# Convention : Reuss Voigt Hill
#
# Bulk Modulus (GPa) = -16.55183 7.62325 -4.46429
# Shear Modulus (GPa) = 47.61972 26.74990 37.18481
#
# Velocity S-wave (km/s) = 4.66303 3.49491 4.12057
# Velocity P-wave (km/s) = 4.62968 4.44598 4.53876
#
# Compressibility (1/GPa) = -0.06041626
#
# Stress axis : x y z
#
# Youngs Moduli (GPa) = 95.24823 62.01507 -20.17695
#
# Poissons Ratio (x) = 0.05992 -0.28236
# Poissons Ratio (y) = 0.09204 -0.07625
# Poissons Ratio (z) = 1.33290 0.23436
#
# Static dielectric constant tensor:
#      x y z
#    x 1.818350 0.000000 0.025480 
#    y 0.000000 1.887980 0.000000 
#    z 0.025480 0.000000 1.760540 
# 
# From -- ./inp_files/5395.got.cif
#   From: 2010.05.17/outbox.ucp.g08.bks.cvg/sg4_3_cif.got.tgz:5395.got - 2010.06.11 12:51:24.
