data_PCOD9119303
_publ_section_title
;
Structure prediction by ZEFSAII (Michael W. Deem and Ramdas Pophale) SiO2 
 PCOD9119303
Probable space group: P 21
;
_chemical_formula_sum "Si O2"
_cell_formula_units_Z 16
_cell_length_a 5.614406
_cell_length_b 9.067429
_cell_length_c 12.475091
_cell_angle_alpha 90.000000
_cell_angle_beta 82.319233
_cell_angle_gamma 90.000000
_cell_volume 629.386870
_symmetry_space_group_name_H-M "P 21"
_symmetry_group_IT_number 4
_symmetry_cell_setting 'monoclinic'
loop_
_space_group_symop_operation_xyz
x,y,z
-x,1/2+y,-z
loop_
_atom_site_type_symbol
_atom_site_label
_atom_site_fract_x
_atom_site_fract_y
_atom_site_fract_z
Si Si1 0.655269 0.546180 0.863053
Si Si2 0.056756 0.158281 0.823583
Si Si3 0.690675 0.368826 0.207891
Si Si4 0.339124 0.392734 0.731632
Si Si5 0.869261 0.912277 0.490775
Si Si6 0.663467 0.238425 0.987732
Si Si7 0.154545 0.263201 0.296761
Si Si8 0.776133 0.211279 0.623818
O O1 0.451523 0.531848 0.782858
O O2 0.655879 0.384113 0.914542
O O3 0.858463 0.613088 0.772997
O O4 0.582155 0.658742 0.961472
O O5 0.160001 0.322002 0.829018
O O6 0.840704 0.127130 0.916993
O O7 0.955952 0.169502 0.709136
O O8 0.262192 0.039179 0.818963
O O9 0.405182 0.340736 0.242058
O O10 0.893196 0.334474 0.286511
O O11 0.770274 0.287120 0.094901
O O12 0.243542 0.423247 0.619598
O O13 0.534172 0.264524 0.694367
O O14 0.803785 0.778871 0.577686
O O15 0.138700 0.858241 0.445354
O O16 0.792468 0.064556 0.551402
#
# Coordination Sequence:
#
# PCOD9119303 Si02
#       8
#     2   2   2   2   2   2   2   2
#     4  11  28  49  77 114 154 200 264 321 390 471
#     4  11  25  45  74 104 153 198 259 319 383 468
#     4  11  27  47  77 112 152 199 260 315 384 467
#     4  11  27  46  73 109 155 196 262 322 385 467
#     4  11  27  44  81 104 154 204 256 318 397 452
#     4  11  28  45  80 109 154 206 254 323 398 454
#     4  11  27  50  76 114 153 200 262 322 381 471
#     4  11  25  48  70 110 149 199 259 318 386 462
#
# _framework density 25.421565999999999
#
# number of rings (size 3 to 8) (size 9 to 14) (size 15 to 20)
#    0.000    1.000    2.500    0.750   14.000    3.000 
#    0.000    0.000    0.000    0.000    0.000    0.000 
#    0.000    0.000    0.000    0.000    0.000    0.000 
#
# Total GULP energy -89257.583777 kJ/mol
# GULP energy per Si atom -5578.598986 kJ/mol
# Density = 2.536371 g / cm^3
# Si number density = 25.421566 Si / 1000 Ang^3
#
#
#
# Elastic Constant Matrix: (Units=GPa)
#
#
# Indices 1 2 3 4 5 6 
#
# 1 65.0158 10.5444 26.3961 0.0000 -3.2207 0.0000
# 2 10.5444 88.7936 26.4882 0.0000 -8.3766 0.0000
# 3 26.3961 26.4882 123.2965 0.0000 -5.1654 0.0000
# 4 0.0000 0.0000 0.0000 55.0121 0.0000 3.2279
# 5 -3.2207 -8.3766 -5.1654 0.0000 34.1932 0.0000
# 6 0.0000 0.0000 0.0000 3.2279 0.0000 38.0998
#
#
#
# Elastic Compliance Matrix: (Units=1/GPa)
#
#
# Indices 1 2 3 4 5 6 
#
# 1 0.016951 -0.000919 -0.003396 0.000000 0.000859 0.000000
# 2 -0.000919 0.012312 -0.002340 0.000000 0.002576 0.000000
# 3 -0.003396 -0.002340 0.009362 0.000000 0.000521 0.000000
# 4 0.000000 0.000000 0.000000 0.018269 0.000000 -0.001548
# 5 0.000859 0.002576 0.000521 0.000000 0.030036 0.000000
# 6 0.000000 0.000000 0.000000 -0.001548 0.000000 0.026378
#
#
# Mechanical properties :
#
#
# Convention : Reuss Voigt Hill
#
# Bulk Modulus (GPa) = 39.50152 44.88480 42.19316
# Shear Modulus (GPa) = 37.02139 39.70616 38.36377
#
# Velocity S-wave (km/s) = 3.82029 3.95639 3.88893
# Velocity P-wave (km/s) = 5.91877 6.21009 6.06618
#
# Compressibility (1/GPa) = 0.02531548
#
# Stress axis : x y z
#
# Youngs Moduli (GPa) = 58.99342 81.21878 106.81345
#
# Poissons Ratio (x) = 0.07464 0.36269
# Poissons Ratio (y) = 0.05422 0.24999
# Poissons Ratio (z) = 0.20032 0.19009
#
# Static dielectric constant tensor:
#      x y z
#    x 2.064460 0.000000 0.005090 
#    y 0.000000 2.073730 0.000000 
#    z 0.005090 0.000000 1.971460 
# 
# From -- ./inp_files/10324.got.cif
#   From: 2010.05.17/outbox.cif.g08.bks.cpg/sg4_6_cif.got.tgz:10324.got - 2010.06.03 18:43:04.
