data_PCOD9119263
_publ_section_title
;
Structure prediction by ZEFSAII (Michael W. Deem and Ramdas Pophale) SiO2 
 PCOD9119263
Probable space group: P 21
;
_chemical_formula_sum "Si O2"
_cell_formula_units_Z 12
_cell_length_a 12.503658
_cell_length_b 7.297371
_cell_length_c 11.862338
_cell_angle_alpha 90.000000
_cell_angle_beta 157.298628
_cell_angle_gamma 90.000000
_cell_volume 417.715168
_symmetry_space_group_name_H-M "P 21"
_symmetry_group_IT_number 4
_symmetry_cell_setting 'monoclinic'
loop_
_space_group_symop_operation_xyz
x,y,z
-x,1/2+y,-z
loop_
_atom_site_type_symbol
_atom_site_label
_atom_site_fract_x
_atom_site_fract_y
_atom_site_fract_z
Si Si1 0.771349 0.704430 0.685373
Si Si2 0.608148 0.544318 0.750626
Si Si3 0.090263 0.806926 0.790251
Si Si4 0.324700 0.208767 0.739093
Si Si5 0.327781 0.215454 0.998414
Si Si6 0.239296 0.904240 0.497622
O O1 0.790321 0.638982 0.832150
O O2 0.577546 0.882008 0.477500
O O3 0.658804 0.525987 0.512053
O O4 0.046712 0.763861 0.886033
O O5 0.428042 0.704330 0.638189
O O6 0.746279 0.507568 0.009752
O O7 0.840065 0.893163 0.466492
O O8 0.362391 0.729026 0.993080
O O9 0.126980 0.110418 0.452690
O O10 0.270060 0.161632 0.812587
O O11 0.563427 0.371930 0.199064
O O12 0.068205 0.319443 0.802820
#
# Coordination Sequence:
#
# PCOD9119263 Si02
#       6
#     2   2   2   2   2   2
#     4  11  27  51  83 108 167 201 274 325 409 462
#     4  12  28  50  82 115 157 210 267 332 398 480
#     4  11  24  50  74 111 151 207 252 326 396 464
#     4  11  25  48  77 109 158 203 257 331 391 474
#     4  12  29  44  80 115 155 201 274 314 408 465
#     4  11  25  49  72 114 152 208 254 332 392 473
#
# _framework density 28.727709000000001
#
# number of rings (size 3 to 8) (size 9 to 14) (size 15 to 20)
#    0.000    0.667    3.333    4.000    9.333    1.333 
#    0.000    0.000    0.000    0.000    0.000    0.000 
#    0.000    0.000    0.000    0.000    0.000    0.000 
#
# Total GULP energy -66912.321130 kJ/mol
# GULP energy per Si atom -5576.026761 kJ/mol
# Density = 2.866232 g / cm^3
# Si number density = 28.727709 Si / 1000 Ang^3
#
#
#
# Elastic Constant Matrix: (Units=GPa)
#
#
# Indices 1 2 3 4 5 6 
#
# 1 266.8578 69.7988 95.9320 0.0000 -25.3945 0.0000
# 2 69.7988 169.3636 37.7371 0.0000 -6.0893 0.0000
# 3 95.9320 37.7371 162.9327 0.0000 22.2942 0.0000
# 4 0.0000 0.0000 0.0000 49.2887 0.0000 -4.0142
# 5 -25.3945 -6.0893 22.2942 0.0000 56.4317 0.0000
# 6 0.0000 0.0000 0.0000 -4.0142 0.0000 48.6399
#
#
#
# Elastic Compliance Matrix: (Units=1/GPa)
#
#
# Indices 1 2 3 4 5 6 
#
# 1 0.005789 -0.001444 -0.003604 0.000000 0.003873 0.000000
# 2 -0.001444 0.006679 -0.000747 0.000000 0.000366 0.000000
# 3 -0.003604 -0.000747 0.009161 0.000000 -0.005322 0.000000
# 4 0.000000 0.000000 0.000000 0.020426 0.000000 0.001686
# 5 0.003873 0.000366 -0.005322 0.000000 0.021605 0.000000
# 6 0.000000 0.000000 0.000000 0.001686 0.000000 0.020698
#
#
# Mechanical properties :
#
#
# Convention : Reuss Voigt Hill
#
# Bulk Modulus (GPa) = 99.60897 111.78778 105.69837
# Shear Modulus (GPa) = 50.35517 57.25114 53.80315
#
# Velocity S-wave (km/s) = 4.19124 4.46902 4.33236
# Velocity P-wave (km/s) = 7.62697 8.10104 7.86758
#
# Compressibility (1/GPa) = 0.01003926
#
# Stress axis : x y z
#
# Youngs Moduli (GPa) = 172.73820 149.72296 109.16097
#
# Poissons Ratio (x) = 0.21613 0.39343
# Poissons Ratio (y) = 0.24935 0.08156
# Poissons Ratio (z) = 0.62258 0.11186
#
# Static dielectric constant tensor:
#      x y z
#    x 2.064040 0.000000 -0.138930 
#    y 0.000000 2.781790 0.000000 
#    z -0.138930 0.000000 2.385880 
# 
# From -- ./inp_files/11918.got.cif
#   From: 2010.05.17/outbox.cif.g08.bks.cpg/sg4_6_cif.got.tgz:11918.got - 2010.06.03 18:43:04.
