data_PCOD9119226
_publ_section_title
;
Structure prediction by ZEFSAII (Michael W. Deem and Ramdas Pophale) SiO2 
 PCOD9119226
Probable space group: P 21
;
_chemical_formula_sum "Si O2"
_cell_formula_units_Z 10
_cell_length_a 5.865032
_cell_length_b 9.142633
_cell_length_c 9.633031
_cell_angle_alpha 90.000000
_cell_angle_beta 50.419656
_cell_angle_gamma 90.000000
_cell_volume 398.114458
_symmetry_space_group_name_H-M "P 21"
_symmetry_group_IT_number 4
_symmetry_cell_setting 'monoclinic'
loop_
_space_group_symop_operation_xyz
x,y,z
-x,1/2+y,-z
loop_
_atom_site_type_symbol
_atom_site_label
_atom_site_fract_x
_atom_site_fract_y
_atom_site_fract_z
Si Si1 0.753795 0.944580 0.046656
Si Si2 0.587640 0.448225 0.248425
Si Si3 0.088506 0.689543 0.381651
Si Si4 0.647898 0.432158 0.542208
Si Si5 0.535017 0.228622 0.017634
O O1 0.631571 0.925165 0.247593
O O2 0.533449 0.058490 0.055899
O O3 0.733600 0.795012 0.967059
O O4 0.080355 0.006332 0.906300
O O5 0.349626 0.574145 0.315677
O O6 0.570172 0.398312 0.414489
O O7 0.556241 0.318253 0.150656
O O8 0.117024 0.817400 0.483482
O O9 0.795947 0.592567 0.489767
O O10 0.185499 0.751216 0.194101
#
# Coordination Sequence:
#
# PCOD9119226 Si02
#       5
#     2   2   2   2   2
#     4  11  27  46  78 103 147 197 240 304 366 427
#     4  12  26  48  75 108 144 192 255 294 358 440
#     4  11  27  51  71 108 152 190 245 301 371 422
#     4  11  28  47  75 108 146 192 244 305 361 437
#     4  11  24  48  73 103 149 189 238 302 366 422
#
# _framework density 25.118403000000001
#
# number of rings (size 3 to 8) (size 9 to 14) (size 15 to 20)
#    0.000    0.800    4.000    0.000   14.000    3.200 
#    0.000    0.000    0.000    0.000    0.000    0.000 
#    0.000    0.000    0.000    0.000    0.000    0.000 
#
# Total GULP energy -56068.410814 kJ/mol
# GULP energy per Si atom -5606.841081 kJ/mol
# Density = 2.506123 g / cm^3
# Si number density = 25.118403 Si / 1000 Ang^3
#
#
#
# Elastic Constant Matrix: (Units=GPa)
#
#
# Indices 1 2 3 4 5 6 
#
# 1 69.3231 24.5131 65.0578 0.0000 7.1251 0.0000
# 2 24.5131 104.2904 35.3897 0.0000 9.8410 0.0000
# 3 65.0578 35.3897 179.2559 0.0000 48.6291 0.0000
# 4 0.0000 0.0000 0.0000 48.6702 0.0000 1.6191
# 5 7.1251 9.8410 48.6291 0.0000 44.1994 0.0000
# 6 0.0000 0.0000 0.0000 1.6191 0.0000 39.3152
#
#
#
# Elastic Compliance Matrix: (Units=1/GPa)
#
#
# Indices 1 2 3 4 5 6 
#
# 1 0.024558 -0.002966 -0.010595 0.000000 0.008358 0.000000
# 2 -0.002966 0.010635 -0.000728 0.000000 -0.001089 0.000000
# 3 -0.010595 -0.000728 0.012915 0.000000 -0.012339 0.000000
# 4 0.000000 0.000000 0.000000 0.020575 0.000000 -0.000847
# 5 0.008358 -0.001089 -0.012339 0.000000 0.035096 0.000000
# 6 0.000000 0.000000 0.000000 -0.000847 0.000000 0.025470
#
#
# Mechanical properties :
#
#
# Convention : Reuss Voigt Hill
#
# Bulk Modulus (GPa) = 51.19942 66.97672 59.08807
# Shear Modulus (GPa) = 30.42552 41.63090 36.02821
#
# Velocity S-wave (km/s) = 3.48413 4.07552 3.79137
# Velocity P-wave (km/s) = 6.05087 6.99062 6.53765
#
# Compressibility (1/GPa) = 0.01953147
#
# Stress axis : x y z
#
# Youngs Moduli (GPa) = 40.72056 94.02507 77.42989
#
# Poissons Ratio (x) = 0.27885 0.82034
# Poissons Ratio (y) = 0.12076 0.05636
# Poissons Ratio (z) = 0.43142 0.06844
#
# Static dielectric constant tensor:
#      x y z
#    x 1.976360 0.000000 -0.009650 
#    y 0.000000 1.956180 0.000000 
#    z -0.009650 0.000000 1.951110 
# 
# From -- ./inp_files/907.got.cif
#   From: 2010.05.17/outbox.cif.g08.bks.cpg/sg4_1_cif.got.tgz:907.got - 2010.06.03 18:43:04.
