data_PCOD9119165
_publ_section_title
;
Structure prediction by ZEFSAII (Michael W. Deem and Ramdas Pophale) SiO2 
 PCOD9119165
Probable space group: P 21
;
_chemical_formula_sum "Si O2"
_cell_formula_units_Z 16
_cell_length_a 5.072023
_cell_length_b 12.462977
_cell_length_c 10.742068
_cell_angle_alpha 90.000000
_cell_angle_beta 75.272410
_cell_angle_gamma 90.000000
_cell_volume 656.723711
_symmetry_space_group_name_H-M "P 21"
_symmetry_group_IT_number 4
_symmetry_cell_setting 'monoclinic'
loop_
_space_group_symop_operation_xyz
x,y,z
-x,1/2+y,-z
loop_
_atom_site_type_symbol
_atom_site_label
_atom_site_fract_x
_atom_site_fract_y
_atom_site_fract_z
Si Si1 0.637815 0.629340 0.265789
Si Si2 0.257342 0.472735 0.450143
Si Si3 0.284661 0.836774 0.912148
Si Si4 0.864197 0.808982 0.742023
Si Si5 0.099170 0.479718 0.899518
Si Si6 0.128900 0.068672 0.324832
Si Si7 0.460684 0.368047 0.677763
Si Si8 0.758780 0.133237 0.909093
O O1 0.517055 0.529714 0.357261
O O2 0.511056 0.740210 0.336291
O O3 0.963822 0.624515 0.206843
O O4 0.498497 0.625998 0.148141
O O5 0.107224 0.393884 0.372622
O O6 0.338763 0.404936 0.561399
O O7 0.061893 0.563251 0.531177
O O8 0.602901 0.847735 0.850543
O O9 0.122274 0.810240 0.803566
O O10 0.155398 0.939743 0.991742
O O11 0.235233 0.743972 0.017802
O O12 0.776907 0.691419 0.700690
O O13 0.259403 0.380911 0.819862
O O14 0.024142 0.548815 0.787547
O O15 0.266340 0.547361 0.977890
O O16 0.318358 0.962184 0.318274
#
# Coordination Sequence:
#
# PCOD9119165 Si02
#       8
#     2   2   2   2   2   2   2   2
#     4  12  28  49  76 113 149 196 250 305 377 438
#     4  11  30  48  76 112 146 203 252 314 362 441
#     4  12  25  46  76 109 150 191 240 306 369 446
#     4  12  28  49  76 113 149 196 250 305 377 438
#     4  11  24  46  72 114 148 195 246 298 380 443
#     4  11  27  47  76 104 152 200 249 307 369 445
#     4  11  27  47  76 104 152 200 249 307 369 445
#     4  12  25  46  76 109 150 191 240 306 369 446
#
# _framework density 24.363365999999999
#
# number of rings (size 3 to 8) (size 9 to 14) (size 15 to 20)
#    0.000    0.500    2.500    3.750   14.000    0.000 
#    0.000    0.000    0.000    0.000    0.000    0.000 
#    0.000    0.000    0.000    0.000    0.000    0.000 
#
# Total GULP energy -89578.889508 kJ/mol
# GULP energy per Si atom -5598.680594 kJ/mol
# Density = 2.430791 g / cm^3
# Si number density = 24.363366 Si / 1000 Ang^3
#
#
#
# Elastic Constant Matrix: (Units=GPa)
#
#
# Indices 1 2 3 4 5 6 
#
# 1 56.0950 2.9869 4.5221 0.0000 13.3202 0.0000
# 2 2.9869 90.4553 22.7857 0.0000 -0.8301 0.0000
# 3 4.5221 22.7857 83.9486 0.0000 6.6317 0.0000
# 4 0.0000 0.0000 0.0000 27.9225 0.0000 -6.3789
# 5 13.3202 -0.8301 6.6317 0.0000 8.6534 0.0000
# 6 0.0000 0.0000 0.0000 -6.3789 0.0000 33.4445
#
#
#
# Elastic Compliance Matrix: (Units=1/GPa)
#
#
# Indices 1 2 3 4 5 6 
#
# 1 0.028772 -0.002053 0.002684 0.000000 -0.046542 0.000000
# 2 -0.002053 0.012134 -0.003752 0.000000 0.007200 0.000000
# 3 0.002684 -0.003752 0.013987 0.000000 -0.015211 0.000000
# 4 0.000000 0.000000 0.000000 0.037445 0.000000 0.007142
# 5 -0.046542 0.007200 -0.015211 0.000000 0.199552 0.000000
# 6 0.000000 0.000000 0.000000 0.007142 0.000000 0.031262
#
#
# Mechanical properties :
#
#
# Convention : Reuss Voigt Hill
#
# Bulk Modulus (GPa) = 20.55432 32.34313 26.44872
# Shear Modulus (GPa) = 14.46712 27.35102 20.90907
#
# Velocity S-wave (km/s) = 2.43946 3.35420 2.93271
# Velocity P-wave (km/s) = 4.04839 5.32025 4.72729
#
# Compressibility (1/GPa) = 0.04865158
#
# Stress axis : x y z
#
# Youngs Moduli (GPa) = 34.75639 82.41237 71.49304
#
# Poissons Ratio (x) = 0.16922 -0.19190
# Poissons Ratio (y) = 0.07137 0.26822
# Poissons Ratio (z) = -0.09329 0.30918
#
# Static dielectric constant tensor:
#      x y z
#    x 1.969770 0.000000 -0.027520 
#    y 0.000000 1.983490 0.000000 
#    z -0.027520 0.000000 1.885610 
# 
# From -- ./inp_files/4632.got.cif
#   From: 2010.05.17/outbox.cif.g08.bks.cpg/sg4_3_cif.got.tgz:4632.got - 2010.06.03 18:43:04.
