data_PCOD9119792
_publ_section_title
;
Structure prediction by ZEFSAII (Michael W. Deem and Ramdas Pophale) SiO2 
 PCOD9119792
Probable space group: P 21
;
_chemical_formula_sum "Si O2"
_cell_formula_units_Z 10
_cell_length_a 10.561222
_cell_length_b 8.490661
_cell_length_c 10.561184
_cell_angle_alpha 90.000000
_cell_angle_beta 27.080466
_cell_angle_gamma 90.000000
_cell_volume 431.131755
_symmetry_space_group_name_H-M "P 21"
_symmetry_group_IT_number 4
_symmetry_cell_setting 'monoclinic'
loop_
_space_group_symop_operation_xyz
x,y,z
-x,1/2+y,-z
loop_
_atom_site_type_symbol
_atom_site_label
_atom_site_fract_x
_atom_site_fract_y
_atom_site_fract_z
Si Si1 0.800215 0.260070 0.560519
Si Si2 0.060498 0.609420 0.300236
Si Si3 0.815761 0.712343 0.998542
Si Si4 0.501444 0.657153 0.684254
Si Si5 0.753483 0.434748 0.253492
O O1 0.938148 0.434744 0.438164
O O2 0.810087 0.184742 0.689913
O O3 0.995746 0.165585 0.289269
O O4 0.489249 0.253387 0.781920
O O5 0.789243 0.703906 0.495782
O O6 0.281886 0.616110 0.989276
O O7 0.978180 0.854900 0.922098
O O8 0.813297 0.572407 0.101393
O O9 0.577898 0.514595 0.521828
O O10 0.398616 0.797089 0.686693
#
# Coordination Sequence:
#
# PCOD9119792 Si02
#       5
#     2   2   2   2   2
#     4  12  29  51  81 113 157 211 269 331 384 478
#     4  12  29  51  81 113 157 211 269 331 384 478
#     4  12  29  51  83 115 162 206 270 322 409 462
#     4  12  29  51  83 115 162 206 270 322 409 462
#     4  12  30  52  84 118 164 214 256 342 392 492
#
# _framework density 23.194763999999999
#
# number of rings (size 3 to 8) (size 9 to 14) (size 15 to 20)
#    0.000    0.000    2.000    4.800   11.200    6.400 
#    0.000    0.000    0.000    0.000    0.000    0.000 
#    0.000    0.000    0.000    0.000    0.000    0.000 
#
# Total GULP energy -56087.669797 kJ/mol
# GULP energy per Si atom -5608.766980 kJ/mol
# Density = 2.314197 g / cm^3
# Si number density = 23.194764 Si / 1000 Ang^3
#
#
#
# Elastic Constant Matrix: (Units=GPa)
#
#
# Indices 1 2 3 4 5 6 
#
# 1 213.2546 118.1000 102.4042 0.0000 13.0085 0.0000
# 2 118.1000 143.1344 88.6445 0.0000 5.3475 0.0000
# 3 102.4042 88.6445 183.9478 0.0000 -7.7121 0.0000
# 4 0.0000 0.0000 0.0000 32.9471 0.0000 -0.1147
# 5 13.0085 5.3475 -7.7121 0.0000 23.4006 0.0000
# 6 0.0000 0.0000 0.0000 -0.1147 0.0000 32.3116
#
#
#
# Elastic Compliance Matrix: (Units=1/GPa)
#
#
# Indices 1 2 3 4 5 6 
#
# 1 0.009648 -0.006172 -0.002599 0.000000 -0.004810 0.000000
# 2 -0.006172 0.014272 -0.003483 0.000000 -0.000979 0.000000
# 3 -0.002599 -0.003483 0.008777 0.000000 0.005133 0.000000
# 4 0.000000 0.000000 0.000000 0.030352 0.000000 0.000108
# 5 -0.004810 -0.000979 0.005133 0.000000 0.047323 0.000000
# 6 0.000000 0.000000 0.000000 0.000108 0.000000 0.030949
#
#
# Mechanical properties :
#
#
# Convention : Reuss Voigt Hill
#
# Bulk Modulus (GPa) = 122.09431 128.73715 125.41573
# Shear Modulus (GPa) = 29.66315 33.14440 31.40378
#
# Velocity S-wave (km/s) = 3.58001 3.78426 3.68355
# Velocity P-wave (km/s) = 8.35713 8.64392 8.50174
#
# Compressibility (1/GPa) = 0.00819039
#
# Stress axis : x y z
#
# Youngs Moduli (GPa) = 103.64310 70.06506 113.93703
#
# Poissons Ratio (x) = 0.43243 0.29610
# Poissons Ratio (y) = 0.63967 0.39685
# Poissons Ratio (z) = 0.26935 0.24404
#
# Static dielectric constant tensor:
#      x y z
#    x 1.821250 0.000000 -0.009970 
#    y 0.000000 1.885010 0.000000 
#    z -0.009970 0.000000 1.875990 
# 
# From -- ./inp_files/11802.got.cif
#   From: 2010.05.17/outbox.cif.g08.bks.cpg/sg4_6_cif.got.tgz:11802.got - 2010.06.03 18:43:04.
