data_PCOD9119476
_publ_section_title
;
Structure prediction by ZEFSAII (Michael W. Deem and Ramdas Pophale) SiO2 
 PCOD9119476
Probable space group: P 21
;
_chemical_formula_sum "Si O2"
_cell_formula_units_Z 16
_cell_length_a 7.977658
_cell_length_b 10.271507
_cell_length_c 7.267290
_cell_angle_alpha 90.000000
_cell_angle_beta 107.069227
_cell_angle_gamma 90.000000
_cell_volume 569.269104
_symmetry_space_group_name_H-M "P 21"
_symmetry_group_IT_number 4
_symmetry_cell_setting 'monoclinic'
loop_
_space_group_symop_operation_xyz
x,y,z
-x,1/2+y,-z
loop_
_atom_site_type_symbol
_atom_site_label
_atom_site_fract_x
_atom_site_fract_y
_atom_site_fract_z
Si Si1 0.020941 0.100320 0.845610
Si Si2 0.639531 0.858215 0.070074
Si Si3 0.081940 0.765487 0.686313
Si Si4 0.815616 0.999423 0.428519
Si Si5 0.670091 0.399166 0.501447
Si Si6 0.130948 0.876831 0.086728
Si Si7 0.415325 0.090162 0.854474
Si Si8 0.679856 0.815900 0.653005
O O1 0.227390 0.112559 0.887107
O O2 0.953446 0.039032 0.633788
O O3 0.933444 0.237377 0.859237
O O4 0.998625 0.997982 0.005302
O O5 0.792338 0.887590 0.266184
O O6 0.693111 0.829312 0.876178
O O7 0.530226 0.991386 0.009904
O O8 0.524187 0.740146 0.120140
O O9 0.166589 0.838116 0.886853
O O10 0.868776 0.758139 0.646688
O O11 0.168951 0.626878 0.688448
O O12 0.149766 0.845264 0.532027
O O13 0.276145 0.929544 0.273587
O O14 0.669743 0.948416 0.526215
O O15 0.616265 0.519988 0.351865
O O16 0.525748 0.281979 0.439694
#
# Coordination Sequence:
#
# PCOD9119476 Si02
#       8
#     2   2   2   2   2   2   2   2
#     4  12  28  50  85 129 170 238 300 354 465 526
#     4  11  30  55  88 127 185 230 306 373 448 533
#     4  12  27  53  85 125 176 228 298 367 453 527
#     4  12  29  53  83 128 176 229 295 380 434 532
#     4  11  27  56  88 127 178 232 302 363 450 538
#     4  12  28  53  88 128 179 241 295 378 448 544
#     4  11  27  54  84 128 173 235 293 370 443 532
#     4  11  28  56  85 130 171 243 293 365 457 532
#
# _framework density 28.106211999999999
#
# number of rings (size 3 to 8) (size 9 to 14) (size 15 to 20)
#    0.000    0.500    3.750    0.750    8.750    6.000 
#    9.000    0.000    0.000    0.000    0.000    0.000 
#    0.000    0.000    0.000    0.000    0.000    0.000 
#
# Total GULP energy -89382.265037 kJ/mol
# GULP energy per Si atom -5586.391565 kJ/mol
# Density = 2.804224 g / cm^3
# Si number density = 28.106212 Si / 1000 Ang^3
#
#
#
# Elastic Constant Matrix: (Units=GPa)
#
#
# Indices 1 2 3 4 5 6 
#
# 1 95.9846 20.3269 47.3562 0.0000 7.4738 0.0000
# 2 20.3269 171.7770 76.2119 0.0000 10.7796 0.0000
# 3 47.3562 76.2119 234.1466 0.0000 13.4836 0.0000
# 4 0.0000 0.0000 0.0000 33.3273 0.0000 -3.8494
# 5 7.4738 10.7796 13.4836 0.0000 58.3368 0.0000
# 6 0.0000 0.0000 0.0000 -3.8494 0.0000 44.5028
#
#
#
# Elastic Compliance Matrix: (Units=1/GPa)
#
#
# Indices 1 2 3 4 5 6 
#
# 1 0.011644 -0.000349 -0.002188 0.000000 -0.000921 0.000000
# 2 -0.000349 0.006848 -0.002116 0.000000 -0.000731 0.000000
# 3 -0.002188 -0.002116 0.005436 0.000000 -0.000585 0.000000
# 4 0.000000 0.000000 0.000000 0.030308 0.000000 0.002622
# 5 -0.000921 -0.000731 -0.000585 0.000000 0.017530 0.000000
# 6 0.000000 0.000000 0.000000 0.002622 0.000000 0.022697
#
#
# Mechanical properties :
#
#
# Convention : Reuss Voigt Hill
#
# Bulk Modulus (GPa) = 68.39873 87.74425 78.07149
# Shear Modulus (GPa) = 46.02227 51.10093 48.56160
#
# Velocity S-wave (km/s) = 4.05092 4.26859 4.16118
# Velocity P-wave (km/s) = 6.80210 7.45527 7.13616
#
# Compressibility (1/GPa) = 0.01462015
#
# Stress axis : x y z
#
# Youngs Moduli (GPa) = 85.88381 146.03774 183.96432
#
# Poissons Ratio (x) = 0.05099 0.40255
# Poissons Ratio (y) = 0.02999 0.38928
# Poissons Ratio (z) = 0.18793 0.30902
#
# Static dielectric constant tensor:
#      x y z
#    x 2.334340 0.000000 -0.018730 
#    y 0.000000 2.456940 0.000000 
#    z -0.018730 0.000000 2.097030 
# 
# From -- ./inp_files/10800.got.cif
#   From: 2010.05.17/outbox.cif.g08.bks.cpg/sg4_6_cif.got.tgz:10800.got - 2010.06.03 18:43:04.
