data_PCOD9119016
_publ_section_title
;
Structure prediction by ZEFSAII (Michael W. Deem and Ramdas Pophale) SiO2 
 PCOD9119016
Probable space group: P 21
;
_chemical_formula_sum "Si O2"
_cell_formula_units_Z 14
_cell_length_a 6.402684
_cell_length_b 12.888139
_cell_length_c 7.913940
_cell_angle_alpha 90.000000
_cell_angle_beta 57.586311
_cell_angle_gamma 90.000000
_cell_volume 551.302955
_symmetry_space_group_name_H-M "P 21"
_symmetry_group_IT_number 4
_symmetry_cell_setting 'monoclinic'
loop_
_space_group_symop_operation_xyz
x,y,z
-x,1/2+y,-z
loop_
_atom_site_type_symbol
_atom_site_label
_atom_site_fract_x
_atom_site_fract_y
_atom_site_fract_z
Si Si1 0.981408 0.839690 0.391530
Si Si2 0.646760 0.155595 0.133740
Si Si3 0.409891 0.511787 0.361630
Si Si4 0.837530 0.213792 0.397120
Si Si5 0.654565 0.760716 0.009052
Si Si6 0.168697 0.140675 0.753969
Si Si7 0.426169 0.967370 0.088445
O O1 0.902450 0.727958 0.351258
O O2 0.155394 0.808682 0.475383
O O3 0.157256 0.914547 0.204866
O O4 0.737590 0.906094 0.538990
O O5 0.663334 0.210523 0.307050
O O6 0.568954 0.232764 0.018407
O O7 0.454149 0.062039 0.204955
O O8 0.915594 0.112692 0.961185
O O9 0.218338 0.605068 0.485924
O O10 0.659901 0.541321 0.356979
O O11 0.498339 0.507560 0.129260
O O12 0.106625 0.223943 0.196328
O O13 0.665062 0.704271 0.182694
O O14 0.631236 0.882123 0.047588
#
# Coordination Sequence:
#
# PCOD9119016 Si02
#       7
#     2   2   2   2   2   2   2
#     4  12  27  53  82 117 163 213 273 328 408 479
#     4  11  25  51  81 112 161 208 263 331 406 471
#     4  12  27  49  79 122 157 211 274 323 404 480
#     4  11  27  50  76 121 162 205 266 342 396 473
#     4  11  23  50  80 112 155 213 263 323 406 470
#     4  11  26  50  82 112 166 205 260 343 396 474
#     4  12  25  51  82 112 160 213 269 328 396 485
#
# _framework density 25.394387999999999
#
# number of rings (size 3 to 8) (size 9 to 14) (size 15 to 20)
#    0.000    0.571    4.286    2.571    6.000    0.000 
#    7.714    0.000    0.000    0.000    0.000    0.000 
#    0.000    0.000    0.000    0.000    0.000    0.000 
#
# Total GULP energy -78345.609410 kJ/mol
# GULP energy per Si atom -5596.114958 kJ/mol
# Density = 2.533659 g / cm^3
# Si number density = 25.394388 Si / 1000 Ang^3
#
#
#
# Elastic Constant Matrix: (Units=GPa)
#
#
# Indices 1 2 3 4 5 6 
#
# 1 99.5444 41.1057 39.1990 0.0000 8.6544 0.0000
# 2 41.1057 85.8962 13.4982 0.0000 8.5976 0.0000
# 3 39.1990 13.4982 92.0960 0.0000 1.9250 0.0000
# 4 0.0000 0.0000 0.0000 45.4636 0.0000 -10.4307
# 5 8.6544 8.5976 1.9250 0.0000 43.9306 0.0000
# 6 0.0000 0.0000 0.0000 -10.4307 0.0000 50.4554
#
#
#
# Elastic Compliance Matrix: (Units=1/GPa)
#
#
# Indices 1 2 3 4 5 6 
#
# 1 0.014809 -0.006093 -0.005379 0.000000 -0.001489 0.000000
# 2 -0.006093 0.014651 0.000481 0.000000 -0.001688 0.000000
# 3 -0.005379 0.000481 0.013069 0.000000 0.000393 0.000000
# 4 0.000000 0.000000 0.000000 0.023091 0.000000 0.004774
# 5 -0.001489 -0.001688 0.000393 0.000000 0.023370 0.000000
# 6 0.000000 0.000000 0.000000 0.004774 0.000000 0.020806
#
#
# Mechanical properties :
#
#
# Convention : Reuss Voigt Hill
#
# Bulk Modulus (GPa) = 48.66656 51.68249 50.17452
# Shear Modulus (GPa) = 36.06796 40.21882 38.14339
#
# Velocity S-wave (km/s) = 3.77279 3.98398 3.87982
# Velocity P-wave (km/s) = 6.17936 6.44662 6.31440
#
# Compressibility (1/GPa) = 0.02054799
#
# Stress axis : x y z
#
# Youngs Moduli (GPa) = 67.52461 68.25490 76.51646
#
# Poissons Ratio (x) = 0.41585 0.41160
# Poissons Ratio (y) = 0.41140 -0.03682
# Poissons Ratio (z) = 0.36323 -0.03284
#
# Static dielectric constant tensor:
#      x y z
#    x 2.026980 0.000000 -0.006340 
#    y 0.000000 2.003130 0.000000 
#    z -0.006340 0.000000 2.043280 
# 
# From -- ./inp_files/4779.got.cif
#   From: 2010.05.17/outbox.cif.g08.bks.cpg/sg4_3_cif.got.tgz:4779.got - 2010.06.03 18:43:04.
