data_PCOD9119050
_publ_section_title
;
Structure prediction by ZEFSAII (Michael W. Deem and Ramdas Pophale) SiO2 
 PCOD9119050
Probable space group: P 21
;
_chemical_formula_sum "Si O2"
_cell_formula_units_Z 16
_cell_length_a 14.752379
_cell_length_b 9.132003
_cell_length_c 11.528145
_cell_angle_alpha 90.000000
_cell_angle_beta 154.015554
_cell_angle_gamma 90.000000
_cell_volume 680.436638
_symmetry_space_group_name_H-M "P 21"
_symmetry_group_IT_number 4
_symmetry_cell_setting 'monoclinic'
loop_
_space_group_symop_operation_xyz
x,y,z
-x,1/2+y,-z
loop_
_atom_site_type_symbol
_atom_site_label
_atom_site_fract_x
_atom_site_fract_y
_atom_site_fract_z
Si Si1 0.564335 0.722230 0.459858
Si Si2 0.702421 0.401169 0.678713
Si Si3 0.658785 0.202562 0.402682
Si Si4 0.101906 0.391732 0.305238
Si Si5 0.190159 0.715146 0.864924
Si Si6 0.612755 0.395756 0.119426
Si Si7 0.790038 0.641976 0.195772
Si Si8 0.855243 0.951586 0.360392
O O1 0.662575 0.571553 0.613163
O O2 0.494197 0.832394 0.480075
O O3 0.716568 0.799394 0.545546
O O4 0.350137 0.684970 0.150674
O O5 0.716674 0.307973 0.576224
O O6 0.908194 0.394161 0.993663
O O7 0.672962 0.298754 0.299962
O O8 0.795828 0.055037 0.565655
O O9 0.411795 0.159522 0.116983
O O10 0.973132 0.536519 0.366238
O O11 0.312358 0.815694 0.911143
O O12 0.158918 0.563924 0.762815
O O13 0.989959 0.793008 0.692879
O O14 0.707669 0.558109 0.216314
O O15 0.368570 0.426559 0.841373
O O16 0.894664 0.795264 0.346495
#
# Coordination Sequence:
#
# PCOD9119050 Si02
#       8
#     2   2   2   2   2   2   2   2
#     4  11  24  47  75 105 146 192 248 312 373 435
#     4  11  25  48  78 110 145 193 252 312 374 441
#     4  11  25  49  79 111 148 196 247 308 377 441
#     4  11  26  49  77 107 145 193 252 317 375 436
#     4  11  26  46  72 105 146 196 245 301 369 447
#     4  11  25  46  70 105 153 196 242 299 367 449
#     4  11  25  42  67 102 145 192 239 291 355 440
#     4  11  24  43  66  99 144 192 239 290 356 437
#
# _framework density 23.514312
#
# number of rings (size 3 to 8) (size 9 to 14) (size 15 to 20)
#    0.000    1.000    0.000    6.000    0.000   13.000 
#    0.000    8.750    0.000    0.000    0.000    0.000 
#    0.000    0.000    0.000    0.000    0.000    0.000 
#
# Total GULP energy -89462.023586 kJ/mol
# GULP energy per Si atom -5591.376474 kJ/mol
# Density = 2.346079 g / cm^3
# Si number density = 23.514312 Si / 1000 Ang^3
#
#
#
# Elastic Constant Matrix: (Units=GPa)
#
#
# Indices 1 2 3 4 5 6 
#
# 1 95.7409 35.8682 25.6874 0.0000 14.2791 0.0000
# 2 35.8682 175.0947 47.5554 0.0000 8.7709 0.0000
# 3 25.6874 47.5554 128.2528 0.0000 13.9927 0.0000
# 4 0.0000 0.0000 0.0000 51.2992 0.0000 3.0982
# 5 14.2791 8.7709 13.9927 0.0000 43.4749 0.0000
# 6 0.0000 0.0000 0.0000 3.0982 0.0000 33.9162
#
#
#
# Elastic Compliance Matrix: (Units=1/GPa)
#
#
# Indices 1 2 3 4 5 6 
#
# 1 0.011996 -0.001936 -0.001345 0.000000 -0.003117 0.000000
# 2 -0.001936 0.006676 -0.002083 0.000000 -0.000040 0.000000
# 3 -0.001345 -0.002083 0.009063 0.000000 -0.002055 0.000000
# 4 0.000000 0.000000 0.000000 0.019602 0.000000 -0.001791
# 5 -0.003117 -0.000040 -0.002055 0.000000 0.024695 0.000000
# 6 0.000000 0.000000 0.000000 -0.001791 0.000000 0.029648
#
#
# Mechanical properties :
#
#
# Convention : Reuss Voigt Hill
#
# Bulk Modulus (GPa) = 58.80014 68.59005 63.69509
# Shear Modulus (GPa) = 42.34577 45.06987 43.70782
#
# Velocity S-wave (km/s) = 4.24825 4.38276 4.31603
# Velocity P-wave (km/s) = 7.00884 7.40569 7.21000
#
# Compressibility (1/GPa) = 0.01700676
#
# Stress axis : x y z
#
# Youngs Moduli (GPa) = 83.36284 149.79972 110.33815
#
# Poissons Ratio (x) = 0.29001 0.14837
# Poissons Ratio (y) = 0.16139 0.22985
# Poissons Ratio (z) = 0.11210 0.31205
#
# Static dielectric constant tensor:
#      x y z
#    x 1.931440 0.000000 0.001100 
#    y 0.000000 1.913970 0.000000 
#    z 0.001100 0.000000 1.950850 
# 
# From -- ./inp_files/12936.got.cif
#   From: 2010.05.17/outbox.cif.g08.bks.cpg/sg4_7_cif.got.tgz:12936.got - 2010.06.03 18:43:04.
