data_PCOD9119893
_publ_section_title
;
Structure prediction by ZEFSAII (Michael W. Deem and Ramdas Pophale) SiO2 
 PCOD9119893
Probable space group: P 21
;
_chemical_formula_sum "Si O2"
_cell_formula_units_Z 10
_cell_length_a 9.000000
_cell_length_b 9.000000
_cell_length_c 9.000000
_cell_angle_alpha 90.000000
_cell_angle_beta 150.000000
_cell_angle_gamma 90.000000
_cell_volume 364.500000
_symmetry_space_group_name_H-M "P 21"
_symmetry_group_IT_number 4
_symmetry_cell_setting 'monoclinic'
loop_
_space_group_symop_operation_xyz
x,y,z
-x,1/2+y,-z
loop_
_atom_site_type_symbol
_atom_site_label
_atom_site_fract_x
_atom_site_fract_y
_atom_site_fract_z
Si Si1 0.360555 0.152530 0.070832
Si Si2 0.872779 0.067625 0.065833
Si Si3 0.950197 0.893222 0.748335
Si Si4 0.214147 0.417447 0.715663
Si Si5 0.423764 0.888614 0.508621
O O1 0.522293 0.242117 0.344259
O O2 0.542027 0.019624 0.152836
O O3 0.295698 0.274592 0.886488
O O4 0.078834 0.059110 0.884743
O O5 0.916199 0.239626 0.073548
O O6 0.915610 0.030227 0.276019
O O7 0.093506 0.942852 0.188741
O O8 0.555444 0.019208 0.728371
O O9 0.972318 0.871087 0.588727
O O10 0.620594 0.889391 0.531681
#
# Coordination Sequence:
#
# PCOD9119893 Si02
#       5
#     2   2   2   2   2
#     4  11  27  48  74 113 149 202 250 319 374 454
#     4  11  28  49  73 112 150 201 250 315 375 452
#     4  12  27  45  80 106 151 201 255 309 380 449
#     4  11  27  45  77 105 152 195 260 304 384 440
#     4  11  29  49  76 110 158 193 255 309 385 445
#
# _framework density 27.434842
#
# number of rings (size 3 to 8) (size 9 to 14) (size 15 to 20)
#    0.000    0.800    0.000    3.600   28.000    0.000 
#    0.000    0.000    0.000    0.000    0.000    0.000 
#    0.000    0.000    0.000    0.000    0.000    0.000 
#
# Total GULP energy -56015.323614 kJ/mol
# GULP energy per Si atom -5601.532361 kJ/mol
# Density = 2.737240 g / cm^3
# Si number density = 27.434842 Si / 1000 Ang^3
#
#
#
# Elastic Constant Matrix: (Units=GPa)
#
#
# Indices 1 2 3 4 5 6 
#
# 1 143.1898 44.4065 43.1081 0.0000 -13.9781 0.0000
# 2 44.4065 212.2770 71.3584 0.0000 -8.8160 0.0000
# 3 43.1081 71.3584 76.4273 0.0000 3.9625 0.0000
# 4 0.0000 0.0000 0.0000 48.2407 0.0000 -3.1998
# 5 -13.9781 -8.8160 3.9625 0.0000 43.5128 0.0000
# 6 0.0000 0.0000 0.0000 -3.1998 0.0000 60.6536
#
#
#
# Elastic Compliance Matrix: (Units=1/GPa)
#
#
# Indices 1 2 3 4 5 6 
#
# 1 0.008865 0.000033 -0.005204 0.000000 0.003328 0.000000
# 2 0.000033 0.007041 -0.006698 0.000000 0.002047 0.000000
# 3 -0.005204 -0.006698 0.022537 0.000000 -0.005081 0.000000
# 4 0.000000 0.000000 0.000000 0.020802 0.000000 0.001097
# 5 0.003328 0.002047 -0.005081 0.000000 0.024928 0.000000
# 6 0.000000 0.000000 0.000000 0.001097 0.000000 0.016545
#
#
# Mechanical properties :
#
#
# Convention : Reuss Voigt Hill
#
# Bulk Modulus (GPa) = 68.00614 83.29335 75.64975
# Shear Modulus (GPa) = 38.65253 48.68282 43.66768
#
# Velocity S-wave (km/s) = 3.75758 4.21704 3.99392
# Velocity P-wave (km/s) = 6.60817 7.35782 6.99305
#
# Compressibility (1/GPa) = 0.01470455
#
# Stress axis : x y z
#
# Youngs Moduli (GPa) = 112.80341 142.03198 44.37163
#
# Poissons Ratio (x) = -0.00468 0.23089
# Poissons Ratio (y) = -0.00372 0.29722
# Poissons Ratio (z) = 0.58698 0.95139
#
# Static dielectric constant tensor:
#      x y z
#    x 2.180700 0.000000 -0.008470 
#    y 0.000000 2.021500 0.000000 
#    z -0.008470 0.000000 2.239170 
# 
# From -- ./inp_files/906.got.cif
#   From: 2010.05.17/outbox.ucp.g08.bks.cvg/sg4_1_cif.got.tgz:906.got - 2010.06.11 12:51:24.
