data_PCOD9119990
_publ_section_title
;
Structure prediction by ZEFSAII (Michael W. Deem and Ramdas Pophale) SiO2 
 PCOD9119990
Probable space group: C 2
;
_chemical_formula_sum "Si O2"
_cell_formula_units_Z 26
_cell_length_a 16.158774
_cell_length_b 8.405577
_cell_length_c 12.157560
_cell_angle_alpha 90.000000
_cell_angle_beta 38.579085
_cell_angle_gamma 90.000000
_cell_volume 1029.732635
_symmetry_space_group_name_H-M "C 2"
_symmetry_group_IT_number 5
_symmetry_cell_setting 'monoclinic'
loop_
_space_group_symop_operation_xyz
x,y,z
-x,y,-z
1/2+x,1/2+y,z
1/2-x,1/2+y,-z
loop_
_atom_site_type_symbol
_atom_site_label
_atom_site_fract_x
_atom_site_fract_y
_atom_site_fract_z
Si Si1 0.120968 0.157480 0.556767
Si Si2 0.406200 0.619571 0.935692
Si Si3 0.000000 0.922636 0.500000
Si Si4 0.851452 0.564180 0.177648
Si Si5 0.753672 0.226198 0.286257
Si Si6 0.459015 0.015180 0.413711
Si Si7 0.694081 0.978802 0.013664
O O1 0.270725 0.147404 0.357207
O O2 0.081466 0.337670 0.575167
O O3 0.059223 0.113154 0.739755
O O4 0.045006 0.036331 0.552566
O O5 0.353930 0.798223 0.958016
O O6 0.346745 0.609600 0.119371
O O7 0.326150 0.492795 0.946936
O O8 0.870656 0.810882 0.652094
O O9 0.844010 0.378028 0.221365
O O10 0.788663 0.569016 0.120477
O O11 0.000000 0.615201 0.000000
O O12 0.665404 0.133523 0.465862
O O13 0.500000 0.008942 0.500000
O O14 0.578946 0.057648 0.207895
#
# Coordination Sequence:
#
# PCOD9119990 Si02
#       7
#     4   4   2   4   4   4   4
#     4  10  20  31  54  78 111 142 180 226 272 323
#     4  10  18  31  51  87 111 137 171 226 286 325
#     4  10  16  30  48  82 110 148 174 216 274 328
#     4  10  23  42  55  72 107 158 196 218 250 323
#     4  10  19  33  57  80 116 142 179 223 275 328
#     4  11  19  33  53  90 118 133 163 229 296 330
#     4  10  21  32  57  82 116 139 175 220 279 331
#
# _framework density 25.249269999999999
#
# number of rings (size 3 to 8) (size 9 to 14) (size 15 to 20)
#    0.000    1.846    3.077    2.769    2.154    1.231 
#    0.000    5.385    0.000    0.000    0.000    0.000 
#    0.000    0.000    0.000    0.000    0.000    0.000 
#
# Total GULP energy -72626.994380 kJ/mol
# GULP energy per Si atom -5586.691875 kJ/mol
# Density = 2.519180 g / cm^3
# Si number density = 25.249270 Si / 1000 Ang^3
#
#
#
# Elastic Constant Matrix: (Units=GPa)
#
#
# Indices 1 2 3 4 5 6 
#
# 1 64.3402 4.6653 33.5877 0.0000 15.2089 0.0000
# 2 4.6653 39.3214 21.3708 0.0000 6.6426 0.0000
# 3 33.5877 21.3708 252.0619 0.0000 -0.5757 0.0000
# 4 0.0000 0.0000 0.0000 35.5400 0.0000 -1.1580
# 5 15.2089 6.6426 -0.5757 0.0000 49.2937 0.0000
# 6 0.0000 0.0000 0.0000 -1.1580 0.0000 7.0974
#
#
#
# Elastic Compliance Matrix: (Units=1/GPa)
#
#
# Indices 1 2 3 4 5 6 
#
# 1 0.018141 0.000128 -0.002441 0.000000 -0.005643 0.000000
# 2 0.000128 0.027322 -0.002342 0.000000 -0.003749 0.000000
# 3 -0.002441 -0.002342 0.004494 0.000000 0.001121 0.000000
# 4 0.000000 0.000000 0.000000 0.028288 0.000000 0.004615
# 5 -0.005643 -0.003749 0.001121 0.000000 0.022546 0.000000
# 6 0.000000 0.000000 0.000000 0.004615 0.000000 0.141649
#
#
# Mechanical properties :
#
#
# Convention : Reuss Voigt Hill
#
# Bulk Modulus (GPa) = 24.60248 52.77457 38.68852
# Shear Modulus (GPa) = 18.84659 38.12620 28.48639
#
# Velocity S-wave (km/s) = 2.73503 3.89008 3.36252
# Velocity P-wave (km/s) = 4.44285 6.41278 5.51646
#
# Compressibility (1/GPa) = 0.04064631
#
# Stress axis : x y z
#
# Youngs Moduli (GPa) = 55.12270 36.59999 222.53442
#
# Poissons Ratio (x) = -0.00467 0.54322
# Poissons Ratio (y) = -0.00703 0.52119
# Poissons Ratio (z) = 0.13456 0.08572
#
# Static dielectric constant tensor:
#      x y z
#    x 2.154220 0.000000 -0.012330 
#    y 0.000000 1.966730 0.000000 
#    z -0.012330 0.000000 2.049320 
# 
# From -- ./inp_files/41448.got.cif
#   From: 2010.05.17/outbox.cif.g08.bks.cpg/sg5_21_cif.got.tgz:41448.got - 2010.06.03 18:56:24.
