data_PCOD9119125
_publ_section_title
;
Structure prediction by ZEFSAII (Michael W. Deem and Ramdas Pophale) SiO2 
 PCOD9119125
Probable space group: P 21
;
_chemical_formula_sum "Si O2"
_cell_formula_units_Z 16
_cell_length_a 6.851092
_cell_length_b 8.511708
_cell_length_c 11.704898
_cell_angle_alpha 90.000000
_cell_angle_beta 96.604849
_cell_angle_gamma 90.000000
_cell_volume 678.035049
_symmetry_space_group_name_H-M "P 21"
_symmetry_group_IT_number 4
_symmetry_cell_setting 'monoclinic'
loop_
_space_group_symop_operation_xyz
x,y,z
-x,1/2+y,-z
loop_
_atom_site_type_symbol
_atom_site_label
_atom_site_fract_x
_atom_site_fract_y
_atom_site_fract_z
Si Si1 0.385792 0.326110 0.132999
Si Si2 0.113828 0.095717 0.256572
Si Si3 0.281439 0.526835 0.532033
Si Si4 0.454014 0.888509 0.281060
Si Si5 0.061332 0.526487 0.989980
Si Si6 0.077629 0.828169 0.570177
Si Si7 0.293091 0.829789 0.023928
Si Si8 0.436703 0.034911 0.657196
O O1 0.278278 0.194897 0.199157
O O2 0.221687 0.402247 0.040985
O O3 0.466290 0.456013 0.225647
O O4 0.565781 0.273050 0.066794
O O5 0.016254 0.214947 0.338498
O O6 0.241687 0.950512 0.313035
O O7 0.965315 0.038379 0.148414
O O8 0.387072 0.511180 0.660870
O O9 0.206653 0.703202 0.509672
O O10 0.439010 0.484980 0.445740
O O11 0.098797 0.410086 0.508298
O O12 0.418415 0.872813 0.143494
O O13 0.535144 0.721271 0.329610
O O14 0.140028 0.691582 0.041831
O O15 0.846812 0.474667 0.020892
O O16 0.218837 0.964422 0.628763
#
# Coordination Sequence:
#
# PCOD9119125 Si02
#       8
#     2   2   2   2   2   2   2   2
#     4  12  25  46  76 106 152 198 248 304 383 456
#     4  11  26  49  74 111 155 202 253 309 386 458
#     4  12  28  48  79 111 151 201 255 317 383 460
#     4  11  27  47  75 111 152 195 257 315 377 459
#     4  11  24  45  70 109 149 189 250 301 370 461
#     4  12  28  50  80 109 155 202 256 322 384 455
#     4  11  26  46  74 111 149 200 243 316 377 456
#     4  12  26  49  76 110 149 197 256 314 382 457
#
# _framework density 23.5976
#
# number of rings (size 3 to 8) (size 9 to 14) (size 15 to 20)
#    0.000    0.500    3.750    3.000   10.500    0.000 
#    0.000    0.000    0.000    0.000    0.000    0.000 
#    0.000    0.000    0.000    0.000    0.000    0.000 
#
# Total GULP energy -89593.834831 kJ/mol
# GULP energy per Si atom -5599.614677 kJ/mol
# Density = 2.354389 g / cm^3
# Si number density = 23.597600 Si / 1000 Ang^3
#
#
#
# Elastic Constant Matrix: (Units=GPa)
#
#
# Indices 1 2 3 4 5 6 
#
# 1 110.3668 36.1777 76.3133 0.0000 5.4754 0.0000
# 2 36.1777 95.8786 33.9449 0.0000 10.6615 0.0000
# 3 76.3133 33.9449 80.5789 0.0000 27.9439 0.0000
# 4 0.0000 0.0000 0.0000 39.9271 0.0000 13.5913
# 5 5.4754 10.6615 27.9439 0.0000 52.6143 0.0000
# 6 0.0000 0.0000 0.0000 13.5913 0.0000 52.4511
#
#
#
# Elastic Compliance Matrix: (Units=1/GPa)
#
#
# Indices 1 2 3 4 5 6 
#
# 1 0.036126 -0.001545 -0.039675 0.000000 0.017625 0.000000
# 2 -0.001545 0.012328 -0.003579 0.000000 -0.000436 0.000000
# 3 -0.039675 -0.003579 0.061055 0.000000 -0.027573 0.000000
# 4 0.000000 0.000000 0.000000 0.027469 0.000000 -0.007118
# 5 0.017625 -0.000436 -0.027573 0.000000 0.031904 0.000000
# 6 0.000000 0.000000 0.000000 -0.007118 0.000000 0.020910
#
#
# Mechanical properties :
#
#
# Convention : Reuss Voigt Hill
#
# Bulk Modulus (GPa) = 50.22347 64.41067 57.31707
# Shear Modulus (GPa) = 17.48083 38.35774 27.91929
#
# Velocity S-wave (km/s) = 2.72470 4.03611 3.44341
# Velocity P-wave (km/s) = 5.58821 7.00535 6.33653
#
# Compressibility (1/GPa) = 0.01991101
#
# Stress axis : x y z
#
# Youngs Moduli (GPa) = 27.68080 81.11323 16.37871
#
# Poissons Ratio (x) = 0.12529 0.64983
# Poissons Ratio (y) = 0.04276 0.05862
# Poissons Ratio (z) = 1.09824 0.29033
#
# Static dielectric constant tensor:
#      x y z
#    x 1.884050 0.000000 -0.014860 
#    y 0.000000 1.918300 0.000000 
#    z -0.014860 0.000000 1.857500 
# 
# From -- ./inp_files/3707.got.cif
#   From: 2010.05.17/outbox.cif.g08.bks.cpg/sg4_2_cif.got.tgz:3707.got - 2010.06.03 18:43:04.
