data_PCOD9119457
_publ_section_title
;
Structure prediction by ZEFSAII (Michael W. Deem and Ramdas Pophale) SiO2 
 PCOD9119457
Probable space group: P 21
;
_chemical_formula_sum "Si O2"
_cell_formula_units_Z 12
_cell_length_a 7.227995
_cell_length_b 8.020377
_cell_length_c 8.494580
_cell_angle_alpha 90.000000
_cell_angle_beta 120.061452
_cell_angle_gamma 90.000000
_cell_volume 426.202416
_symmetry_space_group_name_H-M "P 21"
_symmetry_group_IT_number 4
_symmetry_cell_setting 'monoclinic'
loop_
_space_group_symop_operation_xyz
x,y,z
-x,1/2+y,-z
loop_
_atom_site_type_symbol
_atom_site_label
_atom_site_fract_x
_atom_site_fract_y
_atom_site_fract_z
Si Si1 0.366071 0.153660 0.764598
Si Si2 0.075266 0.223454 0.060321
Si Si3 0.856182 0.985593 0.416993
Si Si4 0.181566 0.910733 0.290704
Si Si5 0.633301 0.971583 0.636458
Si Si6 0.692530 0.280628 0.143474
O O1 0.207255 0.291031 0.629431
O O2 0.544221 0.117565 0.708128
O O3 0.295290 0.968824 0.787645
O O4 0.475139 0.247083 0.957561
O O5 0.166727 0.041255 0.138358
O O6 0.262179 0.345965 0.195091
O O7 0.882215 0.247491 0.101424
O O8 0.974114 0.267978 0.848582
O O9 0.810568 0.012861 0.581445
O O10 0.715968 0.134341 0.281564
O O11 0.066257 0.986844 0.396906
O O12 0.425511 0.902565 0.454676
#
# Coordination Sequence:
#
# PCOD9119457 Si02
#       6
#     2   2   2   2   2   2
#     4  12  26  49  84 120 161 225 276 348 417 498
#     4  11  27  51  78 121 163 216 276 342 424 497
#     4  11  27  51  76 120 166 213 285 344 414 504
#     4  11  28  53  82 119 167 221 276 349 420 500
#     4  12  28  51  83 123 163 216 283 340 422 495
#     4  11  26  49  81 119 166 219 280 345 417 500
#
# _framework density 28.155636999999999
#
# number of rings (size 3 to 8) (size 9 to 14) (size 15 to 20)
#    0.000    0.667    1.667    4.000    9.333    1.333 
#    0.000    0.000    0.000    0.000    0.000    0.000 
#    0.000    0.000    0.000    0.000    0.000    0.000 
#
# Total GULP energy -67294.230124 kJ/mol
# GULP energy per Si atom -5607.852510 kJ/mol
# Density = 2.809155 g / cm^3
# Si number density = 28.155637 Si / 1000 Ang^3
#
#
#
# Elastic Constant Matrix: (Units=GPa)
#
#
# Indices 1 2 3 4 5 6 
#
# 1 109.4993 21.2140 56.8062 0.0000 -6.2599 0.0000
# 2 21.2140 164.7614 78.2977 0.0000 -1.5496 0.0000
# 3 56.8062 78.2977 206.1061 0.0000 7.1572 0.0000
# 4 0.0000 0.0000 0.0000 66.4904 0.0000 -12.2639
# 5 -6.2599 -1.5496 7.1572 0.0000 56.1668 0.0000
# 6 0.0000 0.0000 0.0000 -12.2639 0.0000 42.2214
#
#
#
# Elastic Compliance Matrix: (Units=1/GPa)
#
#
# Indices 1 2 3 4 5 6 
#
# 1 0.010796 0.000080 -0.003061 0.000000 0.001596 0.000000
# 2 0.000080 0.007425 -0.002863 0.000000 0.000579 0.000000
# 3 -0.003061 -0.002863 0.006828 0.000000 -0.001290 0.000000
# 4 0.000000 0.000000 0.000000 0.015891 0.000000 0.004616
# 5 0.001596 0.000579 -0.001290 0.000000 0.018162 0.000000
# 6 0.000000 0.000000 0.000000 0.004616 0.000000 0.025025
#
#
# Mechanical properties :
#
#
# Convention : Reuss Voigt Hill
#
# Bulk Modulus (GPa) = 74.84686 88.11139 81.47913
# Shear Modulus (GPa) = 49.86506 54.57897 52.22202
#
# Velocity S-wave (km/s) = 4.21295 4.40759 4.31137
# Velocity P-wave (km/s) = 7.09269 7.56735 7.33386
#
# Compressibility (1/GPa) = 0.01336061
#
# Stress axis : x y z
#
# Youngs Moduli (GPa) = 92.62318 134.68034 146.45647
#
# Poissons Ratio (x) = -0.01074 0.44836
# Poissons Ratio (y) = -0.00738 0.41927
# Poissons Ratio (z) = 0.28355 0.38556
#
# Static dielectric constant tensor:
#      x y z
#    x 2.206500 0.000000 0.070880 
#    y 0.000000 2.242260 0.000000 
#    z 0.070880 0.000000 2.151760 
# 
# From -- ./inp_files/5278.got.cif
#   From: 2010.05.17/outbox.cif.g08.bks.cpg/sg4_3_cif.got.tgz:5278.got - 2010.06.03 18:43:04.
