data_PCOD9119378
_publ_section_title
;
Structure prediction by ZEFSAII (Michael W. Deem and Ramdas Pophale) SiO2 
 PCOD9119378
Probable space group: P 21
;
_chemical_formula_sum "Si O2"
_cell_formula_units_Z 14
_cell_length_a 5.545381
_cell_length_b 8.256726
_cell_length_c 12.300199
_cell_angle_alpha 90.000000
_cell_angle_beta 83.005140
_cell_angle_gamma 90.000000
_cell_volume 558.993673
_symmetry_space_group_name_H-M "P 21"
_symmetry_group_IT_number 4
_symmetry_cell_setting 'monoclinic'
loop_
_space_group_symop_operation_xyz
x,y,z
-x,1/2+y,-z
loop_
_atom_site_type_symbol
_atom_site_label
_atom_site_fract_x
_atom_site_fract_y
_atom_site_fract_z
Si Si1 0.192828 0.520570 0.406323
Si Si2 0.880587 0.800304 0.137852
Si Si3 0.058863 0.365683 0.616669
Si Si4 0.539618 0.542291 0.189503
Si Si5 0.197624 0.171678 0.306490
Si Si6 0.787773 0.041935 0.970667
Si Si7 0.737861 0.223143 0.190384
O O1 0.023317 0.682423 0.412019
O O2 0.408400 0.565652 0.311440
O O3 0.111573 0.342310 0.365867
O O4 0.245242 0.460626 0.526576
O O5 0.626663 0.709103 0.132276
O O6 0.858399 0.853046 0.263283
O O7 0.937926 0.916215 0.034445
O O8 0.083248 0.665164 0.117046
O O9 0.843296 0.500440 0.629830
O O10 0.756086 0.416857 0.194726
O O11 0.386784 0.454122 0.103871
O O12 0.486148 0.187196 0.269181
O O13 0.001340 0.162802 0.218244
O O14 0.683748 0.144393 0.076752
#
# Coordination Sequence:
#
# PCOD9119378 Si02
#       7
#     2   2   2   2   2   2   2
#     4  11  25  48  78 111 153 212 264 339 391 475
#     4  12  27  46  75 112 156 206 266 327 405 479
#     4  12  24  49  80 108 160 201 275 322 410 464
#     4  11  26  46  72 108 155 203 270 328 398 477
#     4  11  26  50  75 117 156 208 265 327 390 479
#     4  12  26  43  76 110 156 204 257 327 401 482
#     4  11  26  46  76 110 158 202 261 318 401 470
#
# _framework density 25.045005
#
# number of rings (size 3 to 8) (size 9 to 14) (size 15 to 20)
#    0.000    0.571    4.286    2.571   10.000    1.143 
#    5.143    1.429    0.000    0.000    0.000    0.000 
#    0.000    0.000    0.000    0.000    0.000    0.000 
#
# Total GULP energy -77970.505451 kJ/mol
# GULP energy per Si atom -5569.321818 kJ/mol
# Density = 2.498800 g / cm^3
# Si number density = 25.045005 Si / 1000 Ang^3
#
#
#
# Elastic Constant Matrix: (Units=GPa)
#
#
# Indices 1 2 3 4 5 6 
#
# 1 52.5211 9.7191 12.0487 0.0000 6.6818 0.0000
# 2 9.7191 96.9811 4.4501 0.0000 -2.0638 0.0000
# 3 12.0487 4.4501 94.0296 0.0000 5.5338 0.0000
# 4 0.0000 0.0000 0.0000 49.5168 0.0000 -3.9242
# 5 6.6818 -2.0638 5.5338 0.0000 20.1877 0.0000
# 6 0.0000 0.0000 0.0000 -3.9242 0.0000 28.5904
#
#
#
# Elastic Compliance Matrix: (Units=1/GPa)
#
#
# Indices 1 2 3 4 5 6 
#
# 1 0.020757 -0.002118 -0.002178 0.000000 -0.006490 0.000000
# 2 -0.002118 0.010579 -0.000340 0.000000 0.001876 0.000000
# 3 -0.002178 -0.000340 0.011068 0.000000 -0.002348 0.000000
# 4 0.000000 0.000000 0.000000 0.020417 0.000000 0.002802
# 5 -0.006490 0.001876 -0.002348 0.000000 0.052518 0.000000
# 6 0.000000 0.000000 0.000000 0.002802 0.000000 0.035361
#
#
# Mechanical properties :
#
#
# Convention : Reuss Voigt Hill
#
# Bulk Modulus (GPa) = 30.18111 32.88530 31.53321
# Shear Modulus (GPa) = 29.23680 34.14656 31.69168
#
# Velocity S-wave (km/s) = 3.42039 3.69644 3.56109
# Velocity P-wave (km/s) = 5.26076 5.60154 5.43382
#
# Compressibility (1/GPa) = 0.03313330
#
# Stress axis : x y z
#
# Youngs Moduli (GPa) = 48.17612 94.52615 90.34869
#
# Poissons Ratio (x) = 0.20024 0.19674
# Poissons Ratio (y) = 0.10206 0.03068
# Poissons Ratio (z) = 0.10491 0.03210
#
# Static dielectric constant tensor:
#      x y z
#    x 2.021940 0.000000 -0.044760 
#    y 0.000000 2.088690 0.000000 
#    z -0.044760 0.000000 2.004870 
# 
# From -- ./inp_files/2435.got.cif
#   From: 2010.05.17/outbox.cif.g08.bks.cpg/sg4_2_cif.got.tgz:2435.got - 2010.06.03 18:43:04.
