data_PCOD9119461
_publ_section_title
;
Structure prediction by ZEFSAII (Michael W. Deem and Ramdas Pophale) SiO2 
 PCOD9119461
Probable space group: P 21
;
_chemical_formula_sum "Si O2"
_cell_formula_units_Z 16
_cell_length_a 11.995597
_cell_length_b 11.481288
_cell_length_c 10.889587
_cell_angle_alpha 90.000000
_cell_angle_beta 25.871096
_cell_angle_gamma 90.000000
_cell_volume 654.420371
_symmetry_space_group_name_H-M "P 21"
_symmetry_group_IT_number 4
_symmetry_cell_setting 'monoclinic'
loop_
_space_group_symop_operation_xyz
x,y,z
-x,1/2+y,-z
loop_
_atom_site_type_symbol
_atom_site_label
_atom_site_fract_x
_atom_site_fract_y
_atom_site_fract_z
Si Si1 0.881683 0.719490 0.266727
Si Si2 0.141132 0.700024 0.767225
Si Si3 0.895649 0.559703 0.491816
Si Si4 0.394211 0.834533 0.298785
Si Si5 0.199469 0.393186 0.950213
Si Si6 0.600801 0.099202 0.850413
Si Si7 0.311610 0.002667 0.664962
Si Si8 0.631498 0.971042 0.562540
O O1 0.758540 0.844075 0.419627
O O2 0.933682 0.648394 0.339935
O O3 0.690974 0.635773 0.378165
O O4 0.121582 0.723419 0.933096
O O5 0.189648 0.568082 0.681083
O O6 0.876777 0.757857 0.984431
O O7 0.816507 0.432314 0.518919
O O8 0.142226 0.569018 0.331930
O O9 0.647906 0.590212 0.818600
O O10 0.664124 0.899284 0.051698
O O11 0.389519 0.732800 0.205041
O O12 0.334081 0.767725 0.486221
O O13 0.431171 0.445578 0.642486
O O14 0.947261 0.452514 0.139644
O O15 0.591779 0.013348 0.741382
O O16 0.360560 0.981687 0.759756
#
# Coordination Sequence:
#
# PCOD9119461 Si02
#       8
#     2   2   2   2   2   2   2   2
#     4  12  28  49  86 122 172 206 285 347 436 500
#     4  11  26  50  83 125 166 217 272 338 451 507
#     4  12  30  54  85 115 164 223 285 349 408 506
#     4  11  28  52  89 114 173 222 285 344 435 510
#     4  12  24  49  81 119 162 219 269 336 425 528
#     4  11  32  54  81 120 160 231 291 338 415 487
#     4  12  27  49  78 128 161 216 272 344 443 506
#     4  11  29  51  81 123 174 218 279 358 417 520
#
# _framework density 24.449117999999999
#
# number of rings (size 3 to 8) (size 9 to 14) (size 15 to 20)
#    0.000    0.500    3.750    0.750   17.500    2.000 
#    0.000    0.000    0.000    0.000    0.000    0.000 
#    0.000    0.000    0.000    0.000    0.000    0.000 
#
# Total GULP energy -89378.571977 kJ/mol
# GULP energy per Si atom -5586.160749 kJ/mol
# Density = 2.439347 g / cm^3
# Si number density = 24.449118 Si / 1000 Ang^3
#
#
#
# Elastic Constant Matrix: (Units=GPa)
#
#
# Indices 1 2 3 4 5 6 
#
# 1 189.3174 84.9497 95.6476 0.0000 -17.5734 0.0000
# 2 84.9497 123.9209 42.3606 0.0000 -1.2918 0.0000
# 3 95.6476 42.3606 176.9526 0.0000 -23.2935 0.0000
# 4 0.0000 0.0000 0.0000 36.8643 0.0000 6.3848
# 5 -17.5734 -1.2918 -23.2935 0.0000 57.7287 0.0000
# 6 0.0000 0.0000 0.0000 6.3848 0.0000 51.9214
#
#
#
# Elastic Compliance Matrix: (Units=1/GPa)
#
#
# Indices 1 2 3 4 5 6 
#
# 1 0.009728 -0.005355 -0.003805 0.000000 0.001306 0.000000
# 2 -0.005355 0.011762 -0.000107 0.000000 -0.001410 0.000000
# 3 -0.003805 -0.000107 0.008006 0.000000 0.002070 0.000000
# 4 0.000000 0.000000 0.000000 0.027717 0.000000 -0.003408
# 5 0.001306 -0.001410 0.002070 0.000000 0.018524 0.000000
# 6 0.000000 0.000000 0.000000 -0.003408 0.000000 0.019679
#
#
# Mechanical properties :
#
#
# Convention : Reuss Voigt Hill
#
# Bulk Modulus (GPa) = 91.20954 104.01185 97.61070
# Shear Modulus (GPa) = 42.51586 47.11843 44.81714
#
# Velocity S-wave (km/s) = 4.17460 4.39476 4.28609
# Velocity P-wave (km/s) = 7.78609 8.26960 8.03149
#
# Compressibility (1/GPa) = 0.01096376
#
# Stress axis : x y z
#
# Youngs Moduli (GPa) = 102.79252 85.01729 124.90995
#
# Poissons Ratio (x) = 0.45525 0.47523
# Poissons Ratio (y) = 0.55043 0.01336
# Poissons Ratio (z) = 0.39108 0.00910
#
# Static dielectric constant tensor:
#      x y z
#    x 1.999700 0.000000 0.043380 
#    y 0.000000 2.067410 0.000000 
#    z 0.043380 0.000000 2.023900 
# 
# From -- ./inp_files/12352.got.cif
#   From: 2010.05.17/outbox.cif.g08.bks.cpg/sg4_7_cif.got.tgz:12352.got - 2010.06.03 18:43:04.
