data_PCOD9119960
_publ_section_title
;
Structure prediction by ZEFSAII (Michael W. Deem and Ramdas Pophale) SiO2 
 PCOD9119960
Probable space group: C 2
;
_chemical_formula_sum "Si O2"
_cell_formula_units_Z 28
_cell_length_a 9.995064
_cell_length_b 27.232103
_cell_length_c 5.546279
_cell_angle_alpha 90.000000
_cell_angle_beta 115.101816
_cell_angle_gamma 90.000000
_cell_volume 1367.047092
_symmetry_space_group_name_H-M "C 2"
_symmetry_group_IT_number 5
_symmetry_cell_setting 'monoclinic'
loop_
_space_group_symop_operation_xyz
x,y,z
-x,y,-z
1/2+x,1/2+y,z
1/2-x,1/2+y,-z
loop_
_atom_site_type_symbol
_atom_site_label
_atom_site_fract_x
_atom_site_fract_y
_atom_site_fract_z
Si Si1 0.002364 0.918990 0.751959
Si Si2 0.846266 0.495357 0.627051
Si Si3 0.406654 0.250187 0.178313
Si Si4 0.317224 0.033896 0.107533
Si Si5 0.673230 0.882130 0.489146
Si Si6 0.406932 0.138463 0.179355
Si Si7 0.217556 0.345455 0.028047
O O1 0.143624 0.883495 0.855018
O O2 0.000000 0.947236 0.500000
O O3 0.853778 0.886159 0.642415
O O4 0.000000 0.947308 0.000000
O O5 0.764576 0.513421 0.323813
O O6 0.874271 0.437661 0.610159
O O7 0.004980 0.522600 0.752989
O O8 0.771329 0.507040 0.826015
O O9 0.500000 0.258899 0.500000
O O10 0.348950 0.194148 0.148327
O O11 0.282115 0.291181 0.057505
O O12 0.500000 0.253680 0.000000
O O13 0.297748 0.092262 0.082058
O O14 0.642727 0.850176 0.230842
O O15 0.632351 0.862960 0.723219
O O16 0.500000 0.131667 0.500000
O O17 0.500000 0.135608 0.000000
#
# Coordination Sequence:
#
# PCOD9119960 Si02
#       7
#     4   4   4   4   4   4   4
#     4   8  14  23  36  47  72 101 127 156 187 216
#     4  10  18  27  43  56  75 109 140 175 206 241
#     4  10  18  25  41  60  80 108 149 163 194 239
#     4  10  17  30  42  55  82 104 142 173 212 231
#     4  10  18  26  39  57  75 105 151 158 203 237
#     4  10  16  27  41  60  76 106 140 175 196 240
#     4  10  17  28  38  55  84 109 135 170 188 240
#
# _framework density 20.482104
#
# number of rings (size 3 to 8) (size 9 to 14) (size 15 to 20)
#    0.000    2.286    2.857    4.286    0.000    0.000 
#    0.000    0.000    0.000    0.000    0.000    0.000 
#    0.000    0.000    0.000    0.000  325.714   32.571 
#
# Total GULP energy -78023.641065 kJ/mol
# GULP energy per Si atom -5573.117219 kJ/mol
# Density = 2.043549 g / cm^3
# Si number density = 20.482104 Si / 1000 Ang^3
#
#
#
# Elastic Constant Matrix: (Units=GPa)
#
#
# Indices 1 2 3 4 5 6 
#
# 1 38.6659 7.5775 35.9918 0.0000 -9.1983 0.0000
# 2 7.5775 153.5639 56.4610 0.0000 -11.2924 0.0000
# 3 35.9918 56.4610 205.0860 0.0000 -50.3090 0.0000
# 4 0.0000 0.0000 0.0000 29.8640 0.0000 -13.1277
# 5 -9.1983 -11.2924 -50.3090 0.0000 41.5166 0.0000
# 6 0.0000 0.0000 0.0000 -13.1277 0.0000 -7.6219
#
#
#
# Elastic Compliance Matrix: (Units=1/GPa)
#
#
# Indices 1 2 3 4 5 6 
#
# 1 0.030954 0.000516 -0.005489 0.000000 0.000347 0.000000
# 2 0.000516 0.007266 -0.002246 0.000000 -0.000630 0.000000
# 3 -0.005489 -0.002246 0.008551 0.000000 0.008535 0.000000
# 4 0.000000 0.000000 0.000000 0.019057 0.000000 -0.032823
# 5 0.000347 -0.000630 0.008535 0.000000 0.034335 0.000000
# 6 0.000000 0.000000 0.000000 -0.032823 0.000000 -0.074668
#
#
# Mechanical properties :
#
#
# Convention : Reuss Voigt Hill
#
# Bulk Modulus (GPa) = 30.92764 66.37516 48.65140
# Shear Modulus (GPa) = 98.60118 32.57078 65.58598
#
# Velocity S-wave (km/s) = 6.94584 3.99207 5.66486
# Velocity P-wave (km/s) = 8.91397 7.32977 8.16040
#
# Compressibility (1/GPa) = 0.03233354
#
# Stress axis : x y z
#
# Youngs Moduli (GPa) = 32.30646 137.63237 116.94040
#
# Poissons Ratio (x) = -0.07107 0.64193
# Poissons Ratio (y) = -0.01668 0.26260
# Poissons Ratio (z) = 0.17734 0.30906
#
# Static dielectric constant tensor:
#      x y z
#    x 1.784240 0.000000 0.002940 
#    y 0.000000 1.691230 0.000000 
#    z 0.002940 0.000000 1.827810 
# 
# From -- ./inp_files/7513.got.cif
#   From: 2010.05.17/outbox.cif.g08.bks.cpg/sg5_4_cif.got.tgz:7513.got - 2010.06.03 18:56:24.
