data_PCOD9119538
_publ_section_title
;
Structure prediction by ZEFSAII (Michael W. Deem and Ramdas Pophale) SiO2 
 PCOD9119538
Probable space group: P 21
;
_chemical_formula_sum "Si O2"
_cell_formula_units_Z 8
_cell_length_a 9.183552
_cell_length_b 5.252868
_cell_length_c 13.335321
_cell_angle_alpha 90.000000
_cell_angle_beta 27.242850
_cell_angle_gamma 90.000000
_cell_volume 294.476952
_symmetry_space_group_name_H-M "P 21"
_symmetry_group_IT_number 4
_symmetry_cell_setting 'monoclinic'
loop_
_space_group_symop_operation_xyz
x,y,z
-x,1/2+y,-z
loop_
_atom_site_type_symbol
_atom_site_label
_atom_site_fract_x
_atom_site_fract_y
_atom_site_fract_z
Si Si1 0.190743 0.390600 0.276121
Si Si2 0.265600 0.533059 0.012411
Si Si3 0.550818 0.190144 0.704055
Si Si4 0.356524 0.349124 0.542905
O O1 0.293135 0.380834 0.098773
O O2 0.284034 0.617871 0.291514
O O3 0.815041 0.371779 0.495044
O O4 0.396887 0.172029 0.201825
O O5 0.989711 0.740149 0.208317
O O6 0.242581 0.348500 0.929408
O O7 0.561538 0.954396 0.619572
O O8 0.422178 0.608719 0.565071
#
# Coordination Sequence:
#
# PCOD9119538 Si02
#       4
#     2   2   2   2
#     4  12  23  46  80 130 159 202 276 358 454 508
#     4  12  26  48  86 123 170 216 275 364 437 508
#     4  12  26  48  86 123 170 216 275 364 437 508
#     4  12  31  58  80 120 175 238 300 344 400 520
#
# _framework density 27.166813000000001
#
# number of rings (size 3 to 8) (size 9 to 14) (size 15 to 20)
#    0.000    0.000    5.000    4.500    7.000    0.000 
#    4.500    0.000    0.000    0.000    0.000    0.000 
#    0.000    0.000    0.000    0.000    0.000    0.000 
#
# Total GULP energy -44644.182773 kJ/mol
# GULP energy per Si atom -5580.522847 kJ/mol
# Density = 2.710498 g / cm^3
# Si number density = 27.166813 Si / 1000 Ang^3
#
#
#
# Elastic Constant Matrix: (Units=GPa)
#
#
# Indices 1 2 3 4 5 6 
#
# 1 106.4620 69.3857 71.9907 0.0000 26.9289 0.0000
# 2 69.3857 156.4214 80.4295 0.0000 11.5418 0.0000
# 3 71.9907 80.4295 156.3598 0.0000 29.0248 0.0000
# 4 0.0000 0.0000 0.0000 61.0615 0.0000 13.2795
# 5 26.9289 11.5418 29.0248 0.0000 39.4399 0.0000
# 6 0.0000 0.0000 0.0000 13.2795 0.0000 68.5095
#
#
#
# Elastic Compliance Matrix: (Units=1/GPa)
#
#
# Indices 1 2 3 4 5 6 
#
# 1 0.017239 -0.005065 -0.003963 0.000000 -0.007371 0.000000
# 2 -0.005065 0.010206 -0.003481 0.000000 0.003033 0.000000
# 3 -0.003963 -0.003481 0.010794 0.000000 -0.004219 0.000000
# 4 0.000000 0.000000 0.000000 0.017098 0.000000 -0.003314
# 5 -0.007371 0.003033 -0.004219 0.000000 0.032605 0.000000
# 6 0.000000 0.000000 0.000000 -0.003314 0.000000 0.015239
#
#
# Mechanical properties :
#
#
# Convention : Reuss Voigt Hill
#
# Bulk Modulus (GPa) = 75.64190 95.87279 85.75735
# Shear Modulus (GPa) = 37.70615 46.96465 42.33540
#
# Velocity S-wave (km/s) = 3.72956 4.16234 3.95188
# Velocity P-wave (km/s) = 6.81543 7.64638 7.24283
#
# Compressibility (1/GPa) = 0.01322019
#
# Stress axis : x y z
#
# Youngs Moduli (GPa) = 58.00928 97.98511 92.64577
#
# Poissons Ratio (x) = 0.49629 0.36718
# Poissons Ratio (y) = 0.29382 0.32247
# Poissons Ratio (z) = 0.22991 0.34106
#
# Static dielectric constant tensor:
#      x y z
#    x 2.118230 0.000000 -0.008020 
#    y 0.000000 2.249420 0.000000 
#    z -0.008020 0.000000 2.168440 
# 
# From -- ./inp_files/2317.got.cif
#   From: 2010.05.17/outbox.cif.g08.bks.cpg/sg4_2_cif.got.tgz:2317.got - 2010.06.03 18:43:04.
