data_PCOD9119996
_publ_section_title
;
Structure prediction by ZEFSAII (Michael W. Deem and Ramdas Pophale) SiO2 
 PCOD9119996
Probable space group: C 2
;
_chemical_formula_sum "Si O2"
_cell_formula_units_Z 24
_cell_length_a 13.293081
_cell_length_b 5.245041
_cell_length_c 15.776542
_cell_angle_alpha 90.000000
_cell_angle_beta 72.764227
_cell_angle_gamma 90.000000
_cell_volume 1050.587594
_symmetry_space_group_name_H-M "C 2"
_symmetry_group_IT_number 5
_symmetry_cell_setting 'monoclinic'
loop_
_space_group_symop_operation_xyz
x,y,z
-x,y,-z
1/2+x,1/2+y,z
1/2-x,1/2+y,-z
loop_
_atom_site_type_symbol
_atom_site_label
_atom_site_fract_x
_atom_site_fract_y
_atom_site_fract_z
Si Si1 0.632900 0.894410 0.082019
Si Si2 0.289844 0.883848 0.298375
Si Si3 0.313200 0.481267 0.513079
Si Si4 0.500011 0.073767 0.739746
Si Si5 0.028351 0.075324 0.663576
Si Si6 0.743339 0.892026 0.891865
O O1 0.529050 0.966952 0.160472
O O2 0.678574 0.620754 0.099027
O O3 0.709929 0.116373 0.096755
O O4 0.640596 0.915923 0.978590
O O5 0.192253 0.919181 0.385573
O O6 0.374634 0.102406 0.299435
O O7 0.365395 0.649090 0.308427
O O8 0.273600 0.894192 0.203370
O O9 0.256921 0.752733 0.509374
O O10 0.425116 0.495726 0.438380
O O11 0.468126 0.847048 0.683394
O O12 0.462887 0.352636 0.724652
#
# Coordination Sequence:
#
# PCOD9119996 Si02
#       6
#     4   4   4   4   4   4
#     4  10  22  39  55  75 107 151 168 221 269 325
#     4   9  21  31  60  81 104 133 184 225 249 310
#     4  10  16  30  50  81 107 135 166 217 264 312
#     4  10  19  33  56  78 107 138 174 215 272 305
#     4   9  18  31  53  84 105 135 169 220 265 309
#     4  10  22  38  57  76 106 140 189 209 267 320
#
# _framework density 22.844359000000001
#
# number of rings (size 3 to 8) (size 9 to 14) (size 15 to 20)
#    1.000    1.333    1.667    1.000    2.333    0.667 
#    0.000    0.000    3.667    6.000    0.000    0.000 
#    0.000    0.000    0.000    0.000    0.000    0.000 
#
# Total GULP energy -66823.133565 kJ/mol
# GULP energy per Si atom -5568.594464 kJ/mol
# Density = 2.279236 g / cm^3
# Si number density = 22.844359 Si / 1000 Ang^3
#
#
#
# Elastic Constant Matrix: (Units=GPa)
#
#
# Indices 1 2 3 4 5 6 
#
# 1 30.0945 5.7518 28.4580 0.0000 -10.8156 0.0000
# 2 5.7518 133.2968 22.1923 0.0000 -1.2345 0.0001
# 3 28.4580 22.1923 191.5302 0.0001 -14.4382 0.0001
# 4 0.0000 0.0000 0.0001 21.8733 0.0000 -5.8897
# 5 -10.8156 -1.2345 -14.4382 0.0000 42.7742 0.0000
# 6 0.0000 0.0001 0.0001 -5.8897 0.0000 0.3878
#
#
#
# Elastic Compliance Matrix: (Units=1/GPa)
#
#
# Indices 1 2 3 4 5 6 
#
# 1 0.041644 -0.000811 -0.005440 0.000000 0.008670 0.000001
# 2 -0.000811 0.007666 -0.000787 0.000000 -0.000249 0.000001
# 3 -0.005440 -0.000787 0.006172 0.000000 0.000685 0.000000
# 4 0.000000 0.000000 0.000000 -0.014798 0.000000 -0.224746
# 5 0.008670 -0.000249 0.000685 0.000000 0.025795 0.000001
# 6 0.000001 0.000001 0.000000 -0.224746 0.000001 -0.834673
#
#
# Mechanical properties :
#
#
# Convention : Reuss Voigt Hill
#
# Bulk Modulus (GPa) = 24.15063 51.96951 38.06007
# Shear Modulus (GPa) = -6.75386 32.90835 13.07724
#
# Velocity S-wave (km/s) = -1.72130 3.79957 2.39519
# Velocity P-wave (km/s) = 2.57764 6.48442 4.93417
#
# Compressibility (1/GPa) = 0.04140679
#
# Stress axis : x y z
#
# Youngs Moduli (GPa) = 24.01317 130.45148 162.01744
#
# Poissons Ratio (x) = 0.10579 0.88137
# Poissons Ratio (y) = 0.01947 0.12743
# Poissons Ratio (z) = 0.13063 0.10260
#
# Static dielectric constant tensor:
#      x y z
#    x 1.919290 0.000000 -0.039230 
#    y 0.000000 1.867130 0.000000 
#    z -0.039230 0.000000 1.913610 
# 
# From -- ./inp_files/53639.got.cif
#   From: 2010.05.17/outbox.cif.g08.bks.cpg/sg5_27_cif.got.tgz:53639.got - 2010.06.03 18:56:24.
