data_PCOD9119871
_publ_section_title
;
Structure prediction by ZEFSAII (Michael W. Deem and Ramdas Pophale) SiO2 
 PCOD9119871
Probable space group: P 21
;
_chemical_formula_sum "Si O2"
_cell_formula_units_Z 16
_cell_length_a 9.000000
_cell_length_b 12.000000
_cell_length_c 9.000000
_cell_angle_alpha 90.000000
_cell_angle_beta 50.000000
_cell_angle_gamma 90.000000
_cell_volume 744.595199
_symmetry_space_group_name_H-M "P 21"
_symmetry_group_IT_number 4
_symmetry_cell_setting 'monoclinic'
loop_
_space_group_symop_operation_xyz
x,y,z
-x,1/2+y,-z
loop_
_atom_site_type_symbol
_atom_site_label
_atom_site_fract_x
_atom_site_fract_y
_atom_site_fract_z
Si Si1 0.184603 0.825180 0.882051
Si Si2 0.642787 0.572242 0.270837
Si Si3 0.806016 0.129343 0.360803
Si Si4 0.965385 0.560325 0.291264
Si Si5 0.688339 0.226682 0.881118
Si Si6 0.208128 0.440635 0.879023
Si Si7 0.261176 0.122269 0.125443
Si Si8 0.661418 0.429877 0.691902
O O1 0.218081 0.738195 0.727373
O O2 0.303110 0.939317 0.768796
O O3 0.259929 0.779435 0.991431
O O4 0.950504 0.843212 0.046801
O O5 0.412078 0.603866 0.429090
O O6 0.787650 0.615982 0.309069
O O7 0.718783 0.614267 0.064127
O O8 0.023733 0.141022 0.299675
O O9 0.822262 0.024162 0.238716
O O10 0.836278 0.477399 0.476692
O O11 0.131078 0.639187 0.258394
O O12 0.106672 0.494657 0.088351
O O13 0.701037 0.308863 0.732620
O O14 0.455644 0.196149 0.041848
O O15 0.441457 0.429279 0.761289
O O16 0.321016 0.011007 0.176242
#
# Coordination Sequence:
#
# PCOD9119871 Si02
#       8
#     2   2   2   2   2   2   2   2
#     4  11  23  49  75 106 140 201 239 293 369 434
#     4  11  25  47  75 105 143 188 250 296 352 432
#     4  12  23  46  74 105 143 190 245 295 355 434
#     4  11  24  47  73 104 143 192 242 299 353 434
#     4  12  25  48  75 104 151 194 235 297 382 424
#     4  11  22  47  73 102 148 185 244 300 346 436
#     4  12  25  46  70 109 152 184 236 308 359 424
#     4  12  25  46  71 109 146 190 239 304 364 422
#
# _framework density 21.488185999999999
#
# number of rings (size 3 to 8) (size 9 to 14) (size 15 to 20)
#    0.000    0.500    7.500    0.750    1.750    2.000 
#    9.000    0.000    0.000    0.000    0.000    0.000 
#    0.000    0.000    0.000    0.000    0.000    0.000 
#
# Total GULP energy -89167.707190 kJ/mol
# GULP energy per Si atom -5572.981699 kJ/mol
# Density = 2.143928 g / cm^3
# Si number density = 21.488186 Si / 1000 Ang^3
#
#
#
# Elastic Constant Matrix: (Units=GPa)
#
#
# Indices 1 2 3 4 5 6 
#
# 1 133.2754 -1.4246 20.4579 0.0000 -27.3236 0.0000
# 2 -1.4246 33.5503 11.2333 0.0000 -1.7467 0.0000
# 3 20.4579 11.2333 117.1208 0.0000 -31.7742 0.0000
# 4 0.0000 0.0000 0.0000 43.7038 0.0000 -4.1343
# 5 -27.3236 -1.7467 -31.7742 0.0000 47.3985 0.0000
# 6 0.0000 0.0000 0.0000 -4.1343 0.0000 51.5009
#
#
#
# Elastic Compliance Matrix: (Units=1/GPa)
#
#
# Indices 1 2 3 4 5 6 
#
# 1 0.008528 0.000699 -0.000264 0.000000 0.004765 0.000000
# 2 0.000699 0.030894 -0.003260 0.000000 -0.000644 0.000000
# 3 -0.000264 -0.003260 0.010784 0.000000 0.006957 0.000000
# 4 0.000000 0.000000 0.000000 0.023056 0.000000 0.001851
# 5 0.004765 -0.000644 0.006957 0.000000 0.028485 0.000000
# 6 0.000000 0.000000 0.000000 0.001851 0.000000 0.019566
#
#
# Mechanical properties :
#
#
# Convention : Reuss Voigt Hill
#
# Bulk Modulus (GPa) = 22.44378 38.27552 30.35965
# Shear Modulus (GPa) = 35.25716 45.43263 40.34489
#
# Velocity S-wave (km/s) = 4.05504 4.60315 4.33776
# Velocity P-wave (km/s) = 5.69138 6.78992 6.26477
#
# Compressibility (1/GPa) = 0.04455577
#
# Stress axis : x y z
#
# Youngs Moduli (GPa) = 117.25891 32.36917 92.72661
#
# Poissons Ratio (x) = -0.02261 0.02447
# Poissons Ratio (y) = -0.08191 0.30227
# Poissons Ratio (z) = 0.03095 0.10552
#
# Static dielectric constant tensor:
#      x y z
#    x 1.803960 0.000000 0.015990 
#    y 0.000000 1.859860 0.000000 
#    z 0.015990 0.000000 1.804640 
# 
# From -- ./inp_files/6393.got.cif
#   From: 2010.05.17/outbox.ucp.g08.bks.cvg/sg4_4_cif.got.tgz:6393.got - 2010.06.11 12:51:24.
