data_PCOD9119638
_publ_section_title
;
Structure prediction by ZEFSAII (Michael W. Deem and Ramdas Pophale) SiO2 
 PCOD9119638
Probable space group: P 21
;
_chemical_formula_sum "Si O2"
_cell_formula_units_Z 16
_cell_length_a 16.260886
_cell_length_b 5.571174
_cell_length_c 16.499377
_cell_angle_alpha 90.000000
_cell_angle_beta 26.018328
_cell_angle_gamma 90.000000
_cell_volume 655.669762
_symmetry_space_group_name_H-M "P 21"
_symmetry_group_IT_number 4
_symmetry_cell_setting 'monoclinic'
loop_
_space_group_symop_operation_xyz
x,y,z
-x,1/2+y,-z
loop_
_atom_site_type_symbol
_atom_site_label
_atom_site_fract_x
_atom_site_fract_y
_atom_site_fract_z
Si Si1 0.114597 0.696970 0.582553
Si Si2 0.965356 0.448874 0.572711
Si Si3 0.567363 0.677768 0.911148
Si Si4 0.306958 0.398149 0.534018
Si Si5 0.586443 0.571425 0.712992
Si Si6 0.793154 0.777092 0.986691
Si Si7 0.707635 0.453047 0.210796
Si Si8 0.019815 0.123793 0.894545
O O1 0.249251 0.636226 0.538176
O O2 0.230988 0.902389 0.434161
O O3 0.085786 0.474181 0.547886
O O4 0.909461 0.740564 0.801276
O O5 0.757751 0.546838 0.770239
O O6 0.960785 0.174255 0.547508
O O7 0.556515 0.711275 0.823605
O O8 0.434529 0.447120 0.050093
O O9 0.490801 0.434501 0.425106
O O10 0.122989 0.306027 0.742370
O O11 0.369117 0.216838 0.407881
O O12 0.393247 0.428129 0.867302
O O13 0.724401 0.558618 0.104648
O O14 0.952153 0.901889 0.901617
O O15 0.829223 0.595185 0.168503
O O16 0.823314 0.208112 0.105930
#
# Coordination Sequence:
#
# PCOD9119638 Si02
#       8
#     2   2   2   2   2   2   2   2
#     4  12  26  45  75 106 145 189 245 306 367 447
#     4  12  26  48  75 107 151 199 248 310 383 446
#     4  12  28  49  75 111 152 201 256 311 384 456
#     4  12  27  44  76 109 141 189 246 297 372 441
#     4  12  26  47  75 104 150 188 242 313 365 440
#     4  12  25  45  72 104 136 193 239 287 373 434
#     4  12  26  45  72 103 147 186 234 305 362 434
#     4  12  26  45  72 104 144 187 238 299 364 440
#
# _framework density 24.402529999999999
#
# number of rings (size 3 to 8) (size 9 to 14) (size 15 to 20)
#    0.000    0.000    7.500    2.250    1.750    5.000 
#    0.000    0.000    0.000    0.000    0.000    0.000 
#    0.000    0.000    0.000    0.000    0.000    0.000 
#
# Total GULP energy -89381.514431 kJ/mol
# GULP energy per Si atom -5586.344652 kJ/mol
# Density = 2.434699 g / cm^3
# Si number density = 24.402530 Si / 1000 Ang^3
#
#
#
# Elastic Constant Matrix: (Units=GPa)
#
#
# Indices 1 2 3 4 5 6 
#
# 1 82.9330 -1.8691 0.2727 0.0000 -5.8621 0.0000
# 2 -1.8691 51.5225 25.7567 0.0000 2.6315 0.0000
# 3 0.2727 25.7567 86.1599 0.0000 -12.3658 0.0000
# 4 0.0000 0.0000 0.0000 40.8724 0.0000 -9.0370
# 5 -5.8621 2.6315 -12.3658 0.0000 39.2730 0.0000
# 6 0.0000 0.0000 0.0000 -9.0370 0.0000 37.1783
#
#
#
# Elastic Compliance Matrix: (Units=1/GPa)
#
#
# Indices 1 2 3 4 5 6 
#
# 1 0.012194 0.000276 0.000144 0.000000 0.001847 0.000000
# 2 0.000276 0.023395 -0.007555 0.000000 -0.003905 0.000000
# 3 0.000144 -0.007555 0.014600 0.000000 0.005125 0.000000
# 4 0.000000 0.000000 0.000000 0.025856 0.000000 0.006285
# 5 0.001847 -0.003905 0.005125 0.000000 0.027614 0.000000
# 6 0.000000 0.000000 0.000000 0.006285 0.000000 0.028425
#
#
# Mechanical properties :
#
#
# Convention : Reuss Voigt Hill
#
# Bulk Modulus (GPa) = 27.84024 29.88178 28.86101
# Shear Modulus (GPa) = 31.58003 36.56175 34.07089
#
# Velocity S-wave (km/s) = 3.60130 3.87496 3.74063
# Velocity P-wave (km/s) = 5.35967 5.68263 5.52351
#
# Compressibility (1/GPa) = 0.03591923
#
# Stress axis : x y z
#
# Youngs Moduli (GPa) = 82.00598 42.74340 68.49340
#
# Poissons Ratio (x) = -0.01180 -0.00986
# Poissons Ratio (y) = -0.02264 0.51748
# Poissons Ratio (z) = -0.01181 0.32294
#
# Static dielectric constant tensor:
#      x y z
#    x 1.931300 0.000000 0.019820 
#    y 0.000000 2.066160 0.000000 
#    z 0.019820 0.000000 2.033890 
# 
# From -- ./inp_files/14065.got.cif
#   From: 2010.05.17/outbox.cif.g08.bks.cpg/sg4_8_cif.got.tgz:14065.got - 2010.06.03 18:43:04.
