data_PCOD9119822
_publ_section_title
;
Structure prediction by ZEFSAII (Michael W. Deem and Ramdas Pophale) SiO2 
 PCOD9119822
Probable space group: P 21
;
_chemical_formula_sum "Si O2"
_cell_formula_units_Z 14
_cell_length_a 15.000000
_cell_length_b 9.000000
_cell_length_c 15.000000
_cell_angle_alpha 90.000000
_cell_angle_beta 160.000000
_cell_angle_gamma 90.000000
_cell_volume 692.590790
_symmetry_space_group_name_H-M "P 21"
_symmetry_group_IT_number 4
_symmetry_cell_setting 'monoclinic'
loop_
_space_group_symop_operation_xyz
x,y,z
-x,1/2+y,-z
loop_
_atom_site_type_symbol
_atom_site_label
_atom_site_fract_x
_atom_site_fract_y
_atom_site_fract_z
Si Si1 0.351298 0.654370 0.080167
Si Si2 0.093498 0.185014 0.487048
Si Si3 0.003214 0.041353 0.597235
Si Si4 0.753918 0.343958 0.701074
Si Si5 0.738148 0.042023 0.804518
Si Si6 0.256789 0.647679 0.478375
Si Si7 0.251202 0.994089 0.004760
O O1 0.335260 0.826377 0.094816
O O2 0.127838 0.639420 0.793723
O O3 0.630461 0.634141 0.294946
O O4 0.313766 0.565460 0.137394
O O5 0.089907 0.367386 0.493520
O O6 0.046741 0.109858 0.540416
O O7 0.820989 0.147842 0.488935
O O8 0.252382 0.031138 0.899040
O O9 0.744452 0.200236 0.757834
O O10 0.490047 0.440476 0.451723
O O11 0.787358 0.282207 0.630527
O O12 0.991401 0.452420 0.949147
O O13 0.049406 0.521906 0.251734
O O14 0.555221 0.598026 0.758742
#
# Coordination Sequence:
#
# PCOD9119822 Si02
#       7
#     2   2   2   2   2   2   2
#     4  11  23  42  66  94 138 177 231 272 355 399
#     4  11  23  39  64  96 134 184 226 288 338 411
#     4   9  23  37  63  96 131 181 233 275 344 401
#     4  12  28  48  73 110 139 186 229 294 354 424
#     4  12  29  47  75 107 144 178 238 285 361 420
#     4  10  21  40  68  91 136 172 234 266 353 395
#     4   9  19  39  65  92 124 184 217 282 329 414
#
# _framework density 20.213956
#
# number of rings (size 3 to 8) (size 9 to 14) (size 15 to 20)
#    0.857    0.571    1.429    2.571    6.000    2.286 
#    0.000    0.000    0.000    0.000    0.000    0.000 
#    0.000    0.000    0.000    0.000    0.000    0.000 
#
# Total GULP energy -78107.805151 kJ/mol
# GULP energy per Si atom -5579.128939 kJ/mol
# Density = 2.016795 g / cm^3
# Si number density = 20.213956 Si / 1000 Ang^3
#
#
#
# Elastic Constant Matrix: (Units=GPa)
#
#
# Indices 1 2 3 4 5 6 
#
# 1 101.3538 45.2112 39.0826 0.0000 -10.0307 0.0000
# 2 45.2112 85.9208 51.4883 0.0000 -11.8906 0.0000
# 3 39.0826 51.4883 161.0916 0.0000 -2.0676 0.0000
# 4 0.0000 0.0000 0.0000 38.8684 0.0000 -8.3821
# 5 -10.0307 -11.8906 -2.0676 0.0000 27.3434 0.0000
# 6 0.0000 0.0000 0.0000 -8.3821 0.0000 50.2489
#
#
#
# Elastic Compliance Matrix: (Units=1/GPa)
#
#
# Indices 1 2 3 4 5 6 
#
# 1 0.013200 -0.005863 -0.001300 0.000000 0.002195 0.000000
# 2 -0.005863 0.018025 -0.004270 0.000000 0.005365 0.000000
# 3 -0.001300 -0.004270 0.007866 0.000000 -0.001739 0.000000
# 4 0.000000 0.000000 0.000000 0.026688 0.000000 0.004452
# 5 0.002195 0.005365 -0.001739 0.000000 0.039578 0.000000
# 6 0.000000 0.000000 0.000000 0.004452 0.000000 0.020644
#
#
# Mechanical properties :
#
#
# Convention : Reuss Voigt Hill
#
# Bulk Modulus (GPa) = 61.63626 68.88115 65.25870
# Shear Modulus (GPa) = 32.40962 37.46442 34.93702
#
# Velocity S-wave (km/s) = 4.00850 4.30978 4.16187
# Velocity P-wave (km/s) = 7.20987 7.67565 7.44640
#
# Compressibility (1/GPa) = 0.01622422
#
# Stress axis : x y z
#
# Youngs Moduli (GPa) = 75.75521 55.47900 127.13647
#
# Poissons Ratio (x) = 0.32527 0.16534
# Poissons Ratio (y) = 0.44415 0.54285
# Poissons Ratio (z) = 0.09852 0.23689
#
# Static dielectric constant tensor:
#      x y z
#    x 1.740490 0.000000 0.018040 
#    y 0.000000 1.706410 0.000000 
#    z 0.018040 0.000000 1.723480 
# 
# From -- ./inp_files/14195.got.cif
#   From: 2010.05.17/outbox.ucp.g08.bks.cvg/sg4_8_cif.got.tgz:14195.got - 2010.06.11 12:51:24.
