data_PCOD9119419
_publ_section_title
;
Structure prediction by ZEFSAII (Michael W. Deem and Ramdas Pophale) SiO2 
 PCOD9119419
Probable space group: P 21
;
_chemical_formula_sum "Si O2"
_cell_formula_units_Z 16
_cell_length_a 15.013848
_cell_length_b 8.611939
_cell_length_c 15.562935
_cell_angle_alpha 90.000000
_cell_angle_beta 19.323689
_cell_angle_gamma 90.000000
_cell_volume 665.866616
_symmetry_space_group_name_H-M "P 21"
_symmetry_group_IT_number 4
_symmetry_cell_setting 'monoclinic'
loop_
_space_group_symop_operation_xyz
x,y,z
-x,1/2+y,-z
loop_
_atom_site_type_symbol
_atom_site_label
_atom_site_fract_x
_atom_site_fract_y
_atom_site_fract_z
Si Si1 0.219258 0.295290 0.644258
Si Si2 0.906308 0.040660 0.015221
Si Si3 0.319614 0.786189 0.662937
Si Si4 0.322470 0.218585 0.230787
Si Si5 0.454539 0.077815 0.287552
Si Si6 0.809090 0.418637 0.755847
Si Si7 0.823781 0.540096 0.934709
Si Si8 0.345368 0.745868 0.444315
O O1 0.486801 0.365216 0.442893
O O2 0.294958 0.209640 0.486592
O O3 0.147360 0.157997 0.774774
O O4 0.970133 0.410546 0.860239
O O5 0.745062 0.117529 0.239500
O O6 0.729111 0.050532 0.090257
O O7 0.039828 0.878206 0.911974
O O8 0.427263 0.785184 0.467996
O O9 0.472610 0.138840 0.175118
O O10 0.081512 0.326961 0.484982
O O11 0.199586 0.079982 0.286951
O O12 0.545338 0.315412 0.975658
O O13 0.325074 0.906972 0.410964
O O14 0.781020 0.459432 0.881998
O O15 0.053216 0.669520 0.714538
O O16 0.556701 0.622806 0.212964
#
# Coordination Sequence:
#
# PCOD9119419 Si02
#       8
#     2   2   2   2   2   2   2   2
#     4  11  26  45  74 101 154 205 255 315 391 454
#     4  11  26  47  72 100 153 202 267 316 392 456
#     4  11  28  45  69 110 147 207 265 326 379 454
#     4  12  28  51  87 115 163 197 258 318 391 476
#     4  11  26  50  74 107 151 212 251 314 399 461
#     4  12  28  53  82 124 155 204 255 317 395 470
#     4  12  29  48  77 112 156 201 258 317 389 458
#     4  12  29  47  75 111 153 202 263 325 372 455
#
# _framework density 24.028835999999998
#
# number of rings (size 3 to 8) (size 9 to 14) (size 15 to 20)
#    0.000    0.500    2.500    3.000   14.000    0.000 
#    0.000    0.000    0.000    0.000    0.000    0.000 
#    0.000    0.000    0.000    0.000    0.000    0.000 
#
# Total GULP energy -89698.022741 kJ/mol
# GULP energy per Si atom -5606.126421 kJ/mol
# Density = 2.397415 g / cm^3
# Si number density = 24.028836 Si / 1000 Ang^3
#
#
#
# Elastic Constant Matrix: (Units=GPa)
#
#
# Indices 1 2 3 4 5 6 
#
# 1 70.8957 28.6300 8.1801 0.0000 -0.9345 0.0000
# 2 28.6300 91.2576 9.5907 0.0000 -3.3723 0.0000
# 3 8.1801 9.5907 66.6808 0.0000 0.7209 0.0000
# 4 0.0000 0.0000 0.0000 53.8922 0.0000 3.4984
# 5 -0.9345 -3.3723 0.7209 0.0000 22.3892 0.0000
# 6 0.0000 0.0000 0.0000 3.4984 0.0000 32.6507
#
#
#
# Elastic Compliance Matrix: (Units=1/GPa)
#
#
# Indices 1 2 3 4 5 6 
#
# 1 0.016258 -0.004967 -0.001280 0.000000 -0.000028 0.000000
# 2 -0.004967 0.012711 -0.001238 0.000000 0.001747 0.000000
# 3 -0.001280 -0.001238 0.015340 0.000000 -0.000734 0.000000
# 4 0.000000 0.000000 0.000000 0.018686 0.000000 -0.002002
# 5 -0.000028 0.001747 -0.000734 0.000000 0.044950 0.000000
# 6 0.000000 0.000000 0.000000 -0.002002 0.000000 0.030842
#
#
# Mechanical properties :
#
#
# Convention : Reuss Voigt Hill
#
# Bulk Modulus (GPa) = 34.08354 35.73729 34.91041
# Shear Modulus (GPa) = 30.57432 33.94863 32.26148
#
# Velocity S-wave (km/s) = 3.57094 3.76284 3.66815
# Velocity P-wave (km/s) = 5.58725 5.81236 5.70092
#
# Compressibility (1/GPa) = 0.02933968
#
# Stress axis : x y z
#
# Youngs Moduli (GPa) = 61.50641 78.67198 65.18996
#
# Poissons Ratio (x) = 0.39079 0.08343
# Poissons Ratio (y) = 0.30552 0.08069
# Poissons Ratio (z) = 0.07871 0.09738
#
# Static dielectric constant tensor:
#      x y z
#    x 1.902450 0.000000 -0.020500 
#    y 0.000000 1.949280 0.000000 
#    z -0.020500 0.000000 1.925480 
# 
# From -- ./inp_files/14192.got.cif
#   From: 2010.05.17/outbox.cif.g08.bks.cpg/sg4_8_cif.got.tgz:14192.got - 2010.06.03 18:43:04.
