data_PCOD9119660
_publ_section_title
;
Structure prediction by ZEFSAII (Michael W. Deem and Ramdas Pophale) SiO2 
 PCOD9119660
Probable space group: P 21
;
_chemical_formula_sum "Si O2"
_cell_formula_units_Z 10
_cell_length_a 14.668036
_cell_length_b 4.773012
_cell_length_c 10.391300
_cell_angle_alpha 90.000000
_cell_angle_beta 152.198877
_cell_angle_gamma 90.000000
_cell_volume 339.309971
_symmetry_space_group_name_H-M "P 21"
_symmetry_group_IT_number 4
_symmetry_cell_setting 'monoclinic'
loop_
_space_group_symop_operation_xyz
x,y,z
-x,1/2+y,-z
loop_
_atom_site_type_symbol
_atom_site_label
_atom_site_fract_x
_atom_site_fract_y
_atom_site_fract_z
Si Si1 0.601336 0.688980 0.197113
Si Si2 0.184177 0.802286 0.061335
Si Si3 0.221166 0.559177 0.381310
Si Si4 0.374654 0.266580 0.171006
Si Si5 0.883772 0.466893 0.368883
O O1 0.642942 0.816941 0.387790
O O2 0.800113 0.539883 0.402377
O O3 0.446617 0.459796 0.953222
O O4 0.146814 0.622270 0.144513
O O5 0.266750 0.555065 0.071994
O O6 0.350136 0.047193 0.260558
O O7 0.982305 0.987494 0.796309
O O8 0.402314 0.784625 0.600026
O O9 0.256596 0.094285 0.914051
O O10 0.921719 0.143542 0.405274
#
# Coordination Sequence:
#
# PCOD9119660 Si02
#       5
#     2   2   2   2   2
#     4  12  27  47  77 115 157 213 267 334 420 501
#     4  12  29  50  82 122 161 222 280 349 416 504
#     4  12  28  53  82 119 170 217 283 347 422 504
#     4  12  27  51  79 120 167 217 280 345 426 505
#     4  12  25  47  76 114 163 211 272 343 414 506
#
# _framework density 29.471578000000001
#
# number of rings (size 3 to 8) (size 9 to 14) (size 15 to 20)
#    0.000    0.000    2.000    7.200    2.800    8.000 
#    0.000    0.000    0.000    0.000    0.000    0.000 
#    0.000    0.000    0.000    0.000    0.000    0.000 
#
# Total GULP energy -55789.598100 kJ/mol
# GULP energy per Si atom -5578.959810 kJ/mol
# Density = 2.940450 g / cm^3
# Si number density = 29.471578 Si / 1000 Ang^3
#
#
#
# Elastic Constant Matrix: (Units=GPa)
#
#
# Indices 1 2 3 4 5 6 
#
# 1 113.1826 65.0146 42.1460 0.0000 29.3613 0.0000
# 2 65.0146 187.7264 53.2026 0.0000 24.0435 0.0000
# 3 42.1460 53.2026 113.3079 0.0000 25.0865 0.0000
# 4 0.0000 0.0000 0.0000 6.3828 0.0000 -0.4361
# 5 29.3613 24.0435 25.0865 0.0000 57.7109 0.0000
# 6 0.0000 0.0000 0.0000 -0.4361 0.0000 62.2829
#
#
#
# Elastic Compliance Matrix: (Units=1/GPa)
#
#
# Indices 1 2 3 4 5 6 
#
# 1 0.012571 -0.003186 -0.002277 0.000000 -0.004079 0.000000
# 2 -0.003186 0.007063 -0.002034 0.000000 -0.000437 0.000000
# 3 -0.002277 -0.002034 0.011268 0.000000 -0.002892 0.000000
# 4 0.000000 0.000000 0.000000 0.156745 0.000000 0.001097
# 5 -0.004079 -0.000437 -0.002892 0.000000 0.020842 0.000000
# 6 0.000000 0.000000 0.000000 0.001097 0.000000 0.016063
#
#
# Mechanical properties :
#
#
# Convention : Reuss Voigt Hill
#
# Bulk Modulus (GPa) = 62.86440 81.66036 72.26238
# Shear Modulus (GPa) = 20.42064 42.19891 31.30978
#
# Velocity S-wave (km/s) = 2.63514 3.78809 3.26294
# Velocity P-wave (km/s) = 5.53493 6.84844 6.22642
#
# Compressibility (1/GPa) = 0.01590725
#
# Stress axis : x y z
#
# Youngs Moduli (GPa) = 79.54552 141.58512 88.74676
#
# Poissons Ratio (x) = 0.45110 0.20208
# Poissons Ratio (y) = 0.25344 0.18055
# Poissons Ratio (z) = 0.18113 0.28804
#
# Static dielectric constant tensor:
#      x y z
#    x 2.360210 0.000000 -0.061720 
#    y 0.000000 2.201480 0.000000 
#    z -0.061720 0.000000 2.410570 
# 
# From -- ./inp_files/12781.got.cif
#   From: 2010.05.17/outbox.cif.g08.bks.cpg/sg4_7_cif.got.tgz:12781.got - 2010.06.03 18:43:04.
