data_PCOD9119325
_publ_section_title
;
Structure prediction by ZEFSAII (Michael W. Deem and Ramdas Pophale) SiO2 
 PCOD9119325
Probable space group: P 21
;
_chemical_formula_sum "Si O2"
_cell_formula_units_Z 14
_cell_length_a 8.375339
_cell_length_b 12.784105
_cell_length_c 5.402552
_cell_angle_alpha 90.000000
_cell_angle_beta 61.461843
_cell_angle_gamma 90.000000
_cell_volume 508.174681
_symmetry_space_group_name_H-M "P 21"
_symmetry_group_IT_number 4
_symmetry_cell_setting 'monoclinic'
loop_
_space_group_symop_operation_xyz
x,y,z
-x,1/2+y,-z
loop_
_atom_site_type_symbol
_atom_site_label
_atom_site_fract_x
_atom_site_fract_y
_atom_site_fract_z
Si Si1 0.339922 0.487940 0.950768
Si Si2 0.543502 0.536680 0.295856
Si Si3 0.918647 0.155966 0.082625
Si Si4 0.841767 0.337644 0.483490
Si Si5 0.810736 0.741949 0.492837
Si Si6 0.145993 0.042403 0.267786
Si Si7 0.436988 0.286778 0.716444
O O1 0.479669 0.499096 0.612896
O O2 0.202996 0.582498 0.996507
O O3 0.292142 0.363632 0.964891
O O4 0.413479 0.505785 0.167397
O O5 0.542422 0.662151 0.303554
O O6 0.737144 0.496400 0.046078
O O7 0.850486 0.268359 0.227478
O O8 0.959385 0.084204 0.291983
O O9 0.104537 0.182995 0.808700
O O10 0.872676 0.460813 0.498059
O O11 0.628920 0.319656 0.700235
O O12 0.006524 0.294502 0.533110
O O13 0.754727 0.647670 0.713466
O O14 0.638083 0.803051 0.511968
#
# Coordination Sequence:
#
# PCOD9119325 Si02
#       7
#     2   2   2   2   2   2   2
#     4  12  28  47  79 115 151 208 260 322 396 465
#     4  12  26  50  74 115 155 197 267 324 380 471
#     4  11  25  47  73 106 156 197 257 323 383 473
#     4  11  25  46  72 112 147 207 257 321 385 463
#     4  11  26  49  71 110 159 199 260 323 384 475
#     4  11  25  47  73 105 155 203 252 329 394 451
#     4  12  25  48  78 111 149 209 257 320 392 462
#
# _framework density 27.549583999999999
#
# number of rings (size 3 to 8) (size 9 to 14) (size 15 to 20)
#    0.000    0.571    4.286    2.571    2.000    5.714 
#    0.000    0.000    0.000    0.000    0.000    0.000 
#    0.000    0.000    0.000    0.000    0.000    0.000 
#
# Total GULP energy -78209.821809 kJ/mol
# GULP energy per Si atom -5586.415843 kJ/mol
# Density = 2.748688 g / cm^3
# Si number density = 27.549584 Si / 1000 Ang^3
#
#
#
# Elastic Constant Matrix: (Units=GPa)
#
#
# Indices 1 2 3 4 5 6 
#
# 1 130.3838 56.6482 34.7294 0.0000 37.4456 0.0000
# 2 56.6482 151.7132 17.9538 0.0000 18.1461 0.0000
# 3 34.7294 17.9538 102.9700 0.0000 -0.6776 0.0000
# 4 0.0000 0.0000 0.0000 38.5701 0.0000 10.6894
# 5 37.4456 18.1461 -0.6776 0.0000 39.8431 0.0000
# 6 0.0000 0.0000 0.0000 10.6894 0.0000 45.8200
#
#
#
# Elastic Compliance Matrix: (Units=1/GPa)
#
#
# Indices 1 2 3 4 5 6 
#
# 1 0.013311 -0.003163 -0.004011 0.000000 -0.011138 0.000000
# 2 -0.003163 0.007884 -0.000312 0.000000 -0.000623 0.000000
# 3 -0.004011 -0.000312 0.011146 0.000000 0.004101 0.000000
# 4 0.000000 0.000000 0.000000 0.027719 0.000000 -0.006467
# 5 -0.011138 -0.000623 0.004101 0.000000 0.035919 0.000000
# 6 0.000000 0.000000 0.000000 -0.006467 0.000000 0.023333
#
#
# Mechanical properties :
#
#
# Convention : Reuss Voigt Hill
#
# Bulk Modulus (GPa) = 57.57706 67.08109 62.32908
# Shear Modulus (GPa) = 35.69514 43.22900 39.46207
#
# Velocity S-wave (km/s) = 3.60345 3.96553 3.78881
# Velocity P-wave (km/s) = 6.18530 6.73567 6.46634
#
# Compressibility (1/GPa) = 0.01736803
#
# Stress axis : x y z
#
# Youngs Moduli (GPa) = 75.12441 126.83956 89.71956
#
# Poissons Ratio (x) = 0.40125 0.35989
# Poissons Ratio (y) = 0.23765 0.02797
# Poissons Ratio (z) = 0.30135 0.03955
#
# Static dielectric constant tensor:
#      x y z
#    x 2.166610 0.000000 -0.046120 
#    y 0.000000 2.206050 0.000000 
#    z -0.046120 0.000000 2.179020 
# 
# From -- ./inp_files/1118.got.cif
#   From: 2010.05.17/outbox.cif.g08.bks.cpg/sg4_1_cif.got.tgz:1118.got - 2010.06.03 18:43:04.
