data_PCOD9119919
_publ_section_title
;
Structure prediction by ZEFSAII (Michael W. Deem and Ramdas Pophale) SiO2 
 PCOD9119919
Probable space group: C 2
;
_chemical_formula_sum "Si O2"
_cell_formula_units_Z 24
_cell_length_a 17.413471
_cell_length_b 8.213806
_cell_length_c 16.474323
_cell_angle_alpha 90.000000
_cell_angle_beta 146.937314
_cell_angle_gamma 90.000000
_cell_volume 1285.514334
_symmetry_space_group_name_H-M "C 2"
_symmetry_group_IT_number 5
_symmetry_cell_setting 'monoclinic'
loop_
_space_group_symop_operation_xyz
x,y,z
-x,y,-z
1/2+x,1/2+y,z
1/2-x,1/2+y,-z
loop_
_atom_site_type_symbol
_atom_site_label
_atom_site_fract_x
_atom_site_fract_y
_atom_site_fract_z
Si Si1 0.000000 0.716881 0.000000
Si Si2 0.591603 0.636197 0.745311
Si Si3 0.768768 0.938469 0.857889
Si Si4 0.500000 0.464301 0.500000
Si Si5 0.256076 0.733031 0.738035
Si Si6 0.500389 0.636672 0.166034
Si Si7 0.123587 0.449712 0.012136
O O1 0.861669 0.826946 0.879066
O O2 0.980376 0.598176 0.059475
O O3 0.652110 0.819620 0.791638
O O4 0.534890 0.574396 0.608807
O O5 0.486846 0.606315 0.727192
O O6 0.730163 0.527486 0.885871
O O7 0.704660 0.088645 0.751541
O O8 0.887192 0.013787 0.023855
O O9 0.630744 0.345468 0.595945
O O10 0.357933 0.653203 0.761269
O O11 0.345481 0.850972 0.876968
O O12 0.433544 0.816555 0.098985
#
# Coordination Sequence:
#
# PCOD9119919 Si02
#       7
#     2   4   4   2   4   4   4
#     4  10  14  28  52  90 114 136 174 216 292 346
#     4  10  22  35  58  83 124 146 192 233 278 346
#     4  10  19  33  60  92 111 142 182 245 295 335
#     4  10  24  44  54  74 114 180 192 210 280 348
#     4  10  19  37  60  76 115 153 198 219 276 353
#     4  11  18  35  59  93 114 139 187 251 293 325
#     4   9  17  31  56  85 117 151 168 231 303 345
#
# _framework density 18.669568999999999
#
# number of rings (size 3 to 8) (size 9 to 14) (size 15 to 20)
#    0.000    2.000    3.333    2.000    0.000    0.667 
#    0.000    3.333    0.000    0.000    0.000    0.000 
#    0.000    0.000    0.000    0.000    0.000    0.000 
#
# Total GULP energy -66861.154592 kJ/mol
# GULP energy per Si atom -5571.762883 kJ/mol
# Density = 1.862708 g / cm^3
# Si number density = 18.669569 Si / 1000 Ang^3
#
#
#
# Elastic Constant Matrix: (Units=GPa)
#
#
# Indices 1 2 3 4 5 6 
#
# 1 109.7977 24.4896 28.1735 0.0000 -10.0042 0.0000
# 2 24.4896 94.5066 24.1800 0.0000 -2.8645 0.0000
# 3 28.1735 24.1800 50.5811 0.0000 -6.4057 0.0000
# 4 0.0000 0.0000 0.0000 21.3092 0.0000 11.3069
# 5 -10.0042 -2.8645 -6.4057 0.0000 15.2899 0.0000
# 6 0.0000 0.0000 0.0000 11.3069 0.0000 17.6819
#
#
#
# Elastic Compliance Matrix: (Units=1/GPa)
#
#
# Indices 1 2 3 4 5 6 
#
# 1 0.011141 -0.001492 -0.004863 0.000000 0.004973 0.000000
# 2 -0.001492 0.012256 -0.005133 0.000000 -0.000831 0.000000
# 3 -0.004863 -0.005133 0.025775 0.000000 0.006655 0.000000
# 4 0.000000 0.000000 0.000000 0.071029 0.000000 -0.045420
# 5 0.004973 -0.000831 0.006655 0.000000 0.071289 0.000000
# 6 0.000000 0.000000 0.000000 -0.045420 0.000000 0.085600
#
#
# Mechanical properties :
#
#
# Convention : Reuss Voigt Hill
#
# Bulk Modulus (GPa) = 38.17201 45.39684 41.78442
# Shear Modulus (GPa) = 16.19179 22.72567 19.45873
#
# Velocity S-wave (km/s) = 2.94816 3.49271 3.23192
# Velocity P-wave (km/s) = 5.66387 6.37449 6.02965
#
# Compressibility (1/GPa) = 0.02619721
#
# Stress axis : x y z
#
# Youngs Moduli (GPa) = 89.75613 81.59214 38.79685
#
# Poissons Ratio (x) = 0.12175 0.18865
# Poissons Ratio (y) = 0.13394 0.19914
# Poissons Ratio (z) = 0.43644 0.41881
#
# Static dielectric constant tensor:
#      x y z
#    x 1.678000 0.000000 0.012350 
#    y 0.000000 1.675530 0.000000 
#    z 0.012350 0.000000 1.634040 
# 
# From -- ./inp_files/26470.got.cif
#   From: 2010.05.17/outbox.cif.g08.bks.cpg/sg5_14_cif.got.tgz:26470.got - 2010.06.03 18:56:24.
