data_PCOD9119329
_publ_section_title
;
Structure prediction by ZEFSAII (Michael W. Deem and Ramdas Pophale) SiO2 
 PCOD9119329
Probable space group: P 21
;
_chemical_formula_sum "Si O2"
_cell_formula_units_Z 14
_cell_length_a 8.177178
_cell_length_b 14.301918
_cell_length_c 4.828106
_cell_angle_alpha 90.000000
_cell_angle_beta 103.692375
_cell_angle_gamma 90.000000
_cell_volume 548.596938
_symmetry_space_group_name_H-M "P 21"
_symmetry_group_IT_number 4
_symmetry_cell_setting 'monoclinic'
loop_
_space_group_symop_operation_xyz
x,y,z
-x,1/2+y,-z
loop_
_atom_site_type_symbol
_atom_site_label
_atom_site_fract_x
_atom_site_fract_y
_atom_site_fract_z
Si Si1 0.330234 0.531500 0.107321
Si Si2 0.135942 0.926829 0.404636
Si Si3 0.966333 0.113891 0.357182
Si Si4 0.462876 0.213866 0.707914
Si Si5 0.058009 0.401327 0.189109
Si Si6 0.470641 0.843238 0.781625
Si Si7 0.890797 0.716024 0.119945
O O1 0.444915 0.613646 0.278467
O O2 0.434075 0.437464 0.075408
O O3 0.190575 0.484921 0.250799
O O4 0.214143 0.575896 0.819257
O O5 0.994948 0.872053 0.528562
O O6 0.310110 0.885176 0.561924
O O7 0.102201 0.928535 0.064980
O O8 0.090093 0.029644 0.494229
O O9 0.961702 0.186894 0.605312
O O10 0.060464 0.154777 0.126824
O O11 0.449464 0.273446 0.419514
O O12 0.281729 0.200294 0.781394
O O13 0.564875 0.278199 0.968466
O O14 0.124680 0.316667 0.031197
#
# Coordination Sequence:
#
# PCOD9119329 Si02
#       7
#     2   2   2   2   2   2   2
#     4  11  28  51  75 114 155 200 261 323 385 464
#     4  11  25  47  72 109 150 200 249 312 383 461
#     4  11  26  46  79 109 147 203 259 320 384 462
#     4  12  29  48  79 113 154 207 256 319 394 470
#     4  11  25  46  74 107 155 198 252 323 380 453
#     4  12  28  50  75 114 155 202 255 323 397 455
#     4  12  25  48  74 114 150 202 258 322 387 461
#
# _framework density 25.519646000000002
#
# number of rings (size 3 to 8) (size 9 to 14) (size 15 to 20)
#    0.000    0.571    1.429    5.143    8.000    5.714 
#    0.000    0.000    0.000    0.000    0.000    0.000 
#    0.000    0.000    0.000    0.000    0.000    0.000 
#
# Total GULP energy -78294.497444 kJ/mol
# GULP energy per Si atom -5592.464103 kJ/mol
# Density = 2.546156 g / cm^3
# Si number density = 25.519646 Si / 1000 Ang^3
#
#
#
# Elastic Constant Matrix: (Units=GPa)
#
#
# Indices 1 2 3 4 5 6 
#
# 1 64.8614 40.7497 21.7001 0.0000 -2.0717 0.0000
# 2 40.7497 177.6718 55.8327 0.0000 4.9510 0.0000
# 3 21.7001 55.8327 116.4654 0.0000 -24.5983 0.0000
# 4 0.0000 0.0000 0.0000 40.6900 0.0000 5.4770
# 5 -2.0717 4.9510 -24.5983 0.0000 35.6708 0.0000
# 6 0.0000 0.0000 0.0000 5.4770 0.0000 44.1298
#
#
#
# Elastic Compliance Matrix: (Units=1/GPa)
#
#
# Indices 1 2 3 4 5 6 
#
# 1 0.018285 -0.003738 -0.001500 0.000000 0.000547 0.000000
# 2 -0.003738 0.007821 -0.003895 0.000000 -0.003989 0.000000
# 3 -0.001500 -0.003895 0.012675 0.000000 0.009194 0.000000
# 4 0.000000 0.000000 0.000000 0.024994 0.000000 -0.003102
# 5 0.000547 -0.003989 0.009194 0.000000 0.034960 0.000000
# 6 0.000000 0.000000 0.000000 -0.003102 0.000000 0.023045
#
#
# Mechanical properties :
#
#
# Convention : Reuss Voigt Hill
#
# Bulk Modulus (GPa) = 48.74382 66.17375 57.45878
# Shear Modulus (GPa) = 34.04072 40.14587 37.09330
#
# Velocity S-wave (km/s) = 3.65623 3.97058 3.81664
# Velocity P-wave (km/s) = 6.07996 6.85620 6.47972
#
# Compressibility (1/GPa) = 0.02051542
#
# Stress axis : x y z
#
# Youngs Moduli (GPa) = 54.68995 127.86346 78.89630
#
# Poissons Ratio (x) = 0.47792 0.11831
# Poissons Ratio (y) = 0.20441 0.30732
# Poissons Ratio (z) = 0.08201 0.49807
#
# Static dielectric constant tensor:
#      x y z
#    x 2.068140 0.000000 0.038430 
#    y 0.000000 2.086440 0.000000 
#    z 0.038430 0.000000 1.936190 
# 
# From -- ./inp_files/1663.got.cif
#   From: 2010.05.17/outbox.cif.g08.bks.cpg/sg4_1_cif.got.tgz:1663.got - 2010.06.03 18:43:04.
