data_PCOD9119522
_publ_section_title
;
Structure prediction by ZEFSAII (Michael W. Deem and Ramdas Pophale) SiO2 
 PCOD9119522
Probable space group: P 21
;
_chemical_formula_sum "Si O2"
_cell_formula_units_Z 16
_cell_length_a 21.679941
_cell_length_b 5.516273
_cell_length_c 13.881449
_cell_angle_alpha 90.000000
_cell_angle_beta 158.712613
_cell_angle_gamma 90.000000
_cell_volume 602.698970
_symmetry_space_group_name_H-M "P 21"
_symmetry_group_IT_number 4
_symmetry_cell_setting 'monoclinic'
loop_
_space_group_symop_operation_xyz
x,y,z
-x,1/2+y,-z
loop_
_atom_site_type_symbol
_atom_site_label
_atom_site_fract_x
_atom_site_fract_y
_atom_site_fract_z
Si Si1 0.840115 0.683850 0.216576
Si Si2 0.104072 0.142935 0.378721
Si Si3 0.435131 0.010089 0.948105
Si Si4 0.098860 0.944237 0.157166
Si Si5 0.736253 0.960089 0.889908
Si Si6 0.631096 0.595869 0.588068
Si Si7 0.179917 0.505601 0.635856
Si Si8 0.581881 0.312626 0.888375
O O1 0.854063 0.769863 0.345722
O O2 0.022648 0.670642 0.435584
O O3 0.741664 0.876550 0.008586
O O4 0.740796 0.432404 0.065340
O O5 0.143089 0.056959 0.326797
O O6 0.155339 0.412821 0.491060
O O7 0.236161 0.979655 0.632418
O O8 0.903853 0.115269 0.110672
O O9 0.518541 0.775361 0.021998
O O10 0.480902 0.012097 0.127099
O O11 0.251234 0.908239 0.300315
O O12 0.987615 0.178151 0.956973
O O13 0.748322 0.738168 0.833274
O O14 0.540303 0.045164 0.599134
O O15 0.558415 0.749198 0.392526
O O16 0.346111 0.615234 0.930610
#
# Coordination Sequence:
#
# PCOD9119522 Si02
#       8
#     2   2   2   2   2   2   2   2
#     4  12  23  42  74 113 164 201 271 336 425 497
#     4  12  27  52  85 120 167 219 284 352 427 517
#     4  12  28  50  78 120 164 219 278 347 427 510
#     4  12  31  57  84 118 166 224 286 349 422 508
#     4  12  27  49  79 124 161 224 284 355 423 501
#     4  12  28  51  79 119 166 218 289 348 425 505
#     4  12  23  44  74 119 159 209 266 344 421 508
#     4  12  25  45  71 113 155 212 268 341 424 496
#
# _framework density 26.547248
#
# number of rings (size 3 to 8) (size 9 to 14) (size 15 to 20)
#    0.000    0.000    5.000    4.500    3.500    5.000 
#    0.000    0.000    0.000    0.000    0.000    0.000 
#    0.000    0.000    0.000    0.000    0.000    0.000 
#
# Total GULP energy -89393.083438 kJ/mol
# GULP energy per Si atom -5587.067715 kJ/mol
# Density = 2.648682 g / cm^3
# Si number density = 26.547248 Si / 1000 Ang^3
#
#
#
# Elastic Constant Matrix: (Units=GPa)
#
#
# Indices 1 2 3 4 5 6 
#
# 1 95.5586 -2.0882 21.1932 0.0000 3.0672 0.0000
# 2 -2.0882 72.5001 17.5048 0.0000 11.3624 0.0000
# 3 21.1932 17.5048 56.5341 0.0000 10.0910 0.0000
# 4 0.0000 0.0000 0.0000 49.7880 0.0000 -0.8683
# 5 3.0672 11.3624 10.0910 0.0000 57.4554 0.0000
# 6 0.0000 0.0000 0.0000 -0.8683 0.0000 48.0165
#
#
#
# Elastic Compliance Matrix: (Units=1/GPa)
#
#
# Indices 1 2 3 4 5 6 
#
# 1 0.011561 0.001500 -0.004785 0.000000 -0.000073 0.000000
# 2 0.001500 0.015378 -0.004921 0.000000 -0.002257 0.000000
# 3 -0.004785 -0.004921 0.021459 0.000000 -0.002540 0.000000
# 4 0.000000 0.000000 0.000000 0.020091 0.000000 0.000363
# 5 -0.000073 -0.002257 -0.002540 0.000000 0.018301 0.000000
# 6 0.000000 0.000000 0.000000 0.000363 0.000000 0.020833
#
#
# Mechanical properties :
#
#
# Convention : Reuss Voigt Hill
#
# Bulk Modulus (GPa) = 31.26372 33.09028 32.17700
# Shear Modulus (GPa) = 37.11975 43.58418 40.35196
#
# Velocity S-wave (km/s) = 3.74338 4.05626 3.90295
# Velocity P-wave (km/s) = 5.52142 5.86765 5.69717
#
# Compressibility (1/GPa) = 0.03198596
#
# Stress axis : x y z
#
# Youngs Moduli (GPa) = 86.49615 65.02731 46.59943
#
# Poissons Ratio (x) = -0.09753 0.22299
# Poissons Ratio (y) = -0.12973 0.22932
# Poissons Ratio (z) = 0.41391 0.32000
#
# Static dielectric constant tensor:
#      x y z
#    x 2.116740 0.000000 0.107770 
#    y 0.000000 2.195440 0.000000 
#    z 0.107770 0.000000 2.092670 
# 
# From -- ./inp_files/13583.got.cif
#   From: 2010.05.17/outbox.cif.g08.bks.cpg/sg4_7_cif.got.tgz:13583.got - 2010.06.03 18:43:04.
