data_PCOD9119928
_publ_section_title
;
Structure prediction by ZEFSAII (Michael W. Deem and Ramdas Pophale) SiO2 
 PCOD9119928
Probable space group: C 2
;
_chemical_formula_sum "Si O2"
_cell_formula_units_Z 26
_cell_length_a 7.830166
_cell_length_b 30.237566
_cell_length_c 7.014065
_cell_angle_alpha 90.000000
_cell_angle_beta 136.500743
_cell_angle_gamma 90.000000
_cell_volume 1143.125344
_symmetry_space_group_name_H-M "C 2"
_symmetry_group_IT_number 5
_symmetry_cell_setting 'monoclinic'
loop_
_space_group_symop_operation_xyz
x,y,z
-x,y,-z
1/2+x,1/2+y,z
1/2-x,1/2+y,-z
loop_
_atom_site_type_symbol
_atom_site_label
_atom_site_fract_x
_atom_site_fract_y
_atom_site_fract_z
Si Si1 0.693196 0.671650 0.931521
Si Si2 0.792563 0.264953 0.178692
Si Si3 0.500000 0.388366 0.500000
Si Si4 0.426371 0.943667 0.715402
Si Si5 0.260926 0.361985 0.940923
Si Si6 0.214300 0.535989 0.336781
Si Si7 0.700704 0.136595 0.419801
O O1 0.707336 0.724413 0.967641
O O2 0.411478 0.656691 0.724257
O O3 0.748360 0.656430 0.753549
O O4 0.916519 0.648753 0.223597
O O5 0.000000 0.250464 0.500000
O O6 0.500000 0.267225 0.000000
O O7 0.872475 0.315118 0.196232
O O8 0.663851 0.419356 0.499042
O O9 0.332615 0.361217 0.221681
O O10 0.384183 0.994082 0.620964
O O11 0.500000 0.946887 0.000000
O O12 0.616616 0.907843 0.787224
O O13 0.500000 0.362028 0.000000
O O14 0.500000 0.525455 0.500000
O O15 0.231575 0.583805 0.445197
O O16 0.000000 0.541482 0.000000
#
# Coordination Sequence:
#
# PCOD9119928 Si02
#       7
#     4   4   2   4   4   4   4
#     4  10  15  26  41  69 111 148 181 237 291 348
#     4  11  20  32  51  79 114 158 195 238 301 351
#     4  10  20  42  58  82 118 156 200 256 296 350
#     4   9  20  35  53  79 115 157 200 248 294 356
#     4  10  24  38  61  85 117 167 203 250 301 355
#     4  11  17  27  47  74 107 157 189 232 307 349
#     4  10  15  24  41  69 109 150 180 235 297 347
#
# _framework density 22.744665000000001
#
# number of rings (size 3 to 8) (size 9 to 14) (size 15 to 20)
#    0.000    1.846    6.923    0.000    4.308    0.000 
#    0.000    0.000    0.000    0.000    0.000    0.000 
#    0.000    6.154    0.615    0.000    0.000    0.000 
#
# Total GULP energy -72469.818918 kJ/mol
# GULP energy per Si atom -5574.601455 kJ/mol
# Density = 2.269290 g / cm^3
# Si number density = 22.744665 Si / 1000 Ang^3
#
#
#
# Elastic Constant Matrix: (Units=GPa)
#
#
# Indices 1 2 3 4 5 6 
#
# 1 78.9978 34.4420 21.7635 0.0000 22.2699 0.0000
# 2 34.4420 211.0657 23.4195 0.0000 17.7362 0.0000
# 3 21.7635 23.4195 132.6699 0.0000 27.2814 0.0000
# 4 0.0000 0.0000 0.0000 -4.5636 0.0000 8.7850
# 5 22.2699 17.7362 27.2814 0.0000 36.6923 0.0000
# 6 0.0000 0.0000 0.0000 8.7850 0.0000 11.7985
#
#
#
# Elastic Compliance Matrix: (Units=1/GPa)
#
#
# Indices 1 2 3 4 5 6 
#
# 1 0.015982 -0.001840 -0.000573 0.000000 -0.008385 0.000000
# 2 -0.001840 0.005173 -0.000386 0.000000 -0.001097 0.000000
# 3 -0.000573 -0.000386 0.008960 0.000000 -0.006128 0.000000
# 4 0.000000 0.000000 0.000000 -0.090051 0.000000 0.067051
# 5 -0.008385 -0.001097 -0.006128 0.000000 0.037429 0.000000
# 6 0.000000 0.000000 0.000000 0.067051 0.000000 0.034831
#
#
# Mechanical properties :
#
#
# Convention : Reuss Voigt Hill
#
# Bulk Modulus (GPa) = 40.78599 64.66483 52.72541
# Shear Modulus (GPa) = 191.61348 31.65933 111.63641
#
# Velocity S-wave (km/s) = 9.18849 3.73493 7.01349
# Velocity P-wave (km/s) = 11.42551 6.86236 9.42428
#
# Compressibility (1/GPa) = 0.02451822
#
# Stress axis : x y z
#
# Youngs Moduli (GPa) = 62.56919 193.30833 111.61233
#
# Poissons Ratio (x) = 0.35566 0.06393
# Poissons Ratio (y) = 0.11512 0.04306
# Poissons Ratio (z) = 0.03584 0.07457
#
# Static dielectric constant tensor:
#      x y z
#    x 1.917340 0.000000 -0.018590 
#    y 0.000000 1.826670 0.000000 
#    z -0.018590 0.000000 1.921170 
# 
# From -- ./inp_files/17471.got.cif
#   From: 2010.05.17/outbox.cif.g08.bks.cpg/sg5_9_cif.got.tgz:17471.got - 2010.06.03 18:56:24.
