data_PCOD9119777
_publ_section_title
;
Structure prediction by ZEFSAII (Michael W. Deem and Ramdas Pophale) SiO2 
 PCOD9119777
Probable space group: P 21
;
_chemical_formula_sum "Si O2"
_cell_formula_units_Z 16
_cell_length_a 9.910928
_cell_length_b 8.978253
_cell_length_c 13.044287
_cell_angle_alpha 90.000000
_cell_angle_beta 145.639044
_cell_angle_gamma 90.000000
_cell_volume 655.114259
_symmetry_space_group_name_H-M "P 21"
_symmetry_group_IT_number 4
_symmetry_cell_setting 'monoclinic'
loop_
_space_group_symop_operation_xyz
x,y,z
-x,1/2+y,-z
loop_
_atom_site_type_symbol
_atom_site_label
_atom_site_fract_x
_atom_site_fract_y
_atom_site_fract_z
Si Si1 0.001603 0.051490 0.285614
Si Si2 0.304518 0.903889 0.137513
Si Si3 0.825599 0.289466 0.307850
Si Si4 0.876581 0.068060 0.969736
Si Si5 0.422248 0.353643 0.898002
Si Si6 0.972972 0.615990 0.390734
Si Si7 0.500256 0.901090 0.622532
Si Si8 0.628990 0.069479 0.499050
O O1 0.011241 0.212131 0.345274
O O2 0.761587 0.978233 0.179944
O O3 0.977730 0.060443 0.148665
O O4 0.226751 0.953151 0.458235
O O5 0.216427 0.735681 0.106128
O O6 0.404864 0.905126 0.085082
O O7 0.513579 0.955808 0.345188
O O8 0.084368 0.013640 0.023670
O O9 0.910830 0.453020 0.389848
O O10 0.831669 0.190001 0.412592
O O11 0.580683 0.303378 0.093179
O O12 0.657609 0.952214 0.817530
O O13 0.260804 0.217111 0.757373
O O14 0.096747 0.600179 0.358485
O O15 0.505839 0.727635 0.597786
O O16 0.602037 0.998781 0.592716
#
# Coordination Sequence:
#
# PCOD9119777 Si02
#       8
#     2   2   2   2   2   2   2   2
#     4  12  27  54  78 118 164 213 276 333 414 485
#     4  12  27  55  81 124 159 215 282 334 412 495
#     4  12  28  50  82 117 162 212 270 341 413 484
#     4  12  29  51  82 114 169 220 270 342 406 496
#     4  12  28  54  83 121 159 213 276 348 407 493
#     4  12  29  49  82 120 161 214 272 342 415 491
#     4  12  29  50  80 116 165 221 269 340 406 493
#     4  12  27  51  80 118 165 216 273 336 413 493
#
# _framework density 24.423219
#
# number of rings (size 3 to 8) (size 9 to 14) (size 15 to 20)
#    0.000    0.000    3.750    4.500    8.750    0.000 
#    2.250    0.000    0.000    0.000    0.000    0.000 
#    0.000    0.000    0.000    0.000    0.000    0.000 
#
# Total GULP energy -89803.908947 kJ/mol
# GULP energy per Si atom -5612.744309 kJ/mol
# Density = 2.436763 g / cm^3
# Si number density = 24.423219 Si / 1000 Ang^3
#
#
#
# Elastic Constant Matrix: (Units=GPa)
#
#
# Indices 1 2 3 4 5 6 
#
# 1 152.8008 56.5594 33.6045 0.0000 5.0847 0.0000
# 2 56.5594 131.1210 40.1255 0.0000 -0.4772 0.0000
# 3 33.6045 40.1255 82.3589 0.0000 -5.0968 0.0000
# 4 0.0000 0.0000 0.0000 35.6455 0.0000 6.6696
# 5 5.0847 -0.4772 -5.0968 0.0000 30.6380 0.0000
# 6 0.0000 0.0000 0.0000 6.6696 0.0000 44.1699
#
#
#
# Elastic Compliance Matrix: (Units=1/GPa)
#
#
# Indices 1 2 3 4 5 6 
#
# 1 0.008114 -0.002892 -0.002009 0.000000 -0.001726 0.000000
# 2 -0.002892 0.010004 -0.003693 0.000000 0.000021 0.000000
# 3 -0.002009 -0.003693 0.014932 0.000000 0.002760 0.000000
# 4 0.000000 0.000000 0.000000 0.028870 0.000000 -0.004359
# 5 -0.001726 0.000021 0.002760 0.000000 0.033385 0.000000
# 6 0.000000 0.000000 0.000000 -0.004359 0.000000 0.023298
#
#
# Mechanical properties :
#
#
# Convention : Reuss Voigt Hill
#
# Bulk Modulus (GPa) = 63.03870 69.65106 66.34488
# Shear Modulus (GPa) = 35.44181 37.82343 36.63262
#
# Velocity S-wave (km/s) = 3.81353 3.93958 3.87707
# Velocity P-wave (km/s) = 6.72738 7.01954 6.87502
#
# Compressibility (1/GPa) = 0.01586327
#
# Stress axis : x y z
#
# Youngs Moduli (GPa) = 123.24404 99.96025 66.97236
#
# Poissons Ratio (x) = 0.28904 0.13453
# Poissons Ratio (y) = 0.35637 0.24732
# Poissons Ratio (z) = 0.24757 0.36913
#
# Static dielectric constant tensor:
#      x y z
#    x 1.944350 0.000000 0.009760 
#    y 0.000000 1.930580 0.000000 
#    z 0.009760 0.000000 1.908470 
# 
# From -- ./inp_files/11111.got.cif
#   From: 2010.05.17/outbox.cif.g08.bks.cpg/sg4_6_cif.got.tgz:11111.got - 2010.06.03 18:43:04.
