data_PCOD9119747
_publ_section_title
;
Structure prediction by ZEFSAII (Michael W. Deem and Ramdas Pophale) SiO2 
 PCOD9119747
Probable space group: P 21
;
_chemical_formula_sum "Si O2"
_cell_formula_units_Z 12
_cell_length_a 19.896275
_cell_length_b 4.901423
_cell_length_c 5.088422
_cell_angle_alpha 90.000000
_cell_angle_beta 75.797062
_cell_angle_gamma 90.000000
_cell_volume 481.055049
_symmetry_space_group_name_H-M "P 21"
_symmetry_group_IT_number 4
_symmetry_cell_setting 'monoclinic'
loop_
_space_group_symop_operation_xyz
x,y,z
-x,1/2+y,-z
loop_
_atom_site_type_symbol
_atom_site_label
_atom_site_fract_x
_atom_site_fract_y
_atom_site_fract_z
Si Si1 0.633888 0.704480 0.426843
Si Si2 0.849333 0.580314 0.251059
Si Si3 0.725713 0.199899 0.218080
Si Si4 0.454844 0.294467 0.990300
Si Si5 0.829196 0.965635 0.769909
Si Si6 0.045204 0.823214 0.515777
O O1 0.666087 0.425152 0.287189
O O2 0.600637 0.685445 0.745078
O O3 0.694383 0.928495 0.372167
O O4 0.576780 0.798505 0.269525
O O5 0.791772 0.343416 0.289321
O O6 0.923012 0.443318 0.246519
O O7 0.888535 0.194300 0.694029
O O8 0.844815 0.766054 0.999016
O O9 0.756006 0.108536 0.906274
O O10 0.480170 0.591012 0.054861
O O11 0.833267 0.778569 0.510893
O O12 0.007855 0.073872 0.408462
#
# Coordination Sequence:
#
# PCOD9119747 Si02
#       6
#     2   2   2   2   2   2
#     4  12  28  45  82 113 150 208 254 312 376 464
#     4  12  28  55  79 112 159 207 252 340 398 458
#     4  12  28  51  76 119 154 196 266 316 394 460
#     4  12  26  50  76 112 160 202 252 310 372 444
#     4  12  28  55  79 112 159 207 252 340 398 458
#     4  12  28  54  78 114 152 208 270 322 396 488
#
# _framework density 24.945170000000001
#
# number of rings (size 3 to 8) (size 9 to 14) (size 15 to 20)
#    0.000    0.000    3.333    5.000    2.333    2.667 
#    9.000    0.000    0.000    0.000    0.000    0.000 
#    0.000    0.000    0.000    0.000    0.000    0.000 
#
# Total GULP energy -67350.034807 kJ/mol
# GULP energy per Si atom -5612.502901 kJ/mol
# Density = 2.488839 g / cm^3
# Si number density = 24.945170 Si / 1000 Ang^3
#
#
#
# Elastic Constant Matrix: (Units=GPa)
#
#
# Indices 1 2 3 4 5 6 
#
# 1 43.4534 1.4803 -1.8789 0.0000 13.7472 0.0000
# 2 1.4803 131.3955 24.8802 0.0000 6.9031 0.0000
# 3 -1.8789 24.8802 102.5466 0.0000 10.9210 0.0000
# 4 0.0000 0.0000 0.0000 47.7058 0.0000 -15.6009
# 5 13.7472 6.9031 10.9210 0.0000 41.7672 0.0000
# 6 0.0000 0.0000 0.0000 -15.6009 0.0000 61.1335
#
#
#
# Elastic Compliance Matrix: (Units=1/GPa)
#
#
# Indices 1 2 3 4 5 6 
#
# 1 0.025889 -0.000098 0.001444 0.000000 -0.008882 0.000000
# 2 -0.000098 0.008006 -0.001859 0.000000 -0.000805 0.000000
# 3 0.001444 -0.001859 0.010540 0.000000 -0.002924 0.000000
# 4 0.000000 0.000000 0.000000 0.022870 0.000000 0.005836
# 5 -0.008882 -0.000805 -0.002924 0.000000 0.027763 0.000000
# 6 0.000000 0.000000 0.000000 0.005836 0.000000 0.017847
#
#
# Mechanical properties :
#
#
# Convention : Reuss Voigt Hill
#
# Bulk Modulus (GPa) = 23.03625 36.26210 29.64917
# Shear Modulus (GPa) = 38.93722 46.98224 42.95973
#
# Velocity S-wave (km/s) = 3.95512 4.34455 4.15440
# Velocity P-wave (km/s) = 5.48745 6.30358 5.90962
#
# Compressibility (1/GPa) = 0.04340985
#
# Stress axis : x y z
#
# Youngs Moduli (GPa) = 38.62638 124.90758 94.87246
#
# Poissons Ratio (x) = 0.01230 -0.13702
# Poissons Ratio (y) = 0.00380 0.17632
# Poissons Ratio (z) = -0.05578 0.23214
#
# Static dielectric constant tensor:
#      x y z
#    x 1.984930 0.000000 -0.022710 
#    y 0.000000 1.933000 0.000000 
#    z -0.022710 0.000000 1.963300 
# 
# From -- ./inp_files/4222.got.cif
#   From: 2010.05.17/outbox.cif.g08.bks.cpg/sg4_3_cif.got.tgz:4222.got - 2010.06.03 18:43:04.
