data_PCOD9119236
_publ_section_title
;
Structure prediction by ZEFSAII (Michael W. Deem and Ramdas Pophale) SiO2 
 PCOD9119236
Probable space group: P 21
;
_chemical_formula_sum "Si O2"
_cell_formula_units_Z 16
_cell_length_a 8.654665
_cell_length_b 15.046849
_cell_length_c 5.783015
_cell_angle_alpha 90.000000
_cell_angle_beta 118.390260
_cell_angle_gamma 90.000000
_cell_volume 662.520402
_symmetry_space_group_name_H-M "P 21"
_symmetry_group_IT_number 4
_symmetry_cell_setting 'monoclinic'
loop_
_space_group_symop_operation_xyz
x,y,z
-x,1/2+y,-z
loop_
_atom_site_type_symbol
_atom_site_label
_atom_site_fract_x
_atom_site_fract_y
_atom_site_fract_z
Si Si1 0.426780 0.075340 0.518773
Si Si2 0.803456 0.497511 0.289667
Si Si3 0.100804 0.790494 0.593343
Si Si4 0.280938 0.642749 0.968685
Si Si5 0.691395 0.805411 0.326849
Si Si6 0.663339 0.735829 0.808059
Si Si7 0.023258 0.651008 0.177754
Si Si8 0.577595 0.997423 0.241761
O O1 0.413726 0.138508 0.289408
O O2 0.248404 0.041712 0.501449
O O3 0.541084 0.997986 0.491122
O O4 0.530764 0.131446 0.779440
O O5 0.868155 0.396406 0.378907
O O6 0.929470 0.569357 0.250816
O O7 0.613543 0.489980 0.022077
O O8 0.220260 0.741799 0.867920
O O9 0.136507 0.725550 0.398577
O O10 0.893346 0.773481 0.480967
O O11 0.299844 0.576084 0.767770
O O12 0.140466 0.610654 0.058108
O O13 0.621853 0.787255 0.539290
O O14 0.685040 0.909058 0.273707
O O15 0.613295 0.768966 0.026882
O O16 0.869413 0.713322 0.966168
#
# Coordination Sequence:
#
# PCOD9119236 Si02
#       8
#     2   2   2   2   2   2   2   2
#     4  11  25  48  72 106 152 203 251 317 387 459
#     4  11  27  47  75 108 153 205 257 316 387 460
#     4  11  26  46  73 113 149 199 257 316 387 457
#     4  11  26  46  74 107 150 197 255 315 387 456
#     4  11  27  46  76 112 152 196 260 315 384 462
#     4  11  24  48  78 104 153 203 251 313 390 457
#     4  11  24  50  75 108 148 200 255 320 382 462
#     4  11  27  47  71 112 151 201 254 318 384 457
#
# _framework density 24.150203000000001
#
# number of rings (size 3 to 8) (size 9 to 14) (size 15 to 20)
#    0.000    1.000    2.500    2.250   10.500    2.000 
#    0.000    0.000    0.000    0.000    0.000    0.000 
#    0.000    0.000    0.000    0.000    0.000    0.000 
#
# Total GULP energy -89244.640545 kJ/mol
# GULP energy per Si atom -5577.790034 kJ/mol
# Density = 2.409524 g / cm^3
# Si number density = 24.150203 Si / 1000 Ang^3
#
#
#
# Elastic Constant Matrix: (Units=GPa)
#
#
# Indices 1 2 3 4 5 6 
#
# 1 105.7090 41.0872 20.9291 0.0000 -48.4273 0.0000
# 2 41.0872 145.3695 48.8989 0.0000 -26.5149 0.0000
# 3 20.9291 48.8989 91.2933 0.0000 -20.6566 0.0000
# 4 0.0000 0.0000 0.0000 31.2823 0.0000 3.6766
# 5 -48.4273 -26.5149 -20.6566 0.0000 39.6365 0.0000
# 6 0.0000 0.0000 0.0000 3.6766 0.0000 34.2838
#
#
#
# Elastic Compliance Matrix: (Units=1/GPa)
#
#
# Indices 1 2 3 4 5 6 
#
# 1 0.022067 -0.002076 0.002085 0.000000 0.026659 0.000000
# 2 -0.002076 0.009096 -0.004074 0.000000 0.001426 0.000000
# 3 0.002085 -0.004074 0.014304 0.000000 0.007277 0.000000
# 4 0.000000 0.000000 0.000000 0.032375 0.000000 -0.003472
# 5 0.026659 0.001426 0.007277 0.000000 0.062547 0.000000
# 6 0.000000 0.000000 0.000000 -0.003472 0.000000 0.029541
#
#
# Mechanical properties :
#
#
# Convention : Reuss Voigt Hill
#
# Bulk Modulus (GPa) = 26.78201 62.68915 44.73558
# Shear Modulus (GPa) = 26.24602 36.47097 31.35849
#
# Velocity S-wave (km/s) = 3.30021 3.89031 3.60735
# Velocity P-wave (km/s) = 5.06317 6.79660 5.99289
#
# Compressibility (1/GPa) = 0.03733849
#
# Stress axis : x y z
#
# Youngs Moduli (GPa) = 45.31643 109.93812 69.90959
#
# Poissons Ratio (x) = 0.22822 -0.14577
# Poissons Ratio (y) = 0.09407 0.28478
# Poissons Ratio (z) = -0.09449 0.44784
#
# Static dielectric constant tensor:
#      x y z
#    x 1.912980 0.000000 -0.008460 
#    y 0.000000 1.958870 0.000000 
#    z -0.008460 0.000000 2.048570 
# 
# From -- ./inp_files/1874.got.cif
#   From: 2010.05.17/outbox.cif.g08.bks.cpg/sg4_1_cif.got.tgz:1874.got - 2010.06.03 18:43:04.
