data_PCOD9119161
_publ_section_title
;
Structure prediction by ZEFSAII (Michael W. Deem and Ramdas Pophale) SiO2 
 PCOD9119161
Probable space group: P 21
;
_chemical_formula_sum "Si O2"
_cell_formula_units_Z 14
_cell_length_a 7.687855
_cell_length_b 11.486825
_cell_length_c 6.899582
_cell_angle_alpha 90.000000
_cell_angle_beta 81.453707
_cell_angle_gamma 90.000000
_cell_volume 602.529951
_symmetry_space_group_name_H-M "P 21"
_symmetry_group_IT_number 4
_symmetry_cell_setting 'monoclinic'
loop_
_space_group_symop_operation_xyz
x,y,z
-x,1/2+y,-z
loop_
_atom_site_type_symbol
_atom_site_label
_atom_site_fract_x
_atom_site_fract_y
_atom_site_fract_z
Si Si1 0.038593 0.152730 0.050903
Si Si2 0.309064 0.681994 0.460718
Si Si3 0.034308 0.843426 0.671018
Si Si4 0.198599 0.056871 0.422831
Si Si5 0.409446 0.499687 0.742666
Si Si6 0.232240 0.497878 0.150501
Si Si7 0.301110 0.254184 0.692004
O O1 0.103099 0.087763 0.236742
O O2 0.932326 0.269417 0.136292
O O3 0.201653 0.198185 0.892990
O O4 0.918187 0.062546 0.952513
O O5 0.138565 0.763327 0.500717
O O6 0.342869 0.620333 0.661721
O O7 0.275566 0.578836 0.320160
O O8 0.488146 0.739285 0.354844
O O9 0.103252 0.969595 0.588047
O O10 0.832535 0.876186 0.750639
O O11 0.228036 0.179415 0.526019
O O12 0.387849 0.998671 0.352525
O O13 0.285664 0.393655 0.689890
O O14 0.393464 0.489699 0.976078
#
# Coordination Sequence:
#
# PCOD9119161 Si02
#       7
#     2   2   2   2   2   2   2
#     4  12  26  43  68 102 136 173 224 273 334 393
#     4  11  26  46  67 101 135 177 224 269 336 400
#     4  12  24  44  70 100 136 176 216 282 336 382
#     4  11  26  46  67 101 135 177 224 269 336 400
#     4  11  24  46  71  96 135 179 221 275 330 399
#     4  12  26  43  68 102 136 173 224 273 334 393
#     4  11  24  46  71  96 135 179 221 275 330 399
#
# _framework density 23.235358999999999
#
# number of rings (size 3 to 8) (size 9 to 14) (size 15 to 20)
#    0.000    0.571    5.714    1.714    2.000    1.143 
#    0.000    0.000    0.000    0.000    0.000    0.000 
#    0.000    0.000    0.000    0.000    0.000    0.000 
#
# Total GULP energy -78102.053525 kJ/mol
# GULP energy per Si atom -5578.718109 kJ/mol
# Density = 2.318247 g / cm^3
# Si number density = 23.235359 Si / 1000 Ang^3
#
#
#
# Elastic Constant Matrix: (Units=GPa)
#
#
# Indices 1 2 3 4 5 6 
#
# 1 57.5587 7.4431 27.7531 0.0000 -22.1777 0.0000
# 2 7.4431 71.0458 13.7274 0.0000 -20.9749 0.0000
# 3 27.7531 13.7274 107.9192 0.0000 -37.8949 0.0000
# 4 0.0000 0.0000 0.0000 43.8415 0.0000 -11.6099
# 5 -22.1777 -20.9749 -37.8949 0.0000 40.8813 0.0000
# 6 0.0000 0.0000 0.0000 -11.6099 0.0000 29.9986
#
#
#
# Elastic Compliance Matrix: (Units=1/GPa)
#
#
# Indices 1 2 3 4 5 6 
#
# 1 0.022408 0.001262 -0.002116 0.000000 0.010843 0.000000
# 2 0.001262 0.016784 0.001193 0.000000 0.010402 0.000000
# 3 -0.002116 0.001193 0.014040 0.000000 0.012479 0.000000
# 4 0.000000 0.000000 0.000000 0.025414 0.000000 0.009836
# 5 0.010843 0.010402 0.012479 0.000000 0.047247 0.000000
# 6 0.000000 0.000000 0.000000 0.009836 0.000000 0.037141
#
#
# Mechanical properties :
#
#
# Convention : Reuss Voigt Hill
#
# Bulk Modulus (GPa) = 18.54907 37.15232 27.85070
# Shear Modulus (GPa) = 27.72746 35.45096 31.58921
#
# Velocity S-wave (km/s) = 3.45821 3.91030 3.69118
# Velocity P-wave (km/s) = 4.89347 6.03420 5.49352
#
# Compressibility (1/GPa) = 0.05391105
#
# Stress axis : x y z
#
# Youngs Moduli (GPa) = 44.62640 59.58198 71.22259
#
# Poissons Ratio (x) = -0.07521 0.15070
# Poissons Ratio (y) = -0.05633 -0.08497
# Poissons Ratio (z) = 0.09443 -0.07108
#
# Static dielectric constant tensor:
#      x y z
#    x 1.893600 0.000000 -0.008080 
#    y 0.000000 1.945560 0.000000 
#    z -0.008080 0.000000 1.868870 
# 
# From -- ./inp_files/1128.got.cif
#   From: 2010.05.17/outbox.cif.g08.bks.cpg/sg4_1_cif.got.tgz:1128.got - 2010.06.03 18:43:04.
