data_PCOD9119252
_publ_section_title
;
Structure prediction by ZEFSAII (Michael W. Deem and Ramdas Pophale) SiO2 
 PCOD9119252
Probable space group: P 21
;
_chemical_formula_sum "Si O2"
_cell_formula_units_Z 14
_cell_length_a 6.556652
_cell_length_b 13.736393
_cell_length_c 8.300925
_cell_angle_alpha 90.000000
_cell_angle_beta 60.516469
_cell_angle_gamma 90.000000
_cell_volume 650.801748
_symmetry_space_group_name_H-M "P 21"
_symmetry_group_IT_number 4
_symmetry_cell_setting 'monoclinic'
loop_
_space_group_symop_operation_xyz
x,y,z
-x,1/2+y,-z
loop_
_atom_site_type_symbol
_atom_site_label
_atom_site_fract_x
_atom_site_fract_y
_atom_site_fract_z
Si Si1 0.423029 0.623980 0.711828
Si Si2 0.672056 0.278678 0.501873
Si Si3 0.849422 0.768319 0.148592
Si Si4 0.666411 0.635187 0.940724
Si Si5 0.157489 0.648122 0.283489
Si Si6 0.208120 0.998887 0.613738
Si Si7 0.012474 0.988333 0.046281
O O1 0.316155 0.717805 0.667276
O O2 0.597035 0.658207 0.785338
O O3 0.568266 0.563150 0.522606
O O4 0.226534 0.551253 0.857869
O O5 0.401958 0.277161 0.665792
O O6 0.821003 0.221052 0.576291
O O7 0.754398 0.388669 0.452445
O O8 0.019774 0.703115 0.192946
O O9 0.798355 0.716410 0.996757
O O10 0.954848 0.875678 0.090817
O O11 0.417728 0.621297 0.126281
O O12 0.820358 0.537481 0.886157
O O13 0.012768 0.551941 0.382080
O O14 0.149996 0.001450 0.825354
#
# Coordination Sequence:
#
# PCOD9119252 Si02
#       7
#     2   2   2   2   2   2   2
#     4  12  26  49  72 109 149 191 244 300 369 433
#     4  11  27  46  75 109 148 195 246 304 362 440
#     4  11  24  49  73 107 146 192 246 302 366 435
#     4  11  25  47  73 104 145 193 233 309 362 431
#     4  11  24  50  73 105 154 185 246 304 360 436
#     4  12  25  48  73 110 143 193 246 295 370 433
#     4  12  27  47  73 106 149 191 243 302 369 438
#
# _framework density 21.511927
#
# number of rings (size 3 to 8) (size 9 to 14) (size 15 to 20)
#    0.000    0.571    5.714    0.857    8.000    0.000 
#    2.571    0.000    0.000    0.000    0.000    0.000 
#    0.000    0.000    0.000    0.000    0.000    0.000 
#
# Total GULP energy -78378.191072 kJ/mol
# GULP energy per Si atom -5598.442219 kJ/mol
# Density = 2.146296 g / cm^3
# Si number density = 21.511927 Si / 1000 Ang^3
#
#
#
# Elastic Constant Matrix: (Units=GPa)
#
#
# Indices 1 2 3 4 5 6 
#
# 1 135.3698 79.3679 39.7825 0.0000 9.7970 0.0000
# 2 79.3679 184.1180 39.0634 0.0000 0.3456 0.0000
# 3 39.7825 39.0634 92.7449 0.0000 -3.2821 0.0000
# 4 0.0000 0.0000 0.0000 34.6395 0.0000 -9.7308
# 5 9.7970 0.3456 -3.2821 0.0000 33.2015 0.0000
# 6 0.0000 0.0000 0.0000 -9.7308 0.0000 30.6143
#
#
#
# Elastic Compliance Matrix: (Units=1/GPa)
#
#
# Indices 1 2 3 4 5 6 
#
# 1 0.010923 -0.004043 -0.003106 0.000000 -0.003488 0.000000
# 2 -0.004043 0.007464 -0.001375 0.000000 0.000979 0.000000
# 3 -0.003106 -0.001375 0.012771 0.000000 0.002193 0.000000
# 4 0.000000 0.000000 0.000000 0.031699 0.000000 0.010076
# 5 -0.003488 0.000979 0.002193 0.000000 0.031355 0.000000
# 6 0.000000 0.000000 0.000000 0.010076 0.000000 0.035867
#
#
# Mechanical properties :
#
#
# Convention : Reuss Voigt Hill
#
# Bulk Modulus (GPa) = 70.86903 80.96224 75.91563
# Shear Modulus (GPa) = 32.93154 36.62565 34.77859
#
# Velocity S-wave (km/s) = 3.91685 4.13070 4.02520
# Velocity P-wave (km/s) = 7.31240 7.77611 7.54782
#
# Compressibility (1/GPa) = 0.01411054
#
# Stress axis : x y z
#
# Youngs Moduli (GPa) = 91.55179 133.97673 78.30117
#
# Poissons Ratio (x) = 0.54167 0.24319
# Poissons Ratio (y) = 0.37014 0.10765
# Poissons Ratio (z) = 0.28434 0.18420
#
# Static dielectric constant tensor:
#      x y z
#    x 1.771640 0.000000 -0.001290 
#    y 0.000000 1.742220 0.000000 
#    z -0.001290 0.000000 1.813390 
# 
# From -- ./inp_files/1822.got.cif
#   From: 2010.05.17/outbox.cif.g08.bks.cpg/sg4_1_cif.got.tgz:1822.got - 2010.06.03 18:43:04.
