data_PCOD9119493
_publ_section_title
;
Structure prediction by ZEFSAII (Michael W. Deem and Ramdas Pophale) SiO2 
 PCOD9119493
Probable space group: P 21
;
_chemical_formula_sum "Si O2"
_cell_formula_units_Z 14
_cell_length_a 11.531222
_cell_length_b 4.846572
_cell_length_c 30.320143
_cell_angle_alpha 90.000000
_cell_angle_beta 23.511854
_cell_angle_gamma 90.000000
_cell_volume 676.001276
_symmetry_space_group_name_H-M "P 21"
_symmetry_group_IT_number 4
_symmetry_cell_setting 'monoclinic'
loop_
_space_group_symop_operation_xyz
x,y,z
-x,1/2+y,-z
loop_
_atom_site_type_symbol
_atom_site_label
_atom_site_fract_x
_atom_site_fract_y
_atom_site_fract_z
Si Si1 0.011541 0.568500 0.065304
Si Si2 0.397404 0.932594 0.383983
Si Si3 0.099950 0.135111 0.399673
Si Si4 0.611575 0.600915 0.081881
Si Si5 0.618729 0.137073 0.743901
Si Si6 0.808225 0.436928 0.231138
Si Si7 0.624250 0.186450 0.930734
O O1 0.708811 0.706345 0.157006
O O2 0.965336 0.422374 0.129021
O O3 0.129877 0.313797 0.995408
O O4 0.251667 0.807461 0.979002
O O5 0.567098 0.668905 0.307186
O O6 0.202262 0.801999 0.490889
O O7 0.191394 0.053690 0.417494
O O8 0.639810 0.167966 0.307101
O O9 0.319764 0.351579 0.302084
O O10 0.146328 0.860435 0.354612
O O11 0.398189 0.590624 0.197934
O O12 0.456631 0.715021 0.092060
O O13 0.055254 0.557519 0.176709
O O14 0.591159 0.470785 0.969239
#
# Coordination Sequence:
#
# PCOD9119493 Si02
#       7
#     2   2   2   2   2   2   2
#     4  12  21  39  60  92 130 167 197 247 312 381
#     4  12  23  40  62  93 121 159 204 264 319 361
#     4  12  23  40  62  91 123 158 206 259 316 371
#     4  12  24  40  59  90 131 171 206 244 304 381
#     4  12  24  38  61  91 129 167 199 250 313 376
#     4  12  22  38  64  90 128 159 203 260 313 355
#     4  12  23  39  62  89 124 167 209 254 295 359
#
# _framework density 20.710018999999999
#
# number of rings (size 3 to 8) (size 9 to 14) (size 15 to 20)
#    0.000    0.000    5.714    6.857    0.000    0.000 
#    0.000    0.000    0.000    3.429    0.000    2.000 
#    0.000    0.000    0.000    0.000    0.000    0.000 
#
# Total GULP energy -78227.683492 kJ/mol
# GULP energy per Si atom -5587.691678 kJ/mol
# Density = 2.066288 g / cm^3
# Si number density = 20.710019 Si / 1000 Ang^3
#
#
#
# Elastic Constant Matrix: (Units=GPa)
#
#
# Indices 1 2 3 4 5 6 
#
# 1 74.7110 0.4005 30.6620 0.0012 17.9845 0.0001
# 2 0.4005 109.1129 28.2843 -0.0023 10.7312 -0.0002
# 3 30.6620 28.2843 81.9065 -0.0159 7.8754 -0.0004
# 4 0.0012 -0.0023 -0.0159 49.7774 0.0004 -5.0573
# 5 17.9845 10.7312 7.8754 0.0004 15.3375 0.0002
# 6 0.0001 -0.0002 -0.0004 -5.0573 0.0002 17.2348
#
#
#
# Elastic Compliance Matrix: (Units=1/GPa)
#
#
# Indices 1 2 3 4 5 6 
#
# 1 0.022655 0.004402 -0.007522 -0.000003 -0.025783 -0.000001
# 2 0.004402 0.011388 -0.004542 -0.000001 -0.010798 0.000000
# 3 -0.007522 -0.004542 0.016242 0.000005 0.003659 0.000002
# 4 -0.000003 -0.000001 0.000005 0.020707 0.000000 0.006076
# 5 -0.025783 -0.010798 0.003659 0.000000 0.101108 -0.000001
# 6 -0.000001 0.000000 0.000002 0.006076 -0.000001 0.059805
#
#
# Mechanical properties :
#
#
# Convention : Reuss Voigt Hill
#
# Bulk Modulus (GPa) = 28.60374 42.71380 35.65877
# Shear Modulus (GPa) = 19.31377 30.22886 24.77131
#
# Velocity S-wave (km/s) = 3.05713 3.82465 3.46222
# Velocity P-wave (km/s) = 5.12864 6.33825 5.76526
#
# Compressibility (1/GPa) = 0.03496046
#
# Stress axis : x y z
#
# Youngs Moduli (GPa) = 44.14057 87.81091 61.56951
#
# Poissons Ratio (x) = -0.38658 0.46314
# Poissons Ratio (y) = -0.19433 0.27968
# Poissons Ratio (z) = 0.33203 0.39888
#
# Static dielectric constant tensor:
#      x y z
#    x 1.753060 0.000000 0.011550 
#    y 0.000000 1.772520 0.000000 
#    z 0.011550 0.000000 1.797360 
# 
# From -- ./inp_files/13809.got.cif
#   From: 2010.05.17/outbox.cif.g08.bks.cpg/sg4_7_cif.got.tgz:13809.got - 2010.06.03 18:43:04.
