data_PCOD9119925
_publ_section_title
;
Structure prediction by ZEFSAII (Michael W. Deem and Ramdas Pophale) SiO2 
 PCOD9119925
Probable space group: C 2
;
_chemical_formula_sum "Si O2"
_cell_formula_units_Z 26
_cell_length_a 25.395810
_cell_length_b 8.680336
_cell_length_c 8.482174
_cell_angle_alpha 90.000000
_cell_angle_beta 147.916150
_cell_angle_gamma 90.000000
_cell_volume 993.186859
_symmetry_space_group_name_H-M "C 2"
_symmetry_group_IT_number 5
_symmetry_cell_setting 'monoclinic'
loop_
_space_group_symop_operation_xyz
x,y,z
-x,y,-z
1/2+x,1/2+y,z
1/2-x,1/2+y,-z
loop_
_atom_site_type_symbol
_atom_site_label
_atom_site_fract_x
_atom_site_fract_y
_atom_site_fract_z
Si Si1 0.372655 0.446000 0.989645
Si Si2 0.000000 0.670501 0.000000
Si Si3 0.552497 0.612017 0.303273
Si Si4 0.688653 0.403857 0.491014
Si Si5 0.885115 0.690470 0.219840
Si Si6 0.744297 0.656400 0.144251
Si Si7 0.421765 0.956707 0.547185
O O1 0.305374 0.478496 0.664801
O O2 0.353230 0.553551 0.092839
O O3 0.482114 0.490620 0.211045
O O4 0.348508 0.269555 0.969798
O O5 0.094006 0.785349 0.245425
O O6 0.999496 0.560612 0.154212
O O7 0.658454 0.535230 0.537965
O O8 0.560931 0.777905 0.401687
O O9 0.500000 0.636880 0.000000
O O10 0.771084 0.291735 0.768112
O O11 0.803048 0.732895 0.146551
O O12 0.903258 0.516459 0.322634
O O13 0.000000 0.750300 0.500000
O O14 0.822599 0.518166 0.382447
#
# Coordination Sequence:
#
# PCOD9119925 Si02
#       7
#     4   2   4   4   4   4   4
#     4  11  21  39  67  95 131 165 214 268 324 379
#     4  10  14  34  64  94 124 166 208 258 300 384
#     4  10  19  36  67 102 126 160 217 271 308 385
#     4  10  19  37  66  95 126 171 206 259 332 384
#     4  10  21  43  64  87 126 181 210 251 321 396
#     4   9  23  41  60  92 127 170 211 261 329 376
#     4   9  20  36  64  94 128 159 218 257 314 374
#
# _framework density 26.178357999999999
#
# number of rings (size 3 to 8) (size 9 to 14) (size 15 to 20)
#    0.923    1.231    3.077    1.846    0.000    2.462 
#    2.769    6.923    0.000    0.000    0.000    0.000 
#    0.000    0.000    0.000    0.000    0.000    0.000 
#
# Total GULP energy -72393.076015 kJ/mol
# GULP energy per Si atom -5568.698155 kJ/mol
# Density = 2.611877 g / cm^3
# Si number density = 26.178358 Si / 1000 Ang^3
#
#
#
# Elastic Constant Matrix: (Units=GPa)
#
#
# Indices 1 2 3 4 5 6 
#
# 1 134.5120 57.3901 10.3094 0.0000 -2.2434 0.0000
# 2 57.3901 164.7897 26.8551 0.0000 -27.9990 0.0000
# 3 10.3094 26.8551 39.4389 0.0000 -7.9422 0.0000
# 4 0.0000 0.0000 0.0000 42.2010 0.0000 -18.9269
# 5 -2.2434 -27.9990 -7.9422 0.0000 16.8544 0.0000
# 6 0.0000 0.0000 0.0000 -18.9269 0.0000 42.9199
#
#
#
# Elastic Compliance Matrix: (Units=1/GPa)
#
#
# Indices 1 2 3 4 5 6 
#
# 1 0.009125 -0.004046 -0.000817 0.000000 -0.005891 0.000000
# 2 -0.004046 0.010639 -0.003023 0.000000 0.015711 0.000000
# 3 -0.000817 -0.003023 0.029383 0.000000 0.008715 0.000000
# 4 0.000000 0.000000 0.000000 0.029538 0.000000 0.013026
# 5 -0.005891 0.015711 0.008715 0.000000 0.088754 0.000000
# 6 0.000000 0.000000 0.000000 0.013026 0.000000 0.029043
#
#
# Mechanical properties :
#
#
# Convention : Reuss Voigt Hill
#
# Bulk Modulus (GPa) = 29.96187 58.64996 44.30592
# Shear Modulus (GPa) = 22.38347 36.67413 29.52880
#
# Velocity S-wave (km/s) = 2.92727 3.74696 3.36219
# Velocity P-wave (km/s) = 4.78491 6.41656 5.65984
#
# Compressibility (1/GPa) = 0.03337575
#
# Stress axis : x y z
#
# Youngs Moduli (GPa) = 109.59255 93.98993 34.03352
#
# Poissons Ratio (x) = 0.38025 0.02780
# Poissons Ratio (y) = 0.44337 0.10289
# Poissons Ratio (z) = 0.08951 0.28415
#
# Static dielectric constant tensor:
#      x y z
#    x 2.051190 0.000000 -0.021970 
#    y 0.000000 1.970000 0.000000 
#    z -0.021970 0.000000 2.192980 
# 
# From -- ./inp_files/29133.got.cif
#   From: 2010.05.17/outbox.cif.g08.bks.cpg/sg5_15_cif.got.tgz:29133.got - 2010.06.03 18:56:24.
