data_PCOD9119519
_publ_section_title
;
Structure prediction by ZEFSAII (Michael W. Deem and Ramdas Pophale) SiO2 
 PCOD9119519
Probable space group: P 21
;
_chemical_formula_sum "Si O2"
_cell_formula_units_Z 16
_cell_length_a 12.129295
_cell_length_b 11.663488
_cell_length_c 14.052670
_cell_angle_alpha 90.000000
_cell_angle_beta 159.500411
_cell_angle_gamma 90.000000
_cell_volume 696.209294
_symmetry_space_group_name_H-M "P 21"
_symmetry_group_IT_number 4
_symmetry_cell_setting 'monoclinic'
loop_
_space_group_symop_operation_xyz
x,y,z
-x,1/2+y,-z
loop_
_atom_site_type_symbol
_atom_site_label
_atom_site_fract_x
_atom_site_fract_y
_atom_site_fract_z
Si Si1 0.731480 0.921250 0.486128
Si Si2 0.014611 0.594029 0.906015
Si Si3 0.262176 0.157944 0.509371
Si Si4 0.340290 0.877386 0.350049
Si Si5 0.959880 0.937416 0.360779
Si Si6 0.247793 0.247975 0.168957
Si Si7 0.565077 0.789439 0.897599
Si Si8 0.418768 0.025849 0.058742
O O1 0.730797 0.788812 0.448941
O O2 0.609776 0.919487 0.496592
O O3 0.498937 0.993715 0.232005
O O4 0.072305 0.979796 0.754992
O O5 0.897854 0.670230 0.723781
O O6 0.858967 0.473255 0.757049
O O7 0.851909 0.624390 0.874463
O O8 0.386469 0.605849 0.215191
O O9 0.077580 0.062404 0.420383
O O10 0.482867 0.794061 0.544301
O O11 0.075916 0.816192 0.072780
O O12 0.245212 0.863871 0.635938
O O13 0.678436 0.960636 0.206203
O O14 0.818117 0.863656 0.159669
O O15 0.335816 0.266339 0.131607
O O16 0.545584 0.662501 0.926799
#
# Coordination Sequence:
#
# PCOD9119519 Si02
#       8
#     2   2   2   2   2   2   2   2
#     4  12  25  49  73 111 147 187 245 297 359 437
#     4  12  23  42  69 106 145 190 229 282 353 430
#     4  12  25  46  72 110 144 186 244 293 359 430
#     4  12  24  41  70 104 148 186 230 283 351 429
#     4  12  28  48  78 104 142 195 241 312 360 418
#     4  12  23  43  68 105 144 189 225 282 359 417
#     4  12  27  51  71 110 147 183 250 297 360 445
#     4  12  29  48  77 104 141 198 240 308 367 414
#
# _framework density 22.981594999999999
#
# number of rings (size 3 to 8) (size 9 to 14) (size 15 to 20)
#    0.000    0.000    2.500    8.250    3.500    2.000 
#    0.000    0.000    0.000    0.000    0.000    0.000 
#    0.000    0.000    0.000    0.000    0.000    0.000 
#
# Total GULP energy -89570.093710 kJ/mol
# GULP energy per Si atom -5598.130857 kJ/mol
# Density = 2.292929 g / cm^3
# Si number density = 22.981595 Si / 1000 Ang^3
#
#
#
# Elastic Constant Matrix: (Units=GPa)
#
#
# Indices 1 2 3 4 5 6 
#
# 1 70.4411 9.2004 17.4916 0.0000 10.5057 0.0000
# 2 9.2004 113.8179 34.5422 0.0000 9.5649 0.0000
# 3 17.4916 34.5422 144.7870 0.0000 -11.3212 0.0000
# 4 0.0000 0.0000 0.0000 39.7764 0.0000 11.0578
# 5 10.5057 9.5649 -11.3212 0.0000 29.1235 0.0000
# 6 0.0000 0.0000 0.0000 11.0578 0.0000 52.9666
#
#
#
# Elastic Compliance Matrix: (Units=1/GPa)
#
#
# Indices 1 2 3 4 5 6 
#
# 1 0.015789 0.000020 -0.002432 0.000000 -0.006648 0.000000
# 2 0.000020 0.009975 -0.002722 0.000000 -0.004342 0.000000
# 3 -0.002432 -0.002722 0.008239 0.000000 0.004974 0.000000
# 4 0.000000 0.000000 0.000000 0.026690 0.000000 -0.005572
# 5 -0.006648 -0.004342 0.004974 0.000000 0.040094 0.000000
# 6 0.000000 0.000000 0.000000 -0.005572 0.000000 0.020043
#
#
# Mechanical properties :
#
#
# Convention : Reuss Voigt Hill
#
# Bulk Modulus (GPa) = 42.12988 50.16827 46.14908
# Shear Modulus (GPa) = 35.96904 42.22742 39.09823
#
# Velocity S-wave (km/s) = 3.96046 4.29119 4.12914
# Velocity P-wave (km/s) = 6.26781 6.81393 6.54657
#
# Compressibility (1/GPa) = 0.02373612
#
# Stress axis : x y z
#
# Youngs Moduli (GPa) = 63.33528 100.24887 121.37710
#
# Poissons Ratio (x) = -0.00205 0.29521
# Poissons Ratio (y) = -0.00130 0.33036
# Poissons Ratio (z) = 0.15404 0.27285
#
# Static dielectric constant tensor:
#      x y z
#    x 1.875180 0.000000 0.005300 
#    y 0.000000 1.986590 0.000000 
#    z 0.005300 0.000000 1.793660 
# 
# From -- ./inp_files/3764.got.cif
#   From: 2010.05.17/outbox.cif.g08.bks.cpg/sg4_2_cif.got.tgz:3764.got - 2010.06.03 18:43:04.
