data_PCOD9119606
_publ_section_title
;
Structure prediction by ZEFSAII (Michael W. Deem and Ramdas Pophale) SiO2 
 PCOD9119606
Probable space group: P 21
;
_chemical_formula_sum "Si O2"
_cell_formula_units_Z 10
_cell_length_a 5.309689
_cell_length_b 13.995772
_cell_length_c 4.905542
_cell_angle_alpha 90.000000
_cell_angle_beta 93.267052
_cell_angle_gamma 90.000000
_cell_volume 363.954029
_symmetry_space_group_name_H-M "P 21"
_symmetry_group_IT_number 4
_symmetry_cell_setting 'monoclinic'
loop_
_space_group_symop_operation_xyz
x,y,z
-x,1/2+y,-z
loop_
_atom_site_type_symbol
_atom_site_label
_atom_site_fract_x
_atom_site_fract_y
_atom_site_fract_z
Si Si1 0.164810 0.524120 0.378201
Si Si2 0.196535 0.183394 0.455684
Si Si3 0.145790 0.854703 0.728371
Si Si4 0.535105 0.636595 0.024595
Si Si5 0.597603 0.438288 0.792117
O O1 0.351591 0.477981 0.615736
O O2 0.946420 0.582672 0.517569
O O3 0.068031 0.432646 0.205718
O O4 0.294638 0.600916 0.181684
O O5 0.440517 0.179407 0.274675
O O6 0.997053 0.256387 0.324542
O O7 0.300370 0.201563 0.763194
O O8 0.245077 0.892826 0.445324
O O9 0.363090 0.859524 0.968390
O O10 0.664888 0.533377 0.972357
#
# Coordination Sequence:
#
# PCOD9119606 Si02
#       5
#     2   2   2   2   2
#     4  12  26  48  84  98 162 206 236 326 378 432
#     4  12  28  50  76 114 154 196 256 315 369 450
#     4  12  28  50  76 114 154 196 256 315 369 450
#     4  12  24  49  73 109 147 198 260 292 384 456
#     4  12  24  49  73 109 147 198 260 292 384 456
#
# _framework density 27.475995000000001
#
# number of rings (size 3 to 8) (size 9 to 14) (size 15 to 20)
#    0.000    0.000    8.000    1.200    5.600    1.600 
#    7.200    0.000    0.000    0.000    0.000    0.000 
#    0.000    0.000    0.000    0.000    0.000    0.000 
#
# Total GULP energy -55922.243383 kJ/mol
# GULP energy per Si atom -5592.224338 kJ/mol
# Density = 2.741346 g / cm^3
# Si number density = 27.475995 Si / 1000 Ang^3
#
#
#
# Elastic Constant Matrix: (Units=GPa)
#
#
# Indices 1 2 3 4 5 6 
#
# 1 85.7761 34.3805 51.4150 0.0000 -11.7423 0.0000
# 2 34.3805 79.8761 26.5135 0.0000 13.3069 0.0000
# 3 51.4150 26.5135 157.2340 0.0000 -8.6704 0.0000
# 4 0.0000 0.0000 0.0000 31.7671 0.0000 8.1039
# 5 -11.7423 13.3069 -8.6704 0.0000 54.0290 0.0000
# 6 0.0000 0.0000 0.0000 8.1039 0.0000 58.8626
#
#
#
# Elastic Compliance Matrix: (Units=1/GPa)
#
#
# Indices 1 2 3 4 5 6 
#
# 1 0.017743 -0.007006 -0.004351 0.000000 0.004884 0.000000
# 2 -0.007006 0.016786 -0.000859 0.000000 -0.005795 0.000000
# 3 -0.004351 -0.000859 0.007958 0.000000 0.000543 0.000000
# 4 0.000000 0.000000 0.000000 0.032625 0.000000 -0.004492
# 5 0.004884 -0.005795 0.000543 0.000000 0.021084 0.000000
# 6 0.000000 0.000000 0.000000 -0.004492 0.000000 0.017607
#
#
# Mechanical properties :
#
#
# Convention : Reuss Voigt Hill
#
# Bulk Modulus (GPa) = 55.39156 60.83382 58.11269
# Shear Modulus (GPa) = 34.66121 42.97021 38.81571
#
# Velocity S-wave (km/s) = 3.55563 3.95893 3.76269
# Velocity P-wave (km/s) = 6.08772 6.56402 6.33035
#
# Compressibility (1/GPa) = 0.01805329
#
# Stress axis : x y z
#
# Youngs Moduli (GPa) = 56.35956 59.57502 125.66656
#
# Poissons Ratio (x) = 0.41740 0.54681
# Poissons Ratio (y) = 0.39487 0.10794
# Poissons Ratio (z) = 0.24523 0.05117
#
# Static dielectric constant tensor:
#      x y z
#    x 2.159540 0.000000 0.005950 
#    y 0.000000 2.185850 0.000000 
#    z 0.005950 0.000000 2.074310 
# 
# From -- ./inp_files/295.got.cif
#   From: 2010.05.17/outbox.cif.g08.bks.cpg/sg4_1_cif.got.tgz:295.got - 2010.06.03 18:43:04.
