data_PCOD9119818
_publ_section_title
;
Structure prediction by ZEFSAII (Michael W. Deem and Ramdas Pophale) SiO2 
 PCOD9119818
Probable space group: P 21
;
_chemical_formula_sum "Si O2"
_cell_formula_units_Z 16
_cell_length_a 12.000000
_cell_length_b 9.000000
_cell_length_c 12.000000
_cell_angle_alpha 90.000000
_cell_angle_beta 140.000000
_cell_angle_gamma 90.000000
_cell_volume 833.052742
_symmetry_space_group_name_H-M "P 21"
_symmetry_group_IT_number 4
_symmetry_cell_setting 'monoclinic'
loop_
_space_group_symop_operation_xyz
x,y,z
-x,1/2+y,-z
loop_
_atom_site_type_symbol
_atom_site_label
_atom_site_fract_x
_atom_site_fract_y
_atom_site_fract_z
Si Si1 0.742889 0.520430 0.725950
Si Si2 0.058466 0.862000 0.727026
Si Si3 0.283676 0.547734 0.547360
Si Si4 0.503470 0.265695 0.447200
Si Si5 0.408394 0.370104 0.136020
Si Si6 0.187974 0.855764 0.577462
Si Si7 0.349255 0.029923 0.090038
Si Si8 0.046467 0.519317 0.790594
O O1 0.622056 0.379188 0.604814
O O2 0.644115 0.668915 0.605722
O O3 0.742095 0.535610 0.858513
O O4 0.929236 0.505126 0.812260
O O5 0.097008 0.875904 0.625537
O O6 0.052793 0.690509 0.758536
O O7 0.873165 0.941566 0.606955
O O8 0.220446 0.939826 0.913321
O O9 0.371170 0.640953 0.513028
O O10 0.207354 0.680322 0.565147
O O11 0.452149 0.473926 0.736645
O O12 0.415904 0.354788 0.276874
O O13 0.609816 0.413123 0.263322
O O14 0.376422 0.200033 0.071393
O O15 0.243487 0.462034 0.964502
O O16 0.067573 0.929779 0.389550
#
# Coordination Sequence:
#
# PCOD9119818 Si02
#       8
#     2   2   2   2   2   2   2   2
#     4  10  21  40  64  94 123 162 205 246 312 368
#     4  12  25  37  62  97 124 156 216 255 301 370
#     4   9  20  44  62  83 125 168 202 252 314 361
#     4   9  20  40  66  86 128 166 196 252 312 363
#     4   9  21  42  63  84 124 167 201 248 317 362
#     4  10  22  44  64  85 122 171 204 258 312 357
#     4   9  23  41  60  89 123 166 199 246 316 367
#     4  12  24  38  65 100 121 156 215 255 304 370
#
# _framework density 19.206467
#
# number of rings (size 3 to 8) (size 9 to 14) (size 15 to 20)
#    0.000    2.500    2.500    1.500    3.500    7.000 
#    0.000    0.000    0.000    0.000    0.000    0.000 
#    0.000    0.000    0.000    0.000    0.000    0.000 
#
# Total GULP energy -89221.462076 kJ/mol
# GULP energy per Si atom -5576.341380 kJ/mol
# Density = 1.916275 g / cm^3
# Si number density = 19.206467 Si / 1000 Ang^3
#
#
#
# Elastic Constant Matrix: (Units=GPa)
#
#
# Indices 1 2 3 4 5 6 
#
# 1 48.2273 19.5462 26.2187 0.0000 6.7167 0.0000
# 2 19.5462 72.8222 55.1492 0.0000 14.8436 0.0000
# 3 26.2187 55.1492 117.0355 0.0000 33.5634 0.0000
# 4 0.0000 0.0000 0.0000 29.7525 0.0000 11.6313
# 5 6.7167 14.8436 33.5634 0.0000 29.1638 0.0000
# 6 0.0000 0.0000 0.0000 11.6313 0.0000 25.5476
#
#
#
# Elastic Compliance Matrix: (Units=1/GPa)
#
#
# Indices 1 2 3 4 5 6 
#
# 1 0.024256 -0.003708 -0.003919 0.000000 0.000812 0.000000
# 2 -0.003708 0.021940 -0.009777 0.000000 0.000939 0.000000
# 3 -0.003919 -0.009777 0.018425 0.000000 -0.015325 0.000000
# 4 0.000000 0.000000 0.000000 0.040888 0.000000 -0.018616
# 5 0.000812 0.000939 -0.015325 0.000000 0.051261 0.000000
# 6 0.000000 0.000000 0.000000 -0.018616 0.000000 0.047618
#
#
# Mechanical properties :
#
#
# Convention : Reuss Voigt Hill
#
# Bulk Modulus (GPa) = 33.54401 48.87925 41.21163
# Shear Modulus (GPa) = 20.06951 26.03749 23.05350
#
# Velocity S-wave (km/s) = 3.23605 3.68593 3.46829
# Velocity P-wave (km/s) = 5.60942 6.60450 6.12719
#
# Compressibility (1/GPa) = 0.02981159
#
# Stress axis : x y z
#
# Youngs Moduli (GPa) = 41.22762 45.57801 54.27507
#
# Poissons Ratio (x) = 0.16899 0.21273
# Poissons Ratio (y) = 0.15286 0.53067
# Poissons Ratio (z) = 0.16159 0.44564
#
# Static dielectric constant tensor:
#      x y z
#    x 1.697040 0.000000 -0.006860 
#    y 0.000000 1.682570 0.000000 
#    z -0.006860 0.000000 1.663640 
# 
# From -- ./inp_files/12145.got.cif
#   From: 2010.05.17/outbox.ucp.g08.bks.cvg/sg4_7_cif.got.tgz:12145.got - 2010.06.11 12:51:24.
