data_PCOD9119140
_publ_section_title
;
Structure prediction by ZEFSAII (Michael W. Deem and Ramdas Pophale) SiO2 
 PCOD9119140
Probable space group: P 21
;
_chemical_formula_sum "Si O2"
_cell_formula_units_Z 16
_cell_length_a 16.982135
_cell_length_b 8.716495
_cell_length_c 8.180914
_cell_angle_alpha 90.000000
_cell_angle_beta 145.651204
_cell_angle_gamma 90.000000
_cell_volume 683.268984
_symmetry_space_group_name_H-M "P 21"
_symmetry_group_IT_number 4
_symmetry_cell_setting 'monoclinic'
loop_
_space_group_symop_operation_xyz
x,y,z
-x,1/2+y,-z
loop_
_atom_site_type_symbol
_atom_site_label
_atom_site_fract_x
_atom_site_fract_y
_atom_site_fract_z
Si Si1 0.839091 0.625000 0.107884
Si Si2 0.453701 0.302227 0.915271
Si Si3 0.101373 0.576157 0.040202
Si Si4 0.112577 0.463087 0.686265
Si Si5 0.603769 0.171515 0.481313
Si Si6 0.159747 0.243365 0.262124
Si Si7 0.553315 0.458876 0.596628
Si Si8 0.393313 0.585630 0.011074
O O1 0.860500 0.780954 0.249385
O O2 0.966106 0.508433 0.355127
O O3 0.836753 0.674568 0.914267
O O4 0.692640 0.543695 0.892767
O O5 0.310294 0.232466 0.603049
O O6 0.574147 0.256875 0.993120
O O7 0.498786 0.230547 0.165329
O O8 0.427557 0.478770 0.913071
O O9 0.237675 0.679783 0.306193
O O10 0.118696 0.421466 0.173836
O O11 0.108425 0.529920 0.862504
O O12 0.958763 0.658347 0.839109
O O13 0.239057 0.544293 0.806912
O O14 0.583483 0.284199 0.601949
O O15 0.567583 0.000341 0.481412
O O16 0.498886 0.532685 0.333652
#
# Coordination Sequence:
#
# PCOD9119140 Si02
#       8
#     2   2   2   2   2   2   2   2
#     4  11  26  47  73 105 144 188 238 299 361 430
#     4  11  25  44  73 106 142 184 236 293 360 423
#     4  11  27  48  71 105 144 190 240 296 362 430
#     4  11  27  48  72 107 140 192 240 295 359 433
#     4  11  26  44  74 107 142 189 241 298 363 428
#     4  11  27  47  71 102 148 185 239 300 362 426
#     4  11  24  45  73 103 144 188 239 301 360 420
#     4  11  24  47  71 101 146 182 237 294 355 422
#
# _framework density 23.416837999999998
#
# number of rings (size 3 to 8) (size 9 to 14) (size 15 to 20)
#    0.000    1.000    2.500    2.250   12.250    1.000 
#    2.250    0.000    0.000    0.000    0.000    0.000 
#    0.000    0.000    0.000    0.000    0.000    0.000 
#
# Total GULP energy -89650.793558 kJ/mol
# GULP energy per Si atom -5603.174597 kJ/mol
# Density = 2.336354 g / cm^3
# Si number density = 23.416838 Si / 1000 Ang^3
#
#
#
# Elastic Constant Matrix: (Units=GPa)
#
#
# Indices 1 2 3 4 5 6 
#
# 1 72.0131 33.8617 14.7974 0.0000 18.9862 0.0000
# 2 33.8617 47.3685 23.1175 0.0000 -1.3764 0.0000
# 3 14.7974 23.1175 151.5323 0.0000 9.6617 0.0000
# 4 0.0000 0.0000 0.0000 35.4583 0.0000 1.0801
# 5 18.9862 -1.3764 9.6617 0.0000 35.4816 0.0000
# 6 0.0000 0.0000 0.0000 1.0801 0.0000 40.1666
#
#
#
# Elastic Compliance Matrix: (Units=1/GPa)
#
#
# Indices 1 2 3 4 5 6 
#
# 1 0.027671 -0.020990 0.001522 0.000000 -0.016035 0.000000
# 2 -0.020990 0.038853 -0.004773 0.000000 0.014038 0.000000
# 3 0.001522 -0.004773 0.007370 0.000000 -0.003007 0.000000
# 4 0.000000 0.000000 0.000000 0.028225 0.000000 -0.000759
# 5 -0.016035 0.014038 -0.003007 0.000000 0.038127 0.000000
# 6 0.000000 0.000000 0.000000 -0.000759 0.000000 0.024917
#
#
# Mechanical properties :
#
#
# Convention : Reuss Voigt Hill
#
# Bulk Modulus (GPa) = 39.34797 46.05190 42.69994
# Shear Modulus (GPa) = 22.51091 35.49712 29.00401
#
# Velocity S-wave (km/s) = 3.10387 3.89765 3.52319
# Velocity P-wave (km/s) = 5.44840 6.32174 5.90125
#
# Compressibility (1/GPa) = 0.02541427
#
# Stress axis : x y z
#
# Youngs Moduli (GPa) = 36.13911 25.73822 135.67765
#
# Poissons Ratio (x) = 0.54023 -0.20656
# Poissons Ratio (y) = 0.75855 0.64755
# Poissons Ratio (z) = -0.05502 0.12284
#
# Static dielectric constant tensor:
#      x y z
#    x 1.870530 0.000000 -0.037900 
#    y 0.000000 1.915220 0.000000 
#    z -0.037900 0.000000 1.839400 
# 
# From -- ./inp_files/9678.got.cif
#   From: 2010.05.17/outbox.cif.g08.bks.cpg/sg4_5_cif.got.tgz:9678.got - 2010.06.03 18:43:04.
