data_PCOD9119120
_publ_section_title
;
Structure prediction by ZEFSAII (Michael W. Deem and Ramdas Pophale) SiO2 
 PCOD9119120
Probable space group: P 21
;
_chemical_formula_sum "Si O2"
_cell_formula_units_Z 16
_cell_length_a 14.934785
_cell_length_b 9.105723
_cell_length_c 14.878584
_cell_angle_alpha 90.000000
_cell_angle_beta 19.009500
_cell_angle_gamma 90.000000
_cell_volume 659.061589
_symmetry_space_group_name_H-M "P 21"
_symmetry_group_IT_number 4
_symmetry_cell_setting 'monoclinic'
loop_
_space_group_symop_operation_xyz
x,y,z
-x,1/2+y,-z
loop_
_atom_site_type_symbol
_atom_site_label
_atom_site_fract_x
_atom_site_fract_y
_atom_site_fract_z
Si Si1 0.900137 0.004860 0.386050
Si Si2 0.647158 0.589230 0.789623
Si Si3 0.328266 0.923769 0.848783
Si Si4 0.830591 0.915804 0.657431
Si Si5 0.454566 0.157149 0.472661
Si Si6 0.986913 0.662882 0.964568
Si Si7 0.155196 0.306384 0.081481
Si Si8 0.663985 0.485166 0.587793
O O1 0.054751 0.160068 0.226705
O O2 0.601636 0.006923 0.623164
O O3 0.851237 0.960360 0.533791
O O4 0.113373 0.895075 0.133442
O O5 0.745344 0.743898 0.739090
O O6 0.608070 0.603689 0.718850
O O7 0.874347 0.460628 0.583721
O O8 0.384588 0.521785 0.088351
O O9 0.441759 0.787104 0.688158
O O10 0.154823 0.020814 0.943908
O O11 0.175894 0.193948 0.789391
O O12 0.415160 0.028629 0.438378
O O13 0.695589 0.134251 0.316317
O O14 0.931052 0.783615 0.940930
O O15 0.980841 0.441690 0.283944
O O16 0.472157 0.345417 0.791860
#
# Coordination Sequence:
#
# PCOD9119120 Si02
#       8
#     2   2   2   2   2   2   2   2
#     4  11  24  47  75 101 141 190 241 294 375 430
#     4  12  29  50  78 118 154 198 257 311 387 451
#     4  11  24  45  68  98 138 182 242 293 358 444
#     4  12  28  50  83 112 156 195 257 312 379 459
#     4  12  26  42  72  95 144 190 232 299 366 425
#     4  11  25  43  65 106 136 186 243 294 355 440
#     4  11  25  45  72 107 143 190 244 304 360 446
#     4  12  27  46  73 105 152 189 244 303 378 429
#
# _framework density 24.27694
#
# number of rings (size 3 to 8) (size 9 to 14) (size 15 to 20)
#    0.000    0.500    0.000    8.250   10.500    2.000 
#    0.000    0.000    0.000    0.000    0.000    0.000 
#    0.000    0.000    0.000    0.000    0.000    0.000 
#
# Total GULP energy -89652.647495 kJ/mol
# GULP energy per Si atom -5603.290468 kJ/mol
# Density = 2.422169 g / cm^3
# Si number density = 24.276940 Si / 1000 Ang^3
#
#
#
# Elastic Constant Matrix: (Units=GPa)
#
#
# Indices 1 2 3 4 5 6 
#
# 1 83.9510 9.5340 18.3027 0.0000 17.6374 0.0000
# 2 9.5340 47.9768 9.8273 0.0000 8.1474 0.0000
# 3 18.3027 9.8273 121.4326 0.0000 17.0946 0.0000
# 4 0.0000 0.0000 0.0000 29.9704 0.0000 1.7666
# 5 17.6374 8.1474 17.0946 0.0000 51.2807 0.0000
# 6 0.0000 0.0000 0.0000 1.7666 0.0000 22.3096
#
#
#
# Elastic Compliance Matrix: (Units=1/GPa)
#
#
# Indices 1 2 3 4 5 6 
#
# 1 0.013196 -0.001703 -0.001312 0.000000 -0.003831 0.000000
# 2 -0.001703 0.021844 -0.001159 0.000000 -0.002498 0.000000
# 3 -0.001312 -0.001159 0.008853 0.000000 -0.002316 0.000000
# 4 0.000000 0.000000 0.000000 0.033523 0.000000 -0.002654
# 5 -0.003831 -0.002498 -0.002316 0.000000 0.021987 0.000000
# 6 0.000000 0.000000 0.000000 -0.002654 0.000000 0.045034
#
#
# Mechanical properties :
#
#
# Convention : Reuss Voigt Hill
#
# Bulk Modulus (GPa) = 28.13453 36.52091 32.32772
# Shear Modulus (GPa) = 30.37076 35.09190 32.73133
#
# Velocity S-wave (km/s) = 3.54080 3.80608 3.67583
# Velocity P-wave (km/s) = 5.32264 5.86439 5.60007
#
# Compressibility (1/GPa) = 0.03554351
#
# Stress axis : x y z
#
# Youngs Moduli (GPa) = 75.78102 45.78000 112.96177
#
# Poissons Ratio (x) = 0.07797 0.14819
# Poissons Ratio (y) = 0.12906 0.13096
# Poissons Ratio (z) = 0.09941 0.05308
#
# Static dielectric constant tensor:
#      x y z
#    x 2.023140 0.000000 0.007220 
#    y 0.000000 1.963070 0.000000 
#    z 0.007220 0.000000 1.865480 
# 
# From -- ./inp_files/14174.got.cif
#   From: 2010.05.17/outbox.cif.g08.bks.cpg/sg4_8_cif.got.tgz:14174.got - 2010.06.03 18:43:04.
