data_PCOD9119528
_publ_section_title
;
Structure prediction by ZEFSAII (Michael W. Deem and Ramdas Pophale) SiO2 
 PCOD9119528
Probable space group: P 21
;
_chemical_formula_sum "Si O2"
_cell_formula_units_Z 16
_cell_length_a 22.829620
_cell_length_b 4.933062
_cell_length_c 28.752335
_cell_angle_alpha 90.000000
_cell_angle_beta 168.696209
_cell_angle_gamma 90.000000
_cell_volume 634.700557
_symmetry_space_group_name_H-M "P 21"
_symmetry_group_IT_number 4
_symmetry_cell_setting 'monoclinic'
loop_
_space_group_symop_operation_xyz
x,y,z
-x,1/2+y,-z
loop_
_atom_site_type_symbol
_atom_site_label
_atom_site_fract_x
_atom_site_fract_y
_atom_site_fract_z
Si Si1 0.124048 0.440870 0.164841
Si Si2 0.580590 0.979232 0.275969
Si Si3 0.772603 0.976442 0.026066
Si Si4 0.713021 0.172338 0.612471
Si Si5 0.875610 0.681748 0.588308
Si Si6 0.253376 0.212139 0.891613
Si Si7 0.924318 0.333066 0.410856
Si Si8 0.461462 0.767258 0.346029
O O1 0.370312 0.204505 0.362573
O O2 0.108534 0.562868 0.204053
O O3 0.291400 0.616948 0.255500
O O4 0.807591 0.373986 0.896081
O O5 0.335713 0.782908 0.061274
O O6 0.656823 0.838779 0.383523
O O7 0.878167 0.952630 0.476718
O O8 0.454418 0.280847 0.178934
O O9 0.755325 0.847790 0.063921
O O10 0.095732 0.931797 0.254486
O O11 0.664458 0.994875 0.528508
O O12 0.677906 0.609224 0.479437
O O13 0.033703 0.412258 0.692313
O O14 0.130137 0.908220 0.796396
O O15 0.593383 0.237673 0.139688
O O16 0.912399 0.572756 0.439692
#
# Coordination Sequence:
#
# PCOD9119528 Si02
#       8
#     2   2   2   2   2   2   2   2
#     4  12  26  45  70 101 135 186 240 292 368 429
#     4  12  26  47  71 109 141 186 240 292 355 434
#     4  12  25  45  75 101 140 188 241 286 354 431
#     4  12  26  44  72 102 139 187 241 299 358 438
#     4  12  28  45  71 105 147 183 234 298 364 424
#     4  12  24  45  72 104 139 191 232 284 364 422
#     4  12  23  43  74 103 143 185 238 297 347 424
#     4  12  26  46  69 101 144 184 234 306 364 426
#
# _framework density 25.208739000000001
#
# number of rings (size 3 to 8) (size 9 to 14) (size 15 to 20)
#    0.000    0.000    6.250    3.750    1.750    3.000 
#    0.000    0.000    0.000    0.000    0.000    0.000 
#    0.000    0.000    0.000    0.000    0.000    0.000 
#
# Total GULP energy -89655.494181 kJ/mol
# GULP energy per Si atom -5603.468386 kJ/mol
# Density = 2.515136 g / cm^3
# Si number density = 25.208739 Si / 1000 Ang^3
#
#
#
# Elastic Constant Matrix: (Units=GPa)
#
#
# Indices 1 2 3 4 5 6 
#
# 1 73.1775 -7.0452 41.5701 0.0000 -0.2465 0.0000
# 2 -7.0452 81.2108 30.5028 0.0000 0.3553 0.0000
# 3 41.5701 30.5028 151.3308 0.0000 8.3525 0.0000
# 4 0.0000 0.0000 0.0000 41.6675 0.0000 -7.5093
# 5 -0.2465 0.3553 8.3525 0.0000 56.9039 0.0000
# 6 0.0000 0.0000 0.0000 -7.5093 0.0000 27.6140
#
#
#
# Elastic Compliance Matrix: (Units=1/GPa)
#
#
# Indices 1 2 3 4 5 6 
#
# 1 0.017109 0.003531 -0.005459 0.000000 0.000853 0.000000
# 2 0.003531 0.014056 -0.003830 0.000000 0.000490 0.000000
# 3 -0.005459 -0.003830 0.008952 0.000000 -0.001314 0.000000
# 4 0.000000 0.000000 0.000000 0.025236 0.000000 0.006863
# 5 0.000853 0.000490 -0.001314 0.000000 0.017767 0.000000
# 6 0.000000 0.000000 0.000000 0.006863 0.000000 0.038080
#
#
# Mechanical properties :
#
#
# Convention : Reuss Voigt Hill
#
# Bulk Modulus (GPa) = 34.96320 48.41937 41.69128
# Shear Modulus (GPa) = 35.14930 41.28319 38.21625
#
# Velocity S-wave (km/s) = 3.73812 4.05118 3.89780
# Velocity P-wave (km/s) = 5.70360 6.41341 6.06889
#
# Compressibility (1/GPa) = 0.02860150
#
# Stress axis : x y z
#
# Youngs Moduli (GPa) = 58.44851 71.14199 111.70653
#
# Poissons Ratio (x) = -0.25118 0.60976
# Poissons Ratio (y) = -0.20637 0.42786
# Poissons Ratio (z) = 0.31905 0.27249
#
# Static dielectric constant tensor:
#      x y z
#    x 1.986020 0.000000 -0.074520 
#    y 0.000000 2.016470 0.000000 
#    z -0.074520 0.000000 2.034150 
# 
# From -- ./inp_files/16575.got.cif
#   From: 2010.05.17/outbox.cif.g08.bks.cpg/sg4_9_cif.got.tgz:16575.got - 2010.06.03 18:43:04.
