data_PCOD9119843
_publ_section_title
;
Structure prediction by ZEFSAII (Michael W. Deem and Ramdas Pophale) SiO2 
 PCOD9119843
Probable space group: P 21
;
_chemical_formula_sum "Si O2"
_cell_formula_units_Z 16
_cell_length_a 27.000000
_cell_length_b 6.000000
_cell_length_c 24.000000
_cell_angle_alpha 90.000000
_cell_angle_beta 170.000000
_cell_angle_gamma 90.000000
_cell_volume 675.144115
_symmetry_space_group_name_H-M "P 21"
_symmetry_group_IT_number 4
_symmetry_cell_setting 'monoclinic'
loop_
_space_group_symop_operation_xyz
x,y,z
-x,1/2+y,-z
loop_
_atom_site_type_symbol
_atom_site_label
_atom_site_fract_x
_atom_site_fract_y
_atom_site_fract_z
Si Si1 0.297978 0.054490 0.635252
Si Si2 0.642086 0.455936 0.589329
Si Si3 0.277427 0.306448 0.971206
Si Si4 0.989964 0.772042 0.780319
Si Si5 0.697953 0.324286 0.154714
Si Si6 0.125654 0.558041 0.548908
Si Si7 0.292139 0.261656 0.110001
Si Si8 0.080645 0.726217 0.001999
O O1 0.240119 0.243799 0.523901
O O2 0.510734 0.127565 0.919780
O O3 0.986404 0.983676 0.313278
O O4 0.475022 0.868333 0.797611
O O5 0.494446 0.261168 0.388611
O O6 0.379798 0.614153 0.315542
O O7 0.817096 0.402730 0.838962
O O8 0.868171 0.563721 0.798381
O O9 0.092961 0.101608 0.743414
O O10 0.420401 0.278585 0.189972
O O11 0.133286 0.512905 0.937620
O O12 0.914649 0.794381 0.762110
O O13 0.142437 0.015590 0.941066
O O14 0.832297 0.266452 0.363091
O O15 0.959497 0.382470 0.403911
O O16 0.443915 0.502804 0.881209
#
# Coordination Sequence:
#
# PCOD9119843 Si02
#       8
#     2   2   2   2   2   2   2   2
#     4  11  23  43  66  97 133 175 224 283 343 411
#     4  11  23  42  66 100 137 182 230 286 346 413
#     4  11  23  43  66  97 133 175 224 283 343 411
#     4  10  23  44  70 101 138 181 230 284 344 410
#     4  12  24  41  64  94 130 176 226 285 345 412
#     4  12  24  41  64  94 130 176 226 285 345 412
#     4  10  23  44  70 101 138 181 230 284 344 410
#     4  11  23  42  66 100 137 182 230 286 346 413
#
# _framework density 23.698644000000002
#
# number of rings (size 3 to 8) (size 9 to 14) (size 15 to 20)
#    0.000    1.000    0.000    6.750    0.000    4.000 
#    0.000   11.250    0.000    0.000    0.000    0.000 
#    0.000    0.000    0.000    0.000    0.000    0.000 
#
# Total GULP energy -89294.267852 kJ/mol
# GULP energy per Si atom -5580.891741 kJ/mol
# Density = 2.364470 g / cm^3
# Si number density = 23.698644 Si / 1000 Ang^3
#
#
#
# Elastic Constant Matrix: (Units=GPa)
#
#
# Indices 1 2 3 4 5 6 
#
# 1 106.6568 9.7746 -3.0995 0.0000 -0.5000 0.0000
# 2 9.7746 65.0024 1.2420 0.0000 13.8923 0.0000
# 3 -3.0995 1.2420 55.6569 0.0000 21.3041 0.0000
# 4 0.0000 0.0000 0.0000 44.1987 0.0000 -0.5418
# 5 -0.5000 13.8923 21.3041 0.0000 48.2624 0.0000
# 6 0.0000 0.0000 0.0000 -0.5418 0.0000 41.3750
#
#
#
# Elastic Compliance Matrix: (Units=1/GPa)
#
#
# Indices 1 2 3 4 5 6 
#
# 1 0.009529 -0.001515 0.000433 0.000000 0.000344 0.000000
# 2 -0.001515 0.016773 0.001679 0.000000 -0.005585 0.000000
# 3 0.000433 0.001679 0.021825 0.000000 -0.010113 0.000000
# 4 0.000000 0.000000 0.000000 0.022629 0.000000 0.000296
# 5 0.000344 -0.005585 -0.010113 0.000000 0.026795 0.000000
# 6 0.000000 0.000000 0.000000 0.000296 0.000000 0.024173
#
#
# Mechanical properties :
#
#
# Convention : Reuss Voigt Hill
#
# Bulk Modulus (GPa) = 20.27484 27.01668 23.64576
# Shear Modulus (GPa) = 36.50441 41.39383 38.94912
#
# Velocity S-wave (km/s) = 3.92900 4.18386 4.05843
# Velocity P-wave (km/s) = 5.39968 5.89613 5.65336
#
# Compressibility (1/GPa) = 0.04932220
#
# Stress axis : x y z
#
# Youngs Moduli (GPa) = 104.94431 59.61831 45.81941
#
# Poissons Ratio (x) = 0.09030 -0.01984
# Poissons Ratio (y) = 0.15895 -0.07694
# Poissons Ratio (z) = -0.04544 -0.10011
#
# Static dielectric constant tensor:
#      x y z
#    x 1.922630 0.000000 -0.025200 
#    y 0.000000 2.012130 0.000000 
#    z -0.025200 0.000000 1.870040 
# 
# From -- ./inp_files/15471.got.cif
#   From: 2010.05.17/outbox.ucp.g08.bks.cvg/sg4_8_cif.got.tgz:15471.got - 2010.06.11 12:51:24.
