data_PCOD9119963
_publ_section_title
;
Structure prediction by ZEFSAII (Michael W. Deem and Ramdas Pophale) SiO2 
 PCOD9119963
Probable space group: C 2
;
_chemical_formula_sum "Si O2"
_cell_formula_units_Z 28
_cell_length_a 5.466125
_cell_length_b 26.705491
_cell_length_c 7.510723
_cell_angle_alpha 90.000000
_cell_angle_beta 85.235533
_cell_angle_gamma 90.000000
_cell_volume 1092.593456
_symmetry_space_group_name_H-M "C 2"
_symmetry_group_IT_number 5
_symmetry_cell_setting 'monoclinic'
loop_
_space_group_symop_operation_xyz
x,y,z
-x,y,-z
1/2+x,1/2+y,z
1/2-x,1/2+y,-z
loop_
_atom_site_type_symbol
_atom_site_label
_atom_site_fract_x
_atom_site_fract_y
_atom_site_fract_z
Si Si1 0.926069 0.596200 0.206515
Si Si2 0.241108 0.503198 0.606701
Si Si3 0.424173 0.636939 0.212601
Si Si4 0.245986 0.290489 0.192099
Si Si5 0.251123 0.250087 0.785742
Si Si6 0.752787 0.893427 0.989378
Si Si7 0.756968 0.383791 0.397035
O O1 0.817091 0.540272 0.227791
O O2 0.692675 0.629423 0.286264
O O3 0.192935 0.602265 0.283459
O O4 0.000000 0.609541 0.000000
O O5 0.500000 0.517005 0.500000
O O6 0.257868 0.443812 0.637621
O O7 0.000000 0.508931 0.500000
O O8 0.308388 0.691954 0.234775
O O9 0.500000 0.628163 0.000000
O O10 0.477216 0.268306 0.283076
O O11 0.261688 0.349226 0.135839
O O12 0.247212 0.262584 0.998879
O O13 0.982737 0.277204 0.288150
O O14 0.244354 0.364487 0.803761
O O15 0.500000 0.922742 0.000000
O O16 0.000000 0.923739 0.000000
O O17 0.500000 0.369055 0.500000
O O18 0.000000 0.375532 0.500000
#
# Coordination Sequence:
#
# PCOD9119963 Si02
#       7
#     4   4   4   4   4   4   4
#     4  10  21  33  52  86 118 135 183 241 295 319
#     4  10  21  41  63  79 108 157 203 226 276 367
#     4  10  18  28  47  77 119 143 173 227 285 335
#     4  10  17  27  46  77 117 141 185 226 283 329
#     4  10  16  27  45  72 120 144 180 215 290 334
#     4  12  21  36  58  94 124 143 198 257 297 336
#     4  10  23  42  62  85 117 163 201 234 294 371
#
# _framework density 25.627101
#
# number of rings (size 3 to 8) (size 9 to 14) (size 15 to 20)
#    0.000    1.714    4.286    2.571    4.000    0.571 
#    0.000    2.143    0.000    0.000    0.000    6.000 
#    0.000    0.000    0.000    0.000    0.000    0.000 
#
# Total GULP energy -78154.736567 kJ/mol
# GULP energy per Si atom -5582.481183 kJ/mol
# Density = 2.556877 g / cm^3
# Si number density = 25.627101 Si / 1000 Ang^3
#
#
#
# Elastic Constant Matrix: (Units=GPa)
#
#
# Indices 1 2 3 4 5 6 
#
# 1 301.3221 31.6500 50.1895 0.0000 -41.2590 0.0000
# 2 31.6500 91.8691 4.4625 0.0000 -9.5844 0.0000
# 3 50.1895 4.4625 57.1424 0.0000 -0.7031 0.0000
# 4 0.0000 0.0000 0.0000 16.9687 0.0000 -2.1000
# 5 -41.2590 -9.5844 -0.7031 0.0000 30.5323 0.0000
# 6 0.0000 0.0000 0.0000 -2.1000 0.0000 22.2011
#
#
#
# Elastic Compliance Matrix: (Units=1/GPa)
#
#
# Indices 1 2 3 4 5 6 
#
# 1 0.004986 -0.000847 -0.004235 0.000000 0.006374 0.000000
# 2 -0.000847 0.011438 -0.000119 0.000000 0.002443 0.000000
# 3 -0.004235 -0.000119 0.021164 0.000000 -0.005272 0.000000
# 4 0.000000 0.000000 0.000000 0.059630 0.000000 0.005641
# 5 0.006374 0.002443 -0.005272 0.000000 0.042011 0.000000
# 6 0.000000 0.000000 0.000000 0.005641 0.000000 0.045576
#
#
# Mechanical properties :
#
#
# Convention : Reuss Voigt Hill
#
# Bulk Modulus (GPa) = 36.78412 69.21531 52.99972
# Shear Modulus (GPa) = 24.47765 38.20920 31.34342
#
# Velocity S-wave (km/s) = 3.09390 3.86549 3.50102
# Velocity P-wave (km/s) = 5.21035 6.85493 6.08842
#
# Compressibility (1/GPa) = 0.02718564
#
# Stress axis : x y z
#
# Youngs Moduli (GPa) = 200.57110 87.43161 47.25037
#
# Poissons Ratio (x) = 0.07405 0.20008
# Poissons Ratio (y) = 0.16988 0.00563
# Poissons Ratio (z) = 0.84933 0.01042
#
# Static dielectric constant tensor:
#      x y z
#    x 2.141850 0.000000 -0.054320 
#    y 0.000000 2.025700 0.000000 
#    z -0.054320 0.000000 2.074110 
# 
# From -- ./inp_files/33735.got.cif
#   From: 2010.05.17/outbox.cif.g08.bks.cpg/sg5_17_cif.got.tgz:33735.got - 2010.06.03 18:56:24.
