data_PCOD9119912
_publ_section_title
;
Structure prediction by ZEFSAII (Michael W. Deem and Ramdas Pophale) SiO2 
 PCOD9119912
Probable space group: C 2
;
_chemical_formula_sum "Si O2"
_cell_formula_units_Z 32
_cell_length_a 28.351546
_cell_length_b 12.115531
_cell_length_c 7.959051
_cell_angle_alpha 90.000000
_cell_angle_beta 30.623924
_cell_angle_gamma 90.000000
_cell_volume 1392.643925
_symmetry_space_group_name_H-M "C 2"
_symmetry_group_IT_number 5
_symmetry_cell_setting 'monoclinic'
loop_
_space_group_symop_operation_xyz
x,y,z
-x,y,-z
1/2+x,1/2+y,z
1/2-x,1/2+y,-z
loop_
_atom_site_type_symbol
_atom_site_label
_atom_site_fract_x
_atom_site_fract_y
_atom_site_fract_z
Si Si1 0.623805 0.791480 0.992006
Si Si2 0.876153 0.595599 0.532481
Si Si3 0.107482 0.046560 0.644504
Si Si4 0.690304 0.315639 0.411778
Si Si5 0.703475 0.866110 0.264981
Si Si6 0.557922 0.037507 0.149044
Si Si7 0.289837 0.169258 0.158179
Si Si8 0.559854 0.713010 0.556993
O O1 0.734339 0.788524 0.675311
O O2 0.591200 0.759546 0.280640
O O3 0.551412 0.718758 0.106357
O O4 0.601660 0.916488 0.005621
O O5 0.864015 0.705431 0.464463
O O6 0.821101 0.491841 0.625557
O O7 0.981690 0.562285 0.243871
O O8 0.830560 0.624085 0.854704
O O9 0.192415 0.106745 0.476783
O O10 0.110078 0.096576 0.444925
O O11 0.123504 0.919470 0.640000
O O12 0.000000 0.074474 0.000000
O O13 0.747152 0.354189 0.068820
O O14 0.767016 0.797664 0.198372
O O15 0.607192 0.798192 0.541765
O O16 0.500000 0.034951 0.500000
O O17 0.635992 0.130021 0.933639
#
# Coordination Sequence:
#
# PCOD9119912 Si02
#       8
#     4   4   4   4   4   4   4   4
#     4  10  15  29  54  82 101 128 164 230 271 304
#     4  10  17  28  51  81 104 125 162 224 275 304
#     4  11  21  34  52  72 108 151 182 201 240 321
#     4  10  19  30  49  75 105 138 170 207 266 315
#     4   9  15  27  47  77 103 125 156 224 268 300
#     4  10  14  26  49  80 104 127 162 205 273 318
#     4   9  17  28  48  73 105 129 172 207 254 307
#     4   9  17  29  51  83 103 129 174 219 262 302
#
# _framework density 22.977875000000001
#
# number of rings (size 3 to 8) (size 9 to 14) (size 15 to 20)
#    0.000    2.250    5.000    2.250    0.000    0.000 
#    0.000    1.250    8.250    3.000    0.000    0.000 
#    0.000    0.000    0.000    0.000    0.000    0.000 
#
# Total GULP energy -89272.318494 kJ/mol
# GULP energy per Si atom -5579.519906 kJ/mol
# Density = 2.292558 g / cm^3
# Si number density = 22.977875 Si / 1000 Ang^3
#
#
#
# Elastic Constant Matrix: (Units=GPa)
#
#
# Indices 1 2 3 4 5 6 
#
# 1 53.8941 19.3554 34.7261 0.0000 -21.6794 0.0000
# 2 19.3554 102.2188 -0.0850 0.0000 -19.0170 0.0000
# 3 34.7261 -0.0850 57.2817 0.0000 -15.5579 0.0000
# 4 0.0000 0.0000 0.0000 27.2401 0.0000 -21.4095
# 5 -21.6794 -19.0170 -15.5579 0.0000 40.8216 0.0000
# 6 0.0000 0.0000 0.0000 -21.4095 0.0000 9.1297
#
#
#
# Elastic Compliance Matrix: (Units=1/GPa)
#
#
# Indices 1 2 3 4 5 6 
#
# 1 0.037171 -0.005249 -0.019905 0.000000 0.009709 0.000000
# 2 -0.005249 0.011574 0.004357 0.000000 0.004265 0.000000
# 3 -0.019905 0.004357 0.030353 0.000000 0.003027 0.000000
# 4 0.000000 0.000000 0.000000 -0.043542 0.000000 -0.102109
# 5 0.009709 0.004265 0.003027 0.000000 0.032794 0.000000
# 6 0.000000 0.000000 0.000000 -0.102109 0.000000 -0.129916
#
#
# Mechanical properties :
#
#
# Convention : Reuss Voigt Hill
#
# Bulk Modulus (GPa) = 26.66247 35.70972 31.18610
# Shear Modulus (GPa) = -669.23789 26.06480 -321.58654
#
# Velocity S-wave (km/s) = -17.08466 3.37166 -11.84309
# Velocity P-wave (km/s) = 19.43069 5.54365 13.16852
#
# Compressibility (1/GPa) = 0.03750590
#
# Stress axis : x y z
#
# Youngs Moduli (GPa) = 26.90243 86.40142 32.94524
#
# Poissons Ratio (x) = 0.45349 0.65578
# Poissons Ratio (y) = 0.14120 -0.14356
# Poissons Ratio (z) = 0.53550 -0.37649
#
# Static dielectric constant tensor:
#      x y z
#    x 1.861070 0.000000 0.051100 
#    y 0.000000 1.842080 0.000000 
#    z 0.051100 0.000000 1.936520 
# 
# From -- ./inp_files/32612.got.cif
#   From: 2010.05.17/outbox.cif.g08.bks.cpg/sg5_17_cif.got.tgz:32612.got - 2010.06.03 18:56:24.
