data_PCOD9119110
_publ_section_title
;
Structure prediction by ZEFSAII (Michael W. Deem and Ramdas Pophale) SiO2 
 PCOD9119110
Probable space group: P 21
;
_chemical_formula_sum "Si O2"
_cell_formula_units_Z 14
_cell_length_a 5.548905
_cell_length_b 18.260076
_cell_length_c 5.121000
_cell_angle_alpha 90.000000
_cell_angle_beta 96.414244
_cell_angle_gamma 90.000000
_cell_volume 515.629190
_symmetry_space_group_name_H-M "P 21"
_symmetry_group_IT_number 4
_symmetry_cell_setting 'monoclinic'
loop_
_space_group_symop_operation_xyz
x,y,z
-x,1/2+y,-z
loop_
_atom_site_type_symbol
_atom_site_label
_atom_site_fract_x
_atom_site_fract_y
_atom_site_fract_z
Si Si1 0.064306 0.841240 0.636453
Si Si2 0.462746 0.373620 0.557610
Si Si3 0.033344 0.214069 0.013975
Si Si4 0.579584 0.607668 0.911487
Si Si5 0.171169 0.637685 0.492611
Si Si6 0.245307 0.505848 0.205792
Si Si7 0.166563 0.955954 0.039406
O O1 0.808435 0.838292 0.445306
O O2 0.332978 0.822421 0.560114
O O3 0.000598 0.795521 0.887908
O O4 0.115206 0.924081 0.741569
O O5 0.397430 0.445569 0.377460
O O6 0.632609 0.404119 0.811397
O O7 0.964241 0.167985 0.266788
O O8 0.295455 0.181717 0.975918
O O9 0.873469 0.194325 0.745977
O O10 0.441824 0.626538 0.630138
O O11 0.754268 0.538441 0.900960
O O12 0.398683 0.570708 0.093780
O O13 0.087343 0.558063 0.379636
O O14 0.120829 0.464689 0.941547
#
# Coordination Sequence:
#
# PCOD9119110 Si02
#       7
#     2   2   2   2   2   2   2
#     4  11  29  49  72 113 154 216 261 321 395 481
#     4  11  26  47  80 110 155 201 263 326 394 470
#     4  12  31  48  74 111 164 208 266 320 398 480
#     4  12  24  44  76 116 151 204 261 336 393 467
#     4  12  26  48  73 113 154 203 259 323 396 469
#     4  11  24  44  75 118 152 195 265 330 401 460
#     4  11  24  44  78 111 152 199 263 336 391 469
#
# _framework density 27.151294
#
# number of rings (size 3 to 8) (size 9 to 14) (size 15 to 20)
#    0.000    0.571    5.714    0.000    8.000    3.429 
#    0.000    0.000    0.000    0.000    0.000    0.000 
#    0.000    0.000    0.000    0.000    0.000    0.000 
#
# Total GULP energy -78097.249718 kJ/mol
# GULP energy per Si atom -5578.374980 kJ/mol
# Density = 2.708950 g / cm^3
# Si number density = 27.151294 Si / 1000 Ang^3
#
#
#
# Elastic Constant Matrix: (Units=GPa)
#
#
# Indices 1 2 3 4 5 6 
#
# 1 105.1326 8.7521 51.2043 0.0000 32.0115 0.0000
# 2 8.7521 85.3675 30.2997 0.0000 16.8450 0.0000
# 3 51.2043 30.2997 136.8015 0.0000 33.9597 0.0000
# 4 0.0000 0.0000 0.0000 61.8110 0.0000 6.1745
# 5 32.0115 16.8450 33.9597 0.0000 53.9584 0.0000
# 6 0.0000 0.0000 0.0000 6.1745 0.0000 29.1414
#
#
#
# Elastic Compliance Matrix: (Units=1/GPa)
#
#
# Indices 1 2 3 4 5 6 
#
# 1 0.012949 0.001104 -0.003672 0.000000 -0.005715 0.000000
# 2 0.001104 0.013124 -0.002537 0.000000 -0.003155 0.000000
# 3 -0.003672 -0.002537 0.010084 0.000000 -0.003376 0.000000
# 4 0.000000 0.000000 0.000000 0.016528 0.000000 -0.003502
# 5 -0.005715 -0.003155 -0.003376 0.000000 0.025033 0.000000
# 6 0.000000 0.000000 0.000000 -0.003502 0.000000 0.035057
#
#
# Mechanical properties :
#
#
# Convention : Reuss Voigt Hill
#
# Bulk Modulus (GPa) = 38.54090 56.42376 47.48233
# Shear Modulus (GPa) = 37.98374 44.78520 41.38447
#
# Velocity S-wave (km/s) = 3.74433 4.06577 3.90836
# Velocity P-wave (km/s) = 5.73751 6.54729 6.15573
#
# Compressibility (1/GPa) = 0.02594646
#
# Stress axis : x y z
#
# Youngs Moduli (GPa) = 77.22752 76.19720 99.16367
#
# Poissons Ratio (x) = -0.08410 0.36416
# Poissons Ratio (y) = -0.08523 0.25153
# Poissons Ratio (z) = 0.28361 0.19328
#
# Static dielectric constant tensor:
#      x y z
#    x 2.471200 0.000000 -0.094240 
#    y 0.000000 2.258980 0.000000 
#    z -0.094240 0.000000 2.153270 
# 
# From -- ./inp_files/599.got.cif
#   From: 2010.05.17/outbox.cif.g08.bks.cpg/sg4_1_cif.got.tgz:599.got - 2010.06.03 18:43:04.
