data_PCOD9119797
_publ_section_title
;
Structure prediction by ZEFSAII (Michael W. Deem and Ramdas Pophale) SiO2 
 PCOD9119797
Probable space group: P 21
;
_chemical_formula_sum "Si O2"
_cell_formula_units_Z 12
_cell_length_a 10.147616
_cell_length_b 4.632723
_cell_length_c 8.860280
_cell_angle_alpha 90.000000
_cell_angle_beta 90.464558
_cell_angle_gamma 90.000000
_cell_volume 416.517765
_symmetry_space_group_name_H-M "P 21"
_symmetry_group_IT_number 4
_symmetry_cell_setting 'monoclinic'
loop_
_space_group_symop_operation_xyz
x,y,z
-x,1/2+y,-z
loop_
_atom_site_type_symbol
_atom_site_label
_atom_site_fract_x
_atom_site_fract_y
_atom_site_fract_z
Si Si1 0.905368 0.410900 0.498249
Si Si2 0.731347 0.748801 0.741871
Si Si3 0.507850 0.635083 0.395707
Si Si4 0.732632 0.048671 0.258404
Si Si5 0.911420 0.999097 0.992801
Si Si6 0.593341 0.431659 0.005659
O O1 0.816881 0.584198 0.617684
O O2 0.998239 0.664731 0.431442
O O3 0.171958 0.441816 0.155999
O O4 0.562346 0.386759 0.507778
O O5 0.608293 0.949178 0.687530
O O6 0.323048 0.018535 0.137705
O O7 0.631746 0.820994 0.332295
O O8 0.819980 0.229829 0.377204
O O9 0.520866 0.721262 0.052280
O O10 0.656225 0.275025 0.149000
O O11 0.829021 0.900341 0.137755
O O12 0.047924 0.828275 0.987794
#
# Coordination Sequence:
#
# PCOD9119797 Si02
#       6
#     2   2   2   2   2   2
#     4  12  34  62 100 144 194 258 336 404 488 586
#     4  12  33  63  97 143 193 259 322 411 492 590
#     4  12  36  60  94 142 202 262 324 410 500 592
#     4  12  33  63  97 143 193 259 322 411 492 590
#     4  12  30  60  98 136 188 248 324 390 478 572
#     4  12  32  52  92 144 192 248 310 396 502 588
#
# _framework density 28.810293000000001
#
# number of rings (size 3 to 8) (size 9 to 14) (size 15 to 20)
#    0.000    0.000    0.000    3.000   14.000   18.667 
#    6.000    0.000    0.000    0.000    0.000    0.000 
#    0.000    0.000    0.000    0.000    0.000    0.000 
#
# Total GULP energy -67459.446032 kJ/mol
# GULP energy per Si atom -5621.620503 kJ/mol
# Density = 2.874472 g / cm^3
# Si number density = 28.810293 Si / 1000 Ang^3
#
#
#
# Elastic Constant Matrix: (Units=GPa)
#
#
# Indices 1 2 3 4 5 6 
#
# 1 187.9065 85.9917 125.8611 0.0000 -10.4772 0.0000
# 2 85.9917 205.6987 98.5570 0.0000 -6.9602 0.0000
# 3 125.8611 98.5570 193.4064 0.0000 -0.7364 0.0000
# 4 0.0000 0.0000 0.0000 80.2039 0.0000 -5.2561
# 5 -10.4772 -6.9602 -0.7364 0.0000 56.3561 0.0000
# 6 0.0000 0.0000 0.0000 -5.2561 0.0000 74.5235
#
#
#
# Elastic Compliance Matrix: (Units=1/GPa)
#
#
# Indices 1 2 3 4 5 6 
#
# 1 0.009856 -0.001318 -0.005736 0.000000 0.001595 0.000000
# 2 -0.001318 0.006640 -0.002524 0.000000 0.000542 0.000000
# 3 -0.005736 -0.002524 0.010185 0.000000 -0.001245 0.000000
# 4 0.000000 0.000000 0.000000 0.012526 0.000000 0.000883
# 5 0.001595 0.000542 -0.001245 0.000000 0.018091 0.000000
# 6 0.000000 0.000000 0.000000 0.000883 0.000000 0.013481
#
#
# Mechanical properties :
#
#
# Convention : Reuss Voigt Hill
#
# Bulk Modulus (GPa) = 132.89639 134.20348 133.54994
# Shear Modulus (GPa) = 54.08692 60.65683 57.37187
#
# Velocity S-wave (km/s) = 4.33754 4.59343 4.46731
# Velocity P-wave (km/s) = 8.44475 8.64961 8.54779
#
# Compressibility (1/GPa) = 0.00752466
#
# Stress axis : x y z
#
# Youngs Moduli (GPa) = 101.46123 150.60040 98.18541
#
# Poissons Ratio (x) = 0.19847 0.56321
# Poissons Ratio (y) = 0.13371 0.24782
# Poissons Ratio (z) = 0.58200 0.38011
#
# Static dielectric constant tensor:
#      x y z
#    x 2.251890 0.000000 -0.051510 
#    y 0.000000 2.178610 0.000000 
#    z -0.051510 0.000000 2.455850 
# 
# From -- ./inp_files/10699.got.cif
#   From: 2010.05.17/outbox.cif.g08.bks.cpg/sg4_6_cif.got.tgz:10699.got - 2010.06.03 18:43:04.
