data_PCOD9119153
_publ_section_title
;
Structure prediction by ZEFSAII (Michael W. Deem and Ramdas Pophale) SiO2 
 PCOD9119153
Probable space group: P 21
;
_chemical_formula_sum "Si O2"
_cell_formula_units_Z 16
_cell_length_a 6.570261
_cell_length_b 14.808868
_cell_length_c 8.550171
_cell_angle_alpha 90.000000
_cell_angle_beta 52.238613
_cell_angle_gamma 90.000000
_cell_volume 657.685782
_symmetry_space_group_name_H-M "P 21"
_symmetry_group_IT_number 4
_symmetry_cell_setting 'monoclinic'
loop_
_space_group_symop_operation_xyz
x,y,z
-x,1/2+y,-z
loop_
_atom_site_type_symbol
_atom_site_label
_atom_site_fract_x
_atom_site_fract_y
_atom_site_fract_z
Si Si1 0.152865 0.782620 0.605696
Si Si2 0.792145 0.985890 0.435502
Si Si3 0.355565 0.993221 0.024990
Si Si4 0.107724 0.474795 0.259494
Si Si5 0.647677 0.669048 0.841273
Si Si6 0.757895 0.311119 0.081342
Si Si7 0.354011 0.104116 0.499472
Si Si8 0.309478 0.295517 0.672678
O O1 0.409446 0.784159 0.380086
O O2 0.010659 0.877344 0.659108
O O3 0.932750 0.709448 0.690295
O O4 0.258750 0.779265 0.732851
O O5 0.784861 0.003787 0.622551
O O6 0.688313 0.887922 0.429464
O O7 0.091123 0.983281 0.245617
O O8 0.619512 0.062937 0.438068
O O9 0.315517 0.916016 0.911783
O O10 0.370670 0.102367 0.001296
O O11 0.636805 0.970401 0.966130
O O12 0.876737 0.541250 0.328325
O O13 0.617061 0.607834 0.700734
O O14 0.432892 0.747560 0.930265
O O15 0.057408 0.301510 0.897120
O O16 0.280817 0.204404 0.587037
#
# Coordination Sequence:
#
# PCOD9119153 Si02
#       8
#     2   2   2   2   2   2   2   2
#     4  12  25  48  72 103 146 190 234 300 355 417
#     4  11  25  48  68 104 144 182 234 301 351 419
#     4  11  25  45  72 106 144 185 243 291 354 428
#     4  12  25  44  72 104 140 190 237 290 359 422
#     4  12  25  49  73 106 147 185 241 302 350 426
#     4  11  26  48  71 105 147 190 235 301 359 419
#     4  12  25  46  76 104 142 193 235 296 360 422
#     4  11  24  46  70 102 142 187 237 287 358 427
#
# _framework density 24.327725999999998
#
# number of rings (size 3 to 8) (size 9 to 14) (size 15 to 20)
#    0.000    0.500    5.000    3.000    0.000    4.000 
#    2.250    0.000    0.000    0.000    0.000    0.000 
#    0.000    0.000    0.000    0.000    0.000    0.000 
#
# Total GULP energy -89459.637691 kJ/mol
# GULP energy per Si atom -5591.227356 kJ/mol
# Density = 2.427235 g / cm^3
# Si number density = 24.327726 Si / 1000 Ang^3
#
#
#
# Elastic Constant Matrix: (Units=GPa)
#
#
# Indices 1 2 3 4 5 6 
#
# 1 105.5802 48.4967 46.8563 0.0000 -41.2312 0.0000
# 2 48.4967 102.1490 14.0045 0.0000 1.7745 0.0000
# 3 46.8563 14.0045 79.4808 0.0000 -44.5711 0.0000
# 4 0.0000 0.0000 0.0000 34.0166 0.0000 -11.9203
# 5 -41.2312 1.7745 -44.5711 0.0000 53.9775 0.0000
# 6 0.0000 0.0000 0.0000 -11.9203 0.0000 57.9333
#
#
#
# Elastic Compliance Matrix: (Units=1/GPa)
#
#
# Indices 1 2 3 4 5 6 
#
# 1 0.020384 -0.009551 -0.002656 0.000000 0.013691 0.000000
# 2 -0.009551 0.014840 -0.002512 0.000000 -0.009858 0.000000
# 3 -0.002656 -0.002512 0.025140 0.000000 0.018812 0.000000
# 4 0.000000 0.000000 0.000000 0.031682 0.000000 0.006519
# 5 0.013691 -0.009858 0.018812 0.000000 0.044843 0.000000
# 6 0.000000 0.000000 0.000000 0.006519 0.000000 0.018603
#
#
# Mechanical properties :
#
#
# Convention : Reuss Voigt Hill
#
# Bulk Modulus (GPa) = 32.33735 56.21388 44.27562
# Shear Modulus (GPa) = 25.60954 41.04232 33.32593
#
# Velocity S-wave (km/s) = 3.24804 4.11184 3.70520
# Velocity P-wave (km/s) = 5.23331 6.76018 6.04515
#
# Compressibility (1/GPa) = 0.03092400
#
# Stress axis : x y z
#
# Youngs Moduli (GPa) = 49.05691 67.38547 39.77732
#
# Poissons Ratio (x) = 0.64363 0.10567
# Poissons Ratio (y) = 0.46857 0.09993
# Poissons Ratio (z) = 0.13032 0.16929
#
# Static dielectric constant tensor:
#      x y z
#    x 1.995100 0.000000 -0.038640 
#    y 0.000000 1.934220 0.000000 
#    z -0.038640 0.000000 1.993980 
# 
# From -- ./inp_files/1765.got.cif
#   From: 2010.05.17/outbox.cif.g08.bks.cpg/sg4_1_cif.got.tgz:1765.got - 2010.06.03 18:43:04.
