data_PCOD9119315
_publ_section_title
;
Structure prediction by ZEFSAII (Michael W. Deem and Ramdas Pophale) SiO2 
 PCOD9119315
Probable space group: P 21
;
_chemical_formula_sum "Si O2"
_cell_formula_units_Z 16
_cell_length_a 12.643823
_cell_length_b 8.652286
_cell_length_c 9.541993
_cell_angle_alpha 90.000000
_cell_angle_beta 40.095846
_cell_angle_gamma 90.000000
_cell_volume 672.326462
_symmetry_space_group_name_H-M "P 21"
_symmetry_group_IT_number 4
_symmetry_cell_setting 'monoclinic'
loop_
_space_group_symop_operation_xyz
x,y,z
-x,1/2+y,-z
loop_
_atom_site_type_symbol
_atom_site_label
_atom_site_fract_x
_atom_site_fract_y
_atom_site_fract_z
Si Si1 0.822613 0.468550 0.161173
Si Si2 0.435714 0.164633 0.453782
Si Si3 0.075250 0.346942 0.256455
Si Si4 0.576596 0.848048 0.241999
Si Si5 0.894251 0.180878 0.674416
Si Si6 0.133125 0.649029 0.755552
Si Si7 0.374015 0.621333 0.287308
Si Si8 0.635258 0.399408 0.081545
O O1 0.738463 0.574110 0.365754
O O2 0.813703 0.284589 0.193685
O O3 0.709978 0.490032 0.138187
O O4 0.005685 0.528403 0.949142
O O5 0.440868 0.254095 0.595787
O O6 0.494770 0.280728 0.274368
O O7 0.560880 0.023378 0.307703
O O8 0.045722 0.530407 0.303157
O O9 0.038447 0.264567 0.441913
O O10 0.958860 0.255358 0.267174
O O11 0.254669 0.328273 0.010837
O O12 0.436891 0.789440 0.275393
O O13 0.755828 0.120662 0.704953
O O14 0.790688 0.309193 0.862703
O O15 0.278458 0.565291 0.524635
O O16 0.534914 0.521483 0.090740
#
# Coordination Sequence:
#
# PCOD9119315 Si02
#       8
#     2   2   2   2   2   2   2   2
#     4  12  26  43  71 105 142 182 222 289 363 416
#     4  12  22  41  72 106 135 182 219 289 360 407
#     4  11  26  49  69  98 143 187 238 284 347 408
#     4  12  22  45  73 102 143 178 234 291 348 420
#     4  11  29  47  71 100 137 195 235 287 343 408
#     4  11  26  45  69 105 141 182 230 288 349 426
#     4  11  25  46  67 102 136 184 241 283 337 413
#     4  12  26  46  74 102 139 182 235 287 351 414
#
# _framework density 23.797964
#
# number of rings (size 3 to 8) (size 9 to 14) (size 15 to 20)
#    0.000    0.500    6.250    0.000   10.500    1.000 
#    2.250    0.000    0.000    0.000    0.000    0.000 
#    0.000    0.000    0.000    0.000    0.000    0.000 
#
# Total GULP energy -89468.825802 kJ/mol
# GULP energy per Si atom -5591.801613 kJ/mol
# Density = 2.374380 g / cm^3
# Si number density = 23.797964 Si / 1000 Ang^3
#
#
#
# Elastic Constant Matrix: (Units=GPa)
#
#
# Indices 1 2 3 4 5 6 
#
# 1 26.6529 -1.0740 -4.0084 0.0000 -0.7481 0.0000
# 2 -1.0740 113.9414 35.4086 0.0000 3.7300 0.0000
# 3 -4.0084 35.4086 139.4182 0.0000 -8.6509 0.0000
# 4 0.0000 0.0000 0.0000 55.2599 0.0000 -10.9004
# 5 -0.7481 3.7300 -8.6509 0.0000 23.5912 0.0000
# 6 0.0000 0.0000 0.0000 -10.9004 0.0000 23.2882
#
#
#
# Elastic Compliance Matrix: (Units=1/GPa)
#
#
# Indices 1 2 3 4 5 6 
#
# 1 0.037744 -0.000073 0.001206 0.000000 0.001651 0.000000
# 2 -0.000073 0.009669 -0.002612 0.000000 -0.002489 0.000000
# 3 0.001206 -0.002612 0.008083 0.000000 0.003415 0.000000
# 4 0.000000 0.000000 0.000000 0.019937 0.000000 0.009332
# 5 0.001651 -0.002489 0.003415 0.000000 0.044087 0.000000
# 6 0.000000 0.000000 0.000000 0.009332 0.000000 0.047308
#
#
# Mechanical properties :
#
#
# Convention : Reuss Voigt Hill
#
# Bulk Modulus (GPa) = 19.03400 37.85165 28.44283
# Shear Modulus (GPa) = 26.69532 37.07361 31.88447
#
# Velocity S-wave (km/s) = 3.35288 3.95124 3.66430
# Velocity P-wave (km/s) = 4.79632 6.06270 5.46631
#
# Compressibility (1/GPa) = 0.05253756
#
# Stress axis : x y z
#
# Youngs Moduli (GPa) = 26.49419 103.42323 123.72115
#
# Poissons Ratio (x) = 0.00756 -0.14923
# Poissons Ratio (y) = 0.00194 0.32319
# Poissons Ratio (z) = -0.03196 0.27016
#
# Static dielectric constant tensor:
#      x y z
#    x 1.948820 0.000000 0.006990 
#    y 0.000000 1.921030 0.000000 
#    z 0.006990 0.000000 1.920060 
# 
# From -- ./inp_files/7946.got.cif
#   From: 2010.05.17/outbox.cif.g08.bks.cpg/sg4_4_cif.got.tgz:7946.got - 2010.06.03 18:43:04.
