data_PCOD9119646
_publ_section_title
;
Structure prediction by ZEFSAII (Michael W. Deem and Ramdas Pophale) SiO2 
 PCOD9119646
Probable space group: P 21
;
_chemical_formula_sum "Si O2"
_cell_formula_units_Z 14
_cell_length_a 10.442714
_cell_length_b 5.871175
_cell_length_c 16.954461
_cell_angle_alpha 90.000000
_cell_angle_beta 34.005462
_cell_angle_gamma 90.000000
_cell_volume 581.360368
_symmetry_space_group_name_H-M "P 21"
_symmetry_group_IT_number 4
_symmetry_cell_setting 'monoclinic'
loop_
_space_group_symop_operation_xyz
x,y,z
-x,1/2+y,-z
loop_
_atom_site_type_symbol
_atom_site_label
_atom_site_fract_x
_atom_site_fract_y
_atom_site_fract_z
Si Si1 0.194972 0.118590 0.837191
Si Si2 0.192835 0.079412 0.112196
Si Si3 0.556258 0.430052 0.595101
Si Si4 0.114419 0.745057 0.441015
Si Si5 0.579491 0.403606 0.845681
Si Si6 0.298423 0.770408 0.911970
Si Si7 0.302106 0.787493 0.649536
O O1 0.326455 0.350596 0.755847
O O2 0.327527 0.971091 0.834541
O O3 0.204812 0.999179 0.747420
O O4 0.934893 0.147008 0.995532
O O5 0.923465 0.132485 0.246657
O O6 0.278184 0.010927 0.155242
O O7 0.352355 0.286474 0.998424
O O8 0.244351 0.877720 0.024770
O O9 0.753208 0.333512 0.549064
O O10 0.505340 0.691264 0.601273
O O11 0.593835 0.331568 0.488733
O O12 0.268886 0.730865 0.282822
O O13 0.032780 0.482772 0.498691
O O14 0.502382 0.596912 0.822802
#
# Coordination Sequence:
#
# PCOD9119646 Si02
#       7
#     2   2   2   2   2   2   2
#     4  12  26  44  72 110 150 191 249 313 388 461
#     4  12  25  46  75 110 149 199 253 318 387 461
#     4  12  27  48  77 109 155 201 256 318 392 468
#     4  12  32  54  78 114 162 212 266 322 390 476
#     4  12  27  48  77 109 155 201 256 318 392 468
#     4  12  26  44  72 110 150 191 249 313 388 461
#     4  12  25  46  75 110 149 199 253 318 387 461
#
# _framework density 24.081448999999999
#
# number of rings (size 3 to 8) (size 9 to 14) (size 15 to 20)
#    0.000    0.000    5.714    3.429    8.000    3.429 
#    0.000    0.000    0.000    0.000    0.000    0.000 
#    0.000    0.000    0.000    0.000    0.000    0.000 
#
# Total GULP energy -78300.812831 kJ/mol
# GULP energy per Si atom -5592.915202 kJ/mol
# Density = 2.402664 g / cm^3
# Si number density = 24.081449 Si / 1000 Ang^3
#
#
#
# Elastic Constant Matrix: (Units=GPa)
#
#
# Indices 1 2 3 4 5 6 
#
# 1 101.7894 18.6232 1.6107 0.0000 15.5609 0.0000
# 2 18.6232 47.5279 14.1751 0.0000 3.3734 0.0000
# 3 1.6107 14.1751 92.0632 0.0000 18.9329 0.0000
# 4 0.0000 0.0000 0.0000 46.0859 0.0000 7.3469
# 5 15.5609 3.3734 18.9329 0.0000 35.0867 0.0000
# 6 0.0000 0.0000 0.0000 7.3469 0.0000 44.0024
#
#
#
# Elastic Compliance Matrix: (Units=1/GPa)
#
#
# Indices 1 2 3 4 5 6 
#
# 1 0.011487 -0.004599 0.001647 0.000000 -0.005541 0.000000
# 2 -0.004599 0.023897 -0.003989 0.000000 0.001894 0.000000
# 3 0.001647 -0.003989 0.012957 0.000000 -0.007338 0.000000
# 4 0.000000 0.000000 0.000000 0.022292 0.000000 -0.003722
# 5 -0.005541 0.001894 -0.007338 0.000000 0.034736 0.000000
# 6 0.000000 0.000000 0.000000 -0.003722 0.000000 0.023347
#
#
# Mechanical properties :
#
#
# Convention : Reuss Voigt Hill
#
# Bulk Modulus (GPa) = 29.02005 34.46650 31.74328
# Shear Modulus (GPa) = 32.45000 38.83310 35.64155
#
# Velocity S-wave (km/s) = 3.67483 4.02004 3.85130
# Velocity P-wave (km/s) = 5.48478 5.99093 5.74343
#
# Compressibility (1/GPa) = 0.03445893
#
# Stress axis : x y z
#
# Youngs Moduli (GPa) = 87.05853 41.84568 77.18116
#
# Poissons Ratio (x) = 0.19243 -0.12708
# Poissons Ratio (y) = 0.40035 0.30784
# Poissons Ratio (z) = -0.14334 0.16691
#
# Static dielectric constant tensor:
#      x y z
#    x 1.912890 0.000000 -0.046940 
#    y 0.000000 1.963300 0.000000 
#    z -0.046940 0.000000 1.872360 
# 
# From -- ./inp_files/5159.got.cif
#   From: 2010.05.17/outbox.cif.g08.bks.cpg/sg4_3_cif.got.tgz:5159.got - 2010.06.03 18:43:04.
