data_PCOD9119888
_publ_section_title
;
Structure prediction by ZEFSAII (Michael W. Deem and Ramdas Pophale) SiO2 
 PCOD9119888
Probable space group: P 21
;
_chemical_formula_sum "Si O2"
_cell_formula_units_Z 16
_cell_length_a 15.000000
_cell_length_b 9.000000
_cell_length_c 15.000000
_cell_angle_alpha 90.000000
_cell_angle_beta 160.000000
_cell_angle_gamma 90.000000
_cell_volume 692.590790
_symmetry_space_group_name_H-M "P 21"
_symmetry_group_IT_number 4
_symmetry_cell_setting 'monoclinic'
loop_
_space_group_symop_operation_xyz
x,y,z
-x,1/2+y,-z
loop_
_atom_site_type_symbol
_atom_site_label
_atom_site_fract_x
_atom_site_fract_y
_atom_site_fract_z
Si Si1 0.241278 0.060560 0.790309
Si Si2 0.121323 0.028713 0.863749
Si Si3 0.580598 0.322461 0.655223
Si Si4 0.973811 0.723428 0.792353
Si Si5 0.534577 0.264637 0.252259
Si Si6 0.209855 0.699861 0.740954
Si Si7 0.351832 0.651206 0.462698
Si Si8 0.051241 0.459834 0.738975
O O1 0.055114 0.075429 0.701811
O O2 0.075465 0.163121 0.567690
O O3 0.252320 0.879742 0.786509
O O4 0.532607 0.132241 0.067160
O O5 0.928095 0.098313 0.756812
O O6 0.063250 0.853530 0.808272
O O7 0.423396 0.088056 0.148389
O O8 0.314708 0.255359 0.444599
O O9 0.524797 0.501212 0.607687
O O10 0.648287 0.249405 0.625106
O O11 0.818984 0.264049 0.937732
O O12 0.983480 0.559302 0.761582
O O13 0.544437 0.268850 0.367881
O O14 0.794277 0.362074 0.468395
O O15 0.286366 0.348768 0.980232
O O16 0.178989 0.586651 0.795573
#
# Coordination Sequence:
#
# PCOD9119888 Si02
#       8
#     2   2   2   2   2   2   2   2
#     4  12  29  48  79 109 157 196 256 313 380 454
#     4  11  26  51  76 104 150 204 246 303 383 455
#     4  11  27  43  74 103 149 184 258 300 374 439
#     4  11  25  49  71 103 143 201 238 308 370 443
#     4  12  26  44  75 106 144 195 248 297 370 445
#     4  12  29  50  75 117 151 202 250 317 379 445
#     4  11  27  48  73 111 147 202 248 310 379 442
#     4  12  27  47  75 107 151 188 254 300 375 445
#
# _framework density 23.101664
#
# number of rings (size 3 to 8) (size 9 to 14) (size 15 to 20)
#    0.000    0.500    3.750    2.250   12.250    0.000 
#    0.000    0.000    0.000    0.000    0.000    0.000 
#    0.000    0.000    0.000    0.000    0.000    0.000 
#
# Total GULP energy -89099.156482 kJ/mol
# GULP energy per Si atom -5568.697280 kJ/mol
# Density = 2.304908 g / cm^3
# Si number density = 23.101664 Si / 1000 Ang^3
#
#
#
# Elastic Constant Matrix: (Units=GPa)
#
#
# Indices 1 2 3 4 5 6 
#
# 1 79.2801 12.6924 4.5965 0.0000 33.1077 0.0000
# 2 12.6924 127.4600 13.6314 0.0000 29.4581 0.0000
# 3 4.5965 13.6314 123.8232 0.0000 45.8428 0.0000
# 4 0.0000 0.0000 0.0000 28.6498 0.0000 13.5094
# 5 33.1077 29.4581 45.8428 0.0000 25.0788 0.0000
# 6 0.0000 0.0000 0.0000 13.5094 0.0000 32.8961
#
#
#
# Elastic Compliance Matrix: (Units=1/GPa)
#
#
# Indices 1 2 3 4 5 6 
#
# 1 -0.005815 -0.009134 -0.017302 0.000000 0.050032 0.000000
# 2 -0.009134 0.004719 -0.008021 0.000000 0.021177 0.000000
# 3 -0.017302 -0.008021 -0.007249 0.000000 0.045513 0.000000
# 4 0.000000 0.000000 0.000000 0.043286 0.000000 -0.017776
# 5 0.050032 0.021177 0.045513 0.000000 -0.134245 0.000000
# 6 0.000000 0.000000 0.000000 -0.017776 0.000000 0.037699
#
#
# Mechanical properties :
#
#
# Convention : Reuss Voigt Hill
#
# Bulk Modulus (GPa) = -12.94375 43.60043 15.32834
# Shear Modulus (GPa) = -271.09089 37.30114 -116.89487
#
# Velocity S-wave (km/s) = -10.84443 4.02263 -7.12110
# Velocity P-wave (km/s) = 12.74431 6.36315 7.80793
#
# Compressibility (1/GPa) = -0.07725737
#
# Stress axis : x y z
#
# Youngs Moduli (GPa) = -171.97772 211.92434 -137.95499
#
# Poissons Ratio (x) = 1.93568 -2.38688
# Poissons Ratio (y) = -1.57082 -1.10647
# Poissons Ratio (z) = -2.97554 1.69975
#
# Static dielectric constant tensor:
#      x y z
#    x 2.023190 0.000000 -0.181600 
#    y 0.000000 1.879840 0.000000 
#    z -0.181600 0.000000 2.032750 
# 
# From -- ./inp_files/14221.got.cif
#   From: 2010.05.17/outbox.ucp.g08.bks.cvg/sg4_8_cif.got.tgz:14221.got - 2010.06.11 12:51:24.
