data_PCOD9119114
_publ_section_title
;
Structure prediction by ZEFSAII (Michael W. Deem and Ramdas Pophale) SiO2 
 PCOD9119114
Probable space group: P 21
;
_chemical_formula_sum "Si O2"
_cell_formula_units_Z 16
_cell_length_a 11.158164
_cell_length_b 7.855400
_cell_length_c 14.497485
_cell_angle_alpha 90.000000
_cell_angle_beta 28.229859
_cell_angle_gamma 90.000000
_cell_volume 601.068568
_symmetry_space_group_name_H-M "P 21"
_symmetry_group_IT_number 4
_symmetry_cell_setting 'monoclinic'
loop_
_space_group_symop_operation_xyz
x,y,z
-x,1/2+y,-z
loop_
_atom_site_type_symbol
_atom_site_label
_atom_site_fract_x
_atom_site_fract_y
_atom_site_fract_z
Si Si1 0.724752 0.724290 0.456963
Si Si2 0.092192 0.520184 0.311940
Si Si3 0.254559 0.115604 0.001862
Si Si4 0.621861 0.535750 0.340073
Si Si5 0.766286 0.285436 0.644047
Si Si6 0.415324 0.736783 0.848879
Si Si7 0.363379 0.044977 0.126809
Si Si8 0.000635 0.237561 0.010439
O O1 0.001653 0.649179 0.292175
O O2 0.626604 0.604231 0.441158
O O3 0.632304 0.919490 0.501070
O O4 0.604916 0.691354 0.638192
O O5 0.905203 0.364843 0.462446
O O6 0.121921 0.612491 0.390999
O O7 0.374523 0.470754 0.091768
O O8 0.464829 0.260034 0.839144
O O9 0.217490 0.113325 0.136382
O O10 0.015126 0.138507 0.098080
O O11 0.376563 0.936441 0.890822
O O12 0.709775 0.705756 0.223033
O O13 0.841461 0.403366 0.153433
O O14 0.793850 0.401943 0.715769
O O15 0.537001 0.661729 0.857781
O O16 0.153606 0.681609 0.976756
#
# Coordination Sequence:
#
# PCOD9119114 Si02
#       8
#     2   2   2   2   2   2   2   2
#     4  11  25  51  73 112 159 204 259 334 394 474
#     4  11  26  47  73 107 149 201 251 319 390 462
#     4  11  24  44  77 111 145 200 258 320 394 465
#     4  11  27  46  76 112 153 207 267 326 397 471
#     4  11  27  43  75 105 150 195 258 311 390 470
#     4  11  24  50  76 107 159 199 257 326 392 474
#     4  11  25  49  76 112 153 198 252 327 388 474
#     4  11  24  48  78 112 148 212 260 325 393 478
#
# _framework density 26.619259
#
# number of rings (size 3 to 8) (size 9 to 14) (size 15 to 20)
#    0.000    1.000    3.750    2.250    7.000    5.000 
#    9.000    0.000    2.750    0.000    0.000    0.000 
#    0.000    0.000    0.000    0.000    0.000    0.000 
#
# Total GULP energy -89242.630851 kJ/mol
# GULP energy per Si atom -5577.664428 kJ/mol
# Density = 2.655867 g / cm^3
# Si number density = 26.619259 Si / 1000 Ang^3
#
#
#
# Elastic Constant Matrix: (Units=GPa)
#
#
# Indices 1 2 3 4 5 6 
#
# 1 203.7905 43.2338 37.1975 0.0000 42.2886 0.0000
# 2 43.2338 59.8973 43.6383 0.0000 14.0199 0.0000
# 3 37.1975 43.6383 87.4932 0.0000 19.2505 0.0000
# 4 0.0000 0.0000 0.0000 50.6963 0.0000 7.5477
# 5 42.2886 14.0199 19.2505 0.0000 28.1628 0.0000
# 6 0.0000 0.0000 0.0000 7.5477 0.0000 44.4634
#
#
#
# Elastic Compliance Matrix: (Units=1/GPa)
#
#
# Indices 1 2 3 4 5 6 
#
# 1 0.007674 -0.003780 0.000876 0.000000 -0.010240 0.000000
# 2 -0.003780 0.028660 -0.012709 0.000000 0.000096 0.000000
# 3 0.000876 -0.012709 0.019177 0.000000 -0.008097 0.000000
# 4 0.000000 0.000000 0.000000 0.020237 0.000000 -0.003435
# 5 -0.010240 0.000096 -0.008097 0.000000 0.056371 0.000000
# 6 0.000000 0.000000 0.000000 -0.003435 0.000000 0.023074
#
#
# Mechanical properties :
#
#
# Convention : Reuss Voigt Hill
#
# Bulk Modulus (GPa) = 41.17694 66.59112 53.88403
# Shear Modulus (GPa) = 25.70507 39.80526 32.75516
#
# Velocity S-wave (km/s) = 3.11087 3.87118 3.51166
# Velocity P-wave (km/s) = 5.32971 6.71206 6.06043
#
# Compressibility (1/GPa) = 0.02428544
#
# Stress axis : x y z
#
# Youngs Moduli (GPa) = 130.30987 34.89128 52.14525
#
# Poissons Ratio (x) = 0.13191 -0.04568
# Poissons Ratio (y) = 0.49264 0.66269
# Poissons Ratio (z) = -0.11415 0.44342
#
# Static dielectric constant tensor:
#      x y z
#    x 2.099850 0.000000 -0.060300 
#    y 0.000000 2.288260 0.000000 
#    z -0.060300 0.000000 2.166650 
# 
# From -- ./inp_files/13930.got.cif
#   From: 2010.05.17/outbox.cif.g08.bks.cpg/sg4_7_cif.got.tgz:13930.got - 2010.06.03 18:43:04.
