data_PCOD9119612
_publ_section_title
;
Structure prediction by ZEFSAII (Michael W. Deem and Ramdas Pophale) SiO2 
 PCOD9119612
Probable space group: P 21
;
_chemical_formula_sum "Si O2"
_cell_formula_units_Z 14
_cell_length_a 8.631314
_cell_length_b 7.065068
_cell_length_c 10.000851
_cell_angle_alpha 90.000000
_cell_angle_beta 124.194062
_cell_angle_gamma 90.000000
_cell_volume 504.438964
_symmetry_space_group_name_H-M "P 21"
_symmetry_group_IT_number 4
_symmetry_cell_setting 'monoclinic'
loop_
_space_group_symop_operation_xyz
x,y,z
-x,1/2+y,-z
loop_
_atom_site_type_symbol
_atom_site_label
_atom_site_fract_x
_atom_site_fract_y
_atom_site_fract_z
Si Si1 0.182183 0.784820 0.251016
Si Si2 0.712988 0.671465 0.770802
Si Si3 0.312020 0.689183 0.584598
Si Si4 0.515791 0.199467 0.816418
Si Si5 0.235980 0.265907 0.905961
Si Si6 0.810992 0.814335 0.544773
Si Si7 0.771953 0.207302 0.173815
O O1 0.276403 0.820086 0.441700
O O2 0.325694 0.671503 0.225937
O O3 0.980036 0.698919 0.190044
O O4 0.147864 0.993851 0.172207
O O5 0.507454 0.578769 0.663303
O O6 0.722580 0.808580 0.649693
O O7 0.719289 0.771068 0.915405
O O8 0.161434 0.522531 0.503724
O O9 0.323112 0.776262 0.735098
O O10 0.382800 0.153828 0.884971
O O11 0.333148 0.220624 0.628936
O O12 0.679205 0.294589 0.996148
O O13 0.250112 0.480428 0.857243
O O14 0.013030 0.735256 0.681293
#
# Coordination Sequence:
#
# PCOD9119612 Si02
#       7
#     2   2   2   2   2   2   2
#     4  12  27  48  78 111 154 214 263 321 408 474
#     4  12  24  49  76 108 158 203 264 330 394 480
#     4  12  25  49  75 112 158 206 266 332 400 475
#     4  12  26  50  77 111 160 209 265 330 401 479
#     4  12  27  49  75 113 161 206 266 338 390 479
#     4  12  26  49  78 113 154 208 265 328 401 481
#     4  12  27  50  75 118 159 206 273 331 402 482
#
# _framework density 27.753606000000001
#
# number of rings (size 3 to 8) (size 9 to 14) (size 15 to 20)
#    0.000    0.000    7.143    1.714    2.000    2.286 
#    2.571    0.000    0.000    0.000    0.000    0.000 
#    0.000    0.000    0.000    0.000    0.000    0.000 
#
# Total GULP energy -77936.685179 kJ/mol
# GULP energy per Si atom -5566.906084 kJ/mol
# Density = 2.769044 g / cm^3
# Si number density = 27.753606 Si / 1000 Ang^3
#
#
#
# Elastic Constant Matrix: (Units=GPa)
#
#
# Indices 1 2 3 4 5 6 
#
# 1 159.7085 0.3949 75.9225 0.0000 5.3093 0.0000
# 2 0.3949 84.4358 33.5324 0.0000 -9.9313 0.0000
# 3 75.9225 33.5324 264.3117 0.0000 -27.1768 0.0000
# 4 0.0000 0.0000 0.0000 32.3615 0.0000 -14.9161
# 5 5.3093 -9.9313 -27.1768 0.0000 76.8118 0.0000
# 6 0.0000 0.0000 0.0000 -14.9161 0.0000 -6.1101
#
#
#
# Elastic Compliance Matrix: (Units=1/GPa)
#
#
# Indices 1 2 3 4 5 6 
#
# 1 0.007421 0.000754 -0.002356 0.000000 -0.001249 0.000000
# 2 0.000754 0.012637 -0.001720 0.000000 0.000973 0.000000
# 3 -0.002356 -0.001720 0.004849 0.000000 0.001656 0.000000
# 4 0.000000 0.000000 0.000000 0.014540 0.000000 -0.035496
# 5 -0.001249 0.000973 0.001656 0.000000 0.013817 0.000000
# 6 0.000000 0.000000 0.000000 -0.035496 0.000000 -0.077011
#
#
# Mechanical properties :
#
#
# Convention : Reuss Voigt Hill
#
# Bulk Modulus (GPa) = 54.75349 80.90618 67.82983
# Shear Modulus (GPa) = -453.88877 47.18639 -203.35119
#
# Velocity S-wave (km/s) = -12.80224 4.12781 -8.56909
# Velocity P-wave (km/s) = 14.09817 7.20648 8.56812
#
# Compressibility (1/GPa) = 0.01826368
#
# Stress axis : x y z
#
# Youngs Moduli (GPa) = 134.75423 79.13121 206.24867
#
# Poissons Ratio (x) = -0.05966 0.48586
# Poissons Ratio (y) = -0.10159 0.35469
# Poissons Ratio (z) = 0.31744 0.13608
#
# Static dielectric constant tensor:
#      x y z
#    x 2.285970 0.000000 0.048820 
#    y 0.000000 2.347120 0.000000 
#    z 0.048820 0.000000 2.166620 
# 
# From -- ./inp_files/5291.got.cif
#   From: 2010.05.17/outbox.cif.g08.bks.cpg/sg4_3_cif.got.tgz:5291.got - 2010.06.03 18:43:04.
