data_PCOD9119848
_publ_section_title
;
Structure prediction by ZEFSAII (Michael W. Deem and Ramdas Pophale) SiO2 
 PCOD9119848
Probable space group: P 21
;
_chemical_formula_sum "Si O2"
_cell_formula_units_Z 16
_cell_length_a 15.000000
_cell_length_b 6.000000
_cell_length_c 12.000000
_cell_angle_alpha 90.000000
_cell_angle_beta 40.000000
_cell_angle_gamma 90.000000
_cell_volume 694.210618
_symmetry_space_group_name_H-M "P 21"
_symmetry_group_IT_number 4
_symmetry_cell_setting 'monoclinic'
loop_
_space_group_symop_operation_xyz
x,y,z
-x,1/2+y,-z
loop_
_atom_site_type_symbol
_atom_site_label
_atom_site_fract_x
_atom_site_fract_y
_atom_site_fract_z
Si Si1 0.395843 0.693680 0.463513
Si Si2 0.852263 0.701093 0.984220
Si Si3 0.345438 0.304654 0.635991
Si Si4 0.040372 0.700701 0.179329
Si Si5 0.409767 0.133521 0.917537
Si Si6 0.725109 0.604641 0.518629
Si Si7 0.073353 0.699418 0.405360
Si Si8 0.647454 0.402640 0.802675
O O1 0.309969 0.554469 0.634969
O O2 0.515779 0.806165 0.423788
O O3 0.488726 0.566318 0.281380
O O4 0.290937 0.843720 0.494775
O O5 0.920250 0.450847 0.905240
O O6 0.923368 0.951832 0.908506
O O7 0.774389 0.694209 0.177716
O O8 0.732431 0.710540 0.003754
O O9 0.366792 0.196820 0.494639
O O10 0.098558 0.691212 0.249208
O O11 0.875203 0.699689 0.352810
O O12 0.502765 0.317909 0.890922
O O13 0.375348 0.961114 0.047037
O O14 0.686973 0.613018 0.685143
O O15 0.004101 0.450087 0.499996
O O16 0.220948 0.734525 0.325592
#
# Coordination Sequence:
#
# PCOD9119848 Si02
#       8
#     2   2   2   2   2   2   2   2
#     4  10  23  46  71 107 142 194 248 309 382 444
#     4  11  28  49  75 108 148 203 247 316 369 445
#     4  11  24  45  78 101 148 193 251 309 382 442
#     4  12  27  48  74 109 152 194 256 303 377 440
#     4  10  25  43  68 112 149 195 248 313 373 448
#     4  11  26  44  73 109 142 196 251 305 368 457
#     4  12  26  48  78 107 153 204 246 302 375 452
#     4  11  25  43  71 113 150 195 251 309 376 444
#
# _framework density 23.04776
#
# number of rings (size 3 to 8) (size 9 to 14) (size 15 to 20)
#    0.000    1.000    3.750    0.750    7.000    2.000 
#    0.000    0.000    0.000    0.000    0.000    0.000 
#    0.000    0.000    0.000    0.000    0.000    0.000 
#
# Total GULP energy -89079.691116 kJ/mol
# GULP energy per Si atom -5567.480695 kJ/mol
# Density = 2.299530 g / cm^3
# Si number density = 23.047760 Si / 1000 Ang^3
#
#
#
# Elastic Constant Matrix: (Units=GPa)
#
#
# Indices 1 2 3 4 5 6 
#
# 1 90.0667 9.8367 24.7524 0.0000 8.8741 0.0000
# 2 9.8367 122.3498 50.2812 0.0000 -9.1845 0.0000
# 3 24.7524 50.2812 21.3580 0.0000 -22.5415 0.0000
# 4 0.0000 0.0000 0.0000 35.5000 0.0000 -8.0934
# 5 8.8741 -9.1845 -22.5415 0.0000 28.4966 0.0000
# 6 0.0000 0.0000 0.0000 -8.0934 0.0000 27.9390
#
#
#
# Elastic Compliance Matrix: (Units=1/GPa)
#
#
# Indices 1 2 3 4 5 6 
#
# 1 0.006769 -0.006260 0.015377 0.000000 0.008038 0.000000
# 2 -0.006260 0.003322 0.015874 0.000000 0.015577 0.000000
# 3 0.015377 0.015874 -0.048597 0.000000 -0.038114 0.000000
# 4 0.000000 0.000000 0.000000 0.030161 0.000000 0.008737
# 5 0.008038 0.015577 -0.038114 0.000000 0.007460 0.000000
# 6 0.000000 0.000000 0.000000 0.008737 0.000000 0.038323
#
#
# Mechanical properties :
#
#
# Convention : Reuss Voigt Hill
#
# Bulk Modulus (GPa) = 87.13800 44.83503 65.98651
# Shear Modulus (GPa) = -573.49197 28.31406 -272.58895
#
# Velocity S-wave (km/s) = -15.79138 3.50879 -10.88706
# Velocity P-wave (km/s) = 17.16394 5.99256 11.37299
#
# Compressibility (1/GPa) = 0.01147605
#
# Stress axis : x y z
#
# Youngs Moduli (GPa) = 147.74061 301.00238 -20.57742
#
# Poissons Ratio (x) = 1.88434 0.31642
# Poissons Ratio (y) = 0.92489 0.32665
# Poissons Ratio (z) = -2.27183 -4.77816
#
# Static dielectric constant tensor:
#      x y z
#    x 1.940100 0.000000 0.018800 
#    y 0.000000 2.053280 0.000000 
#    z 0.018800 0.000000 1.884890 
# 
# From -- ./inp_files/12472.got.cif
#   From: 2010.05.17/outbox.ucp.g08.bks.cvg/sg4_7_cif.got.tgz:12472.got - 2010.06.11 12:51:24.
