data_PCOD9119222
_publ_section_title
;
Structure prediction by ZEFSAII (Michael W. Deem and Ramdas Pophale) SiO2 
 PCOD9119222
Probable space group: P 21
;
_chemical_formula_sum "Si O2"
_cell_formula_units_Z 12
_cell_length_a 11.716647
_cell_length_b 9.411328
_cell_length_c 7.227601
_cell_angle_alpha 90.000000
_cell_angle_beta 144.638285
_cell_angle_gamma 90.000000
_cell_volume 461.242380
_symmetry_space_group_name_H-M "P 21"
_symmetry_group_IT_number 4
_symmetry_cell_setting 'monoclinic'
loop_
_space_group_symop_operation_xyz
x,y,z
-x,1/2+y,-z
loop_
_atom_site_type_symbol
_atom_site_label
_atom_site_fract_x
_atom_site_fract_y
_atom_site_fract_z
Si Si1 0.273676 0.006460 0.664497
Si Si2 0.721343 0.993508 0.212508
Si Si3 0.881843 0.223260 0.680866
Si Si4 0.352259 0.427469 0.271640
Si Si5 0.301371 0.114124 0.113272
Si Si6 0.115059 0.290274 0.295414
O O1 0.233430 0.144875 0.486761
O O2 0.131279 0.878202 0.424864
O O3 0.259042 0.057565 0.854155
O O4 0.494097 0.948311 0.927978
O O5 0.867585 0.876140 0.491002
O O6 0.734118 0.128650 0.365901
O O7 0.751379 0.013854 0.033289
O O8 0.088222 0.141921 0.920115
O O9 0.901290 0.252530 0.926581
O O10 0.394795 0.271548 0.243113
O O11 0.549016 0.508409 0.589877
O O12 0.225094 0.391326 0.288243
#
# Coordination Sequence:
#
# PCOD9119222 Si02
#       6
#     2   2   2   2   2   2
#     4  12  25  48  77 109 157 202 263 312 386 468
#     4  12  24  47  76 110 149 206 251 321 387 456
#     4  11  28  45  73 114 152 200 256 321 382 457
#     4  11  25  47  75 114 152 200 256 317 392 457
#     4  11  26  47  74 113 154 206 255 322 386 461
#     4  11  24  48  71 112 148 196 261 311 385 451
#
# _framework density 26.016689
#
# number of rings (size 3 to 8) (size 9 to 14) (size 15 to 20)
#    0.000    0.667    3.333    4.000    7.000    0.000 
#    0.000    0.000    0.000    0.000    0.000    0.000 
#    0.000    0.000    0.000    0.000    0.000    0.000 
#
# Total GULP energy -67189.613515 kJ/mol
# GULP energy per Si atom -5599.134460 kJ/mol
# Density = 2.595747 g / cm^3
# Si number density = 26.016689 Si / 1000 Ang^3
#
#
#
# Elastic Constant Matrix: (Units=GPa)
#
#
# Indices 1 2 3 4 5 6 
#
# 1 82.9556 14.2675 47.7217 0.0000 -28.4051 0.0000
# 2 14.2675 106.6470 50.7498 0.0000 -21.9529 0.0000
# 3 47.7217 50.7498 169.4159 0.0000 -43.9232 0.0000
# 4 0.0000 0.0000 0.0000 74.0223 0.0000 -14.9248
# 5 -28.4051 -21.9529 -43.9232 0.0000 52.0157 0.0000
# 6 0.0000 0.0000 0.0000 -14.9248 0.0000 35.0486
#
#
#
# Elastic Compliance Matrix: (Units=1/GPa)
#
#
# Indices 1 2 3 4 5 6 
#
# 1 0.015861 0.000620 -0.002996 0.000000 0.006393 0.000000
# 2 0.000620 0.011192 -0.002836 0.000000 0.002668 0.000000
# 3 -0.002996 -0.002836 0.008785 0.000000 0.004585 0.000000
# 4 0.000000 0.000000 0.000000 0.014778 0.000000 0.006293
# 5 0.006393 0.002668 0.004585 0.000000 0.027714 0.000000
# 6 0.000000 0.000000 0.000000 0.006293 0.000000 0.031212
#
#
# Mechanical properties :
#
#
# Convention : Reuss Voigt Hill
#
# Bulk Modulus (GPa) = 39.34836 64.94404 52.14620
# Shear Modulus (GPa) = 38.92981 48.63597 43.78289
#
# Velocity S-wave (km/s) = 3.87245 4.32836 4.10674
# Velocity P-wave (km/s) = 5.92888 7.07080 6.52487
#
# Compressibility (1/GPa) = 0.02541402
#
# Stress axis : x y z
#
# Youngs Moduli (GPa) = 63.04963 89.34673 113.83347
#
# Poissons Ratio (x) = -0.05537 0.34102
# Poissons Ratio (y) = -0.03907 0.32280
# Poissons Ratio (z) = 0.18888 0.25336
#
# Static dielectric constant tensor:
#      x y z
#    x 2.118070 0.000000 0.005190 
#    y 0.000000 2.046030 0.000000 
#    z 0.005190 0.000000 2.042070 
# 
# From -- ./inp_files/9213.got.cif
#   From: 2010.05.17/outbox.cif.g08.bks.cpg/sg4_5_cif.got.tgz:9213.got - 2010.06.03 18:43:04.
