data_PCOD9119618
_publ_section_title
;
Structure prediction by ZEFSAII (Michael W. Deem and Ramdas Pophale) SiO2 
 PCOD9119618
Probable space group: P 21
;
_chemical_formula_sum "Si O2"
_cell_formula_units_Z 16
_cell_length_a 13.423801
_cell_length_b 8.615275
_cell_length_c 10.541042
_cell_angle_alpha 90.000000
_cell_angle_beta 33.190376
_cell_angle_gamma 90.000000
_cell_volume 667.345856
_symmetry_space_group_name_H-M "P 21"
_symmetry_group_IT_number 4
_symmetry_cell_setting 'monoclinic'
loop_
_space_group_symop_operation_xyz
x,y,z
-x,1/2+y,-z
loop_
_atom_site_type_symbol
_atom_site_label
_atom_site_fract_x
_atom_site_fract_y
_atom_site_fract_z
Si Si1 0.408853 0.740780 0.454009
Si Si2 0.849438 0.983825 0.907040
Si Si3 0.869269 0.681323 0.293107
Si Si4 0.738638 0.843784 0.757290
Si Si5 0.932594 0.427393 0.776814
Si Si6 0.502985 0.106094 0.369286
Si Si7 0.021833 0.200740 0.095005
Si Si8 0.575313 0.542313 0.043595
O O1 0.488445 0.660541 0.495071
O O2 0.191476 0.728635 0.691264
O O3 0.485043 0.646880 0.251691
O O4 0.454932 0.923718 0.404621
O O5 0.786773 0.911035 0.843824
O O6 0.861698 0.855221 0.003751
O O7 0.049208 0.058299 0.695234
O O8 0.704723 0.114746 0.098697
O O9 0.654332 0.702598 0.533702
O O10 0.993856 0.831680 0.179897
O O11 0.903705 0.624716 0.112862
O O12 0.921406 0.869914 0.481531
O O13 0.578130 0.944748 0.865253
O O14 0.673649 0.667082 0.846473
O O15 0.955115 0.602313 0.801878
O O16 0.729694 0.429596 0.937940
#
# Coordination Sequence:
#
# PCOD9119618 Si02
#       8
#     2   2   2   2   2   2   2   2
#     4  12  26  46  78 110 156 200 245 315 378 458
#     4  12  26  47  74 108 150 198 249 312 377 447
#     4  12  28  43  77 114 150 193 254 314 376 459
#     4  12  30  49  76 106 151 203 254 313 375 453
#     4  12  29  48  78 110 150 201 252 309 382 449
#     4  12  26  46  74 112 155 197 246 307 390 442
#     4  12  24  51  74 109 156 196 245 317 384 445
#     4  12  29  52  75 107 152 200 259 313 376 447
#
# _framework density 23.975574000000002
#
# number of rings (size 3 to 8) (size 9 to 14) (size 15 to 20)
#    0.000    0.000    6.250    2.250    8.750    1.000 
#    0.000    0.000    0.000    0.000    0.000    0.000 
#    0.000    0.000    0.000    0.000    0.000    0.000 
#
# Total GULP energy -89588.005007 kJ/mol
# GULP energy per Si atom -5599.250313 kJ/mol
# Density = 2.392100 g / cm^3
# Si number density = 23.975574 Si / 1000 Ang^3
#
#
#
# Elastic Constant Matrix: (Units=GPa)
#
#
# Indices 1 2 3 4 5 6 
#
# 1 169.0005 44.3657 40.9660 0.0000 -27.4558 0.0000
# 2 44.3657 84.6370 14.2697 0.0000 -1.6007 0.0000
# 3 40.9660 14.2697 101.2981 0.0000 -11.4181 0.0000
# 4 0.0000 0.0000 0.0000 29.4775 0.0000 3.8356
# 5 -27.4558 -1.6007 -11.4181 0.0000 45.1485 0.0000
# 6 0.0000 0.0000 0.0000 3.8356 0.0000 46.4400
#
#
#
# Elastic Compliance Matrix: (Units=1/GPa)
#
#
# Indices 1 2 3 4 5 6 
#
# 1 0.008163 -0.003813 -0.002285 0.000000 0.004251 0.000000
# 2 -0.003813 0.013884 -0.000638 0.000000 -0.001988 0.000000
# 3 -0.002285 -0.000638 0.011041 0.000000 0.001380 0.000000
# 4 0.000000 0.000000 0.000000 0.034293 0.000000 -0.002832
# 5 0.004251 -0.001988 0.001380 0.000000 0.025013 0.000000
# 6 0.000000 0.000000 0.000000 -0.002832 0.000000 0.021767
#
#
# Mechanical properties :
#
#
# Convention : Reuss Voigt Hill
#
# Bulk Modulus (GPa) = 50.97777 61.57094 56.27436
# Shear Modulus (GPa) = 37.26602 41.23547 39.25075
#
# Velocity S-wave (km/s) = 3.94678 4.15166 4.05052
# Velocity P-wave (km/s) = 6.48675 6.97984 6.73781
#
# Compressibility (1/GPa) = 0.01961639
#
# Stress axis : x y z
#
# Youngs Moduli (GPa) = 122.51044 72.02595 90.56941
#
# Poissons Ratio (x) = 0.27464 0.20693
# Poissons Ratio (y) = 0.46715 0.05777
# Poissons Ratio (z) = 0.27990 0.04594
#
# Static dielectric constant tensor:
#      x y z
#    x 1.889370 0.000000 -0.003910 
#    y 0.000000 1.939430 0.000000 
#    z -0.003910 0.000000 1.913960 
# 
# From -- ./inp_files/7944.got.cif
#   From: 2010.05.17/outbox.cif.g08.bks.cpg/sg4_4_cif.got.tgz:7944.got - 2010.06.03 18:43:04.
