data_PCOD9119285
_publ_section_title
;
Structure prediction by ZEFSAII (Michael W. Deem and Ramdas Pophale) SiO2 
 PCOD9119285
Probable space group: P 21
;
_chemical_formula_sum "Si O2"
_cell_formula_units_Z 16
_cell_length_a 19.254636
_cell_length_b 8.105763
_cell_length_c 9.735125
_cell_angle_alpha 90.000000
_cell_angle_beta 151.139053
_cell_angle_gamma 90.000000
_cell_volume 733.390104
_symmetry_space_group_name_H-M "P 21"
_symmetry_group_IT_number 4
_symmetry_cell_setting 'monoclinic'
loop_
_space_group_symop_operation_xyz
x,y,z
-x,1/2+y,-z
loop_
_atom_site_type_symbol
_atom_site_label
_atom_site_fract_x
_atom_site_fract_y
_atom_site_fract_z
Si Si1 0.102601 0.318790 0.115918
Si Si2 0.060080 0.200373 0.738973
Si Si3 0.546709 0.194534 0.722322
Si Si4 0.423025 0.309908 0.767408
Si Si5 0.466737 0.689199 0.755081
Si Si6 0.162356 0.835817 0.843788
Si Si7 0.142106 0.701334 0.108239
Si Si8 0.652091 0.832761 0.834848
O O1 0.254695 0.271792 0.449736
O O2 0.118340 0.508448 0.096990
O O3 0.067917 0.217737 0.916823
O O4 0.973628 0.297308 0.000277
O O5 0.909160 0.252130 0.412780
O O6 0.107537 0.019785 0.773179
O O7 0.177170 0.321985 0.872155
O O8 0.519242 0.194146 0.836129
O O9 0.399996 0.254735 0.398522
O O10 0.597589 0.018304 0.756729
O O11 0.667416 0.323925 0.884449
O O12 0.453892 0.496183 0.770285
O O13 0.472172 0.283411 0.007227
O O14 0.306157 0.745278 0.433964
O O15 0.574939 0.725890 0.818276
O O16 0.124056 0.737946 0.916321
#
# Coordination Sequence:
#
# PCOD9119285 Si02
#       8
#     2   2   2   2   2   2   2   2
#     4  11  25  45  68  96 135 177 222 272 330 396
#     4  12  26  45  70  99 134 176 222 274 332 394
#     4  12  24  43  70  99 133 173 222 275 331 392
#     4  11  25  44  68  98 134 176 223 272 330 394
#     4  11  25  44  68  98 134 176 223 272 330 394
#     4  12  26  45  70  99 134 176 222 274 332 394
#     4  11  25  45  68  96 135 177 222 272 330 396
#     4  12  24  43  70  99 133 173 222 275 331 392
#
# _framework density 21.816492
#
# number of rings (size 3 to 8) (size 9 to 14) (size 15 to 20)
#    0.000    0.500    2.500    6.000    3.500    3.000 
#    0.000    0.000    0.000    0.000    0.000    0.000 
#    0.000    0.000    0.000    0.000    0.000    0.000 
#
# Total GULP energy -89620.912348 kJ/mol
# GULP energy per Si atom -5601.307022 kJ/mol
# Density = 2.176684 g / cm^3
# Si number density = 21.816492 Si / 1000 Ang^3
#
#
#
# Elastic Constant Matrix: (Units=GPa)
#
#
# Indices 1 2 3 4 5 6 
#
# 1 90.8701 -11.4439 21.4722 0.0000 3.1062 0.0000
# 2 -11.4439 55.1282 10.8140 0.0000 -9.9204 0.0000
# 3 21.4722 10.8140 63.1025 0.0000 -16.1038 0.0000
# 4 0.0000 0.0000 0.0000 29.5361 0.0000 -2.8294
# 5 3.1062 -9.9204 -16.1038 0.0000 26.0964 0.0000
# 6 0.0000 0.0000 0.0000 -2.8294 0.0000 34.9617
#
#
#
# Elastic Compliance Matrix: (Units=1/GPa)
#
#
# Indices 1 2 3 4 5 6 
#
# 1 0.012949 0.003133 -0.005973 0.000000 -0.004036 0.000000
# 2 0.003133 0.020388 -0.003178 0.000000 0.005416 0.000000
# 3 -0.005973 -0.003178 0.021718 0.000000 0.012905 0.000000
# 4 0.000000 0.000000 0.000000 0.034121 0.000000 0.002761
# 5 -0.004036 0.005416 0.012905 0.000000 0.048822 0.000000
# 6 0.000000 0.000000 0.000000 0.002761 0.000000 0.028826
#
#
# Mechanical properties :
#
#
# Convention : Reuss Voigt Hill
#
# Bulk Modulus (GPa) = 23.24546 27.86505 25.55525
# Shear Modulus (GPa) = 25.88005 30.66942 28.27474
#
# Velocity S-wave (km/s) = 3.44795 3.75346 3.60394
# Velocity P-wave (km/s) = 5.15066 5.62003 5.39046
#
# Compressibility (1/GPa) = 0.04301915
#
# Stress axis : x y z
#
# Youngs Moduli (GPa) = 77.22780 49.04834 46.04556
#
# Poissons Ratio (x) = -0.15369 0.27503
# Poissons Ratio (y) = -0.24198 0.14633
# Poissons Ratio (z) = 0.46129 0.15587
#
# Static dielectric constant tensor:
#      x y z
#    x 1.748000 0.000000 -0.016290 
#    y 0.000000 1.802020 0.000000 
#    z -0.016290 0.000000 1.752480 
# 
# From -- ./inp_files/5427.got.cif
#   From: 2010.05.17/outbox.cif.g08.bks.cpg/sg4_3_cif.got.tgz:5427.got - 2010.06.03 18:43:04.
