data_PCOD9119712
_publ_section_title
;
Structure prediction by ZEFSAII (Michael W. Deem and Ramdas Pophale) SiO2 
 PCOD9119712
Probable space group: P 21
;
_chemical_formula_sum "Si O2"
_cell_formula_units_Z 16
_cell_length_a 6.836884
_cell_length_b 15.171009
_cell_length_c 9.793623
_cell_angle_alpha 90.000000
_cell_angle_beta 134.263937
_cell_angle_gamma 90.000000
_cell_volume 727.460226
_symmetry_space_group_name_H-M "P 21"
_symmetry_group_IT_number 4
_symmetry_cell_setting 'monoclinic'
loop_
_space_group_symop_operation_xyz
x,y,z
-x,1/2+y,-z
loop_
_atom_site_type_symbol
_atom_site_label
_atom_site_fract_x
_atom_site_fract_y
_atom_site_fract_z
Si Si1 0.774430 0.407460 0.500079
Si Si2 0.699204 0.388576 0.779925
Si Si3 0.731799 0.034253 0.331535
Si Si4 0.139660 0.426659 0.220472
Si Si5 0.488802 0.157442 0.988275
Si Si6 0.931672 0.280737 0.331774
Si Si7 0.888002 0.118817 0.675946
Si Si8 0.465014 0.196459 0.676259
O O1 0.793524 0.383816 0.669115
O O2 0.455567 0.431225 0.331243
O O3 0.988589 0.484838 0.571464
O O4 0.845513 0.330032 0.428561
O O5 0.475636 0.464942 0.698342
O O6 0.562143 0.296192 0.752681
O O7 0.953695 0.407671 0.000170
O O8 0.587986 0.076373 0.129520
O O9 0.795721 0.108524 0.475210
O O10 0.078909 0.350263 0.301832
O O11 0.057411 0.519066 0.247902
O O12 0.672017 0.238433 0.129829
O O13 0.519971 0.142956 0.841464
O O14 0.164067 0.172023 0.841163
O O15 0.155733 0.206646 0.475663
O O16 0.643344 0.157827 0.642790
#
# Coordination Sequence:
#
# PCOD9119712 Si02
#       8
#     2   2   2   2   2   2   2   2
#     4  12  26  46  80 102 140 204 248 310 372 452
#     4  12  26  49  75 107 151 196 254 310 371 462
#     4  12  27  51  75 108 149 199 258 306 383 454
#     4  12  26  49  75 107 151 196 254 310 371 462
#     4  12  30  44  74 108 154 196 246 324 374 452
#     4  12  27  51  75 108 149 199 258 306 383 454
#     4  12  28  48  72 112 154 194 251 319 376 442
#     4  12  28  48  72 112 154 194 251 319 376 442
#
# _framework density 21.994327999999999
#
# number of rings (size 3 to 8) (size 9 to 14) (size 15 to 20)
#    0.000    0.000    7.500    0.750   10.500    2.000 
#    0.000    0.000    0.000    0.000    0.000    0.000 
#    0.000    0.000    0.000    0.000    0.000    0.000 
#
# Total GULP energy -89622.125734 kJ/mol
# GULP energy per Si atom -5601.382858 kJ/mol
# Density = 2.194427 g / cm^3
# Si number density = 21.994328 Si / 1000 Ang^3
#
#
#
# Elastic Constant Matrix: (Units=GPa)
#
#
# Indices 1 2 3 4 5 6 
#
# 1 165.4348 39.8311 80.4415 0.0000 -0.6961 0.0000
# 2 39.8311 68.4589 31.0285 0.0000 -0.1868 0.0000
# 3 80.4415 31.0285 177.3706 0.0000 0.9731 0.0000
# 4 0.0000 0.0000 0.0000 27.6737 0.0000 -0.4168
# 5 -0.6961 -0.1868 0.9731 0.0000 19.3223 0.0000
# 6 0.0000 0.0000 0.0000 -0.4168 0.0000 47.9447
#
#
#
# Elastic Compliance Matrix: (Units=1/GPa)
#
#
# Indices 1 2 3 4 5 6 
#
# 1 0.008448 -0.003450 -0.003230 0.000000 0.000434 0.000000
# 2 -0.003450 0.017276 -0.001458 0.000000 0.000116 0.000000
# 3 -0.003230 -0.001458 0.007361 0.000000 -0.000501 0.000000
# 4 0.000000 0.000000 0.000000 0.036140 0.000000 0.000314
# 5 0.000434 0.000116 -0.000501 0.000000 0.051796 0.000000
# 6 0.000000 0.000000 0.000000 0.000314 0.000000 0.020860
#
#
# Mechanical properties :
#
#
# Convention : Reuss Voigt Hill
#
# Bulk Modulus (GPa) = 59.49615 79.31849 69.40732
# Shear Modulus (GPa) = 30.53265 36.31902 33.42583
#
# Velocity S-wave (km/s) = 3.72991 4.06802 3.90262
# Velocity P-wave (km/s) = 6.75714 7.62931 7.20644
#
# Compressibility (1/GPa) = 0.01680781
#
# Stress axis : x y z
#
# Youngs Moduli (GPa) = 118.37491 57.88452 135.85715
#
# Poissons Ratio (x) = 0.19970 0.43883
# Poissons Ratio (y) = 0.40838 0.19810
# Poissons Ratio (z) = 0.38236 0.08441
#
# Static dielectric constant tensor:
#      x y z
#    x 1.770840 0.000000 -0.000110 
#    y 0.000000 1.829450 0.000000 
#    z -0.000110 0.000000 1.782870 
# 
# From -- ./inp_files/1908.got.cif
#   From: 2010.05.17/outbox.cif.g08.bks.cpg/sg4_1_cif.got.tgz:1908.got - 2010.06.03 18:43:04.
