data_PCOD9119557
_publ_section_title
;
Structure prediction by ZEFSAII (Michael W. Deem and Ramdas Pophale) SiO2 
 PCOD9119557
Probable space group: P 21
;
_chemical_formula_sum "Si O2"
_cell_formula_units_Z 16
_cell_length_a 6.941063
_cell_length_b 5.423416
_cell_length_c 26.253080
_cell_angle_alpha 90.000000
_cell_angle_beta 40.992996
_cell_angle_gamma 90.000000
_cell_volume 648.277581
_symmetry_space_group_name_H-M "P 21"
_symmetry_group_IT_number 4
_symmetry_cell_setting 'monoclinic'
loop_
_space_group_symop_operation_xyz
x,y,z
-x,1/2+y,-z
loop_
_atom_site_type_symbol
_atom_site_label
_atom_site_fract_x
_atom_site_fract_y
_atom_site_fract_z
Si Si1 0.290892 0.390620 0.385180
Si Si2 0.121358 0.355493 0.594745
Si Si3 0.151181 0.977289 0.163497
Si Si4 0.676992 0.010287 0.732310
Si Si5 0.164551 0.485787 0.985311
Si Si6 0.856982 0.175850 0.317171
Si Si7 0.994078 0.480943 0.132854
Si Si8 0.303759 0.664360 0.473763
O O1 0.348053 0.352048 0.314635
O O2 0.528412 0.218733 0.364414
O O3 0.365386 0.638087 0.401812
O O4 0.945312 0.361133 0.463909
O O5 0.173007 0.594042 0.618883
O O6 0.152659 0.425419 0.530097
O O7 0.389175 0.185163 0.558806
O O8 0.819393 0.249150 0.677047
O O9 0.001082 0.987624 0.248804
O O10 0.045115 0.224337 0.153625
O O11 0.501378 0.991268 0.100644
O O12 0.072874 0.722552 0.150397
O O13 0.345216 0.018938 0.817193
O O14 0.909721 0.901027 0.725745
O O15 0.177266 0.475174 0.044238
O O16 0.000324 0.237624 0.998766
#
# Coordination Sequence:
#
# PCOD9119557 Si02
#       8
#     2   2   2   2   2   2   2   2
#     4  12  24  46  68 102 138 194 254 316 394 456
#     4  12  26  44  72 100 144 192 254 328 388 466
#     4  12  28  49  81 116 160 207 259 312 378 459
#     4  12  27  47  71 106 149 198 258 317 387 459
#     4  12  26  50  84 122 164 206 254 312 378 452
#     4  12  27  47  71 106 149 198 258 317 387 459
#     4  12  28  49  81 116 160 207 259 312 378 459
#     4  12  24  44  70 100 138 190 254 324 396 462
#
# _framework density 24.680786000000001
#
# number of rings (size 3 to 8) (size 9 to 14) (size 15 to 20)
#    0.000    0.000    3.750    6.000    8.750    0.000 
#    0.000    0.000    0.000    0.000    0.000    0.000 
#    0.000    0.000    0.000    0.000    0.000    0.000 
#
# Total GULP energy -89459.219866 kJ/mol
# GULP energy per Si atom -5591.201242 kJ/mol
# Density = 2.462461 g / cm^3
# Si number density = 24.680786 Si / 1000 Ang^3
#
#
#
# Elastic Constant Matrix: (Units=GPa)
#
#
# Indices 1 2 3 4 5 6 
#
# 1 87.0100 36.4302 4.6543 0.0000 0.7956 0.0000
# 2 36.4302 125.4425 4.5051 0.0000 -10.6053 0.0000
# 3 4.6543 4.5051 94.3570 0.0000 -8.9400 0.0000
# 4 0.0000 0.0000 0.0000 32.9566 0.0000 1.1694
# 5 0.7956 -10.6053 -8.9400 0.0000 48.7846 0.0000
# 6 0.0000 0.0000 0.0000 1.1694 0.0000 3.7020
#
#
#
# Elastic Compliance Matrix: (Units=1/GPa)
#
#
# Indices 1 2 3 4 5 6 
#
# 1 0.013168 -0.003902 -0.000574 0.000000 -0.001168 0.000000
# 2 -0.003902 0.009282 -0.000054 0.000000 0.002072 0.000000
# 3 -0.000574 -0.000054 0.010817 0.000000 0.001980 0.000000
# 4 0.000000 0.000000 0.000000 0.030687 0.000000 -0.009693
# 5 -0.001168 0.002072 0.001980 0.000000 0.021330 0.000000
# 6 0.000000 0.000000 0.000000 -0.009693 0.000000 0.273185
#
#
# Mechanical properties :
#
#
# Convention : Reuss Voigt Hill
#
# Bulk Modulus (GPa) = 41.31297 44.22097 42.76697
# Shear Modulus (GPa) = 13.31205 34.50330 23.90768
#
# Velocity S-wave (km/s) = 2.32495 3.74302 3.11573
# Velocity P-wave (km/s) = 4.89719 6.05279 5.50539
#
# Compressibility (1/GPa) = 0.02420547
#
# Stress axis : x y z
#
# Youngs Moduli (GPa) = 75.94051 107.73335 92.45107
#
# Poissons Ratio (x) = 0.42042 0.05306
# Poissons Ratio (y) = 0.29635 0.00503
# Poissons Ratio (z) = 0.04358 0.00586
#
# Static dielectric constant tensor:
#      x y z
#    x 2.017750 0.000000 -0.001710 
#    y 0.000000 2.112390 0.000000 
#    z -0.001710 0.000000 1.927170 
# 
# From -- ./inp_files/4007.got.cif
#   From: 2010.05.17/outbox.cif.g08.bks.cpg/sg4_3_cif.got.tgz:4007.got - 2010.06.03 18:43:04.
