data_PCOD9119890
_publ_section_title
;
Structure prediction by ZEFSAII (Michael W. Deem and Ramdas Pophale) SiO2 
 PCOD9119890
Probable space group: P 21
;
_chemical_formula_sum "Si O2"
_cell_formula_units_Z 16
_cell_length_a 9.000000
_cell_length_b 9.000000
_cell_length_c 9.000000
_cell_angle_alpha 90.000000
_cell_angle_beta 120.000000
_cell_angle_gamma 90.000000
_cell_volume 631.332519
_symmetry_space_group_name_H-M "P 21"
_symmetry_group_IT_number 4
_symmetry_cell_setting 'monoclinic'
loop_
_space_group_symop_operation_xyz
x,y,z
-x,1/2+y,-z
loop_
_atom_site_type_symbol
_atom_site_label
_atom_site_fract_x
_atom_site_fract_y
_atom_site_fract_z
Si Si1 0.286773 0.189340 0.926009
Si Si2 0.098200 0.130550 0.419126
Si Si3 0.355563 0.536071 0.472357
Si Si4 0.041146 0.419442 0.875951
Si Si5 0.438103 0.273096 0.705694
Si Si6 0.149602 0.916148 0.704400
Si Si7 0.505992 0.316381 0.300140
Si Si8 0.182427 0.666994 0.148460
O O1 0.425272 0.215581 0.867544
O O2 0.145867 0.315152 0.816083
O O3 0.212244 0.023060 0.872083
O O4 0.364235 0.244610 0.119801
O O5 0.289931 0.184886 0.544290
O O6 0.968964 0.270221 0.331576
O O7 0.094291 0.019007 0.278746
O O8 0.057195 0.028162 0.541705
O O9 0.378901 0.437841 0.631308
O O10 0.437992 0.445725 0.374957
O O11 0.441066 0.687429 0.563072
O O12 0.176463 0.586850 0.307312
O O13 0.957004 0.295570 0.938115
O O14 0.158069 0.538470 0.017071
O O15 0.635011 0.246369 0.767473
O O16 0.327680 0.864735 0.712584
#
# Coordination Sequence:
#
# PCOD9119890 Si02
#       8
#     2   2   2   2   2   2   2   2
#     4  11  28  52  81 123 162 210 275 337 405 483
#     4  11  26  48  80 118 158 207 267 336 403 478
#     4  12  26  48  77 116 159 215 263 324 404 487
#     4  12  30  50  80 116 168 211 267 340 408 482
#     4  11  28  48  87 114 161 207 274 328 409 481
#     4  11  27  48  80 122 159 209 273 340 409 469
#     4  12  28  49  84 118 165 213 274 333 409 490
#     4  12  29  53  77 115 168 210 271 326 413 486
#
# _framework density 25.343222000000001
#
# number of rings (size 3 to 8) (size 9 to 14) (size 15 to 20)
#    0.000    0.500    2.500    3.750   12.250    1.000 
#    0.000    0.000    0.000    0.000    0.000    0.000 
#    0.000    0.000    0.000    0.000    0.000    0.000 
#
# Total GULP energy -89507.825564 kJ/mol
# GULP energy per Si atom -5594.239098 kJ/mol
# Density = 2.528554 g / cm^3
# Si number density = 25.343222 Si / 1000 Ang^3
#
#
#
# Elastic Constant Matrix: (Units=GPa)
#
#
# Indices 1 2 3 4 5 6 
#
# 1 82.6888 30.0285 9.8453 0.0000 11.4293 0.0000
# 2 30.0285 149.9404 44.2860 0.0000 1.2131 0.0000
# 3 9.8453 44.2860 88.9576 0.0000 5.7315 0.0000
# 4 0.0000 0.0000 0.0000 68.5985 0.0000 -2.3659
# 5 11.4293 1.2131 5.7315 0.0000 17.5986 0.0000
# 6 0.0000 0.0000 0.0000 -2.3659 0.0000 31.8742
#
#
#
# Elastic Compliance Matrix: (Units=1/GPa)
#
#
# Indices 1 2 3 4 5 6 
#
# 1 0.014393 -0.002947 0.000473 0.000000 -0.009298 0.000000
# 2 -0.002947 0.008432 -0.004042 0.000000 0.002649 0.000000
# 3 0.000473 -0.004042 0.013486 0.000000 -0.004421 0.000000
# 4 0.000000 0.000000 0.000000 0.014615 0.000000 0.001085
# 5 -0.009298 0.002649 -0.004421 0.000000 0.064118 0.000000
# 6 0.000000 0.000000 0.000000 0.001085 0.000000 0.031454
#
#
# Mechanical properties :
#
#
# Convention : Reuss Voigt Hill
#
# Bulk Modulus (GPa) = 42.95748 54.43405 48.69576
# Shear Modulus (GPa) = 29.88833 39.44274 34.66553
#
# Velocity S-wave (km/s) = 3.43788 3.94933 3.70245
# Velocity P-wave (km/s) = 5.72239 6.50551 6.12648
#
# Compressibility (1/GPa) = 0.02327883
#
# Stress axis : x y z
#
# Youngs Moduli (GPa) = 69.48026 118.59618 74.15035
#
# Poissons Ratio (x) = 0.34950 -0.03509
# Poissons Ratio (y) = 0.20476 0.29973
# Poissons Ratio (z) = -0.03288 0.47939
#
# Static dielectric constant tensor:
#      x y z
#    x 2.063640 0.000000 -0.019920 
#    y 0.000000 1.974880 0.000000 
#    z -0.019920 0.000000 2.009220 
# 
# From -- ./inp_files/5858.got.cif
#   From: 2010.05.17/outbox.ucp.g08.bks.cvg/sg4_3_cif.got.tgz:5858.got - 2010.06.11 12:51:24.
