data_PCOD9119724
_publ_section_title
;
Structure prediction by ZEFSAII (Michael W. Deem and Ramdas Pophale) SiO2 
 PCOD9119724
Probable space group: P 21
;
_chemical_formula_sum "Si O2"
_cell_formula_units_Z 16
_cell_length_a 12.778107
_cell_length_b 8.306138
_cell_length_c 9.535834
_cell_angle_alpha 90.000000
_cell_angle_beta 40.364730
_cell_angle_gamma 90.000000
_cell_volume 655.488958
_symmetry_space_group_name_H-M "P 21"
_symmetry_group_IT_number 4
_symmetry_cell_setting 'monoclinic'
loop_
_space_group_symop_operation_xyz
x,y,z
-x,1/2+y,-z
loop_
_atom_site_type_symbol
_atom_site_label
_atom_site_fract_x
_atom_site_fract_y
_atom_site_fract_z
Si Si1 0.161597 0.269990 0.431555
Si Si2 0.298926 0.366614 0.840264
Si Si3 0.318772 0.831403 0.572016
Si Si4 0.618189 0.533328 0.979308
Si Si5 0.859844 0.061733 0.750097
Si Si6 0.183204 0.009471 0.980199
Si Si7 0.651336 0.273045 0.750068
Si Si8 0.192963 0.474447 0.659159
O O1 0.268235 0.147861 0.230773
O O2 0.097363 0.405384 0.388300
O O3 0.248986 0.363420 0.471248
O O4 0.013948 0.163976 0.641633
O O5 0.490681 0.372228 0.615066
O O6 0.248078 0.189138 0.938832
O O7 0.204067 0.378481 0.791254
O O8 0.242956 0.496154 0.012965
O O9 0.266031 0.863093 0.464805
O O10 0.278671 0.641109 0.618765
O O11 0.231474 0.929638 0.783682
O O12 0.550735 0.402845 0.939243
O O13 0.716901 0.431771 0.994111
O O14 0.473913 0.642881 0.181010
O O15 0.766818 0.175507 0.734313
O O16 0.992171 0.010657 0.191093
#
# Coordination Sequence:
#
# PCOD9119724 Si02
#       8
#     2   2   2   2   2   2   2   2
#     4  12  26  49  77 117 154 213 260 336 401 476
#     4  12  28  49  75 115 154 205 264 324 395 485
#     4  12  27  50  78 107 154 208 257 328 399 476
#     4  12  27  48  78 111 161 204 273 330 400 481
#     4  12  26  49  80 115 163 205 272 324 404 479
#     4  12  27  51  73 113 156 204 261 330 396 479
#     4  12  26  48  76 115 150 214 264 332 399 477
#     4  12  29  48  77 113 152 205 261 324 406 479
#
# _framework density 24.40926
#
# number of rings (size 3 to 8) (size 9 to 14) (size 15 to 20)
#    0.000    0.000    3.750    5.250    7.000    2.000 
#    0.000    0.000    0.000    0.000    0.000    0.000 
#    0.000    0.000    0.000    0.000    0.000    0.000 
#
# Total GULP energy -89517.531616 kJ/mol
# GULP energy per Si atom -5594.845726 kJ/mol
# Density = 2.435370 g / cm^3
# Si number density = 24.409260 Si / 1000 Ang^3
#
#
#
# Elastic Constant Matrix: (Units=GPa)
#
#
# Indices 1 2 3 4 5 6 
#
# 1 108.5205 34.2258 23.7338 0.0000 20.4087 0.0000
# 2 34.2258 68.9994 32.9037 0.0000 1.6558 0.0000
# 3 23.7338 32.9037 105.5256 0.0000 14.1145 0.0000
# 4 0.0000 0.0000 0.0000 47.6945 0.0000 5.3414
# 5 20.4087 1.6558 14.1145 0.0000 40.8530 0.0000
# 6 0.0000 0.0000 0.0000 5.3414 0.0000 45.2002
#
#
#
# Elastic Compliance Matrix: (Units=1/GPa)
#
#
# Indices 1 2 3 4 5 6 
#
# 1 0.012176 -0.005831 -0.000145 0.000000 -0.005796 0.000000
# 2 -0.005831 0.019873 -0.005417 0.000000 0.003979 0.000000
# 3 -0.000145 -0.005417 0.011700 0.000000 -0.003750 0.000000
# 4 0.000000 0.000000 0.000000 0.021248 0.000000 -0.002511
# 5 -0.005796 0.003979 -0.003750 0.000000 0.028508 0.000000
# 6 0.000000 0.000000 0.000000 -0.002511 0.000000 0.022421
#
#
# Mechanical properties :
#
#
# Convention : Reuss Voigt Hill
#
# Bulk Modulus (GPa) = 47.70651 51.64136 49.67393
# Shear Modulus (GPa) = 34.31719 39.56168 36.93944
#
# Velocity S-wave (km/s) = 3.75361 4.03024 3.89438
# Velocity P-wave (km/s) = 6.19459 6.54672 6.37309
#
# Compressibility (1/GPa) = 0.02096150
#
# Stress axis : x y z
#
# Youngs Moduli (GPa) = 82.13087 50.31886 85.47187
#
# Poissons Ratio (x) = 0.29342 0.01239
# Poissons Ratio (y) = 0.47893 0.46303
# Poissons Ratio (z) = 0.01190 0.27260
#
# Static dielectric constant tensor:
#      x y z
#    x 1.982490 0.000000 0.043010 
#    y 0.000000 1.978100 0.000000 
#    z 0.043010 0.000000 2.013060 
# 
# From -- ./inp_files/7955.got.cif
#   From: 2010.05.17/outbox.cif.g08.bks.cpg/sg4_4_cif.got.tgz:7955.got - 2010.06.03 18:43:04.
