data_PCOD9119625
_publ_section_title
;
Structure prediction by ZEFSAII (Michael W. Deem and Ramdas Pophale) SiO2 
 PCOD9119625
Probable space group: P 21
;
_chemical_formula_sum "Si O2"
_cell_formula_units_Z 16
_cell_length_a 20.564293
_cell_length_b 5.411602
_cell_length_c 9.630302
_cell_angle_alpha 90.000000
_cell_angle_beta 35.761018
_cell_angle_gamma 90.000000
_cell_volume 626.316707
_symmetry_space_group_name_H-M "P 21"
_symmetry_group_IT_number 4
_symmetry_cell_setting 'monoclinic'
loop_
_space_group_symop_operation_xyz
x,y,z
-x,1/2+y,-z
loop_
_atom_site_type_symbol
_atom_site_label
_atom_site_fract_x
_atom_site_fract_y
_atom_site_fract_z
Si Si1 0.057557 0.990200 0.237493
Si Si2 0.107718 0.648751 0.902218
Si Si3 0.334538 0.957258 0.270786
Si Si4 0.619978 0.944751 0.951706
Si Si5 0.392470 0.961524 0.493587
Si Si6 0.713417 0.960338 0.229254
Si Si7 0.906774 0.369473 0.353106
Si Si8 0.166117 0.310617 0.244161
O O1 0.955198 0.832721 0.475189
O O2 0.150473 0.048089 0.191850
O O3 0.111760 0.877832 0.004246
O O4 0.988859 0.240415 0.318428
O O5 0.200003 0.459220 0.793356
O O6 0.124832 0.674523 0.710549
O O7 0.982167 0.561982 0.140642
O O8 0.378797 0.696470 0.137705
O O9 0.335904 0.958465 0.436353
O O10 0.212823 0.977209 0.407991
O O11 0.399624 0.199288 0.106055
O O12 0.738958 0.899509 0.816281
O O13 0.523582 0.963723 0.233365
O O14 0.359132 0.706932 0.626936
O O15 0.355879 0.207317 0.639558
O O16 0.795936 0.972435 0.954995
#
# Coordination Sequence:
#
# PCOD9119625 Si02
#       8
#     2   2   2   2   2   2   2   2
#     4  12  26  48  67 108 151 201 244 303 367 451
#     4  12  25  44  72 112 153 193 244 307 380 447
#     4  12  26  47  78 113 146 186 246 315 385 439
#     4  12  28  50  77 110 145 197 249 309 375 445
#     4  12  27  50  79 107 147 190 252 321 374 431
#     4  12  27  47  73 109 147 201 247 303 371 434
#     4  12  25  41  76 109 148 192 243 307 378 452
#     4  12  28  47  74 102 155 200 251 293 364 455
#
# _framework density 25.546182000000002
#
# number of rings (size 3 to 8) (size 9 to 14) (size 15 to 20)
#    0.000    0.000    5.000    4.500    3.500    3.000 
#    0.000    0.000    0.000    0.000    0.000    0.000 
#    0.000    0.000    0.000    0.000    0.000    0.000 
#
# Total GULP energy -89510.973093 kJ/mol
# GULP energy per Si atom -5594.435818 kJ/mol
# Density = 2.548804 g / cm^3
# Si number density = 25.546182 Si / 1000 Ang^3
#
#
#
# Elastic Constant Matrix: (Units=GPa)
#
#
# Indices 1 2 3 4 5 6 
#
# 1 53.2385 -3.4798 -19.9053 0.0000 0.6867 0.0000
# 2 -3.4798 129.9602 41.2574 0.0000 -7.7415 0.0000
# 3 -19.9053 41.2574 106.3801 0.0000 -10.2482 0.0000
# 4 0.0000 0.0000 0.0000 14.7310 0.0000 48.6196
# 5 0.6867 -7.7415 -10.2482 0.0000 41.2554 0.0000
# 6 0.0000 0.0000 0.0000 48.6196 0.0000 -26.4037
#
#
#
# Elastic Compliance Matrix: (Units=1/GPa)
#
#
# Indices 1 2 3 4 5 6 
#
# 1 0.020273 -0.000736 0.004132 0.000000 0.000551 0.000000
# 2 -0.000736 0.008829 -0.003484 0.000000 0.000803 0.000000
# 3 0.004132 -0.003484 0.011736 0.000000 0.002193 0.000000
# 4 0.000000 0.000000 0.000000 0.009592 0.000000 0.017662
# 5 0.000551 0.000803 0.002193 0.000000 0.024926 0.000000
# 6 0.000000 0.000000 0.000000 0.017662 0.000000 -0.005351
#
#
# Mechanical properties :
#
#
# Convention : Reuss Voigt Hill
#
# Bulk Modulus (GPa) = 24.59370 36.14705 30.37037
# Shear Modulus (GPa) = 59.71232 24.03029 41.87131
#
# Velocity S-wave (km/s) = 4.83994 3.07035 4.05290
# Velocity P-wave (km/s) = 6.39386 5.17202 5.81512
#
# Compressibility (1/GPa) = 0.04066083
#
# Stress axis : x y z
#
# Youngs Moduli (GPa) = 49.32649 113.26300 85.20774
#
# Poissons Ratio (x) = 0.08337 -0.35207
# Poissons Ratio (y) = 0.03631 0.29691
# Poissons Ratio (z) = -0.20381 0.39466
#
# Static dielectric constant tensor:
#      x y z
#    x 2.042070 0.000000 -0.013560 
#    y 0.000000 2.074020 0.000000 
#    z -0.013560 0.000000 2.016960 
# 
# From -- ./inp_files/9835.got.cif
#   From: 2010.05.17/outbox.cif.g08.bks.cpg/sg4_5_cif.got.tgz:9835.got - 2010.06.03 18:43:04.
