data_PCOD9119582
_publ_section_title
;
Structure prediction by ZEFSAII (Michael W. Deem and Ramdas Pophale) SiO2 
 PCOD9119582
Probable space group: P 21
;
_chemical_formula_sum "Si O2"
_cell_formula_units_Z 16
_cell_length_a 26.006836
_cell_length_b 5.961598
_cell_length_c 12.913479
_cell_angle_alpha 90.000000
_cell_angle_beta 160.135358
_cell_angle_gamma 90.000000
_cell_volume 680.324085
_symmetry_space_group_name_H-M "P 21"
_symmetry_group_IT_number 4
_symmetry_cell_setting 'monoclinic'
loop_
_space_group_symop_operation_xyz
x,y,z
-x,1/2+y,-z
loop_
_atom_site_type_symbol
_atom_site_label
_atom_site_fract_x
_atom_site_fract_y
_atom_site_fract_z
Si Si1 0.801726 0.245000 0.645838
Si Si2 0.150181 0.327737 0.036317
Si Si3 0.446398 0.927385 0.438078
Si Si4 0.099105 0.096024 0.306550
Si Si5 0.393754 0.973594 0.574904
Si Si6 0.918288 0.024725 0.480444
Si Si7 0.708824 0.981943 0.267384
Si Si8 0.152881 0.685131 0.880550
O O1 0.790680 0.477741 0.565024
O O2 0.698707 0.264157 0.551724
O O3 0.757149 0.069625 0.472593
O O4 0.975481 0.241801 0.011229
O O5 0.274057 0.176565 0.329774
O O6 0.217792 0.521989 0.091744
O O7 0.018175 0.425461 0.860491
O O8 0.057329 0.176919 0.780178
O O9 0.512810 0.683625 0.522308
O O10 0.465488 0.927545 0.598477
O O11 0.268995 0.886558 0.081938
O O12 0.214045 0.237237 0.592938
O O13 0.531901 0.011321 0.914854
O O14 0.867571 0.068289 0.267944
O O15 0.790828 0.087994 0.322684
O O16 0.993696 0.777735 0.621747
#
# Coordination Sequence:
#
# PCOD9119582 Si02
#       8
#     2   2   2   2   2   2   2   2
#     4  12  26  47  74 109 145 201 259 322 397 479
#     4  12  24  47  76 113 155 204 264 333 407 487
#     4  12  28  53  79 115 167 217 265 337 426 499
#     4  12  24  47  78 103 150 201 260 324 393 478
#     4  12  29  49  77 116 157 207 264 331 421 491
#     4  12  24  45  73 114 146 202 265 328 390 482
#     4  12  28  48  71 115 153 198 263 332 404 484
#     4  12  25  44  80 109 153 204 270 329 400 482
#
# _framework density 23.518204000000001
#
# number of rings (size 3 to 8) (size 9 to 14) (size 15 to 20)
#    0.000    0.000    6.250    3.750    1.750    2.000 
#    4.500    0.000    0.000    0.000    0.000    0.000 
#    0.000    0.000    0.000    0.000    0.000    0.000 
#
# Total GULP energy -89291.191311 kJ/mol
# GULP energy per Si atom -5580.699457 kJ/mol
# Density = 2.346468 g / cm^3
# Si number density = 23.518204 Si / 1000 Ang^3
#
#
#
# Elastic Constant Matrix: (Units=GPa)
#
#
# Indices 1 2 3 4 5 6 
#
# 1 124.4725 60.1585 27.1807 0.0000 -0.1353 0.0000
# 2 60.1585 71.4821 35.7301 0.0000 2.2251 0.0000
# 3 27.1807 35.7301 121.6913 0.0000 -7.0038 0.0000
# 4 0.0000 0.0000 0.0000 -92.0091 0.0000 9.5283
# 5 -0.1353 2.2251 -7.0038 0.0000 31.6397 0.0000
# 6 0.0000 0.0000 0.0000 9.5283 0.0000 48.1177
#
#
#
# Elastic Compliance Matrix: (Units=1/GPa)
#
#
# Indices 1 2 3 4 5 6 
#
# 1 0.013587 -0.011692 0.000455 0.000000 0.000981 0.000000
# 2 -0.011692 0.026617 -0.005383 0.000000 -0.003113 0.000000
# 3 0.000455 -0.005383 0.009844 0.000000 0.002559 0.000000
# 4 0.000000 0.000000 0.000000 -0.010650 0.000000 0.002109
# 5 0.000981 -0.003113 0.002559 0.000000 0.032396 0.000000
# 6 0.000000 0.000000 0.000000 0.002109 0.000000 0.020365
#
#
# Mechanical properties :
#
#
# Convention : Reuss Voigt Hill
#
# Bulk Modulus (GPa) = 59.49913 62.64273 61.07093
# Shear Modulus (GPa) = 38.16793 10.52144 24.34468
#
# Velocity S-wave (km/s) = 4.03291 2.11742 3.22085
# Velocity P-wave (km/s) = 6.85856 5.71591 6.31314
#
# Compressibility (1/GPa) = 0.01680697
#
# Stress axis : x y z
#
# Youngs Moduli (GPa) = 73.60209 37.57001 101.58793
#
# Poissons Ratio (x) = 0.43927 -0.04620
# Poissons Ratio (y) = 0.86057 0.54682
# Poissons Ratio (z) = -0.03347 0.20223
#
# Static dielectric constant tensor:
#      x y z
#    x 1.977270 0.000000 0.141110 
#    y 0.000000 2.030210 0.000000 
#    z 0.141110 0.000000 2.501950 
# 
# From -- ./inp_files/7296.got.cif
#   From: 2010.05.17/outbox.cif.g08.bks.cpg/sg4_4_cif.got.tgz:7296.got - 2010.06.03 18:43:04.
