data_PCOD9119918
_publ_section_title
;
Structure prediction by ZEFSAII (Michael W. Deem and Ramdas Pophale) SiO2 
 PCOD9119918
Probable space group: C 2
;
_chemical_formula_sum "Si O2"
_cell_formula_units_Z 24
_cell_length_a 21.784285
_cell_length_b 6.933284
_cell_length_c 7.921092
_cell_angle_alpha 90.000000
_cell_angle_beta 127.951703
_cell_angle_gamma 90.000000
_cell_volume 943.376971
_symmetry_space_group_name_H-M "C 2"
_symmetry_group_IT_number 5
_symmetry_cell_setting 'monoclinic'
loop_
_space_group_symop_operation_xyz
x,y,z
-x,y,-z
1/2+x,1/2+y,z
1/2-x,1/2+y,-z
loop_
_atom_site_type_symbol
_atom_site_label
_atom_site_fract_x
_atom_site_fract_y
_atom_site_fract_z
Si Si1 0.074431 0.938540 0.245206
Si Si2 0.566323 0.976627 0.308008
Si Si3 0.171268 0.490777 0.783563
Si Si4 0.412228 0.393882 0.366351
Si Si5 0.338655 0.413393 0.916311
Si Si6 0.614896 0.963287 0.037637
O O1 0.066835 0.708969 0.275183
O O2 0.087532 0.010221 0.458235
O O3 0.146038 0.989532 0.245079
O O4 0.000000 0.987698 0.000000
O O5 0.602668 0.922714 0.546321
O O6 0.475942 0.924118 0.151736
O O7 0.618617 0.902364 0.239437
O O8 0.151759 0.721666 0.745852
O O9 0.251802 0.442020 0.831538
O O10 0.166012 0.403443 0.962821
O O11 0.500000 0.311947 0.500000
O O12 0.393876 0.497388 0.158077
O O13 0.366956 0.192608 0.939776
#
# Coordination Sequence:
#
# PCOD9119918 Si02
#       6
#     4   4   4   4   4   4
#     4  10  14  27  47  65  87 118 151 186 223 268
#     4   9  15  28  48  66  85 121 153 186 223 268
#     4  10  18  25  42  70 101 115 146 188 238 269
#     4  10  18  31  51  68  91 123 155 188 228 270
#     4  10  18  27  41  72  99 118 144 192 236 270
#     4   9  16  30  46  63  96 120 152 187 227 269
#
# _framework density 25.440521
#
# number of rings (size 3 to 8) (size 9 to 14) (size 15 to 20)
#    0.000    2.333    5.000    3.500    0.000    1.333 
#    0.000    0.000    0.000    0.000    0.000   14.000 
#   20.000    0.000    0.000    0.000    0.000    0.000 
#
# Total GULP energy -66936.703528 kJ/mol
# GULP energy per Si atom -5578.058627 kJ/mol
# Density = 2.538262 g / cm^3
# Si number density = 25.440521 Si / 1000 Ang^3
#
#
#
# Elastic Constant Matrix: (Units=GPa)
#
#
# Indices 1 2 3 4 5 6 
#
# 1 193.8597 4.0972 12.7633 0.0000 -27.7062 0.0000
# 2 4.0972 101.1472 -0.0370 0.0000 5.6495 0.0000
# 3 12.7633 -0.0370 40.8285 0.0000 -20.2164 0.0000
# 4 0.0000 0.0000 0.0000 -14.4834 0.0000 22.3501
# 5 -27.7062 5.6495 -20.2164 0.0000 56.8366 0.0000
# 6 0.0000 0.0000 0.0000 22.3501 0.0000 -1.0726
#
#
#
# Elastic Compliance Matrix: (Units=1/GPa)
#
#
# Indices 1 2 3 4 5 6 
#
# 1 0.005566 -0.000370 -0.000460 0.000000 0.002587 0.000000
# 2 -0.000370 0.009978 -0.000553 0.000000 -0.001369 0.000000
# 3 -0.000460 -0.000553 0.029801 0.000000 0.010431 0.000000
# 4 0.000000 0.000000 0.000000 0.002216 0.000000 0.046179
# 5 0.002587 -0.001369 0.010431 0.000000 0.022701 0.000000
# 6 0.000000 0.000000 0.000000 0.046179 0.000000 0.029925
#
#
# Mechanical properties :
#
#
# Convention : Reuss Voigt Hill
#
# Bulk Modulus (GPa) = 23.48567 41.05361 32.26964
# Shear Modulus (GPa) = 42.68188 29.52359 36.10274
#
# Velocity S-wave (km/s) = 4.10043 3.41030 3.77119
# Velocity P-wave (km/s) = 5.62758 5.62841 5.62800
#
# Compressibility (1/GPa) = 0.04257916
#
# Stress axis : x y z
#
# Youngs Moduli (GPa) = 179.65812 100.22214 33.55620
#
# Poissons Ratio (x) = 0.03709 0.01542
# Poissons Ratio (y) = 0.06649 0.01856
# Poissons Ratio (z) = 0.08256 0.05543
#
# Static dielectric constant tensor:
#      x y z
#    x 2.028730 0.000000 -0.093500 
#    y 0.000000 2.176040 0.000000 
#    z -0.093500 0.000000 2.031070 
# 
# From -- ./inp_files/29344.got.cif
#   From: 2010.05.17/outbox.cif.g08.bks.cpg/sg5_15_cif.got.tgz:29344.got - 2010.06.03 18:56:24.
