data_PCOD9119735
_publ_section_title
;
Structure prediction by ZEFSAII (Michael W. Deem and Ramdas Pophale) SiO2 
 PCOD9119735
Probable space group: P 21
;
_chemical_formula_sum "Si O2"
_cell_formula_units_Z 14
_cell_length_a 5.302558
_cell_length_b 7.375958
_cell_length_c 14.342625
_cell_angle_alpha 90.000000
_cell_angle_beta 77.524923
_cell_angle_gamma 90.000000
_cell_volume 547.716542
_symmetry_space_group_name_H-M "P 21"
_symmetry_group_IT_number 4
_symmetry_cell_setting 'monoclinic'
loop_
_space_group_symop_operation_xyz
x,y,z
-x,1/2+y,-z
loop_
_atom_site_type_symbol
_atom_site_label
_atom_site_fract_x
_atom_site_fract_y
_atom_site_fract_z
Si Si1 0.264431 0.613720 0.192471
Si Si2 0.951076 0.893873 0.628555
Si Si3 0.289745 0.228412 0.538634
Si Si4 0.682472 0.096298 0.368841
Si Si5 0.529528 0.808601 0.954143
Si Si6 0.518856 0.008428 0.194668
Si Si7 0.047312 0.304541 0.915749
O O1 0.240471 0.503581 0.289606
O O2 0.424476 0.490059 0.108687
O O3 0.993795 0.646725 0.158341
O O4 0.839552 0.546324 0.415375
O O5 0.846571 0.813410 0.540932
O O6 0.510982 0.599813 0.702634
O O7 0.082608 0.727562 0.672191
O O8 0.567377 0.172997 0.475141
O O9 0.272475 0.384436 0.616841
O O10 0.824584 0.967957 0.152978
O O11 0.558500 0.640870 0.881804
O O12 0.238632 0.817911 0.017897
O O13 0.749347 0.790807 0.015847
O O14 0.379126 0.813370 0.202727
#
# Coordination Sequence:
#
# PCOD9119735 Si02
#       7
#     2   2   2   2   2   2   2
#     4  12  31  50  83 122 163 211 277 342 408 491
#     4  12  28  51  79 117 163 206 267 334 411 487
#     4  12  26  48  84 114 158 214 262 324 408 496
#     4  12  28  51  79 117 163 206 267 334 411 487
#     4  12  31  54  86 117 172 219 278 336 413 482
#     4  12  31  50  83 122 163 211 277 342 408 491
#     4  12  29  54  84 121 164 221 274 334 407 490
#
# _framework density 25.560668
#
# number of rings (size 3 to 8) (size 9 to 14) (size 15 to 20)
#    0.000    0.000    4.286    2.571   14.000    4.571 
#    0.000    0.000    0.000    0.000    0.000    0.000 
#    0.000    0.000    0.000    0.000    0.000    0.000 
#
# Total GULP energy -78460.651599 kJ/mol
# GULP energy per Si atom -5604.332257 kJ/mol
# Density = 2.550249 g / cm^3
# Si number density = 25.560668 Si / 1000 Ang^3
#
#
#
# Elastic Constant Matrix: (Units=GPa)
#
#
# Indices 1 2 3 4 5 6 
#
# 1 114.1525 37.6462 33.1850 0.0000 3.8330 0.0000
# 2 37.6462 108.4896 18.3130 0.0000 2.9435 0.0000
# 3 33.1850 18.3130 101.9894 0.0000 12.2606 0.0000
# 4 0.0000 0.0000 0.0000 43.6576 0.0000 1.7435
# 5 3.8330 2.9435 12.2606 0.0000 38.7313 0.0000
# 6 0.0000 0.0000 0.0000 1.7435 0.0000 46.3867
#
#
#
# Elastic Compliance Matrix: (Units=1/GPa)
#
#
# Indices 1 2 3 4 5 6 
#
# 1 0.010660 -0.003212 -0.002905 0.000000 0.000109 0.000000
# 2 -0.003212 0.010475 -0.000809 0.000000 -0.000222 0.000000
# 3 -0.002905 -0.000809 0.011283 0.000000 -0.003223 0.000000
# 4 0.000000 0.000000 0.000000 0.022940 0.000000 -0.000862
# 5 0.000109 -0.000222 -0.003223 0.000000 0.026845 0.000000
# 6 0.000000 0.000000 0.000000 -0.000862 0.000000 0.021590
#
#
# Mechanical properties :
#
#
# Convention : Reuss Voigt Hill
#
# Bulk Modulus (GPa) = 53.86163 55.87999 54.87081
# Shear Modulus (GPa) = 40.37685 41.45427 40.91556
#
# Velocity S-wave (km/s) = 3.97879 4.03153 4.00524
# Velocity P-wave (km/s) = 6.49812 6.60152 6.55002
#
# Compressibility (1/GPa) = 0.01856609
#
# Stress axis : x y z
#
# Youngs Moduli (GPa) = 93.80644 95.46953 88.63019
#
# Poissons Ratio (x) = 0.30662 0.25747
# Poissons Ratio (y) = 0.30128 0.07171
# Poissons Ratio (z) = 0.27251 0.07724
#
# Static dielectric constant tensor:
#      x y z
#    x 2.035630 0.000000 -0.041690 
#    y 0.000000 1.998440 0.000000 
#    z -0.041690 0.000000 2.013820 
# 
# From -- ./inp_files/7687.got.cif
#   From: 2010.05.17/outbox.cif.g08.bks.cpg/sg4_4_cif.got.tgz:7687.got - 2010.06.03 18:43:04.
