data_PCOD9119793
_publ_section_title
;
Structure prediction by ZEFSAII (Michael W. Deem and Ramdas Pophale) SiO2 
 PCOD9119793
Probable space group: P 21
;
_chemical_formula_sum "Si O2"
_cell_formula_units_Z 10
_cell_length_a 9.881994
_cell_length_b 8.252787
_cell_length_c 9.139214
_cell_angle_alpha 90.000000
_cell_angle_beta 29.974752
_cell_angle_gamma 90.000000
_cell_volume 372.385216
_symmetry_space_group_name_H-M "P 21"
_symmetry_group_IT_number 4
_symmetry_cell_setting 'monoclinic'
loop_
_space_group_symop_operation_xyz
x,y,z
-x,1/2+y,-z
loop_
_atom_site_type_symbol
_atom_site_label
_atom_site_fract_x
_atom_site_fract_y
_atom_site_fract_z
Si Si1 0.141732 0.970010 0.383306
Si Si2 0.261775 0.152108 0.821284
Si Si3 0.547746 0.231704 0.127719
Si Si4 0.030862 0.478245 0.140668
Si Si5 0.782751 0.023044 0.464357
O O1 0.879524 0.032051 0.541367
O O2 0.339797 0.117629 0.235613
O O3 0.290351 0.843169 0.139381
O O4 0.050311 0.904724 0.626398
O O5 0.219311 0.059861 0.708703
O O6 0.559599 0.143505 0.608760
O O7 0.160178 0.336049 0.923799
O O8 0.055707 0.051880 0.118700
O O9 0.372457 0.351303 0.393922
O O10 0.757385 0.120924 0.020634
#
# Coordination Sequence:
#
# PCOD9119793 Si02
#       5
#     2   2   2   2   2
#     4  12  30  51  90 126 171 230 292 360 424 517
#     4  12  32  56  85 127 174 231 289 347 442 511
#     4  12  29  51  89 128 170 227 294 356 432 499
#     4  12  32  53  90 124 176 232 283 362 428 523
#     4  12  29  55  86 123 177 224 288 357 422 520
#
# _framework density 26.853912999999999
#
# number of rings (size 3 to 8) (size 9 to 14) (size 15 to 20)
#    0.000    0.000    2.000    3.600   19.600    0.000 
#    0.000    0.000    0.000    0.000    0.000    0.000 
#    0.000    0.000    0.000    0.000    0.000    0.000 
#
# Total GULP energy -56204.607039 kJ/mol
# GULP energy per Si atom -5620.460704 kJ/mol
# Density = 2.679279 g / cm^3
# Si number density = 26.853913 Si / 1000 Ang^3
#
#
#
# Elastic Constant Matrix: (Units=GPa)
#
#
# Indices 1 2 3 4 5 6 
#
# 1 167.0335 29.8301 35.8214 0.0000 -24.7371 0.0000
# 2 29.8301 102.8846 -9.3553 0.0000 -4.4592 0.0000
# 3 35.8214 -9.3553 90.0262 0.0000 -6.6143 0.0000
# 4 0.0000 0.0000 0.0000 62.6261 0.0000 -4.9720
# 5 -24.7371 -4.4592 -6.6143 0.0000 59.4524 0.0000
# 6 0.0000 0.0000 0.0000 -4.9720 0.0000 58.7486
#
#
#
# Elastic Compliance Matrix: (Units=1/GPa)
#
#
# Indices 1 2 3 4 5 6 
#
# 1 0.007427 -0.002315 -0.003006 0.000000 0.002582 0.000000
# 2 -0.002315 0.010577 0.002024 0.000000 0.000055 0.000000
# 3 -0.003006 0.002024 0.012536 0.000000 0.000296 0.000000
# 4 0.000000 0.000000 0.000000 0.016076 0.000000 0.001361
# 5 0.002582 0.000055 0.000296 0.000000 0.017932 0.000000
# 6 0.000000 0.000000 0.000000 0.001361 0.000000 0.017137
#
#
# Mechanical properties :
#
#
# Convention : Reuss Voigt Hill
#
# Bulk Modulus (GPa) = 41.75843 52.50406 47.13125
# Shear Modulus (GPa) = 51.94212 56.40861 54.17537
#
# Velocity S-wave (km/s) = 4.40278 4.58817 4.49643
# Velocity P-wave (km/s) = 6.43661 6.90381 6.67430
#
# Compressibility (1/GPa) = 0.02394726
#
# Stress axis : x y z
#
# Youngs Moduli (GPa) = 134.63736 94.54233 79.76948
#
# Poissons Ratio (x) = 0.21886 0.23980
# Poissons Ratio (y) = 0.31167 -0.16148
# Poissons Ratio (z) = 0.40474 -0.19138
#
# Static dielectric constant tensor:
#      x y z
#    x 2.101260 0.000000 0.071480 
#    y 0.000000 2.081480 0.000000 
#    z 0.071480 0.000000 2.075120 
# 
# From -- ./inp_files/4505.got.cif
#   From: 2010.05.17/outbox.cif.g08.bks.cpg/sg4_3_cif.got.tgz:4505.got - 2010.06.03 18:43:04.
