data_PCOD9119494
_publ_section_title
;
Structure prediction by ZEFSAII (Michael W. Deem and Ramdas Pophale) SiO2 
 PCOD9119494
Probable space group: P 21
;
_chemical_formula_sum "Si O2"
_cell_formula_units_Z 16
_cell_length_a 12.720891
_cell_length_b 5.494481
_cell_length_c 10.094103
_cell_angle_alpha 90.000000
_cell_angle_beta 81.707016
_cell_angle_gamma 90.000000
_cell_volume 698.146896
_symmetry_space_group_name_H-M "P 21"
_symmetry_group_IT_number 4
_symmetry_cell_setting 'monoclinic'
loop_
_space_group_symop_operation_xyz
x,y,z
-x,1/2+y,-z
loop_
_atom_site_type_symbol
_atom_site_label
_atom_site_fract_x
_atom_site_fract_y
_atom_site_fract_z
Si Si1 0.223159 0.583790 0.114451
Si Si2 0.468570 0.870006 0.343791
Si Si3 0.052684 0.767683 0.949674
Si Si4 0.901929 0.149604 0.342421
Si Si5 0.541271 0.201499 0.928848
Si Si6 0.328644 0.548476 0.540193
Si Si7 0.904680 0.339282 0.638299
Si Si8 0.287908 0.212588 0.295095
O O1 0.331434 0.734791 0.088933
O O2 0.145292 0.647672 0.250946
O O3 0.265292 0.321437 0.153777
O O4 0.156727 0.646639 0.997264
O O5 0.485010 0.678577 0.222777
O O6 0.387119 0.786308 0.472576
O O7 0.580199 0.922416 0.390771
O O8 0.402620 0.085006 0.285721
O O9 0.066327 0.804645 0.790642
O O10 0.971529 0.536835 0.986151
O O11 0.918951 0.263878 0.483966
O O12 0.777708 0.089638 0.358685
O O13 0.982081 0.923053 0.327652
O O14 0.488835 0.447945 0.994961
O O15 0.294401 0.407546 0.413110
O O16 0.813436 0.545091 0.655840
#
# Coordination Sequence:
#
# PCOD9119494 Si02
#       8
#     2   2   2   2   2   2   2   2
#     4  12  26  50  76 106 154 209 247 318 393 456
#     4  12  25  46  73 107 151 198 251 318 397 441
#     4  12  30  53  76 112 161 206 245 313 394 463
#     4  12  26  48  74 119 144 192 268 313 380 462
#     4  12  28  48  75 112 149 205 267 310 370 471
#     4  12  25  45  73 110 146 194 248 330 383 450
#     4  12  25  46  78 108 147 198 256 323 377 460
#     4  12  21  46  79 102 146 202 258 301 396 455
#
# _framework density 22.917812000000001
#
# number of rings (size 3 to 8) (size 9 to 14) (size 15 to 20)
#    0.000    0.000    7.500    2.250    3.500    1.000 
#    2.250    0.000    0.000    0.000    0.000    0.000 
#    0.000    0.000    0.000    0.000    0.000    0.000 
#
# Total GULP energy -89414.824972 kJ/mol
# GULP energy per Si atom -5588.426561 kJ/mol
# Density = 2.286565 g / cm^3
# Si number density = 22.917812 Si / 1000 Ang^3
#
#
#
# Elastic Constant Matrix: (Units=GPa)
#
#
# Indices 1 2 3 4 5 6 
#
# 1 132.8631 17.3216 28.2976 0.0000 4.8297 0.0000
# 2 17.3216 51.1403 11.2808 0.0000 -9.9692 0.0000
# 3 28.2976 11.2808 95.9186 0.0000 -18.8299 0.0000
# 4 0.0000 0.0000 0.0000 28.7915 0.0000 -1.4445
# 5 4.8297 -9.9692 -18.8299 0.0000 34.6777 0.0000
# 6 0.0000 0.0000 0.0000 -1.4445 0.0000 39.3031
#
#
#
# Elastic Compliance Matrix: (Units=1/GPa)
#
#
# Indices 1 2 3 4 5 6 
#
# 1 0.008674 -0.003007 -0.002924 0.000000 -0.003660 0.000000
# 2 -0.003007 0.021931 -0.000417 0.000000 0.006497 0.000000
# 3 -0.002924 -0.000417 0.012753 0.000000 0.007212 0.000000
# 4 0.000000 0.000000 0.000000 0.034797 0.000000 0.001279
# 5 -0.003660 0.006497 0.007212 0.000000 0.035131 0.000000
# 6 0.000000 0.000000 0.000000 0.001279 0.000000 0.025490
#
#
# Mechanical properties :
#
#
# Convention : Reuss Voigt Hill
#
# Bulk Modulus (GPa) = 32.61210 43.74687 38.17949
# Shear Modulus (GPa) = 30.92302 35.42260 33.17281
#
# Velocity S-wave (km/s) = 3.67727 3.93572 3.80869
# Velocity P-wave (km/s) = 5.68249 6.30740 6.00308
#
# Compressibility (1/GPa) = 0.03066347
#
# Stress axis : x y z
#
# Youngs Moduli (GPa) = 115.28268 45.59781 78.41292
#
# Poissons Ratio (x) = 0.13709 0.22928
# Poissons Ratio (y) = 0.34661 0.03268
# Poissons Ratio (z) = 0.33709 0.01900
#
# Static dielectric constant tensor:
#      x y z
#    x 1.857570 0.000000 -0.007400 
#    y 0.000000 1.961010 0.000000 
#    z -0.007400 0.000000 1.869900 
# 
# From -- ./inp_files/7359.got.cif
#   From: 2010.05.17/outbox.cif.g08.bks.cpg/sg4_4_cif.got.tgz:7359.got - 2010.06.03 18:43:04.
