data_PCOD9119706
_publ_section_title
;
Structure prediction by ZEFSAII (Michael W. Deem and Ramdas Pophale) SiO2 
 PCOD9119706
Probable space group: P 21
;
_chemical_formula_sum "Si O2"
_cell_formula_units_Z 16
_cell_length_a 29.049090
_cell_length_b 5.134080
_cell_length_c 9.195019
_cell_angle_alpha 90.000000
_cell_angle_beta 150.911893
_cell_angle_gamma 90.000000
_cell_volume 666.686495
_symmetry_space_group_name_H-M "P 21"
_symmetry_group_IT_number 4
_symmetry_cell_setting 'monoclinic'
loop_
_space_group_symop_operation_xyz
x,y,z
-x,1/2+y,-z
loop_
_atom_site_type_symbol
_atom_site_label
_atom_site_fract_x
_atom_site_fract_y
_atom_site_fract_z
Si Si1 0.505159 0.013990 0.419713
Si Si2 0.054508 0.813569 0.126628
Si Si3 0.687635 0.162756 0.762910
Si Si4 0.085586 0.940220 0.890337
Si Si5 0.268004 0.699562 0.433576
Si Si6 0.790284 0.513567 0.260231
Si Si7 0.687416 0.699938 0.250414
Si Si8 0.874074 0.820571 0.241910
O O1 0.519244 0.228028 0.586909
O O2 0.600311 0.006639 0.587724
O O3 0.419825 0.135050 0.090742
O O4 0.150456 0.802237 0.484448
O O5 0.071918 0.966458 0.023852
O O6 0.017135 0.522500 0.998291
O O7 0.673482 0.227996 0.554368
O O8 0.785974 0.005555 0.031616
O O9 0.708996 0.399698 0.931764
O O10 0.979816 0.931555 0.534590
O O11 0.138869 0.149372 0.938085
O O12 0.156277 0.692649 0.080346
O O13 0.298177 0.457094 0.614875
O O14 0.279438 0.956714 0.561286
O O15 0.745733 0.700162 0.259585
O O16 0.866813 0.633171 0.362238
#
# Coordination Sequence:
#
# PCOD9119706 Si02
#       8
#     2   2   2   2   2   2   2   2
#     4  12  27  51  84 117 153 203 261 330 397 469
#     4  12  28  44  70 106 146 200 257 315 377 452
#     4  12  28  50  78 109 158 202 263 327 400 468
#     4  12  26  47  75 109 165 208 266 318 402 465
#     4  12  28  48  75 114 159 202 251 326 395 465
#     4  12  26  46  75 106 150 197 266 318 386 466
#     4  12  28  49  79 116 151 200 263 323 396 474
#     4  12  27  47  74 113 156 212 267 323 385 487
#
# _framework density 23.999288
#
# number of rings (size 3 to 8) (size 9 to 14) (size 15 to 20)
#    0.000    0.000    5.000    3.750    5.250    1.000 
#    0.000    0.000    0.000    0.000    0.000    0.000 
#    0.000    0.000    0.000    0.000    0.000    0.000 
#
# Total GULP energy -89544.513664 kJ/mol
# GULP energy per Si atom -5596.532104 kJ/mol
# Density = 2.394466 g / cm^3
# Si number density = 23.999288 Si / 1000 Ang^3
#
#
#
# Elastic Constant Matrix: (Units=GPa)
#
#
# Indices 1 2 3 4 5 6 
#
# 1 150.9005 33.6150 18.0080 0.0000 -13.6141 0.0000
# 2 33.6150 90.9077 20.3004 0.0000 -24.8352 0.0000
# 3 18.0080 20.3004 98.1651 0.0000 7.8356 0.0000
# 4 0.0000 0.0000 0.0000 35.7120 0.0000 -6.4152
# 5 -13.6141 -24.8352 7.8356 0.0000 19.9250 0.0000
# 6 0.0000 0.0000 0.0000 -6.4152 0.0000 29.3226
#
#
#
# Elastic Compliance Matrix: (Units=1/GPa)
#
#
# Indices 1 2 3 4 5 6 
#
# 1 0.007454 -0.001368 -0.001399 0.000000 0.003938 0.000000
# 2 -0.001368 0.020075 -0.006012 0.000000 0.026451 0.000000
# 3 -0.001399 -0.006012 0.012762 0.000000 -0.013468 0.000000
# 4 0.000000 0.000000 0.000000 0.029147 0.000000 0.006377
# 5 0.003938 0.026451 -0.013468 0.000000 0.091145 0.000000
# 6 0.000000 0.000000 0.000000 0.006377 0.000000 0.035499
#
#
# Mechanical properties :
#
#
# Convention : Reuss Voigt Hill
#
# Bulk Modulus (GPa) = 43.98886 53.75779 48.87332
# Shear Modulus (GPa) = 22.60234 34.86192 28.73213
#
# Velocity S-wave (km/s) = 3.07219 3.81546 3.46382
# Velocity P-wave (km/s) = 5.56359 6.46983 6.03375
#
# Compressibility (1/GPa) = 0.02273303
#
# Stress axis : x y z
#
# Youngs Moduli (GPa) = 134.15918 49.81371 78.35912
#
# Poissons Ratio (x) = 0.06815 0.10961
# Poissons Ratio (y) = 0.18354 0.47108
# Poissons Ratio (z) = 0.18766 0.29947
#
# Static dielectric constant tensor:
#      x y z
#    x 1.971270 0.000000 -0.008990 
#    y 0.000000 1.961260 0.000000 
#    z -0.008990 0.000000 1.966720 
# 
# From -- ./inp_files/8700.got.cif
#   From: 2010.05.17/outbox.cif.g08.bks.cpg/sg4_5_cif.got.tgz:8700.got - 2010.06.03 18:43:04.
