data_PCOD9119760
_publ_section_title
;
Structure prediction by ZEFSAII (Michael W. Deem and Ramdas Pophale) SiO2 
 PCOD9119760
Probable space group: P 21
;
_chemical_formula_sum "Si O2"
_cell_formula_units_Z 16
_cell_length_a 9.565301
_cell_length_b 7.344013
_cell_length_c 9.401960
_cell_angle_alpha 90.000000
_cell_angle_beta 68.446587
_cell_angle_gamma 90.000000
_cell_volume 614.283261
_symmetry_space_group_name_H-M "P 21"
_symmetry_group_IT_number 4
_symmetry_cell_setting 'monoclinic'
loop_
_space_group_symop_operation_xyz
x,y,z
-x,1/2+y,-z
loop_
_atom_site_type_symbol
_atom_site_label
_atom_site_fract_x
_atom_site_fract_y
_atom_site_fract_z
Si Si1 0.083511 0.461410 0.279099
Si Si2 0.219249 0.100403 0.582518
Si Si3 0.465713 0.002400 0.275201
Si Si4 0.223890 0.609163 0.796069
Si Si5 0.266293 0.495605 0.467942
Si Si6 0.425079 0.106776 0.753612
Si Si7 0.018634 0.935671 0.980543
Si Si8 0.259817 0.101940 0.102363
O O1 0.180416 0.566235 0.360132
O O2 0.180542 0.280091 0.203815
O O3 0.915670 0.465575 0.407804
O O4 0.041283 0.541854 0.139848
O O5 0.372166 0.074400 0.440629
O O6 0.184682 0.307500 0.547173
O O7 0.274745 0.063936 0.722347
O O8 0.615593 0.118861 0.186107
O O9 0.347392 0.995451 0.192000
O O10 0.524653 0.808888 0.305124
O O11 0.257927 0.610271 0.615853
O O12 0.101657 0.759869 0.884260
O O13 0.141278 0.422698 0.877535
O O14 0.437481 0.479899 0.347413
O O15 0.387105 0.125942 0.933779
O O16 0.129742 0.004446 0.061734
#
# Coordination Sequence:
#
# PCOD9119760 Si02
#       8
#     2   2   2   2   2   2   2   2
#     4  12  29  51  79 121 169 219 281 347 422 515
#     4  12  26  53  82 117 165 217 275 350 424 503
#     4  12  29  49  83 117 164 216 282 348 418 509
#     4  12  29  53  80 123 165 221 286 347 432 507
#     4  12  30  51  84 121 162 218 286 349 423 507
#     4  12  27  51  79 119 164 216 279 349 427 501
#     4  12  29  49  82 112 170 224 273 348 425 515
#     4  12  29  53  77 124 165 221 282 342 431 509
#
# _framework density 26.046616
#
# number of rings (size 3 to 8) (size 9 to 14) (size 15 to 20)
#    0.000    0.000    6.250    0.750   14.000    0.000 
#    0.000    0.000    0.000    0.000    0.000    0.000 
#    0.000    0.000    0.000    0.000    0.000    0.000 
#
# Total GULP energy -89399.510007 kJ/mol
# GULP energy per Si atom -5587.469375 kJ/mol
# Density = 2.598733 g / cm^3
# Si number density = 26.046616 Si / 1000 Ang^3
#
#
#
# Elastic Constant Matrix: (Units=GPa)
#
#
# Indices 1 2 3 4 5 6 
#
# 1 184.1236 23.7063 64.7533 0.0000 14.5328 0.0000
# 2 23.7063 50.3245 41.4531 0.0000 -9.9581 0.0000
# 3 64.7533 41.4531 99.0647 0.0000 -3.2071 0.0000
# 4 0.0000 0.0000 0.0000 38.1161 0.0000 -11.2020
# 5 14.5328 -9.9581 -3.2071 0.0000 60.5017 0.0000
# 6 0.0000 0.0000 0.0000 -11.2020 0.0000 37.5771
#
#
#
# Elastic Compliance Matrix: (Units=1/GPa)
#
#
# Indices 1 2 3 4 5 6 
#
# 1 0.007289 0.000234 -0.004926 0.000000 -0.001974 0.000000
# 2 0.000234 0.031504 -0.013192 0.000000 0.004430 0.000000
# 3 -0.004926 -0.013192 0.018835 0.000000 0.000010 0.000000
# 4 0.000000 0.000000 0.000000 0.028755 0.000000 0.008572
# 5 -0.001974 0.004430 0.000010 0.000000 0.017732 0.000000
# 6 0.000000 0.000000 0.000000 0.008572 0.000000 0.029167
#
#
# Mechanical properties :
#
#
# Convention : Reuss Voigt Hill
#
# Bulk Modulus (GPa) = 45.74794 65.92646 55.83720
# Shear Modulus (GPa) = 28.35461 40.81232 34.58347
#
# Velocity S-wave (km/s) = 3.30299 3.96270 3.64779
# Velocity P-wave (km/s) = 5.66995 6.80464 6.26305
#
# Compressibility (1/GPa) = 0.02185891
#
# Stress axis : x y z
#
# Youngs Moduli (GPa) = 137.18687 31.74203 53.09308
#
# Poissons Ratio (x) = -0.00741 0.26155
# Poissons Ratio (y) = -0.03203 0.70040
# Poissons Ratio (z) = 0.67582 0.41874
#
# Static dielectric constant tensor:
#      x y z
#    x 1.994460 0.000000 -0.049980 
#    y 0.000000 2.252360 0.000000 
#    z -0.049980 0.000000 2.068850 
# 
# From -- ./inp_files/5417.got.cif
#   From: 2010.05.17/outbox.cif.g08.bks.cpg/sg4_3_cif.got.tgz:5417.got - 2010.06.03 18:43:04.
