data_PCOD9119011
_publ_section_title
;
Structure prediction by ZEFSAII (Michael W. Deem and Ramdas Pophale) SiO2 
 PCOD9119011
Probable space group: P 21
;
_chemical_formula_sum "Si O2"
_cell_formula_units_Z 16
_cell_length_a 9.352943
_cell_length_b 7.761256
_cell_length_c 8.292751
_cell_angle_alpha 90.000000
_cell_angle_beta 86.476579
_cell_angle_gamma 90.000000
_cell_volume 600.837768
_symmetry_space_group_name_H-M "P 21"
_symmetry_group_IT_number 4
_symmetry_cell_setting 'monoclinic'
loop_
_space_group_symop_operation_xyz
x,y,z
-x,1/2+y,-z
loop_
_atom_site_type_symbol
_atom_site_label
_atom_site_fract_x
_atom_site_fract_y
_atom_site_fract_z
Si Si1 0.803643 0.515650 0.840211
Si Si2 0.967088 0.799922 0.611573
Si Si3 0.218042 0.347479 0.693565
Si Si4 0.552518 0.636028 0.492812
Si Si5 0.988317 0.585330 0.121469
Si Si6 0.436071 0.284803 0.149090
Si Si7 0.297623 0.596307 0.963812
Si Si8 0.276592 0.788139 0.434937
O O1 0.895655 0.637655 0.708859
O O2 0.667336 0.629585 0.899759
O O3 0.760212 0.347633 0.743020
O O4 0.895690 0.492828 0.991805
O O5 0.866308 0.855680 0.470047
O O6 0.981686 0.957558 0.733226
O O7 0.126804 0.763763 0.535700
O O8 0.357380 0.233036 0.649184
O O9 0.276042 0.508482 0.789333
O O10 0.105207 0.245569 0.812686
O O11 0.561319 0.743892 0.659597
O O12 0.387626 0.633115 0.449174
O O13 0.633309 0.455536 0.511382
O O14 0.137816 0.627794 0.030393
O O15 0.594326 0.253182 0.069785
O O16 0.368688 0.458437 0.082624
#
# Coordination Sequence:
#
# PCOD9119011 Si02
#       8
#     2   2   2   2   2   2   2   2
#     4  11  23  49  72 110 149 191 257 311 374 444
#     4  12  23  47  77 107 152 193 257 311 374 448
#     4  12  23  48  78 111 147 197 255 314 374 443
#     4  11  24  49  74 112 151 196 249 307 377 448
#     4  12  24  47  79 107 153 195 250 317 381 443
#     4  11  25  52  73 110 157 194 253 309 379 459
#     4  12  27  49  77 113 151 204 245 317 377 453
#     4  11  25  47  76 110 150 200 246 318 368 452
#
# _framework density 26.629481999999999
#
# number of rings (size 3 to 8) (size 9 to 14) (size 15 to 20)
#    0.000    0.500    6.250    2.250    1.750    2.000 
#   15.750    0.000    0.000    0.000    0.000    0.000 
#    0.000    0.000    0.000    0.000    0.000    0.000 
#
# Total GULP energy -89893.627869 kJ/mol
# GULP energy per Si atom -5618.351742 kJ/mol
# Density = 2.656887 g / cm^3
# Si number density = 26.629482 Si / 1000 Ang^3
#
#
#
# Elastic Constant Matrix: (Units=GPa)
#
#
# Indices 1 2 3 4 5 6 
#
# 1 158.9578 -0.5336 43.5948 0.0000 -2.7431 0.0000
# 2 -0.5336 61.8429 28.2830 0.0000 21.2037 0.0000
# 3 43.5948 28.2830 107.0272 0.0000 19.1146 0.0000
# 4 0.0000 0.0000 0.0000 41.3185 0.0000 6.5886
# 5 -2.7431 21.2037 19.1146 0.0000 56.9527 0.0000
# 6 0.0000 0.0000 0.0000 6.5886 0.0000 49.8493
#
#
#
# Elastic Compliance Matrix: (Units=1/GPa)
#
#
# Indices 1 2 3 4 5 6 
#
# 1 0.007271 0.001304 -0.003491 0.000000 0.001036 0.000000
# 2 0.001304 0.020438 -0.004877 0.000000 -0.005910 0.000000
# 3 -0.003491 -0.004877 0.012510 0.000000 -0.002551 0.000000
# 4 0.000000 0.000000 0.000000 0.024723 0.000000 -0.003268
# 5 0.001036 -0.005910 -0.002551 0.000000 0.020665 0.000000
# 6 0.000000 0.000000 0.000000 -0.003268 0.000000 0.020492
#
#
# Mechanical properties :
#
#
# Convention : Reuss Voigt Hill
#
# Bulk Modulus (GPa) = 38.32799 52.27957 45.30378
# Shear Modulus (GPa) = 38.78280 46.72299 42.75289
#
# Velocity S-wave (km/s) = 3.82040 4.19329 4.01118
# Velocity P-wave (km/s) = 5.82108 6.56656 6.20503
#
# Compressibility (1/GPa) = 0.02609060
#
# Stress axis : x y z
#
# Youngs Moduli (GPa) = 137.53766 48.92925 79.93721
#
# Poissons Ratio (x) = -0.06381 0.27908
# Poissons Ratio (y) = -0.17936 0.38982
# Poissons Ratio (z) = 0.48018 0.23861
#
# Static dielectric constant tensor:
#      x y z
#    x 2.020440 0.000000 0.016140 
#    y 0.000000 2.100750 0.000000 
#    z 0.016140 0.000000 2.076530 
# 
# From -- ./inp_files/5826.got.cif
#   From: 2010.05.17/outbox.cif.g08.bks.cpg/sg4_3_cif.got.tgz:5826.got - 2010.06.03 18:43:04.
