data_PCOD9119170
_publ_section_title
;
Structure prediction by ZEFSAII (Michael W. Deem and Ramdas Pophale) SiO2 
 PCOD9119170
Probable space group: P 21
;
_chemical_formula_sum "Si O2"
_cell_formula_units_Z 16
_cell_length_a 21.854978
_cell_length_b 5.264524
_cell_length_c 6.623994
_cell_angle_alpha 90.000000
_cell_angle_beta 52.280566
_cell_angle_gamma 90.000000
_cell_volume 602.857569
_symmetry_space_group_name_H-M "P 21"
_symmetry_group_IT_number 4
_symmetry_cell_setting 'monoclinic'
loop_
_space_group_symop_operation_xyz
x,y,z
-x,1/2+y,-z
loop_
_atom_site_type_symbol
_atom_site_label
_atom_site_fract_x
_atom_site_fract_y
_atom_site_fract_z
Si Si1 0.951841 0.760710 0.596696
Si Si2 0.858378 0.467439 0.134813
Si Si3 0.619509 0.079995 0.400460
Si Si4 0.237690 0.849785 0.046744
Si Si5 0.138971 0.591813 0.537694
Si Si6 0.592556 0.464073 0.796353
Si Si7 0.499917 0.722783 0.686429
Si Si8 0.262584 0.238134 0.335439
O O1 0.004599 0.521048 0.426959
O O2 0.904854 0.866042 0.494055
O O3 0.909241 0.646928 0.883957
O O4 0.893912 0.235937 0.198910
O O5 0.810115 0.626173 0.393594
O O6 0.791774 0.372502 0.120508
O O7 0.625776 0.230204 0.597358
O O8 0.591191 0.791785 0.481143
O O9 0.541509 0.159577 0.436314
O O10 0.692156 0.150820 0.118341
O O11 0.156763 0.783615 0.319722
O O12 0.265127 0.099093 0.112499
O O13 0.230005 0.522731 0.394872
O O14 0.659687 0.668330 0.706091
O O15 0.512741 0.516639 0.835601
O O16 0.560381 0.404218 0.081896
#
# Coordination Sequence:
#
# PCOD9119170 Si02
#       8
#     2   2   2   2   2   2   2   2
#     4  12  29  57  89 126 176 224 269 337 418 515
#     4  11  26  50  82 118 165 211 263 341 403 480
#     4  12  25  42  65 101 142 203 255 328 407 464
#     4  11  24  46  75 108 156 203 271 339 406 484
#     4  11  28  49  81 124 157 206 274 336 402 499
#     4  12  25  42  64 103 141 197 256 326 401 469
#     4  12  26  40  65  93 148 193 261 323 392 486
#     4  11  25  44  77 109 147 201 269 332 399 487
#
# _framework density 26.540267
#
# number of rings (size 3 to 8) (size 9 to 14) (size 15 to 20)
#    0.000    0.500    6.250    0.750    7.000    3.000 
#    2.250    0.000    0.000    0.000    0.000    0.000 
#    0.000    0.000    0.000    0.000    0.000    0.000 
#
# Total GULP energy -89203.732058 kJ/mol
# GULP energy per Si atom -5575.233254 kJ/mol
# Density = 2.647986 g / cm^3
# Si number density = 26.540267 Si / 1000 Ang^3
#
#
#
# Elastic Constant Matrix: (Units=GPa)
#
#
# Indices 1 2 3 4 5 6 
#
# 1 138.6908 46.7229 46.5398 0.0000 25.1285 0.0000
# 2 46.7229 66.0885 39.7613 0.0000 -3.5012 0.0000
# 3 46.5398 39.7613 144.0974 0.0000 6.2299 0.0000
# 4 0.0000 0.0000 0.0000 43.5569 0.0000 1.5037
# 5 25.1285 -3.5012 6.2299 0.0000 37.4522 0.0000
# 6 0.0000 0.0000 0.0000 1.5037 0.0000 42.4723
#
#
#
# Elastic Compliance Matrix: (Units=1/GPa)
#
#
# Indices 1 2 3 4 5 6 
#
# 1 0.011913 -0.008133 -0.001234 0.000000 -0.008548 0.000000
# 2 -0.008133 0.023940 -0.004343 0.000000 0.008417 0.000000
# 3 -0.001234 -0.004343 0.008580 0.000000 -0.001005 0.000000
# 4 0.000000 0.000000 0.000000 0.022987 0.000000 -0.000814
# 5 -0.008548 0.008417 -0.001005 0.000000 0.033390 0.000000
# 6 0.000000 0.000000 0.000000 -0.000814 0.000000 0.023574
#
#
# Mechanical properties :
#
#
# Convention : Reuss Voigt Hill
#
# Bulk Modulus (GPa) = 58.77677 68.32497 63.55087
# Shear Modulus (GPa) = 31.75151 39.08646 35.41899
#
# Velocity S-wave (km/s) = 3.46259 3.84177 3.65710
# Velocity P-wave (km/s) = 6.17902 6.74379 6.46757
#
# Compressibility (1/GPa) = 0.01701352
#
# Stress axis : x y z
#
# Youngs Moduli (GPa) = 83.94322 41.77184 116.54821
#
# Poissons Ratio (x) = 0.33971 0.14381
# Poissons Ratio (y) = 0.68267 0.50617
# Poissons Ratio (z) = 0.10358 0.18142
#
# Static dielectric constant tensor:
#      x y z
#    x 2.091370 0.000000 -0.021990 
#    y 0.000000 2.464730 0.000000 
#    z -0.021990 0.000000 2.085780 
# 
# From -- ./inp_files/4207.got.cif
#   From: 2010.05.17/outbox.cif.g08.bks.cpg/sg4_3_cif.got.tgz:4207.got - 2010.06.03 18:43:04.
