data_PCOD9119811
_publ_section_title
;
Structure prediction by ZEFSAII (Michael W. Deem and Ramdas Pophale) SiO2 
 PCOD9119811
Probable space group: P 21
;
_chemical_formula_sum "Si O2"
_cell_formula_units_Z 14
_cell_length_a 9.000000
_cell_length_b 9.000000
_cell_length_c 12.000000
_cell_angle_alpha 90.000000
_cell_angle_beta 140.000000
_cell_angle_gamma 90.000000
_cell_volume 624.789557
_symmetry_space_group_name_H-M "P 21"
_symmetry_group_IT_number 4
_symmetry_cell_setting 'monoclinic'
loop_
_space_group_symop_operation_xyz
x,y,z
-x,1/2+y,-z
loop_
_atom_site_type_symbol
_atom_site_label
_atom_site_fract_x
_atom_site_fract_y
_atom_site_fract_z
Si Si1 0.096003 0.421880 0.873990
Si Si2 0.912130 0.149052 0.682315
Si Si3 0.623045 0.344332 0.224658
Si Si4 0.622450 0.012384 0.338036
Si Si5 0.698280 0.681233 0.282980
Si Si6 0.803467 0.229625 0.112610
Si Si7 0.917536 0.460395 0.013609
O O1 0.101870 0.568982 0.802659
O O2 0.890730 0.318091 0.711905
O O3 0.354856 0.351859 0.028365
O O4 0.052694 0.465146 0.976854
O O5 0.707968 0.053667 0.510975
O O6 0.100415 0.166767 0.692142
O O7 0.002178 0.074152 0.846659
O O8 0.662211 0.177893 0.300692
O O9 0.676801 0.505719 0.315869
O O10 0.780305 0.338145 0.203729
O O11 0.725500 0.846366 0.360098
O O12 0.350590 0.987017 0.167238
O O13 0.453690 0.700538 0.080775
O O14 0.941054 0.303098 0.090327
#
# Coordination Sequence:
#
# PCOD9119811 Si02
#       7
#     2   2   2   2   2   2   2
#     4  11  23  41  73 100 136 188 232 284 356 414
#     4  12  23  43  70 101 137 184 229 284 354 413
#     4  11  21  43  72 101 136 181 231 293 349 410
#     4  11  26  43  69 104 143 178 233 295 340 423
#     4  10  22  40  66 105 141 173 234 290 349 411
#     4  10  20  38  70 101 132 184 232 290 348 409
#     4  11  23  46  66  98 143 182 235 286 342 422
#
# _framework density 22.407544999999999
#
# number of rings (size 3 to 8) (size 9 to 14) (size 15 to 20)
#    0.000    1.143    4.286    1.714    6.000    0.000 
#    5.143    0.000    0.000    0.000    0.000    0.000 
#    0.000    0.000    0.000    0.000    0.000    0.000 
#
# Total GULP energy -77990.941891 kJ/mol
# GULP energy per Si atom -5570.781564 kJ/mol
# Density = 2.235654 g / cm^3
# Si number density = 22.407545 Si / 1000 Ang^3
#
#
#
# Elastic Constant Matrix: (Units=GPa)
#
#
# Indices 1 2 3 4 5 6 
#
# 1 61.5870 28.2712 6.3897 0.0000 -14.0621 0.0000
# 2 28.2712 183.3536 46.2699 0.0000 -11.2255 0.0000
# 3 6.3897 46.2699 70.2825 0.0000 -14.3895 0.0000
# 4 0.0000 0.0000 0.0000 29.0965 0.0000 -5.3982
# 5 -14.0621 -11.2255 -14.3895 0.0000 5.0368 0.0000
# 6 0.0000 0.0000 0.0000 -5.3982 0.0000 22.7591
#
#
#
# Elastic Compliance Matrix: (Units=1/GPa)
#
#
# Indices 1 2 3 4 5 6 
#
# 1 -0.055629 0.004914 -0.066811 0.000000 -0.335227 0.000000
# 2 0.004914 0.006170 0.002687 0.000000 0.035146 0.000000
# 3 -0.066811 0.002687 -0.044399 0.000000 -0.307381 0.000000
# 4 0.000000 0.000000 0.000000 0.035950 0.000000 0.008527
# 5 -0.335227 0.035146 -0.307381 0.000000 -1.537182 0.000000
# 6 0.000000 0.000000 0.000000 0.008527 0.000000 0.045961
#
#
# Mechanical properties :
#
#
# Convention : Reuss Voigt Hill
#
# Bulk Modulus (GPa) = -4.71079 53.00944 24.14933
# Shear Modulus (GPa) = -3.33007 26.99799 11.83396
#
# Velocity S-wave (km/s) = -1.22040 3.47488 2.30059
# Velocity P-wave (km/s) = 2.02304 6.30936 4.22583
#
# Compressibility (1/GPa) = -0.21227881
#
# Stress axis : x y z
#
# Youngs Moduli (GPa) = -17.97625 162.07625 -22.52290
#
# Poissons Ratio (x) = -0.79642 -1.50478
# Poissons Ratio (y) = 0.08833 0.06052
# Poissons Ratio (z) = -1.20102 -0.43552
#
# Static dielectric constant tensor:
#      x y z
#    x 1.809620 0.000000 -0.013720 
#    y 0.000000 1.979450 0.000000 
#    z -0.013720 0.000000 1.828450 
# 
# From -- ./inp_files/5698.got.cif
#   From: 2010.05.17/outbox.ucp.g08.bks.cvg/sg4_3_cif.got.tgz:5698.got - 2010.06.11 12:51:24.
