data_PCOD9119624
_publ_section_title
;
Structure prediction by ZEFSAII (Michael W. Deem and Ramdas Pophale) SiO2 
 PCOD9119624
Probable space group: P 21
;
_chemical_formula_sum "Si O2"
_cell_formula_units_Z 14
_cell_length_a 23.464345
_cell_length_b 5.231235
_cell_length_c 8.402650
_cell_angle_alpha 90.000000
_cell_angle_beta 150.047725
_cell_angle_gamma 90.000000
_cell_volume 514.957956
_symmetry_space_group_name_H-M "P 21"
_symmetry_group_IT_number 4
_symmetry_cell_setting 'monoclinic'
loop_
_space_group_symop_operation_xyz
x,y,z
-x,1/2+y,-z
loop_
_atom_site_type_symbol
_atom_site_label
_atom_site_fract_x
_atom_site_fract_y
_atom_site_fract_z
Si Si1 0.234689 0.903190 0.791851
Si Si2 0.460175 0.164354 0.302814
Si Si3 0.038755 0.231185 0.232086
Si Si4 0.795971 0.026293 0.559570
Si Si5 0.983390 0.533692 0.368101
Si Si6 0.631069 0.082860 0.444692
Si Si7 0.268174 0.076166 0.219160
O O1 0.252334 0.674421 0.711899
O O2 0.104088 0.997049 0.468367
O O3 0.324684 0.123772 0.959265
O O4 0.262411 0.898336 0.046431
O O5 0.503398 0.931283 0.524560
O O6 0.512090 0.129472 0.250709
O O7 0.120803 0.288263 0.282200
O O8 0.056276 0.470308 0.391072
O O9 0.903651 0.201257 0.884227
O O10 0.691078 0.979744 0.425923
O O11 0.034275 0.747140 0.605106
O O12 0.858657 0.637348 0.033012
O O13 0.676083 0.850950 0.667443
O O14 0.669955 0.378227 0.517664
#
# Coordination Sequence:
#
# PCOD9119624 Si02
#       7
#     2   2   2   2   2   2   2
#     4  12  27  49  77 110 151 206 258 319 390 469
#     4  12  26  52  85 113 146 196 265 334 387 449
#     4  12  27  45  73 105 159 207 250 309 395 471
#     4  12  29  47  74 110 164 208 253 313 398 473
#     4  12  25  41  71 110 146 192 256 317 375 458
#     4  12  27  51  77 114 150 198 257 327 380 461
#     4  12  25  45  79 108 148 195 261 315 379 445
#
# _framework density 27.186684
#
# number of rings (size 3 to 8) (size 9 to 14) (size 15 to 20)
#    0.000    0.000    7.143    1.714    8.000    0.000 
#    2.571    0.000    0.000    0.000    0.000    0.000 
#    0.000    0.000    0.000    0.000    0.000    0.000 
#
# Total GULP energy -78094.961913 kJ/mol
# GULP energy per Si atom -5578.211565 kJ/mol
# Density = 2.712481 g / cm^3
# Si number density = 27.186684 Si / 1000 Ang^3
#
#
#
# Elastic Constant Matrix: (Units=GPa)
#
#
# Indices 1 2 3 4 5 6 
#
# 1 116.2954 -0.6650 20.1474 0.0000 9.3324 0.0000
# 2 -0.6650 146.3097 25.2052 0.0000 -11.0093 0.0000
# 3 20.1474 25.2052 51.8213 0.0000 11.3884 0.0000
# 4 0.0000 0.0000 0.0000 35.8268 0.0000 1.6714
# 5 9.3324 -11.0093 11.3884 0.0000 30.6577 0.0000
# 6 0.0000 0.0000 0.0000 1.6714 0.0000 40.6666
#
#
#
# Elastic Compliance Matrix: (Units=1/GPa)
#
#
# Indices 1 2 3 4 5 6 
#
# 1 0.009333 0.000569 -0.003622 0.000000 -0.001291 0.000000
# 2 0.000569 0.008078 -0.005172 0.000000 0.004649 0.000000
# 3 -0.003622 -0.005172 0.025466 0.000000 -0.010215 0.000000
# 4 0.000000 0.000000 0.000000 0.027966 0.000000 -0.001149
# 5 -0.001291 0.004649 -0.010215 0.000000 0.038475 0.000000
# 6 0.000000 0.000000 0.000000 -0.001149 0.000000 0.024637
#
#
# Mechanical properties :
#
#
# Convention : Reuss Voigt Hill
#
# Bulk Modulus (GPa) = 37.83898 44.86684 41.35291
# Shear Modulus (GPa) = 31.40435 39.41281 35.40858
#
# Velocity S-wave (km/s) = 3.40242 3.81164 3.61283
# Velocity P-wave (km/s) = 5.42067 5.99254 5.71376
#
# Compressibility (1/GPa) = 0.02642777
#
# Stress axis : x y z
#
# Youngs Moduli (GPa) = 107.14554 123.78940 39.26869
#
# Poissons Ratio (x) = -0.07046 0.14222
# Poissons Ratio (y) = -0.06098 0.20310
# Poissons Ratio (z) = 0.38804 0.64025
#
# Static dielectric constant tensor:
#      x y z
#    x 2.249460 0.000000 -0.150010 
#    y 0.000000 2.112890 0.000000 
#    z -0.150010 0.000000 2.247330 
# 
# From -- ./inp_files/9957.got.cif
#   From: 2010.05.17/outbox.cif.g08.bks.cpg/sg4_5_cif.got.tgz:9957.got - 2010.06.03 18:43:04.
