data_PCOD9119352
_publ_section_title
;
Structure prediction by ZEFSAII (Michael W. Deem and Ramdas Pophale) SiO2 
 PCOD9119352
Probable space group: P 21
;
_chemical_formula_sum "Si O2"
_cell_formula_units_Z 10
_cell_length_a 11.711970
_cell_length_b 7.108147
_cell_length_c 10.870701
_cell_angle_alpha 90.000000
_cell_angle_beta 155.907725
_cell_angle_gamma 90.000000
_cell_volume 369.423703
_symmetry_space_group_name_H-M "P 21"
_symmetry_group_IT_number 4
_symmetry_cell_setting 'monoclinic'
loop_
_space_group_symop_operation_xyz
x,y,z
-x,1/2+y,-z
loop_
_atom_site_type_symbol
_atom_site_label
_atom_site_fract_x
_atom_site_fract_y
_atom_site_fract_z
Si Si1 0.382631 0.164310 0.087239
Si Si2 0.214341 0.982864 0.569755
Si Si3 0.882024 0.923900 0.490164
Si Si4 0.457106 0.681967 0.468254
Si Si5 0.937380 0.502852 0.845636
O O1 0.489158 0.374487 0.150042
O O2 0.457797 0.153062 0.306078
O O3 0.597262 0.040276 0.216240
O O4 0.093765 0.049095 0.782633
O O5 0.058120 0.931791 0.288650
O O6 0.201982 0.209479 0.561012
O O7 0.042949 0.913936 0.518817
O O8 0.732112 0.682193 0.654295
O O9 0.251983 0.860150 0.263607
O O10 0.241804 0.532922 0.196834
#
# Coordination Sequence:
#
# PCOD9119352 Si02
#       5
#     2   2   2   2   2
#     4  11  28  49  76 113 154 206 265 322 388 474
#     4  11  28  51  77 117 156 206 265 323 393 476
#     4  12  27  48  81 108 158 208 258 326 400 454
#     4  11  25  47  70 110 148 194 250 317 377 468
#     4  11  26  45  76 106 152 192 254 310 390 460
#
# _framework density 27.069192999999999
#
# number of rings (size 3 to 8) (size 9 to 14) (size 15 to 20)
#    0.000    0.800    2.000    2.400   11.200    8.000 
#    0.000    0.000    0.000    0.000    0.000    0.000 
#    0.000    0.000    0.000    0.000    0.000    0.000 
#
# Total GULP energy -55984.805674 kJ/mol
# GULP energy per Si atom -5598.480567 kJ/mol
# Density = 2.700758 g / cm^3
# Si number density = 27.069193 Si / 1000 Ang^3
#
#
#
# Elastic Constant Matrix: (Units=GPa)
#
#
# Indices 1 2 3 4 5 6 
#
# 1 143.5610 29.3711 13.5592 0.0000 2.9688 0.0000
# 2 29.3711 183.3812 46.7626 0.0000 2.2217 0.0000
# 3 13.5592 46.7626 172.2860 0.0000 8.5352 0.0000
# 4 0.0000 0.0000 0.0000 32.7317 0.0000 6.7352
# 5 2.9688 2.2217 8.5352 0.0000 43.7507 0.0000
# 6 0.0000 0.0000 0.0000 6.7352 0.0000 46.2746
#
#
#
# Elastic Compliance Matrix: (Units=1/GPa)
#
#
# Indices 1 2 3 4 5 6 
#
# 1 0.007220 -0.001087 -0.000254 0.000000 -0.000385 0.000000
# 2 -0.001087 0.006022 -0.001553 0.000000 0.000071 0.000000
# 3 -0.000254 -0.001553 0.006302 0.000000 -0.001133 0.000000
# 4 0.000000 0.000000 0.000000 0.031495 0.000000 -0.004584
# 5 -0.000385 0.000071 -0.001133 0.000000 0.023100 0.000000
# 6 0.000000 0.000000 0.000000 -0.004584 0.000000 0.022277
#
#
# Mechanical properties :
#
#
# Convention : Reuss Voigt Hill
#
# Bulk Modulus (GPa) = 72.69067 75.40153 74.04610
# Shear Modulus (GPa) = 46.82116 51.85377 49.33746
#
# Velocity S-wave (km/s) = 4.16346 4.38151 4.27387
# Velocity P-wave (km/s) = 7.07280 7.31522 7.19503
#
# Compressibility (1/GPa) = 0.01375692
#
# Stress axis : x y z
#
# Youngs Moduli (GPa) = 138.50374 166.05080 158.68358
#
# Poissons Ratio (x) = 0.18048 0.04033
# Poissons Ratio (y) = 0.15054 0.24636
# Poissons Ratio (z) = 0.03520 0.25780
#
# Static dielectric constant tensor:
#      x y z
#    x 2.040480 0.000000 -0.038580 
#    y 0.000000 2.581960 0.000000 
#    z -0.038580 0.000000 2.104000 
# 
# From -- ./inp_files/11926.got.cif
#   From: 2010.05.17/outbox.cif.g08.bks.cpg/sg4_6_cif.got.tgz:11926.got - 2010.06.03 18:43:04.
