data_PCOD9119945
_publ_section_title
;
Structure prediction by ZEFSAII (Michael W. Deem and Ramdas Pophale) SiO2 
 PCOD9119945
Probable space group: C 2
;
_chemical_formula_sum "Si O2"
_cell_formula_units_Z 24
_cell_length_a 7.902380
_cell_length_b 27.270801
_cell_length_c 6.788578
_cell_angle_alpha 90.000000
_cell_angle_beta 39.781411
_cell_angle_gamma 90.000000
_cell_volume 936.094843
_symmetry_space_group_name_H-M "C 2"
_symmetry_group_IT_number 5
_symmetry_cell_setting 'monoclinic'
loop_
_space_group_symop_operation_xyz
x,y,z
-x,y,-z
1/2+x,1/2+y,z
1/2-x,1/2+y,-z
loop_
_atom_site_type_symbol
_atom_site_label
_atom_site_fract_x
_atom_site_fract_y
_atom_site_fract_z
Si Si1 0.104972 0.038730 0.134405
Si Si2 0.223098 0.798658 0.632430
Si Si3 0.503864 0.948599 0.258554
Si Si4 0.504141 0.397919 0.235088
Si Si5 0.774206 0.692131 0.368365
Si Si6 0.910685 0.587741 0.361531
O O1 0.306436 0.083826 0.997999
O O2 0.312998 0.994098 0.973110
O O3 0.000000 0.034956 0.000000
O O4 0.825933 0.051046 0.487707
O O5 0.500000 0.807220 0.500000
O O6 0.130473 0.846161 0.595772
O O7 0.225786 0.745466 0.527137
O O8 0.000000 0.794625 0.000000
O O9 0.500000 0.950147 0.500000
O O10 0.193954 0.938849 0.498481
O O11 0.684937 0.904485 0.012847
O O12 0.500000 0.402820 0.000000
O O13 0.500000 0.689782 0.500000
O O14 0.808107 0.643025 0.462564
O O15 0.000000 0.691131 0.000000
O O16 0.000000 0.572567 0.500000
#
# Coordination Sequence:
#
# PCOD9119945 Si02
#       6
#     4   4   4   4   4   4
#     4  10  18  28  42  63  92 126 157 189 234 281
#     4   9  16  26  40  60  87 119 151 187 232 276
#     4  10  16  23  37  59  89 124 155 182 225 286
#     4   9  15  22  35  57  86 119 152 185 226 281
#     4  10  20  34  51  70  95 127 162 198 237 281
#     4  10  20  33  49  69  96 127 159 197 238 279
#
# _framework density 25.638427
#
# number of rings (size 3 to 8) (size 9 to 14) (size 15 to 20)
#    0.000    2.333    0.000    7.500    0.000    0.000 
#    0.000    0.000    0.000    0.000    0.000    0.000 
#    0.000   13.333    0.000    1.667    0.000    0.333 
#
# Total GULP energy -66947.559163 kJ/mol
# GULP energy per Si atom -5578.963264 kJ/mol
# Density = 2.558007 g / cm^3
# Si number density = 25.638427 Si / 1000 Ang^3
#
#
#
# Elastic Constant Matrix: (Units=GPa)
#
#
# Indices 1 2 3 4 5 6 
#
# 1 77.6213 7.6964 38.8982 0.0000 -4.1391 0.0000
# 2 7.6964 186.7301 58.3782 0.0000 -27.9945 0.0000
# 3 38.8982 58.3782 205.7309 0.0000 -43.7107 0.0000
# 4 0.0000 0.0000 0.0000 38.3159 0.0000 -1.1409
# 5 -4.1391 -27.9945 -43.7107 0.0000 45.6691 0.0000
# 6 0.0000 0.0000 0.0000 -1.1409 0.0000 1.6459
#
#
#
# Elastic Compliance Matrix: (Units=1/GPa)
#
#
# Indices 1 2 3 4 5 6 
#
# 1 0.014330 0.000138 -0.003081 0.000000 -0.001566 0.000000
# 2 0.000138 0.006118 -0.001208 0.000000 0.002606 0.000000
# 3 -0.003081 -0.001208 0.006991 0.000000 0.005671 0.000000
# 4 0.000000 0.000000 0.000000 0.026649 0.000000 0.018473
# 5 -0.001566 0.002606 0.005671 0.000000 0.028780 0.000000
# 6 0.000000 0.000000 0.000000 0.018473 0.000000 0.620379
#
#
# Mechanical properties :
#
#
# Convention : Reuss Voigt Hill
#
# Bulk Modulus (GPa) = 52.25801 75.55865 63.90833
# Shear Modulus (GPa) = 6.96447 41.46682 24.21564
#
# Velocity S-wave (km/s) = 1.64994 4.02602 3.07662
# Velocity P-wave (km/s) = 4.90476 7.15168 6.13202
#
# Compressibility (1/GPa) = 0.01913582
#
# Stress axis : x y z
#
# Youngs Moduli (GPa) = 69.78375 163.44779 143.03764
#
# Poissons Ratio (x) = -0.02254 0.44073
# Poissons Ratio (y) = -0.00962 0.17285
# Poissons Ratio (z) = 0.21502 0.19752
#
# Static dielectric constant tensor:
#      x y z
#    x 2.099500 0.000000 0.065210 
#    y 0.000000 2.158280 0.000000 
#    z 0.065210 0.000000 1.980110 
# 
# From -- ./inp_files/40862.got.cif
#   From: 2010.05.17/outbox.cif.g08.bks.cpg/sg5_21_cif.got.tgz:40862.got - 2010.06.03 18:56:24.
