data_PCOD9119470
_publ_section_title
;
Structure prediction by ZEFSAII (Michael W. Deem and Ramdas Pophale) SiO2 
 PCOD9119470
Probable space group: P 21
;
_chemical_formula_sum "Si O2"
_cell_formula_units_Z 14
_cell_length_a 8.730770
_cell_length_b 12.919242
_cell_length_c 5.071432
_cell_angle_alpha 90.000000
_cell_angle_beta 94.233942
_cell_angle_gamma 90.000000
_cell_volume 570.470697
_symmetry_space_group_name_H-M "P 21"
_symmetry_group_IT_number 4
_symmetry_cell_setting 'monoclinic'
loop_
_space_group_symop_operation_xyz
x,y,z
-x,1/2+y,-z
loop_
_atom_site_type_symbol
_atom_site_label
_atom_site_fract_x
_atom_site_fract_y
_atom_site_fract_z
Si Si1 0.812187 0.547950 0.793041
Si Si2 0.133809 0.613665 0.682525
Si Si3 0.214239 0.390888 0.676224
Si Si4 0.624616 0.220819 0.017135
Si Si5 0.584427 0.884566 0.773243
Si Si6 0.387969 0.085655 0.710328
Si Si7 0.111809 0.811892 0.301135
O O1 0.714584 0.605242 0.557301
O O2 0.830101 0.431442 0.674694
O O3 0.981716 0.597883 0.840626
O O4 0.720501 0.554092 0.055466
O O5 0.147807 0.500611 0.553269
O O6 0.120803 0.720060 0.518701
O O7 0.300306 0.622281 0.836828
O O8 0.299506 0.346963 0.434452
O O9 0.069301 0.326718 0.764448
O O10 0.329394 0.399243 0.937232
O O11 0.493454 0.181921 0.805291
O O12 0.774139 0.270445 0.905784
O O13 0.548874 0.301244 0.203386
O O14 0.503666 0.990564 0.673506
#
# Coordination Sequence:
#
# PCOD9119470 Si02
#       7
#     2   2   2   2   2   2   2
#     4  11  28  49  75 108 153 198 244 311 371 451
#     4  11  27  48  75 108 148 200 253 302 374 448
#     4  11  28  49  75 108 153 198 244 311 371 451
#     4  12  28  44  80 108 150 196 254 312 376 442
#     4  12  26  49  75 111 150 192 249 309 381 435
#     4  12  26  49  75 111 150 192 249 309 381 435
#     4  11  27  48  75 108 148 200 253 302 374 448
#
# _framework density 24.541135000000001
#
# number of rings (size 3 to 8) (size 9 to 14) (size 15 to 20)
#    0.000    0.571    2.857    2.571   12.000    2.286 
#    0.000    0.000    0.000    0.000    0.000    0.000 
#    0.000    0.000    0.000    0.000    0.000    0.000 
#
# Total GULP energy -78310.229566 kJ/mol
# GULP energy per Si atom -5593.587826 kJ/mol
# Density = 2.448528 g / cm^3
# Si number density = 24.541135 Si / 1000 Ang^3
#
#
#
# Elastic Constant Matrix: (Units=GPa)
#
#
# Indices 1 2 3 4 5 6 
#
# 1 103.2950 26.8524 19.7125 0.0000 -38.4048 0.0000
# 2 26.8524 87.2671 -9.0381 0.0000 -20.3874 0.0000
# 3 19.7125 -9.0381 51.6635 0.0000 -19.6373 0.0000
# 4 0.0000 0.0000 0.0000 20.6860 0.0000 3.3497
# 5 -38.4048 -20.3874 -19.6373 0.0000 41.5452 0.0000
# 6 0.0000 0.0000 0.0000 3.3497 0.0000 18.0998
#
#
#
# Elastic Compliance Matrix: (Units=1/GPa)
#
#
# Indices 1 2 3 4 5 6 
#
# 1 0.015006 -0.001890 -0.001385 0.000000 0.012290 0.000000
# 2 -0.001890 0.014724 0.006557 0.000000 0.008578 0.000000
# 3 -0.001385 0.006557 0.026535 0.000000 0.014480 0.000000
# 4 0.000000 0.000000 0.000000 0.049835 0.000000 -0.009223
# 5 0.012290 0.008578 0.014480 0.000000 0.046485 0.000000
# 6 0.000000 0.000000 0.000000 -0.009223 0.000000 0.056956
#
#
# Mechanical properties :
#
#
# Convention : Reuss Voigt Hill
#
# Bulk Modulus (GPa) = 15.91587 35.25324 25.58456
# Shear Modulus (GPa) = 22.32949 29.71278 26.02113
#
# Velocity S-wave (km/s) = 3.01969 3.48333 3.25977
# Velocity P-wave (km/s) = 4.31944 5.52940 4.96144
#
# Compressibility (1/GPa) = 0.06283036
#
# Stress axis : x y z
#
# Youngs Moduli (GPa) = 66.64108 67.91805 37.68538
#
# Poissons Ratio (x) = 0.12834 0.05219
# Poissons Ratio (y) = 0.12593 -0.24711
# Poissons Ratio (z) = 0.09229 -0.44536
#
# Static dielectric constant tensor:
#      x y z
#    x 1.978840 0.000000 -0.023570 
#    y 0.000000 2.027310 0.000000 
#    z -0.023570 0.000000 1.988260 
# 
# From -- ./inp_files/1737.got.cif
#   From: 2010.05.17/outbox.cif.g08.bks.cpg/sg4_1_cif.got.tgz:1737.got - 2010.06.03 18:43:04.
