data_PCOD9119468
_publ_section_title
;
Structure prediction by ZEFSAII (Michael W. Deem and Ramdas Pophale) SiO2 
 PCOD9119468
Probable space group: P 21
;
_chemical_formula_sum "Si O2"
_cell_formula_units_Z 16
_cell_length_a 9.612246
_cell_length_b 7.919833
_cell_length_c 11.609610
_cell_angle_alpha 90.000000
_cell_angle_beta 49.911198
_cell_angle_gamma 90.000000
_cell_volume 676.155841
_symmetry_space_group_name_H-M "P 21"
_symmetry_group_IT_number 4
_symmetry_cell_setting 'monoclinic'
loop_
_space_group_symop_operation_xyz
x,y,z
-x,1/2+y,-z
loop_
_atom_site_type_symbol
_atom_site_label
_atom_site_fract_x
_atom_site_fract_y
_atom_site_fract_z
Si Si1 0.222433 0.437290 0.942397
Si Si2 0.399524 0.946715 0.895362
Si Si3 0.854277 0.189415 0.432438
Si Si4 0.994208 0.564729 0.417655
Si Si5 0.612048 0.733784 0.587873
Si Si6 0.986448 0.624225 0.893698
Si Si7 0.336198 0.641850 0.092178
Si Si8 0.532945 0.857314 0.383141
O O1 0.328704 0.322650 0.793681
O O2 0.128799 0.583715 0.917876
O O3 0.067364 0.319433 0.075672
O O4 0.340267 0.511002 0.982844
O O5 0.495895 0.847086 0.738891
O O6 0.530157 0.091761 0.876044
O O7 0.387134 0.816179 0.007566
O O8 0.194969 0.014325 0.988333
O O9 0.946689 0.372973 0.407987
O O10 0.643484 0.239070 0.532772
O O11 0.903244 0.075164 0.515300
O O12 0.929164 0.101911 0.277489
O O13 0.811031 0.675811 0.523768
O O14 0.132305 0.639189 0.249989
O O15 0.617147 0.828364 0.463186
O O16 0.519499 0.552157 0.611179
#
# Coordination Sequence:
#
# PCOD9119468 Si02
#       8
#     2   2   2   2   2   2   2   2
#     4  12  27  48  73 110 149 199 247 312 377 451
#     4  12  29  48  78 109 155 196 253 312 382 453
#     4  11  27  48  76 111 147 200 244 316 373 456
#     4  11  27  47  76 107 155 190 258 304 378 446
#     4  11  27  48  76 111 147 200 244 316 373 456
#     4  12  29  48  78 109 155 196 253 312 382 453
#     4  12  27  48  73 110 149 199 247 312 377 451
#     4  11  27  47  76 107 155 190 258 304 378 446
#
# _framework density 23.663183
#
# number of rings (size 3 to 8) (size 9 to 14) (size 15 to 20)
#    0.000    0.500    2.500    3.000   14.000    2.000 
#    0.000    0.000    0.000    0.000    0.000    0.000 
#    0.000    0.000    0.000    0.000    0.000    0.000 
#
# Total GULP energy -89656.085427 kJ/mol
# GULP energy per Si atom -5603.505339 kJ/mol
# Density = 2.360932 g / cm^3
# Si number density = 23.663183 Si / 1000 Ang^3
#
#
#
# Elastic Constant Matrix: (Units=GPa)
#
#
# Indices 1 2 3 4 5 6 
#
# 1 83.1492 15.6060 0.2628 0.0000 5.5364 0.0000
# 2 15.6060 66.3736 1.2347 0.0000 1.3396 0.0000
# 3 0.2628 1.2347 70.8398 0.0000 6.8452 0.0000
# 4 0.0000 0.0000 0.0000 49.3860 0.0000 4.4151
# 5 5.5364 1.3396 6.8452 0.0000 39.8899 0.0000
# 6 0.0000 0.0000 0.0000 4.4151 0.0000 40.2985
#
#
#
# Elastic Compliance Matrix: (Units=1/GPa)
#
#
# Indices 1 2 3 4 5 6 
#
# 1 0.012693 -0.002953 0.000168 0.000000 -0.001691 0.000000
# 2 -0.002953 0.015767 -0.000257 0.000000 -0.000076 0.000000
# 3 0.000168 -0.000257 0.014360 0.000000 -0.002479 0.000000
# 4 0.000000 0.000000 0.000000 0.020449 0.000000 -0.002240
# 5 -0.001691 -0.000076 -0.002479 0.000000 0.025732 0.000000
# 6 0.000000 0.000000 0.000000 -0.002240 0.000000 0.025060
#
#
# Mechanical properties :
#
#
# Convention : Reuss Voigt Hill
#
# Bulk Modulus (GPa) = 27.22171 28.28552 27.75361
# Shear Modulus (GPa) = 37.76722 39.46549 38.61636
#
# Velocity S-wave (km/s) = 3.99937 4.08830 4.04408
# Velocity P-wave (km/s) = 5.73197 5.85363 5.79312
#
# Compressibility (1/GPa) = 0.03673538
#
# Stress axis : x y z
#
# Youngs Moduli (GPa) = 78.78377 63.42380 69.63914
#
# Poissons Ratio (x) = 0.18732 -0.01169
# Poissons Ratio (y) = 0.23268 0.01787
# Poissons Ratio (z) = -0.01322 0.01627
#
# Static dielectric constant tensor:
#      x y z
#    x 1.837940 0.000000 -0.021020 
#    y 0.000000 1.918840 0.000000 
#    z -0.021020 0.000000 1.881380 
# 
# From -- ./inp_files/5513.got.cif
#   From: 2010.05.17/outbox.cif.g08.bks.cpg/sg4_3_cif.got.tgz:5513.got - 2010.06.03 18:43:04.
