data_PCOD9119408
_publ_section_title
;
Structure prediction by ZEFSAII (Michael W. Deem and Ramdas Pophale) SiO2 
 PCOD9119408
Probable space group: P 21
;
_chemical_formula_sum "Si O2"
_cell_formula_units_Z 14
_cell_length_a 5.390731
_cell_length_b 19.720227
_cell_length_c 4.842150
_cell_angle_alpha 90.000000
_cell_angle_beta 94.677797
_cell_angle_gamma 90.000000
_cell_volume 513.037119
_symmetry_space_group_name_H-M "P 21"
_symmetry_group_IT_number 4
_symmetry_cell_setting 'monoclinic'
loop_
_space_group_symop_operation_xyz
x,y,z
-x,1/2+y,-z
loop_
_atom_site_type_symbol
_atom_site_label
_atom_site_fract_x
_atom_site_fract_y
_atom_site_fract_z
Si Si1 0.550455 0.458140 0.466115
Si Si2 0.383063 0.356675 0.064564
Si Si3 0.399051 0.574339 0.105645
Si Si4 0.523871 0.664127 0.613634
Si Si5 0.920092 0.978932 0.200897
Si Si6 0.098003 0.251227 0.661827
Si Si7 0.804184 0.278482 0.132333
O O1 0.468806 0.381746 0.378629
O O2 0.556370 0.506689 0.198016
O O3 0.306332 0.484609 0.600525
O O4 0.811848 0.468059 0.641421
O O5 0.671616 0.344865 0.999200
O O6 0.180238 0.413400 0.973677
O O7 0.275505 0.292573 0.885761
O O8 0.382259 0.620465 0.373236
O O9 0.538477 0.617007 0.882583
O O10 0.130951 0.546537 0.981658
O O11 0.772331 0.688854 0.480712
O O12 0.383294 0.731518 0.707345
O O13 0.008167 0.294723 0.386703
O O14 0.891186 0.236290 0.874503
#
# Coordination Sequence:
#
# PCOD9119408 Si02
#       7
#     2   2   2   2   2   2   2
#     4  11  27  52  82 120 160 210 272 336 408 482
#     4  11  27  44  82 112 169 201 268 332 408 483
#     4  11  25  52  82 110 167 209 272 332 408 469
#     4  12  26  54  76 120 160 214 268 338 392 488
#     4  11  27  52  82 120 160 210 272 336 408 482
#     4  12  27  48  78 118 164 213 266 329 405 482
#     4  12  27  48  78 118 164 213 266 329 405 482
#
# _framework density 27.288473
#
# number of rings (size 3 to 8) (size 9 to 14) (size 15 to 20)
#    0.000    0.571    1.429    5.143   10.000    4.571 
#   10.286    0.000    0.000    0.000    0.000    0.000 
#    0.000    0.000    0.000    0.000    0.000    0.000 
#
# Total GULP energy -78151.374259 kJ/mol
# GULP energy per Si atom -5582.241019 kJ/mol
# Density = 2.722636 g / cm^3
# Si number density = 27.288473 Si / 1000 Ang^3
#
#
#
# Elastic Constant Matrix: (Units=GPa)
#
#
# Indices 1 2 3 4 5 6 
#
# 1 118.0699 38.3898 69.6810 0.0000 13.3950 0.0000
# 2 38.3898 73.5831 38.0484 0.0000 18.7015 0.0000
# 3 69.6810 38.0484 192.6834 0.0000 17.6187 0.0000
# 4 0.0000 0.0000 0.0000 57.2250 0.0000 0.0131
# 5 13.3950 18.7015 17.6187 0.0000 62.0270 0.0000
# 6 0.0000 0.0000 0.0000 0.0131 0.0000 24.6106
#
#
#
# Elastic Compliance Matrix: (Units=1/GPa)
#
#
# Indices 1 2 3 4 5 6 
#
# 1 0.011954 -0.004391 -0.003430 0.000000 -0.000283 0.000000
# 2 -0.004391 0.017681 -0.001543 0.000000 -0.003945 0.000000
# 3 -0.003430 -0.001543 0.006801 0.000000 -0.000726 0.000000
# 4 0.000000 0.000000 0.000000 0.017475 0.000000 -0.000009
# 5 -0.000283 -0.003945 -0.000726 0.000000 0.017579 0.000000
# 6 0.000000 0.000000 0.000000 -0.000009 0.000000 0.040633
#
#
# Mechanical properties :
#
#
# Convention : Reuss Voigt Hill
#
# Bulk Modulus (GPa) = 56.46910 75.17495 65.82203
# Shear Modulus (GPa) = 36.56233 44.65366 40.60800
#
# Velocity S-wave (km/s) = 3.66436 4.04958 3.86178
# Velocity P-wave (km/s) = 6.21624 7.03374 6.63759
#
# Compressibility (1/GPa) = 0.01770880
#
# Stress axis : x y z
#
# Youngs Moduli (GPa) = 83.65697 56.55725 147.03145
#
# Poissons Ratio (x) = 0.24834 0.50430
# Poissons Ratio (y) = 0.36733 0.22685
# Poissons Ratio (z) = 0.28693 0.08726
#
# Static dielectric constant tensor:
#      x y z
#    x 2.253570 0.000000 -0.035680 
#    y 0.000000 2.296730 0.000000 
#    z -0.035680 0.000000 2.158090 
# 
# From -- ./inp_files/630.got.cif
#   From: 2010.05.17/outbox.cif.g08.bks.cpg/sg4_1_cif.got.tgz:630.got - 2010.06.03 18:43:04.
