data_PCOD9119610
_publ_section_title
;
Structure prediction by ZEFSAII (Michael W. Deem and Ramdas Pophale) SiO2 
 PCOD9119610
Probable space group: P 21
;
_chemical_formula_sum "Si O2"
_cell_formula_units_Z 14
_cell_length_a 12.708446
_cell_length_b 9.437498
_cell_length_c 7.858016
_cell_angle_alpha 90.000000
_cell_angle_beta 36.280910
_cell_angle_gamma 90.000000
_cell_volume 557.694743
_symmetry_space_group_name_H-M "P 21"
_symmetry_group_IT_number 4
_symmetry_cell_setting 'monoclinic'
loop_
_space_group_symop_operation_xyz
x,y,z
-x,1/2+y,-z
loop_
_atom_site_type_symbol
_atom_site_label
_atom_site_fract_x
_atom_site_fract_y
_atom_site_fract_z
Si Si1 0.225353 0.071870 0.385397
Si Si2 0.943382 0.268322 0.914060
Si Si3 0.621459 0.857527 0.158070
Si Si4 0.987071 0.546129 0.669839
Si Si5 0.610841 0.003889 0.836741
Si Si6 0.997221 0.332035 0.200534
Si Si7 0.593890 0.084152 0.467851
O O1 0.113069 0.171221 0.655095
O O2 0.137492 0.100565 0.317535
O O3 0.434501 0.090124 0.113405
O O4 0.171575 0.908548 0.496797
O O5 0.928359 0.386102 0.786239
O O6 0.771450 0.171902 0.179000
O O7 0.987640 0.367056 0.016601
O O8 0.549787 0.706873 0.312976
O O9 0.535224 0.978007 0.393548
O O10 0.828134 0.882518 0.931561
O O11 0.589515 0.874729 0.998720
O O12 0.196372 0.556495 0.355328
O O13 0.982335 0.663074 0.822735
O O14 0.616736 0.001869 0.621271
#
# Coordination Sequence:
#
# PCOD9119610 Si02
#       7
#     2   2   2   2   2   2   2
#     4  12  27  48  79 112 151 214 262 325 408 464
#     4  12  26  49  77 113 158 213 259 332 400 477
#     4  12  29  51  81 122 161 210 271 336 399 483
#     4  12  26  47  77 111 160 199 265 325 388 479
#     4  12  28  51  79 113 160 213 270 324 398 485
#     4  12  24  49  74 112 158 206 259 326 397 468
#     4  12  28  53  81 121 160 213 272 330 408 480
#
# _framework density 25.103341
#
# number of rings (size 3 to 8) (size 9 to 14) (size 15 to 20)
#    0.000    0.000    4.286    4.286    8.000    1.143 
#    0.000    0.000    0.000    0.000    0.000    0.000 
#    0.000    0.000    0.000    0.000    0.000    0.000 
#
# Total GULP energy -78252.095948 kJ/mol
# GULP energy per Si atom -5589.435425 kJ/mol
# Density = 2.504621 g / cm^3
# Si number density = 25.103341 Si / 1000 Ang^3
#
#
#
# Elastic Constant Matrix: (Units=GPa)
#
#
# Indices 1 2 3 4 5 6 
#
# 1 85.2171 29.4873 34.9305 0.0000 3.1925 0.0000
# 2 29.4873 119.4595 30.7758 0.0000 22.2163 0.0000
# 3 34.9305 30.7758 128.6583 0.0000 -2.0986 0.0000
# 4 0.0000 0.0000 0.0000 39.2691 0.0000 18.4861
# 5 3.1925 22.2163 -2.0986 0.0000 29.6667 0.0000
# 6 0.0000 0.0000 0.0000 18.4861 0.0000 35.1148
#
#
#
# Elastic Compliance Matrix: (Units=1/GPa)
#
#
# Indices 1 2 3 4 5 6 
#
# 1 0.013939 -0.002686 -0.003137 0.000000 0.000290 0.000000
# 2 -0.002686 0.011080 -0.002054 0.000000 -0.008153 0.000000
# 3 -0.003137 -0.002054 0.009157 0.000000 0.002523 0.000000
# 4 0.000000 0.000000 0.000000 0.033856 0.000000 -0.017823
# 5 0.000290 -0.008153 0.002523 0.000000 0.039961 0.000000
# 6 0.000000 0.000000 0.000000 -0.017823 0.000000 0.037861
#
#
# Mechanical properties :
#
#
# Convention : Reuss Voigt Hill
#
# Bulk Modulus (GPa) = 54.28708 58.19135 56.23922
# Shear Modulus (GPa) = 29.80653 36.68622 33.24637
#
# Velocity S-wave (km/s) = 3.44954 3.82698 3.64315
# Velocity P-wave (km/s) = 6.12684 6.53902 6.33628
#
# Compressibility (1/GPa) = 0.01842059
#
# Stress axis : x y z
#
# Youngs Moduli (GPa) = 71.73917 90.25601 109.20930
#
# Poissons Ratio (x) = 0.24247 0.34261
# Poissons Ratio (y) = 0.19273 0.22431
# Poissons Ratio (z) = 0.22506 0.18538
#
# Static dielectric constant tensor:
#      x y z
#    x 1.919980 0.000000 0.029210 
#    y 0.000000 1.994010 0.000000 
#    z 0.029210 0.000000 2.010220 
# 
# From -- ./inp_files/9111.got.cif
#   From: 2010.05.17/outbox.cif.g08.bks.cpg/sg4_5_cif.got.tgz:9111.got - 2010.06.03 18:43:04.
