data_PCOD9119592
_publ_section_title
;
Structure prediction by ZEFSAII (Michael W. Deem and Ramdas Pophale) SiO2 
 PCOD9119592
Probable space group: P 21
;
_chemical_formula_sum "Si O2"
_cell_formula_units_Z 14
_cell_length_a 19.892658
_cell_length_b 6.377309
_cell_length_c 14.529792
_cell_angle_alpha 90.000000
_cell_angle_beta 18.684568
_cell_angle_gamma 90.000000
_cell_volume 590.507007
_symmetry_space_group_name_H-M "P 21"
_symmetry_group_IT_number 4
_symmetry_cell_setting 'monoclinic'
loop_
_space_group_symop_operation_xyz
x,y,z
-x,1/2+y,-z
loop_
_atom_site_type_symbol
_atom_site_label
_atom_site_fract_x
_atom_site_fract_y
_atom_site_fract_z
Si Si1 0.182615 0.285580 0.840422
Si Si2 0.009172 0.961516 0.587353
Si Si3 0.241717 0.204933 0.447738
Si Si4 0.262748 0.928558 0.606873
Si Si5 0.047561 0.093609 0.200675
Si Si6 0.506763 0.524554 0.318877
Si Si7 0.337657 0.758269 0.041912
O O1 0.336686 0.473561 0.617215
O O2 0.297062 0.087485 0.646060
O O3 0.120549 0.247368 0.024890
O O4 0.958115 0.316681 0.083414
O O5 0.114308 0.108135 0.527665
O O6 0.794725 0.066743 0.829115
O O7 0.167973 0.924310 0.297345
O O8 0.996338 0.735409 0.653532
O O9 0.134712 0.435895 0.594728
O O10 0.224949 0.055510 0.560338
O O11 0.491458 0.201778 0.102126
O O12 0.446862 0.757493 0.363173
O O13 0.263265 0.976386 0.941695
O O14 0.506194 0.370052 0.232901
#
# Coordination Sequence:
#
# PCOD9119592 Si02
#       7
#     2   2   2   2   2   2   2
#     4  12  25  42  73 107 149 203 254 310 387 467
#     4  12  29  52  78 111 155 200 262 332 390 474
#     4  12  27  49  79 112 152 206 263 316 396 470
#     4  12  24  47  72 108 158 202 257 317 387 459
#     4  12  28  47  72 114 155 200 264 320 390 473
#     4  12  27  45  73 110 155 204 255 324 390 464
#     4  12  28  52  79 110 154 203 261 325 398 461
#
# _framework density 23.708442999999999
#
# number of rings (size 3 to 8) (size 9 to 14) (size 15 to 20)
#    0.000    0.000    5.714    3.429    4.000    0.000 
#    0.000    0.000    0.000    0.000    0.000    0.000 
#    0.000    0.000    0.000    0.000    0.000    0.000 
#
# Total GULP energy -78242.047104 kJ/mol
# GULP energy per Si atom -5588.717650 kJ/mol
# Density = 2.365448 g / cm^3
# Si number density = 23.708443 Si / 1000 Ang^3
#
#
#
# Elastic Constant Matrix: (Units=GPa)
#
#
# Indices 1 2 3 4 5 6 
#
# 1 78.0477 31.8378 40.0330 0.0000 -17.6371 0.0000
# 2 31.8378 80.2275 53.4729 0.0000 -3.1102 0.0000
# 3 40.0330 53.4729 114.2787 0.0000 -22.1996 0.0000
# 4 0.0000 0.0000 0.0000 57.7046 0.0000 -5.9185
# 5 -17.6371 -3.1102 -22.1996 0.0000 50.7307 0.0000
# 6 0.0000 0.0000 0.0000 -5.9185 0.0000 42.2955
#
#
#
# Elastic Compliance Matrix: (Units=1/GPa)
#
#
# Indices 1 2 3 4 5 6 
#
# 1 0.017254 -0.004676 -0.003002 0.000000 0.004398 0.000000
# 2 -0.004676 0.019763 -0.008404 0.000000 -0.004092 0.000000
# 3 -0.003002 -0.008404 0.014680 0.000000 0.004865 0.000000
# 4 0.000000 0.000000 0.000000 0.017582 0.000000 0.002460
# 5 0.004398 -0.004092 0.004865 0.000000 0.023119 0.000000
# 6 0.000000 0.000000 0.000000 0.002460 0.000000 0.023987
#
#
# Mechanical properties :
#
#
# Convention : Reuss Voigt Hill
#
# Bulk Modulus (GPa) = 51.19661 58.13792 54.66727
# Shear Modulus (GPa) = 32.24560 39.96016 36.10288
#
# Velocity S-wave (km/s) = 3.69194 4.10992 3.90652
# Velocity P-wave (km/s) = 6.30991 6.86274 6.59212
#
# Compressibility (1/GPa) = 0.01953254
#
# Stress axis : x y z
#
# Youngs Moduli (GPa) = 57.95861 50.59930 68.12102
#
# Poissons Ratio (x) = 0.23659 0.20450
# Poissons Ratio (y) = 0.27100 0.57252
# Poissons Ratio (z) = 0.17399 0.42526
#
# Static dielectric constant tensor:
#      x y z
#    x 2.043620 0.000000 -0.043550 
#    y 0.000000 2.064280 0.000000 
#    z -0.043550 0.000000 1.915690 
# 
# From -- ./inp_files/14380.got.cif
#   From: 2010.05.17/outbox.cif.g08.bks.cpg/sg4_8_cif.got.tgz:14380.got - 2010.06.03 18:43:04.
