data_PCOD9119364
_publ_section_title
;
Structure prediction by ZEFSAII (Michael W. Deem and Ramdas Pophale) SiO2 
 PCOD9119364
Probable space group: P 21
;
_chemical_formula_sum "Si O2"
_cell_formula_units_Z 14
_cell_length_a 9.769521
_cell_length_b 8.841226
_cell_length_c 14.909017
_cell_angle_alpha 90.000000
_cell_angle_beta 151.259739
_cell_angle_gamma 90.000000
_cell_volume 619.205956
_symmetry_space_group_name_H-M "P 21"
_symmetry_group_IT_number 4
_symmetry_cell_setting 'monoclinic'
loop_
_space_group_symop_operation_xyz
x,y,z
-x,1/2+y,-z
loop_
_atom_site_type_symbol
_atom_site_label
_atom_site_fract_x
_atom_site_fract_y
_atom_site_fract_z
Si Si1 0.660916 0.274900 0.645390
Si Si2 0.284499 0.938501 0.712061
Si Si3 0.477888 0.438811 0.866773
Si Si4 0.332970 0.118413 0.307310
Si Si5 0.278889 0.242065 0.916411
Si Si6 0.812454 0.147602 0.441066
Si Si7 0.290452 0.680344 0.124434
O O1 0.406549 0.208305 0.439874
O O2 0.593755 0.446375 0.630065
O O3 0.715848 0.195334 0.772150
O O4 0.952245 0.267947 0.755941
O O5 0.119460 0.811024 0.559884
O O6 0.468582 0.057977 0.760895
O O7 0.511847 0.843804 0.900436
O O8 0.051128 0.045130 0.625843
O O9 0.346792 0.315633 0.859040
O O10 0.267610 0.545886 0.690551
O O11 0.643644 0.340055 0.887078
O O12 0.649395 0.566202 0.022237
O O13 0.540997 0.171855 0.347935
O O14 0.011049 0.129254 0.088886
#
# Coordination Sequence:
#
# PCOD9119364 Si02
#       7
#     2   2   2   2   2   2   2
#     4  12  30  49  78 115 154 203 256 321 390 459
#     4  11  25  47  76 110 153 200 256 312 384 454
#     4  11  25  47  76 110 153 200 256 312 384 454
#     4  12  30  49  78 115 154 203 256 321 390 459
#     4  11  26  46  75 112 154 200 252 318 379 455
#     4  11  26  46  75 112 154 200 252 318 379 455
#     4  12  26  52  80 110 156 204 256 320 390 462
#
# _framework density 22.609603
#
# number of rings (size 3 to 8) (size 9 to 14) (size 15 to 20)
#    0.000    0.571    2.857    3.429   10.000    0.000 
#    0.000    0.000    0.000    0.000    0.000    0.000 
#    0.000    0.000    0.000    0.000    0.000    0.000 
#
# Total GULP energy -78310.027761 kJ/mol
# GULP energy per Si atom -5593.573412 kJ/mol
# Density = 2.255814 g / cm^3
# Si number density = 22.609603 Si / 1000 Ang^3
#
#
#
# Elastic Constant Matrix: (Units=GPa)
#
#
# Indices 1 2 3 4 5 6 
#
# 1 61.2422 -7.2870 1.9518 0.0000 -3.4416 0.0000
# 2 -7.2870 110.9046 0.2620 0.0000 0.4391 0.0000
# 3 1.9518 0.2620 83.2493 0.0000 -33.5358 0.0000
# 4 0.0000 0.0000 0.0000 41.0670 0.0000 1.0882
# 5 -3.4416 0.4391 -33.5358 0.0000 46.8250 0.0000
# 6 0.0000 0.0000 0.0000 1.0882 0.0000 -0.6023
#
#
#
# Elastic Compliance Matrix: (Units=1/GPa)
#
#
# Indices 1 2 3 4 5 6 
#
# 1 0.016526 0.001080 0.000133 0.000000 0.001299 0.000000
# 2 0.001080 0.009088 -0.000079 0.000000 -0.000062 0.000000
# 3 0.000133 -0.000079 0.016885 0.000000 0.012103 0.000000
# 4 0.000000 0.000000 0.000000 0.023238 0.000000 0.041989
# 5 0.001299 -0.000062 0.012103 0.000000 0.030121 0.000000
# 6 0.000000 0.000000 0.000000 0.041989 0.000000 -1.584532
#
#
# Mechanical properties :
#
#
# Convention : Reuss Voigt Hill
#
# Bulk Modulus (GPa) = 22.33795 27.24996 24.79396
# Shear Modulus (GPa) = -3.38749 34.82255 15.71753
#
# Velocity S-wave (km/s) = -1.22536 3.92875 2.63947
# Velocity P-wave (km/s) = 2.81057 5.71478 4.50322
#
# Compressibility (1/GPa) = 0.04476687
#
# Stress axis : x y z
#
# Youngs Moduli (GPa) = 60.51088 110.03300 59.22445
#
# Poissons Ratio (x) = -0.11888 -0.00785
# Poissons Ratio (y) = -0.06538 0.00468
# Poissons Ratio (z) = -0.00803 0.00870
#
# Static dielectric constant tensor:
#      x y z
#    x 1.860040 0.000000 -0.059130 
#    y 0.000000 1.778850 0.000000 
#    z -0.059130 0.000000 1.897940 
# 
# From -- ./inp_files/5284.got.cif
#   From: 2010.05.17/outbox.cif.g08.bks.cpg/sg4_3_cif.got.tgz:5284.got - 2010.06.03 18:43:04.
