data_PCOD9119357
_publ_section_title
;
Structure prediction by ZEFSAII (Michael W. Deem and Ramdas Pophale) SiO2 
 PCOD9119357
Probable space group: P 21
;
_chemical_formula_sum "Si O2"
_cell_formula_units_Z 12
_cell_length_a 8.347254
_cell_length_b 7.641315
_cell_length_c 10.540318
_cell_angle_alpha 90.000000
_cell_angle_beta 135.674769
_cell_angle_gamma 90.000000
_cell_volume 469.758962
_symmetry_space_group_name_H-M "P 21"
_symmetry_group_IT_number 4
_symmetry_cell_setting 'monoclinic'
loop_
_space_group_symop_operation_xyz
x,y,z
-x,1/2+y,-z
loop_
_atom_site_type_symbol
_atom_site_label
_atom_site_fract_x
_atom_site_fract_y
_atom_site_fract_z
Si Si1 0.901387 0.939790 0.900036
Si Si2 0.659319 0.576618 0.766009
Si Si3 0.437412 0.468460 0.885236
Si Si4 0.977971 0.640421 0.563854
Si Si5 0.845584 0.020135 0.595037
Si Si6 0.468051 0.076602 0.796391
O O1 0.790328 0.752996 0.803352
O O2 0.939606 0.040475 0.789177
O O3 0.711029 0.036444 0.874415
O O4 0.140352 0.932977 0.110424
O O5 0.560309 0.593422 0.853021
O O6 0.431930 0.533051 0.558279
O O7 0.446684 0.278125 0.827649
O O8 0.178668 0.539700 0.750628
O O9 0.557250 0.469169 0.088284
O O10 0.923246 0.829127 0.589523
O O11 0.734801 0.541750 0.417428
O O12 0.062198 0.645965 0.464119
#
# Coordination Sequence:
#
# PCOD9119357 Si02
#       6
#     2   2   2   2   2   2
#     4  12  29  46  78 106 154 190 242 309 369 435
#     4  11  26  49  69 112 146 195 245 296 373 432
#     4  11  26  46  75 108 145 195 250 293 366 435
#     4  11  25  47  74 103 145 192 250 299 359 434
#     4  11  28  48  74 108 145 193 250 300 370 431
#     4  12  26  46  78 109 149 191 241 307 363 439
#
# _framework density 25.545017000000001
#
# number of rings (size 3 to 8) (size 9 to 14) (size 15 to 20)
#    0.000    0.667    3.333    3.000   14.000    0.000 
#    0.000    1.667    0.000    0.000    0.000    0.000 
#    0.000    0.000    0.000    0.000    0.000    0.000 
#
# Total GULP energy -67268.153879 kJ/mol
# GULP energy per Si atom -5605.679490 kJ/mol
# Density = 2.548688 g / cm^3
# Si number density = 25.545017 Si / 1000 Ang^3
#
#
#
# Elastic Constant Matrix: (Units=GPa)
#
#
# Indices 1 2 3 4 5 6 
#
# 1 74.4939 6.1089 10.9869 0.0000 6.2845 0.0000
# 2 6.1089 94.8352 11.3210 0.0000 8.5952 0.0000
# 3 10.9869 11.3210 93.2159 0.0000 30.2461 0.0000
# 4 0.0000 0.0000 0.0000 32.5411 0.0000 8.3950
# 5 6.2845 8.5952 30.2461 0.0000 52.5253 0.0000
# 6 0.0000 0.0000 0.0000 8.3950 0.0000 48.7290
#
#
#
# Elastic Compliance Matrix: (Units=1/GPa)
#
#
# Indices 1 2 3 4 5 6 
#
# 1 0.013734 -0.000660 -0.001280 0.000000 -0.000798 0.000000
# 2 -0.000660 0.010797 -0.000843 0.000000 -0.001202 0.000000
# 3 -0.001280 -0.000843 0.013388 0.000000 -0.007418 0.000000
# 4 0.000000 0.000000 0.000000 0.032160 0.000000 -0.005540
# 5 -0.000798 -0.001202 -0.007418 0.000000 0.023602 0.000000
# 6 0.000000 0.000000 0.000000 -0.005540 0.000000 0.021476
#
#
# Mechanical properties :
#
#
# Convention : Reuss Voigt Hill
#
# Bulk Modulus (GPa) = 30.90839 35.48652 33.19745
# Shear Modulus (GPa) = 38.02082 42.36763 40.19422
#
# Velocity S-wave (km/s) = 3.86214 4.07695 3.97100
# Velocity P-wave (km/s) = 5.65810 6.00699 5.83515
#
# Compressibility (1/GPa) = 0.03235368
#
# Stress axis : x y z
#
# Youngs Moduli (GPa) = 72.81157 92.62052 74.69339
#
# Poissons Ratio (x) = 0.06109 0.09558
# Poissons Ratio (y) = 0.04803 0.06300
# Poissons Ratio (z) = 0.09317 0.07812
#
# Static dielectric constant tensor:
#      x y z
#    x 1.978420 0.000000 0.025030 
#    y 0.000000 2.065140 0.000000 
#    z 0.025030 0.000000 1.990240 
# 
# From -- ./inp_files/7445.got.cif
#   From: 2010.05.17/outbox.cif.g08.bks.cpg/sg4_4_cif.got.tgz:7445.got - 2010.06.03 18:43:04.
