data_PCOD9119354
_publ_section_title
;
Structure prediction by ZEFSAII (Michael W. Deem and Ramdas Pophale) SiO2 
 PCOD9119354
Probable space group: P 21
;
_chemical_formula_sum "Si O2"
_cell_formula_units_Z 14
_cell_length_a 12.896987
_cell_length_b 4.803546
_cell_length_c 10.525464
_cell_angle_alpha 90.000000
_cell_angle_beta 53.340679
_cell_angle_gamma 90.000000
_cell_volume 523.087071
_symmetry_space_group_name_H-M "P 21"
_symmetry_group_IT_number 4
_symmetry_cell_setting 'monoclinic'
loop_
_space_group_symop_operation_xyz
x,y,z
-x,1/2+y,-z
loop_
_atom_site_type_symbol
_atom_site_label
_atom_site_fract_x
_atom_site_fract_y
_atom_site_fract_z
Si Si1 0.537527 0.202120 0.776306
Si Si2 0.749051 0.606661 0.973996
Si Si3 0.312319 0.184374 0.251022
Si Si4 0.828702 0.984559 0.152486
Si Si5 0.456652 0.588159 0.603166
Si Si6 0.016188 0.716210 0.177819
Si Si7 0.944686 0.398667 0.469911
O O1 0.577642 0.444228 0.847759
O O2 0.519356 0.405333 0.668780
O O3 0.640543 0.956333 0.710787
O O4 0.400749 0.043216 0.890559
O O5 0.737364 0.777599 0.851575
O O6 0.857154 0.377010 0.865439
O O7 0.793338 0.758173 0.070116
O O8 0.198277 0.017395 0.404364
O O9 0.694688 0.147206 0.266987
O O10 0.884333 0.880708 0.245229
O O11 0.938993 0.150638 0.998412
O O12 0.529953 0.872012 0.523000
O O13 0.985698 0.466621 0.295755
O O14 0.966000 0.085451 0.500435
#
# Coordination Sequence:
#
# PCOD9119354 Si02
#       7
#     2   2   2   2   2   2   2
#     4  11  27  44  75 107 145 195 251 298 380 436
#     4  11  25  47  72 104 151 190 251 312 366 453
#     4  12  25  48  72 112 145 197 244 307 372 443
#     4  11  27  46  76 106 147 199 253 310 376 446
#     4  11  27  49  75 108 152 196 247 315 375 446
#     4  12  26  47  75 109 150 199 254 308 378 451
#     4  12  27  49  75 110 154 200 248 312 377 443
#
# _framework density 26.764185000000001
#
# number of rings (size 3 to 8) (size 9 to 14) (size 15 to 20)
#    0.000    0.571    2.857    3.429   14.000    0.000 
#    0.000    0.000    0.000    0.000    0.000    0.000 
#    0.000    0.000    0.000    0.000    0.000    0.000 
#
# Total GULP energy -78397.991707 kJ/mol
# GULP energy per Si atom -5599.856550 kJ/mol
# Density = 2.670327 g / cm^3
# Si number density = 26.764185 Si / 1000 Ang^3
#
#
#
# Elastic Constant Matrix: (Units=GPa)
#
#
# Indices 1 2 3 4 5 6 
#
# 1 141.3210 36.7724 23.3478 0.0000 -4.7114 0.0000
# 2 36.7724 99.0427 5.2922 0.0000 -9.4140 0.0000
# 3 23.3478 5.2922 79.6663 0.0000 -4.5083 0.0000
# 4 0.0000 0.0000 0.0000 26.9084 0.0000 5.9052
# 5 -4.7114 -9.4140 -4.5083 0.0000 40.7433 0.0000
# 6 0.0000 0.0000 0.0000 5.9052 0.0000 55.9709
#
#
#
# Elastic Compliance Matrix: (Units=1/GPa)
#
#
# Indices 1 2 3 4 5 6 
#
# 1 0.008203 -0.002925 -0.002208 0.000000 0.000028 0.000000
# 2 -0.002925 0.011391 0.000232 0.000000 0.002319 0.000000
# 3 -0.002208 0.000232 0.013256 0.000000 0.001265 0.000000
# 4 0.000000 0.000000 0.000000 0.038044 0.000000 -0.004014
# 5 0.000028 0.002319 0.001265 0.000000 0.025223 0.000000
# 6 0.000000 0.000000 0.000000 -0.004014 0.000000 0.018290
#
#
# Mechanical properties :
#
#
# Convention : Reuss Voigt Hill
#
# Bulk Modulus (GPa) = 43.38998 50.09497 46.74247
# Shear Modulus (GPa) = 37.91012 41.69903 39.80458
#
# Velocity S-wave (km/s) = 3.76766 3.95145 3.86065
# Velocity P-wave (km/s) = 5.93078 6.29098 6.11353
#
# Compressibility (1/GPa) = 0.02304680
#
# Stress axis : x y z
#
# Youngs Moduli (GPa) = 121.90797 87.79123 75.43935
#
# Poissons Ratio (x) = 0.25678 0.16658
# Poissons Ratio (y) = 0.35657 -0.01748
# Poissons Ratio (z) = 0.26919 -0.02035
#
# Static dielectric constant tensor:
#      x y z
#    x 2.114710 0.000000 0.007790 
#    y 0.000000 2.095000 0.000000 
#    z 0.007790 0.000000 2.167570 
# 
# From -- ./inp_files/9341.got.cif
#   From: 2010.05.17/outbox.cif.g08.bks.cpg/sg4_5_cif.got.tgz:9341.got - 2010.06.03 18:43:04.
