data_PCOD9119042
_publ_section_title
;
Structure prediction by ZEFSAII (Michael W. Deem and Ramdas Pophale) SiO2 
 PCOD9119042
Probable space group: P 21
;
_chemical_formula_sum "Si O2"
_cell_formula_units_Z 16
_cell_length_a 18.634965
_cell_length_b 6.443124
_cell_length_c 10.162815
_cell_angle_alpha 90.000000
_cell_angle_beta 32.575038
_cell_angle_gamma 90.000000
_cell_volume 656.972407
_symmetry_space_group_name_H-M "P 21"
_symmetry_group_IT_number 4
_symmetry_cell_setting 'monoclinic'
loop_
_space_group_symop_operation_xyz
x,y,z
-x,1/2+y,-z
loop_
_atom_site_type_symbol
_atom_site_label
_atom_site_fract_x
_atom_site_fract_y
_atom_site_fract_z
Si Si1 0.112323 0.928260 0.433103
Si Si2 0.103203 0.778277 0.951069
Si Si3 0.130921 0.122727 0.127839
Si Si4 0.180488 0.254663 0.527841
Si Si5 0.345899 0.649761 0.178744
Si Si6 0.490674 0.146866 0.340892
Si Si7 0.314048 0.466659 0.750926
Si Si8 0.673205 0.395264 0.561457
O O1 0.242012 0.820329 0.289899
O O2 0.990540 0.779999 0.657170
O O3 0.130756 0.968209 0.251235
O O4 0.108118 0.147089 0.514756
O O5 0.055776 0.265899 0.820567
O O6 0.185991 0.590999 0.893077
O O7 0.182306 0.797500 0.692394
O O8 0.117026 0.984824 0.019175
O O9 0.259416 0.269540 0.917866
O O10 0.258051 0.453162 0.355416
O O11 0.290196 0.109826 0.425164
O O12 0.407664 0.745303 0.216856
O O13 0.440752 0.628311 0.907847
O O14 0.407936 0.356923 0.496047
O O15 0.597054 0.108083 0.290850
O O16 0.391821 0.948903 0.478181
#
# Coordination Sequence:
#
# PCOD9119042 Si02
#       8
#     2   2   2   2   2   2   2   2
#     4  11  24  42  71 110 145 187 247 306 389 453
#     4  12  25  47  75 110 147 190 250 319 395 444
#     4  12  24  43  74 113 150 190 245 318 390 452
#     4  11  25  47  73 108 145 194 247 317 380 443
#     4  11  27  48  72 103 153 200 249 313 371 450
#     4  12  28  51  73 106 151 202 259 303 374 456
#     4  12  28  49  77 109 150 202 250 326 378 453
#     4  11  29  45  71 109 139 205 251 304 373 451
#
# _framework density 24.354143000000001
#
# number of rings (size 3 to 8) (size 9 to 14) (size 15 to 20)
#    0.000    0.500    3.750    3.000    8.750    0.000 
#    2.250    0.000    0.000    0.000    0.000    0.000 
#    0.000    0.000    0.000    0.000    0.000    0.000 
#
# Total GULP energy -89523.949080 kJ/mol
# GULP energy per Si atom -5595.246818 kJ/mol
# Density = 2.429871 g / cm^3
# Si number density = 24.354143 Si / 1000 Ang^3
#
#
#
# Elastic Constant Matrix: (Units=GPa)
#
#
# Indices 1 2 3 4 5 6 
#
# 1 73.4876 33.1224 17.6245 0.0000 1.0523 0.0000
# 2 33.1224 95.4466 40.6812 0.0000 1.6329 0.0000
# 3 17.6245 40.6812 117.8353 0.0000 4.2612 0.0000
# 4 0.0000 0.0000 0.0000 40.9431 0.0000 6.4964
# 5 1.0523 1.6329 4.2612 0.0000 33.2829 0.0000
# 6 0.0000 0.0000 0.0000 6.4964 0.0000 33.8107
#
#
#
# Elastic Compliance Matrix: (Units=1/GPa)
#
#
# Indices 1 2 3 4 5 6 
#
# 1 0.016164 -0.005368 -0.000558 0.000000 -0.000176 0.000000
# 2 -0.005368 0.014068 -0.004054 0.000000 -0.000001 0.000000
# 3 -0.000558 -0.004054 0.010008 0.000000 -0.001065 0.000000
# 4 0.000000 0.000000 0.000000 0.025192 0.000000 -0.004840
# 5 -0.000176 -0.000001 -0.001065 0.000000 0.030187 0.000000
# 6 0.000000 0.000000 0.000000 -0.004840 0.000000 0.030506
#
#
# Mechanical properties :
#
#
# Convention : Reuss Voigt Hill
#
# Bulk Modulus (GPa) = 49.31113 52.18062 50.74587
# Shear Modulus (GPa) = 32.71279 34.63008 33.67143
#
# Velocity S-wave (km/s) = 3.66896 3.77495 3.72233
# Velocity P-wave (km/s) = 6.18384 6.36181 6.27346
#
# Compressibility (1/GPa) = 0.02027940
#
# Stress axis : x y z
#
# Youngs Moduli (GPa) = 61.86697 71.08400 99.92137
#
# Poissons Ratio (x) = 0.38161 0.05574
# Poissons Ratio (y) = 0.33213 0.40506
# Poissons Ratio (z) = 0.03451 0.28816
#
# Static dielectric constant tensor:
#      x y z
#    x 1.925700 0.000000 -0.007290 
#    y 0.000000 2.009470 0.000000 
#    z -0.007290 0.000000 2.037300 
# 
# From -- ./inp_files/9467.got.cif
#   From: 2010.05.17/outbox.cif.g08.bks.cpg/sg4_5_cif.got.tgz:9467.got - 2010.06.03 18:43:04.
