data_PCOD9119544
_publ_section_title
;
Structure prediction by ZEFSAII (Michael W. Deem and Ramdas Pophale) SiO2 
 PCOD9119544
Probable space group: P 21
;
_chemical_formula_sum "Si O2"
_cell_formula_units_Z 14
_cell_length_a 4.855615
_cell_length_b 4.872798
_cell_length_c 15.843985
_cell_angle_alpha 90.000000
_cell_angle_beta 98.814100
_cell_angle_gamma 90.000000
_cell_volume 370.448499
_symmetry_space_group_name_H-M "P 21"
_symmetry_group_IT_number 4
_symmetry_cell_setting 'monoclinic'
loop_
_space_group_symop_operation_xyz
x,y,z
-x,1/2+y,-z
loop_
_atom_site_type_symbol
_atom_site_label
_atom_site_fract_x
_atom_site_fract_y
_atom_site_fract_z
Si Si1 0.564467 0.182450 0.133902
Si Si2 0.116748 0.432485 0.733490
Si Si3 0.249794 0.932484 0.999587
Si Si4 0.615143 0.932484 0.730282
Si Si5 0.930568 0.182520 0.866098
Si Si6 0.315600 0.214911 0.597240
Si Si7 0.781646 0.650059 0.597239
O O1 0.510512 0.183776 0.021395
O O2 0.327749 0.432486 0.155499
O O3 0.827711 0.932484 0.155425
O O4 0.806597 0.432483 0.113197
O O5 0.387392 0.671877 0.753893
O O6 0.866507 0.193092 0.753892
O O7 0.865678 0.702201 0.708950
O O8 0.343276 0.162768 0.708950
O O9 0.989117 0.181192 0.978605
O O10 0.305835 0.932485 0.111674
O O11 0.557522 0.932480 0.615041
O O12 0.165597 0.182482 0.500001
O O13 0.544517 0.432478 0.589015
O O14 0.062999 0.432491 0.625981
#
# Coordination Sequence:
#
# PCOD9119544 Si02
#       7
#     2   2   2   2   2   2   2
#     4  12  24  43  68 103 142 189 239 287 353 413
#     4  12  26  45  73 108 142 184 243 289 352 426
#     4  12  24  42  66 100 148 184 236 294 342 414
#     4  12  24  45  75  98 146 188 231 299 352 414
#     4  12  24  43  68 103 142 189 239 287 353 413
#     4  12  26  48  73 107 144 180 236 297 355 423
#     4  12  26  48  73 107 144 180 236 297 355 423
#
# _framework density 37.792025000000002
#
# number of rings (size 3 to 8) (size 9 to 14) (size 15 to 20)
#    0.000    0.000    4.286    6.857    0.000    3.429 
#    0.000    0.000    0.000    0.000    0.000    0.000 
#    0.000    0.000    0.000    0.000    0.000    0.000 
#
# Total GULP energy -78744.892136 kJ/mol
# GULP energy per Si atom -5624.635153 kJ/mol
# Density = 3.770601 g / cm^3
# Si number density = 37.792025 Si / 1000 Ang^3
#
#
#
# Elastic Constant Matrix: (Units=GPa)
#
#
# Indices 1 2 3 4 5 6 
#
# 1 509.4860 181.3980 213.1145 0.0000 0.2958 0.0000
# 2 181.3980 529.3270 217.9234 0.0000 -0.1175 0.0000
# 3 213.1145 217.9234 534.3846 0.0000 -0.3609 0.0000
# 4 0.0000 0.0000 0.0000 123.3788 0.0000 0.1523
# 5 0.2958 -0.1175 -0.3609 0.0000 105.9929 0.0000
# 6 0.0000 0.0000 0.0000 0.1523 0.0000 167.8701
#
#
#
# Elastic Compliance Matrix: (Units=1/GPa)
#
#
# Indices 1 2 3 4 5 6 
#
# 1 0.002474 -0.000531 -0.000770 0.000000 -0.000010 0.000000
# 2 -0.000531 0.002384 -0.000761 0.000000 0.000002 0.000000
# 3 -0.000770 -0.000761 0.002489 0.000000 0.000010 0.000000
# 4 0.000000 0.000000 0.000000 0.008105 0.000000 -0.000007
# 5 -0.000010 0.000002 0.000010 0.000000 0.009435 0.000000
# 6 0.000000 0.000000 0.000000 -0.000007 0.000000 0.005957
#
#
# Mechanical properties :
#
#
# Convention : Reuss Voigt Hill
#
# Bulk Modulus (GPa) = 310.20188 310.89663 310.54925
# Shear Modulus (GPa) = 138.73030 143.49915 141.11472
#
# Velocity S-wave (km/s) = 6.06536 6.16873 6.11726
# Velocity P-wave (km/s) = 11.45910 11.54042 11.49983
#
# Compressibility (1/GPa) = 0.00322371
#
# Stress axis : x y z
#
# Youngs Moduli (GPa) = 404.22299 419.42465 401.82307
#
# Poissons Ratio (x) = 0.22259 0.30947
# Poissons Ratio (y) = 0.21453 0.30564
# Poissons Ratio (z) = 0.31132 0.31903
#
# Static dielectric constant tensor:
#      x y z
#    x 2.876150 0.000000 0.000130 
#    y 0.000000 3.039940 0.000000 
#    z 0.000130 0.000000 2.845110 
# 
# From -- ./inp_files/3997.got.cif
#   From: 2010.05.17/outbox.cif.g08.bks.cpg/sg4_2_cif.got.tgz:3997.got - 2010.06.03 18:43:04.
