data_PCOD9119513
_publ_section_title
;
Structure prediction by ZEFSAII (Michael W. Deem and Ramdas Pophale) SiO2 
 PCOD9119513
Probable space group: P 21
;
_chemical_formula_sum "Si O2"
_cell_formula_units_Z 14
_cell_length_a 20.570312
_cell_length_b 5.840118
_cell_length_c 14.849226
_cell_angle_alpha 90.000000
_cell_angle_beta 160.824480
_cell_angle_gamma 90.000000
_cell_volume 585.939720
_symmetry_space_group_name_H-M "P 21"
_symmetry_group_IT_number 4
_symmetry_cell_setting 'monoclinic'
loop_
_space_group_symop_operation_xyz
x,y,z
-x,1/2+y,-z
loop_
_atom_site_type_symbol
_atom_site_label
_atom_site_fract_x
_atom_site_fract_y
_atom_site_fract_z
Si Si1 0.451053 0.263510 0.542041
Si Si2 0.501027 0.959284 0.050933
Si Si3 0.224601 0.712202 0.799419
Si Si4 0.509698 0.881767 0.754904
Si Si5 0.176520 0.040091 0.051037
Si Si6 0.237158 0.501544 0.432846
Si Si7 0.115115 0.057583 0.777353
O O1 0.646058 0.378012 0.753878
O O2 0.353911 0.389665 0.501334
O O3 0.494979 0.014870 0.641737
O O4 0.286959 0.236342 0.250508
O O5 0.670005 0.936133 0.348690
O O6 0.497502 0.717214 0.989327
O O7 0.299570 0.933974 0.844224
O O8 0.155335 0.791708 0.807259
O O9 0.056128 0.612674 0.516883
O O10 0.406488 0.544929 0.057018
O O11 0.301061 0.767711 0.505878
O O12 0.683351 0.696043 0.974082
O O13 0.064735 0.113113 0.813515
O O14 0.995295 0.946668 0.873696
#
# Coordination Sequence:
#
# PCOD9119513 Si02
#       7
#     2   2   2   2   2   2   2
#     4  12  28  52  77 107 157 203 264 339 399 488
#     4  12  26  46  74 116 167 210 270 340 403 495
#     4  12  24  42  76 108 156 212 257 325 414 477
#     4  12  22  49  76 104 159 205 260 332 403 481
#     4  12  28  51  77 116 146 204 272 327 404 492
#     4  12  28  49  78 114 158 207 264 336 419 473
#     4  12  24  45  74 111 149 205 261 321 398 486
#
# _framework density 23.893242000000001
#
# number of rings (size 3 to 8) (size 9 to 14) (size 15 to 20)
#    0.000    0.000    7.143    2.571    2.000    2.286 
#    2.571    0.000    0.000    0.000    0.000    0.000 
#    0.000    0.000    0.000    0.000    0.000    0.000 
#
# Total GULP energy -78153.911779 kJ/mol
# GULP energy per Si atom -5582.422270 kJ/mol
# Density = 2.383886 g / cm^3
# Si number density = 23.893242 Si / 1000 Ang^3
#
#
#
# Elastic Constant Matrix: (Units=GPa)
#
#
# Indices 1 2 3 4 5 6 
#
# 1 116.4049 52.7169 63.8756 0.0000 -1.1764 0.0000
# 2 52.7169 78.9639 37.9073 0.0000 -5.3104 0.0000
# 3 63.8756 37.9073 120.9909 0.0000 7.9207 0.0000
# 4 0.0000 0.0000 0.0000 34.9628 0.0000 -6.6403
# 5 -1.1764 -5.3104 7.9207 0.0000 49.3321 0.0000
# 6 0.0000 0.0000 0.0000 -6.6403 0.0000 54.2880
#
#
#
# Elastic Compliance Matrix: (Units=1/GPa)
#
#
# Indices 1 2 3 4 5 6 
#
# 1 0.014995 -0.007253 -0.005676 0.000000 0.000488 0.000000
# 2 -0.007253 0.018696 -0.002172 0.000000 0.002188 0.000000
# 3 -0.005676 -0.002172 0.012093 0.000000 -0.002311 0.000000
# 4 0.000000 0.000000 0.000000 0.029282 0.000000 0.003582
# 5 0.000488 0.002188 -0.002311 0.000000 0.020889 0.000000
# 6 0.000000 0.000000 0.000000 0.003582 0.000000 0.018858
#
#
# Mechanical properties :
#
#
# Convention : Reuss Voigt Hill
#
# Bulk Modulus (GPa) = 64.17317 69.48438 66.82877
# Shear Modulus (GPa) = 33.28691 38.50726 35.89708
#
# Velocity S-wave (km/s) = 3.73654 4.01888 3.88028
# Velocity P-wave (km/s) = 6.74776 7.11895 6.93584
#
# Compressibility (1/GPa) = 0.01558284
#
# Stress axis : x y z
#
# Youngs Moduli (GPa) = 66.68895 53.48757 82.69072
#
# Poissons Ratio (x) = 0.38795 0.46934
# Poissons Ratio (y) = 0.48371 0.17957
# Poissons Ratio (z) = 0.37852 0.11615
#
# Static dielectric constant tensor:
#      x y z
#    x 2.082350 0.000000 0.021250 
#    y 0.000000 2.006920 0.000000 
#    z 0.021250 0.000000 1.901250 
# 
# From -- ./inp_files/14372.got.cif
#   From: 2010.05.17/outbox.cif.g08.bks.cpg/sg4_8_cif.got.tgz:14372.got - 2010.06.03 18:43:04.
