data_PCOD9119234
_publ_section_title
;
Structure prediction by ZEFSAII (Michael W. Deem and Ramdas Pophale) SiO2 
 PCOD9119234
Probable space group: P 21
;
_chemical_formula_sum "Si O2"
_cell_formula_units_Z 16
_cell_length_a 5.624391
_cell_length_b 15.192956
_cell_length_c 8.938023
_cell_angle_alpha 90.000000
_cell_angle_beta 59.483168
_cell_angle_gamma 90.000000
_cell_volume 657.967531
_symmetry_space_group_name_H-M "P 21"
_symmetry_group_IT_number 4
_symmetry_cell_setting 'monoclinic'
loop_
_space_group_symop_operation_xyz
x,y,z
-x,1/2+y,-z
loop_
_atom_site_type_symbol
_atom_site_label
_atom_site_fract_x
_atom_site_fract_y
_atom_site_fract_z
Si Si1 0.634002 0.096380 0.764822
Si Si2 0.843783 0.984129 0.075769
Si Si3 0.300550 0.057373 0.386923
Si Si4 0.898555 0.924837 0.592774
Si Si5 0.234150 0.179413 0.650244
Si Si6 0.294506 0.323657 0.083811
Si Si7 0.089031 0.849185 0.217882
Si Si8 0.161303 0.125117 0.115765
O O1 0.440534 0.149200 0.713585
O O2 0.927039 0.140938 0.708472
O O3 0.668644 0.001345 0.675582
O O4 0.469722 0.093458 0.973108
O O5 0.039100 0.929754 0.124116
O O6 0.548911 0.001000 0.242278
O O7 0.819667 0.916360 0.947156
O O8 0.978695 0.080207 0.044208
O O9 0.386001 0.145257 0.449870
O O10 0.119337 0.090952 0.300635
O O11 0.157270 0.989410 0.550213
O O12 0.763668 0.844651 0.724723
O O13 0.025525 0.885263 0.402071
O O14 0.151437 0.277541 0.723003
O O15 0.147687 0.230330 0.104343
O O16 0.605277 0.315263 0.921001
#
# Coordination Sequence:
#
# PCOD9119234 Si02
#       8
#     2   2   2   2   2   2   2   2
#     4  11  25  47  75 113 151 212 255 326 397 472
#     4  12  25  47  76 113 158 209 266 336 401 475
#     4  11  25  47  72 112 154 207 259 332 401 478
#     4  11  24  48  77 109 154 204 261 327 403 473
#     4  11  26  45  77 111 157 205 267 321 397 469
#     4  12  27  50  75 114 152 209 271 333 401 486
#     4  12  24  50  73 111 155 205 264 336 394 478
#     4  12  26  48  77 109 161 209 269 331 402 481
#
# _framework density 24.317309000000002
#
# number of rings (size 3 to 8) (size 9 to 14) (size 15 to 20)
#    0.000    0.500    3.750    3.750    7.000    1.000 
#    4.500    0.000    0.000    0.000    0.000    0.000 
#    0.000    0.000    0.000    0.000    0.000    0.000 
#
# Total GULP energy -89172.573712 kJ/mol
# GULP energy per Si atom -5573.285857 kJ/mol
# Density = 2.426196 g / cm^3
# Si number density = 24.317309 Si / 1000 Ang^3
#
#
#
# Elastic Constant Matrix: (Units=GPa)
#
#
# Indices 1 2 3 4 5 6 
#
# 1 73.9693 40.5098 -1.8266 0.0000 9.5306 0.0000
# 2 40.5098 124.7240 4.7641 0.0000 -13.2462 0.0000
# 3 -1.8266 4.7641 53.6952 0.0000 2.2004 0.0000
# 4 0.0000 0.0000 0.0000 31.0323 0.0000 -7.0639
# 5 9.5306 -13.2462 2.2004 0.0000 19.3182 0.0000
# 6 0.0000 0.0000 0.0000 -7.0639 0.0000 47.0401
#
#
#
# Elastic Compliance Matrix: (Units=1/GPa)
#
#
# Indices 1 2 3 4 5 6 
#
# 1 0.020175 -0.008320 0.002076 0.000000 -0.015895 0.000000
# 2 -0.008320 0.012134 -0.001878 0.000000 0.012639 0.000000
# 3 0.002076 -0.001878 0.019044 0.000000 -0.004481 0.000000
# 4 0.000000 0.000000 0.000000 0.033365 0.000000 0.005010
# 5 -0.015895 0.012639 -0.004481 0.000000 0.068783 0.000000
# 6 0.000000 0.000000 0.000000 0.005010 0.000000 0.022011
#
#
# Mechanical properties :
#
#
# Convention : Reuss Voigt Hill
#
# Bulk Modulus (GPa) = 28.48203 37.69813 33.09008
# Shear Modulus (GPa) = 24.57498 33.40753 28.99125
#
# Velocity S-wave (km/s) = 3.18244 3.71052 3.45658
# Velocity P-wave (km/s) = 5.02414 5.82182 5.43762
#
# Compressibility (1/GPa) = 0.03510985
#
# Stress axis : x y z
#
# Youngs Moduli (GPa) = 49.56653 82.41289 52.50867
#
# Poissons Ratio (x) = 0.68568 -0.10900
# Poissons Ratio (y) = 0.41240 0.09859
# Poissons Ratio (z) = -0.10289 0.15473
#
# Static dielectric constant tensor:
#      x y z
#    x 2.031930 0.000000 0.016150 
#    y 0.000000 2.040310 0.000000 
#    z 0.016150 0.000000 2.046840 
# 
# From -- ./inp_files/4785.got.cif
#   From: 2010.05.17/outbox.cif.g08.bks.cpg/sg4_3_cif.got.tgz:4785.got - 2010.06.03 18:43:04.
