data_PCOD9119779
_publ_section_title
;
Structure prediction by ZEFSAII (Michael W. Deem and Ramdas Pophale) SiO2 
 PCOD9119779
Probable space group: P 21
;
_chemical_formula_sum "Si O2"
_cell_formula_units_Z 14
_cell_length_a 12.797330
_cell_length_b 4.909438
_cell_length_c 8.126439
_cell_angle_alpha 90.000000
_cell_angle_beta 96.918594
_cell_angle_gamma 90.000000
_cell_volume 506.847674
_symmetry_space_group_name_H-M "P 21"
_symmetry_group_IT_number 4
_symmetry_cell_setting 'monoclinic'
loop_
_space_group_symop_operation_xyz
x,y,z
-x,1/2+y,-z
loop_
_atom_site_type_symbol
_atom_site_label
_atom_site_fract_x
_atom_site_fract_y
_atom_site_fract_z
Si Si1 0.553864 0.792980 0.076040
Si Si2 0.237740 0.618738 0.279997
Si Si3 0.526306 0.036556 0.608877
Si Si4 0.026101 0.368314 0.909097
Si Si5 0.167681 0.878697 0.607919
Si Si6 0.234102 0.006847 0.958320
Si Si7 0.072327 0.210525 0.361055
O O1 0.536673 0.684711 0.256792
O O2 0.666721 0.704492 0.032985
O O3 0.472052 0.608327 0.954441
O O4 0.221743 0.752227 0.457732
O O5 0.353962 0.489290 0.310420
O O6 0.144127 0.393609 0.255014
O O7 0.239690 0.829797 0.126477
O O8 0.523025 0.255913 0.460998
O O9 0.036886 0.674787 0.977184
O O10 0.955372 0.425321 0.735639
O O11 0.867481 0.702466 0.087095
O O12 0.229752 0.835953 0.787147
O O13 0.145605 0.184465 0.535766
O O14 0.044959 0.801430 0.615722
#
# Coordination Sequence:
#
# PCOD9119779 Si02
#       7
#     2   2   2   2   2   2   2
#     4  12  28  56  87 127 173 219 295 375 437 523
#     4  12  30  57  90 130 178 234 294 361 452 526
#     4  12  29  56  91 128 168 227 291 369 444 528
#     4  12  30  51  83 128 176 232 297 355 431 542
#     4  12  27  52  84 128 175 231 287 361 425 535
#     4  12  30  55  91 130 175 237 294 364 452 521
#     4  12  28  51  84 127 183 232 292 365 433 519
#
# _framework density 27.621711999999999
#
# number of rings (size 3 to 8) (size 9 to 14) (size 15 to 20)
#    0.000    0.000    2.857    4.286   12.000    3.429 
#    0.000    0.000    0.000    0.000    0.000    0.000 
#    0.000    0.000    0.000    0.000    0.000    0.000 
#
# Total GULP energy -78492.273732 kJ/mol
# GULP energy per Si atom -5606.590981 kJ/mol
# Density = 2.755884 g / cm^3
# Si number density = 27.621712 Si / 1000 Ang^3
#
#
#
# Elastic Constant Matrix: (Units=GPa)
#
#
# Indices 1 2 3 4 5 6 
#
# 1 134.0236 18.4003 44.3056 0.0000 12.1470 0.0000
# 2 18.4003 106.5609 47.0890 0.0000 8.4268 0.0000
# 3 44.3056 47.0890 191.9050 0.0000 -8.9489 0.0000
# 4 0.0000 0.0000 0.0000 55.9724 0.0000 11.5298
# 5 12.1470 8.4268 -8.9489 0.0000 36.8623 0.0000
# 6 0.0000 0.0000 0.0000 11.5298 0.0000 39.5268
#
#
#
# Elastic Compliance Matrix: (Units=1/GPa)
#
#
# Indices 1 2 3 4 5 6 
#
# 1 0.008465 -0.000312 -0.002028 0.000000 -0.003211 0.000000
# 2 -0.000312 0.010892 -0.002743 0.000000 -0.003053 0.000000
# 3 -0.002028 -0.002743 0.006486 0.000000 0.002870 0.000000
# 4 0.000000 0.000000 0.000000 0.019008 0.000000 -0.005545
# 5 -0.003211 -0.003053 0.002870 0.000000 0.029580 0.000000
# 6 0.000000 0.000000 0.000000 -0.005545 0.000000 0.026917
#
#
# Mechanical properties :
#
#
# Convention : Reuss Voigt Hill
#
# Bulk Modulus (GPa) = 63.78288 72.45325 68.11806
# Shear Modulus (GPa) = 42.83053 47.98528 45.40791
#
# Velocity S-wave (km/s) = 3.94205 4.17253 4.05893
# Velocity P-wave (km/s) = 6.62279 7.03568 6.83236
#
# Compressibility (1/GPa) = 0.01567819
#
# Stress axis : x y z
#
# Youngs Moduli (GPa) = 118.12705 91.81324 154.18058
#
# Poissons Ratio (x) = 0.02863 0.31262
# Poissons Ratio (y) = 0.03684 0.42291
# Poissons Ratio (z) = 0.23952 0.25184
#
# Static dielectric constant tensor:
#      x y z
#    x 2.146800 0.000000 -0.045680 
#    y 0.000000 2.201800 0.000000 
#    z -0.045680 0.000000 2.284850 
# 
# From -- ./inp_files/7403.got.cif
#   From: 2010.05.17/outbox.cif.g08.bks.cpg/sg4_4_cif.got.tgz:7403.got - 2010.06.03 18:43:04.
