data_PCOD9119207
_publ_section_title
;
Structure prediction by ZEFSAII (Michael W. Deem and Ramdas Pophale) SiO2 
 PCOD9119207
Probable space group: P 21
;
_chemical_formula_sum "Si O2"
_cell_formula_units_Z 12
_cell_length_a 5.345396
_cell_length_b 14.615118
_cell_length_c 6.771133
_cell_angle_alpha 90.000000
_cell_angle_beta 106.350856
_cell_angle_gamma 90.000000
_cell_volume 507.590852
_symmetry_space_group_name_H-M "P 21"
_symmetry_group_IT_number 4
_symmetry_cell_setting 'monoclinic'
loop_
_space_group_symop_operation_xyz
x,y,z
-x,1/2+y,-z
loop_
_atom_site_type_symbol
_atom_site_label
_atom_site_fract_x
_atom_site_fract_y
_atom_site_fract_z
Si Si1 0.894991 0.667110 0.032602
Si Si2 0.151437 0.885294 0.566816
Si Si3 0.685209 0.773885 0.641847
Si Si4 0.887487 0.024596 0.241282
Si Si5 0.671123 0.120465 0.581396
Si Si6 0.556207 0.516401 0.128594
O O1 0.803107 0.752751 0.884502
O O2 0.997861 0.592825 0.896102
O O3 0.121452 0.678593 0.244240
O O4 0.654031 0.616166 0.082320
O O5 0.420278 0.831475 0.600095
O O6 0.907768 0.821165 0.562713
O O7 0.202892 0.952273 0.765358
O O8 0.082815 0.948832 0.365825
O O9 0.584206 0.678725 0.526494
O O10 0.795659 0.084387 0.407692
O O11 0.635395 0.980058 0.081060
O O12 0.593306 0.034544 0.699804
#
# Coordination Sequence:
#
# PCOD9119207 Si02
#       6
#     2   2   2   2   2   2
#     4  11  25  45  78 102 139 192 251 290 350 442
#     4  12  28  46  70 110 152 186 238 307 371 421
#     4  12  28  46  70 110 152 186 238 307 371 421
#     4  11  24  47  76 102 139 194 247 291 356 438
#     4  11  24  47  76 102 139 194 247 291 356 438
#     4  11  25  45  78 102 139 192 251 290 350 442
#
# _framework density 23.641090999999999
#
# number of rings (size 3 to 8) (size 9 to 14) (size 15 to 20)
#    0.000    0.667    3.333    3.000    9.333    2.667 
#    0.000    0.000    0.000    0.000    0.000    0.000 
#    0.000    0.000    0.000    0.000    0.000    0.000 
#
# Total GULP energy -67237.154304 kJ/mol
# GULP energy per Si atom -5603.096192 kJ/mol
# Density = 2.358728 g / cm^3
# Si number density = 23.641091 Si / 1000 Ang^3
#
#
#
# Elastic Constant Matrix: (Units=GPa)
#
#
# Indices 1 2 3 4 5 6 
#
# 1 88.8940 14.9147 12.4965 0.0000 7.8937 0.0000
# 2 14.9147 46.1323 10.5185 0.0000 3.9289 0.0000
# 3 12.4965 10.5185 104.1828 0.0000 17.4056 0.0000
# 4 0.0000 0.0000 0.0000 25.6656 0.0000 20.9759
# 5 7.8937 3.9289 17.4056 0.0000 56.2975 0.0000
# 6 0.0000 0.0000 0.0000 20.9759 0.0000 53.6727
#
#
#
# Elastic Compliance Matrix: (Units=1/GPa)
#
#
# Indices 1 2 3 4 5 6 
#
# 1 0.012083 -0.003604 -0.000890 0.000000 -0.001167 0.000000
# 2 -0.003604 0.023306 -0.001828 0.000000 -0.000556 0.000000
# 3 -0.000890 -0.001828 0.010384 0.000000 -0.002958 0.000000
# 4 0.000000 0.000000 0.000000 0.057248 0.000000 -0.022373
# 5 -0.001167 -0.000556 -0.002958 0.000000 0.018880 0.000000
# 6 0.000000 0.000000 0.000000 -0.022373 0.000000 0.027375
#
#
# Mechanical properties :
#
#
# Convention : Reuss Voigt Hill
#
# Bulk Modulus (GPa) = 30.18546 35.00760 32.59653
# Shear Modulus (GPa) = 28.90793 40.54579 34.72686
#
# Velocity S-wave (km/s) = 3.50063 4.14582 3.83681
# Velocity P-wave (km/s) = 5.39769 6.14468 5.78326
#
# Compressibility (1/GPa) = 0.03312854
#
# Stress axis : x y z
#
# Youngs Moduli (GPa) = 82.76188 42.90727 96.30146
#
# Poissons Ratio (x) = 0.15464 0.08575
# Poissons Ratio (y) = 0.29827 0.17602
# Poissons Ratio (z) = 0.07369 0.07843
#
# Static dielectric constant tensor:
#      x y z
#    x 1.898760 0.000000 0.019780 
#    y 0.000000 1.931640 0.000000 
#    z 0.019780 0.000000 1.867440 
# 
# From -- ./inp_files/417.got.cif
#   From: 2010.05.17/outbox.cif.g08.bks.cpg/sg4_1_cif.got.tgz:417.got - 2010.06.03 18:43:04.
