data_PCOD9119719
_publ_section_title
;
Structure prediction by ZEFSAII (Michael W. Deem and Ramdas Pophale) SiO2 
 PCOD9119719
Probable space group: P 21
;
_chemical_formula_sum "Si O2"
_cell_formula_units_Z 16
_cell_length_a 7.836700
_cell_length_b 9.694193
_cell_length_c 9.483797
_cell_angle_alpha 90.000000
_cell_angle_beta 62.408988
_cell_angle_gamma 90.000000
_cell_volume 638.551960
_symmetry_space_group_name_H-M "P 21"
_symmetry_group_IT_number 4
_symmetry_cell_setting 'monoclinic'
loop_
_space_group_symop_operation_xyz
x,y,z
-x,1/2+y,-z
loop_
_atom_site_type_symbol
_atom_site_label
_atom_site_fract_x
_atom_site_fract_y
_atom_site_fract_z
Si Si1 0.591213 0.240990 0.737512
Si Si2 0.727109 0.868933 0.336717
Si Si3 0.012013 0.672361 0.075231
Si Si4 0.900176 0.445564 0.329155
Si Si5 0.694438 0.926279 0.670976
Si Si6 0.777121 0.519424 0.664484
Si Si7 0.532391 0.211719 0.075079
Si Si8 0.896635 0.148632 0.268358
O O1 0.449697 0.300104 0.674743
O O2 0.758903 0.354667 0.693085
O O3 0.659112 0.089046 0.671400
O O4 0.486027 0.229517 0.928191
O O5 0.717194 0.859359 0.508899
O O6 0.912756 0.798188 0.194601
O O7 0.740191 0.031646 0.299752
O O8 0.927618 0.535079 0.179572
O O9 0.241846 0.678722 0.006279
O O10 0.980565 0.672122 0.920421
O O11 0.110244 0.411551 0.313916
O O12 0.809063 0.296568 0.338514
O O13 0.791641 0.532539 0.490293
O O14 0.524811 0.850412 0.820115
O O15 0.596188 0.592864 0.805290
O O16 0.964167 0.586000 0.665185
#
# Coordination Sequence:
#
# PCOD9119719 Si02
#       8
#     2   2   2   2   2   2   2   2
#     4  12  28  49  79 114 157 205 263 327 384 470
#     4  12  28  49  76 114 157 204 261 320 395 462
#     4  12  28  50  79 117 157 203 257 329 395 464
#     4  12  27  51  79 114 153 208 265 317 397 471
#     4  12  27  51  78 113 153 207 266 319 390 470
#     4  12  26  47  81 110 155 209 254 322 388 467
#     4  12  26  48  79 115 155 204 261 321 396 463
#     4  12  26  47  79 115 153 200 261 325 387 469
#
# _framework density 25.056691000000001
#
# number of rings (size 3 to 8) (size 9 to 14) (size 15 to 20)
#    0.000    0.000    3.750    5.250    1.750    6.000 
#    0.000    0.000    0.000    0.000    0.000    0.000 
#    0.000    0.000    0.000    0.000    0.000    0.000 
#
# Total GULP energy -89819.016979 kJ/mol
# GULP energy per Si atom -5613.688561 kJ/mol
# Density = 2.499966 g / cm^3
# Si number density = 25.056691 Si / 1000 Ang^3
#
#
#
# Elastic Constant Matrix: (Units=GPa)
#
#
# Indices 1 2 3 4 5 6 
#
# 1 56.7325 19.7959 21.2868 0.0000 -6.7907 0.0000
# 2 19.7959 172.1750 49.5428 0.0000 1.0010 0.0000
# 3 21.2868 49.5428 167.3728 0.0000 1.5703 0.0000
# 4 0.0000 0.0000 0.0000 48.0087 0.0000 4.4665
# 5 -6.7907 1.0010 1.5703 0.0000 34.9073 0.0000
# 6 0.0000 0.0000 0.0000 4.4665 0.0000 16.0671
#
#
#
# Elastic Compliance Matrix: (Units=1/GPa)
#
#
# Indices 1 2 3 4 5 6 
#
# 1 0.019436 -0.001679 -0.002012 0.000000 0.003920 0.000000
# 2 -0.001679 0.006494 -0.001705 0.000000 -0.000436 0.000000
# 3 -0.002012 -0.001705 0.006741 0.000000 -0.000646 0.000000
# 4 0.000000 0.000000 0.000000 0.021383 0.000000 -0.005944
# 5 0.003920 -0.000436 -0.000646 0.000000 0.029451 0.000000
# 6 0.000000 0.000000 0.000000 -0.005944 0.000000 0.063892
#
#
# Mechanical properties :
#
#
# Convention : Reuss Voigt Hill
#
# Bulk Modulus (GPa) = 45.70097 64.17015 54.93556
# Shear Modulus (GPa) = 30.21491 40.17359 35.19425
#
# Velocity S-wave (km/s) = 3.47632 4.00848 3.75185
# Velocity P-wave (km/s) = 5.86444 6.86217 6.38283
#
# Compressibility (1/GPa) = 0.02188137
#
# Stress axis : x y z
#
# Youngs Moduli (GPa) = 51.44999 153.98603 148.34124
#
# Poissons Ratio (x) = 0.25848 0.29844
# Poissons Ratio (y) = 0.08636 0.25288
# Poissons Ratio (z) = 0.10351 0.26250
#
# Static dielectric constant tensor:
#      x y z
#    x 1.976460 0.000000 0.017580 
#    y 0.000000 1.959280 0.000000 
#    z 0.017580 0.000000 1.977450 
# 
# From -- ./inp_files/5785.got.cif
#   From: 2010.05.17/outbox.cif.g08.bks.cpg/sg4_3_cif.got.tgz:5785.got - 2010.06.03 18:43:04.
