data_PCOD9119814
_publ_section_title
;
Structure prediction by ZEFSAII (Michael W. Deem and Ramdas Pophale) SiO2 
 PCOD9119814
Probable space group: P 21
;
_chemical_formula_sum "Si O2"
_cell_formula_units_Z 16
_cell_length_a 15.000000
_cell_length_b 9.000000
_cell_length_c 15.000000
_cell_angle_alpha 90.000000
_cell_angle_beta 20.000000
_cell_angle_gamma 90.000000
_cell_volume 692.590790
_symmetry_space_group_name_H-M "P 21"
_symmetry_group_IT_number 4
_symmetry_cell_setting 'monoclinic'
loop_
_space_group_symop_operation_xyz
x,y,z
-x,1/2+y,-z
loop_
_atom_site_type_symbol
_atom_site_label
_atom_site_fract_x
_atom_site_fract_y
_atom_site_fract_z
Si Si1 0.666106 0.962450 0.836163
Si Si2 0.205093 0.045289 0.793466
Si Si3 0.382616 0.946541 0.913012
Si Si4 0.690241 0.206237 0.280105
Si Si5 0.801933 0.275466 0.658533
Si Si6 0.414558 0.609439 0.823975
Si Si7 0.097423 0.950352 0.691380
Si Si8 0.148854 0.627648 0.582980
O O1 0.496996 0.968549 0.904301
O O2 0.934328 0.869380 0.570168
O O3 0.746743 0.134853 0.776527
O O4 0.458632 0.878137 0.095068
O O5 0.269789 0.882205 0.769449
O O6 0.144606 0.010593 0.746406
O O7 0.444819 0.159747 0.570658
O O8 0.949655 0.124811 0.071436
O O9 0.385362 0.771121 0.893587
O O10 0.588548 0.031381 0.655889
O O11 0.100225 0.021638 0.170454
O O12 0.633140 0.139269 0.236303
O O13 0.852015 0.199301 0.515607
O O14 0.695636 0.533280 0.566322
O O15 0.191586 0.496891 0.065383
O O16 0.137913 0.774516 0.653115
#
# Coordination Sequence:
#
# PCOD9119814 Si02
#       8
#     2   2   2   2   2   2   2   2
#     4  11  23  40  59  84 114 146 187 234 281 335
#     4  10  21  37  58  85 117 149 189 233 277 331
#     4  11  23  40  59  84 115 148 188 234 280 335
#     4  10  21  37  58  85 117 149 189 233 277 331
#     4  11  23  40  59  84 114 146 187 234 281 335
#     4  10  22  39  58  85 116 149 189 233 278 333
#     4  10  22  39  58  85 116 149 189 233 278 333
#     4  11  23  40  59  84 115 148 188 234 280 335
#
# _framework density 23.101664
#
# number of rings (size 3 to 8) (size 9 to 14) (size 15 to 20)
#    0.000    1.500    0.000    6.000    0.000    5.000 
#    0.000    0.000    0.000    0.000    0.000    0.000 
#    0.000    0.000    0.000    0.000    0.000    0.000 
#
# Total GULP energy -89557.302564 kJ/mol
# GULP energy per Si atom -5597.331410 kJ/mol
# Density = 2.304908 g / cm^3
# Si number density = 23.101664 Si / 1000 Ang^3
#
#
#
# Elastic Constant Matrix: (Units=GPa)
#
#
# Indices 1 2 3 4 5 6 
#
# 1 14.1066 5.5025 16.9659 0.0000 -2.5939 0.0000
# 2 5.5025 75.5923 12.5914 0.0000 7.0939 0.0000
# 3 16.9659 12.5914 126.7428 0.0000 -10.3673 0.0000
# 4 0.0000 0.0000 0.0000 56.7352 0.0000 -4.5061
# 5 -2.5939 7.0939 -10.3673 0.0000 11.1764 0.0000
# 6 0.0000 0.0000 0.0000 -4.5061 0.0000 36.1637
#
#
#
# Elastic Compliance Matrix: (Units=1/GPa)
#
#
# Indices 1 2 3 4 5 6 
#
# 1 0.088025 -0.006173 -0.009932 0.000000 0.015135 0.000000
# 2 -0.006173 0.015149 -0.001712 0.000000 -0.012637 0.000000
# 3 -0.009932 -0.001712 0.010053 0.000000 0.008107 0.000000
# 4 0.000000 0.000000 0.000000 0.017802 0.000000 0.002218
# 5 0.015135 -0.012637 0.008107 0.000000 0.108527 0.000000
# 6 0.000000 0.000000 0.000000 0.002218 0.000000 0.027928
#
#
# Mechanical properties :
#
#
# Convention : Reuss Voigt Hill
#
# Bulk Modulus (GPa) = 12.88793 31.84015 22.36404
# Shear Modulus (GPa) = 15.19831 32.90719 24.05275
#
# Velocity S-wave (km/s) = 2.56772 3.77828 3.23022
# Velocity P-wave (km/s) = 3.79233 5.73118 4.85944
#
# Compressibility (1/GPa) = 0.07759196
#
# Stress axis : x y z
#
# Youngs Moduli (GPa) = 11.36040 66.00945 99.47566
#
# Poissons Ratio (x) = 0.40751 0.98797
# Poissons Ratio (y) = 0.07013 0.17033
# Poissons Ratio (z) = 0.11283 0.11303
#
# Static dielectric constant tensor:
#      x y z
#    x 1.921790 0.000000 0.036380 
#    y 0.000000 1.827490 0.000000 
#    z 0.036380 0.000000 1.875330 
# 
# From -- ./inp_files/14177.got.cif
#   From: 2010.05.17/outbox.ucp.g08.bks.cvg/sg4_8_cif.got.tgz:14177.got - 2010.06.11 12:51:24.
