data_PCOD9119761
_publ_section_title
;
Structure prediction by ZEFSAII (Michael W. Deem and Ramdas Pophale) SiO2 
 PCOD9119761
Probable space group: P 21
;
_chemical_formula_sum "Si O2"
_cell_formula_units_Z 16
_cell_length_a 10.531591
_cell_length_b 9.427439
_cell_length_c 8.288858
_cell_angle_alpha 90.000000
_cell_angle_beta 130.444869
_cell_angle_gamma 90.000000
_cell_volume 626.302999
_symmetry_space_group_name_H-M "P 21"
_symmetry_group_IT_number 4
_symmetry_cell_setting 'monoclinic'
loop_
_space_group_symop_operation_xyz
x,y,z
-x,1/2+y,-z
loop_
_atom_site_type_symbol
_atom_site_label
_atom_site_fract_x
_atom_site_fract_y
_atom_site_fract_z
Si Si1 0.959757 0.555860 0.330548
Si Si2 0.475431 0.902448 0.606010
Si Si3 0.772185 0.642660 0.503959
Si Si4 0.344397 0.649523 0.666540
Si Si5 0.496906 0.879046 0.254737
Si Si6 0.167553 0.505359 0.011266
Si Si7 0.940910 0.702022 0.996595
Si Si8 0.197982 0.766308 0.838818
O O1 0.875869 0.615673 0.424280
O O2 0.940301 0.385077 0.307718
O O3 0.153933 0.599656 0.481640
O O4 0.871501 0.621838 0.097838
O O5 0.431380 0.738770 0.598137
O O6 0.512690 0.928593 0.450795
O O7 0.645431 0.948742 0.832722
O O8 0.320628 0.996266 0.532738
O O9 0.632082 0.757086 0.343664
O O10 0.849137 0.689487 0.745017
O O11 0.454339 0.515785 0.808070
O O12 0.324866 0.760130 0.795544
O O13 0.312392 0.822450 0.076912
O O14 0.053323 0.366631 0.946318
O O15 0.148435 0.604830 0.839135
O O16 0.111466 0.617000 0.101522
#
# Coordination Sequence:
#
# PCOD9119761 Si02
#       8
#     2   2   2   2   2   2   2   2
#     4  12  30  53  82 123 172 225 286 348 435 511
#     4  12  26  54  78 121 165 222 282 353 428 506
#     4  12  27  53  83 120 172 221 283 358 426 515
#     4  12  31  50  83 120 167 219 284 361 428 514
#     4  12  28  48  82 116 166 221 285 355 431 508
#     4  12  28  51  84 122 167 219 283 349 426 513
#     4  12  29  51  86 122 169 221 279 346 434 511
#     4  12  29  52  82 120 168 224 290 352 430 516
#
# _framework density 25.54674
#
# number of rings (size 3 to 8) (size 9 to 14) (size 15 to 20)
#    0.000    0.000    3.750    3.750   14.000    0.000 
#    0.000    0.000    0.000    0.000    0.000    0.000 
#    0.000    0.000    0.000    0.000    0.000    0.000 
#
# Total GULP energy -89541.488456 kJ/mol
# GULP energy per Si atom -5596.343029 kJ/mol
# Density = 2.548859 g / cm^3
# Si number density = 25.546740 Si / 1000 Ang^3
#
#
#
# Elastic Constant Matrix: (Units=GPa)
#
#
# Indices 1 2 3 4 5 6 
#
# 1 113.8696 52.1791 36.6037 0.0000 -6.0917 0.0000
# 2 52.1791 190.9802 43.3870 0.0000 5.0624 0.0000
# 3 36.6037 43.3870 68.2015 0.0000 -4.7990 0.0000
# 4 0.0000 0.0000 0.0000 36.1985 0.0000 2.1991
# 5 -6.0917 5.0624 -4.7990 0.0000 28.8065 0.0000
# 6 0.0000 0.0000 0.0000 2.1991 0.0000 64.0638
#
#
#
# Elastic Compliance Matrix: (Units=1/GPa)
#
#
# Indices 1 2 3 4 5 6 
#
# 1 0.011333 -0.002103 -0.004603 0.000000 0.001999 0.000000
# 2 -0.002103 0.006599 -0.003220 0.000000 -0.002141 0.000000
# 3 -0.004603 -0.003220 0.019380 0.000000 0.002821 0.000000
# 4 0.000000 0.000000 0.000000 0.027683 0.000000 -0.000950
# 5 0.001999 -0.002141 0.002821 0.000000 0.035983 0.000000
# 6 0.000000 0.000000 0.000000 -0.000950 0.000000 0.015642
#
#
# Mechanical properties :
#
#
# Convention : Reuss Voigt Hill
#
# Bulk Modulus (GPa) = 57.27941 70.82119 64.05030
# Shear Modulus (GPa) = 35.13881 41.87252 38.50567
#
# Velocity S-wave (km/s) = 3.71276 4.05292 3.88656
# Velocity P-wave (km/s) = 6.39136 7.04868 6.72805
#
# Compressibility (1/GPa) = 0.01745828
#
# Stress axis : x y z
#
# Youngs Moduli (GPa) = 88.24121 151.53656 51.59996
#
# Poissons Ratio (x) = 0.31875 0.23753
# Poissons Ratio (y) = 0.18561 0.16614
# Poissons Ratio (z) = 0.40621 0.48792
#
# Static dielectric constant tensor:
#      x y z
#    x 2.069960 0.000000 -0.016630 
#    y 0.000000 1.967880 0.000000 
#    z -0.016630 0.000000 2.023450 
# 
# From -- ./inp_files/8059.got.cif
#   From: 2010.05.17/outbox.cif.g08.bks.cpg/sg4_5_cif.got.tgz:8059.got - 2010.06.03 18:43:04.
