data_PCOD9119573
_publ_section_title
;
Structure prediction by ZEFSAII (Michael W. Deem and Ramdas Pophale) SiO2 
 PCOD9119573
Probable space group: P 21
;
_chemical_formula_sum "Si O2"
_cell_formula_units_Z 16
_cell_length_a 14.969109
_cell_length_b 9.184603
_cell_length_c 5.637931
_cell_angle_alpha 90.000000
_cell_angle_beta 127.465259
_cell_angle_gamma 90.000000
_cell_volume 615.240173
_symmetry_space_group_name_H-M "P 21"
_symmetry_group_IT_number 4
_symmetry_cell_setting 'monoclinic'
loop_
_space_group_symop_operation_xyz
x,y,z
-x,1/2+y,-z
loop_
_atom_site_type_symbol
_atom_site_label
_atom_site_fract_x
_atom_site_fract_y
_atom_site_fract_z
Si Si1 0.451195 0.515580 0.826645
Si Si2 0.863128 0.110687 0.420569
Si Si3 0.351120 0.636889 0.172240
Si Si4 0.137257 0.335885 0.352739
Si Si5 0.626645 0.686984 0.339301
Si Si6 0.896229 0.386113 0.754886
Si Si7 0.299607 0.959246 0.190641
Si Si8 0.102453 0.113014 0.613352
O O1 0.399641 0.574586 0.496486
O O2 0.437812 0.340755 0.795911
O O3 0.398775 0.576393 0.994384
O O4 0.577519 0.581048 0.055739
O O5 0.855319 0.276334 0.487068
O O6 0.994267 0.079891 0.592209
O O7 0.826385 0.002643 0.569369
O O8 0.781202 0.095351 0.065853
O O9 0.360003 0.812980 0.199812
O O10 0.243331 0.240699 0.444316
O O11 0.116881 0.283468 0.592258
O O12 0.015794 0.327107 0.038039
O O13 0.621133 0.579910 0.557723
O O14 0.793364 0.400746 0.768351
O O15 0.921572 0.540950 0.679206
O O16 0.216796 0.045380 0.884968
#
# Coordination Sequence:
#
# PCOD9119573 Si02
#       8
#     2   2   2   2   2   2   2   2
#     4  12  31  55  84 121 162 217 294 360 420 491
#     4  12  24  44  75 115 160 216 270 336 419 507
#     4  12  28  53  83 117 160 222 284 354 421 495
#     4  12  25  44  78 113 168 211 272 334 421 508
#     4  12  29  54  84 120 163 225 281 362 421 499
#     4  12  24  48  71 117 166 213 267 332 414 518
#     4  12  26  49  80 114 160 222 269 346 427 504
#     4  12  25  43  71 117 163 210 269 332 413 518
#
# _framework density 26.006103
#
# number of rings (size 3 to 8) (size 9 to 14) (size 15 to 20)
#    0.000    0.000    5.000    4.500    3.500    4.000 
#    0.000    0.000    0.000    0.000    0.000    0.000 
#    0.000    0.000    0.000    0.000    0.000    0.000 
#
# Total GULP energy -89502.551249 kJ/mol
# GULP energy per Si atom -5593.909453 kJ/mol
# Density = 2.594691 g / cm^3
# Si number density = 26.006103 Si / 1000 Ang^3
#
#
#
# Elastic Constant Matrix: (Units=GPa)
#
#
# Indices 1 2 3 4 5 6 
#
# 1 124.4050 44.1074 39.5241 0.0000 -0.6587 0.0000
# 2 44.1074 148.7854 65.4728 0.0000 10.1124 0.0000
# 3 39.5241 65.4728 170.1671 0.0000 4.9891 0.0000
# 4 0.0000 0.0000 0.0000 60.1296 0.0000 1.8167
# 5 -0.6587 10.1124 4.9891 0.0000 24.6872 0.0000
# 6 0.0000 0.0000 0.0000 1.8167 0.0000 33.0895
#
#
#
# Elastic Compliance Matrix: (Units=1/GPa)
#
#
# Indices 1 2 3 4 5 6 
#
# 1 0.009269 -0.002263 -0.001324 0.000000 0.001442 0.000000
# 2 -0.002263 0.008827 -0.002779 0.000000 -0.003114 0.000000
# 3 -0.001324 -0.002779 0.007264 0.000000 -0.000365 0.000000
# 4 0.000000 0.000000 0.000000 0.016658 0.000000 -0.000915
# 5 0.001442 -0.003114 -0.000365 0.000000 0.041895 0.000000
# 6 0.000000 0.000000 0.000000 -0.000915 0.000000 0.030271
#
#
# Mechanical properties :
#
#
# Convention : Reuss Voigt Hill
#
# Bulk Modulus (GPa) = 79.19783 82.39623 80.79703
# Shear Modulus (GPa) = 38.13117 43.19814 40.66465
#
# Velocity S-wave (km/s) = 3.83330 4.08005 3.95860
# Velocity P-wave (km/s) = 7.07898 7.34493 7.21318
#
# Compressibility (1/GPa) = 0.01262661
#
# Stress axis : x y z
#
# Youngs Moduli (GPa) = 107.88633 113.29415 137.66134
#
# Poissons Ratio (x) = 0.25638 0.18233
# Poissons Ratio (y) = 0.24414 0.38258
# Poissons Ratio (z) = 0.14289 0.31486
#
# Static dielectric constant tensor:
#      x y z
#    x 2.137920 0.000000 -0.003290 
#    y 0.000000 1.973830 0.000000 
#    z -0.003290 0.000000 2.006490 
# 
# From -- ./inp_files/4130.got.cif
#   From: 2010.05.17/outbox.cif.g08.bks.cpg/sg4_3_cif.got.tgz:4130.got - 2010.06.03 18:43:04.
