data_PCOD9119387
_publ_section_title
;
Structure prediction by ZEFSAII (Michael W. Deem and Ramdas Pophale) SiO2 
 PCOD9119387
Probable space group: P 21
;
_chemical_formula_sum "Si O2"
_cell_formula_units_Z 16
_cell_length_a 6.485978
_cell_length_b 9.873809
_cell_length_c 10.996725
_cell_angle_alpha 90.000000
_cell_angle_beta 110.479734
_cell_angle_gamma 90.000000
_cell_volume 659.733575
_symmetry_space_group_name_H-M "P 21"
_symmetry_group_IT_number 4
_symmetry_cell_setting 'monoclinic'
loop_
_space_group_symop_operation_xyz
x,y,z
-x,1/2+y,-z
loop_
_atom_site_type_symbol
_atom_site_label
_atom_site_fract_x
_atom_site_fract_y
_atom_site_fract_z
Si Si1 0.025125 0.743170 0.930123
Si Si2 0.632802 0.886515 0.731670
Si Si3 0.372646 0.672407 0.377983
Si Si4 0.296589 0.513173 0.876694
Si Si5 0.186296 0.294595 0.491133
Si Si6 0.687426 0.468220 0.145394
Si Si7 0.048682 0.239133 0.806137
Si Si8 0.788716 0.082935 0.403122
O O1 0.090896 0.600670 0.884388
O O2 0.183597 0.855831 0.904725
O O3 0.784462 0.801724 0.853511
O O4 0.044004 0.730930 0.076948
O O5 0.700293 0.827590 0.615156
O O6 0.397278 0.896799 0.748542
O O7 0.679840 0.045430 0.719595
O O8 0.607788 0.732109 0.393378
O O9 0.366624 0.622355 0.516044
O O10 0.163298 0.769612 0.320374
O O11 0.223804 0.359046 0.843064
O O12 0.340417 0.570640 0.750720
O O13 0.488529 0.519014 0.016846
O O14 0.118882 0.435515 0.539077
O O15 0.988551 0.189302 0.435763
O O16 0.838920 0.597065 0.204798
#
# Coordination Sequence:
#
# PCOD9119387 Si02
#       8
#     2   2   2   2   2   2   2   2
#     4  12  25  50  74 110 156 192 250 308 385 447
#     4  11  25  49  75 109 147 205 242 304 383 445
#     4  11  27  48  76 106 154 202 249 305 370 454
#     4  12  26  44  78 114 145 190 253 318 365 445
#     4  11  27  50  79 111 150 203 252 310 374 449
#     4  12  27  48  79 108 153 204 242 308 394 446
#     4  12  26  49  74 112 150 197 252 311 372 453
#     4  11  27  48  75 112 151 199 250 314 371 443
#
# _framework density 24.252213999999999
#
# number of rings (size 3 to 8) (size 9 to 14) (size 15 to 20)
#    0.000    0.500    3.750    3.000    7.000    4.000 
#    0.000    0.000    0.000    0.000    0.000    0.000 
#    0.000    0.000    0.000    0.000    0.000    0.000 
#
# Total GULP energy -89581.900435 kJ/mol
# GULP energy per Si atom -5598.868777 kJ/mol
# Density = 2.419702 g / cm^3
# Si number density = 24.252214 Si / 1000 Ang^3
#
#
#
# Elastic Constant Matrix: (Units=GPa)
#
#
# Indices 1 2 3 4 5 6 
#
# 1 89.1780 55.6614 9.2305 0.0000 -8.8753 0.0000
# 2 55.6614 126.1455 13.3347 0.0000 -1.2642 0.0000
# 3 9.2305 13.3347 85.5577 0.0000 -21.9797 0.0000
# 4 0.0000 0.0000 0.0000 28.8624 0.0000 -4.3976
# 5 -8.8753 -1.2642 -21.9797 0.0000 53.2575 0.0000
# 6 0.0000 0.0000 0.0000 -4.3976 0.0000 38.1437
#
#
#
# Elastic Compliance Matrix: (Units=1/GPa)
#
#
# Indices 1 2 3 4 5 6 
#
# 1 0.015793 -0.006945 0.000014 0.000000 0.002473 0.000000
# 2 -0.006945 0.011121 -0.001357 0.000000 -0.001454 0.000000
# 3 0.000014 -0.001357 0.013301 0.000000 0.005459 0.000000
# 4 0.000000 0.000000 0.000000 0.035267 0.000000 0.004066
# 5 0.002473 -0.001454 0.005459 0.000000 0.021407 0.000000
# 6 0.000000 0.000000 0.000000 0.004066 0.000000 0.026685
#
#
# Mechanical properties :
#
#
# Convention : Reuss Voigt Hill
#
# Bulk Modulus (GPa) = 42.30680 50.81491 46.56086
# Shear Modulus (GPa) = 33.77671 38.89636 36.33653
#
# Velocity S-wave (km/s) = 3.73597 4.00913 3.87496
# Velocity P-wave (km/s) = 6.00769 6.51375 6.26583
#
# Compressibility (1/GPa) = 0.02363686
#
# Stress axis : x y z
#
# Youngs Moduli (GPa) = 63.31825 89.92067 75.18470
#
# Poissons Ratio (x) = 0.62454 -0.00104
# Poissons Ratio (y) = 0.43977 0.10205
# Poissons Ratio (z) = -0.00088 0.12206
#
# Static dielectric constant tensor:
#      x y z
#    x 1.913560 0.000000 0.002670 
#    y 0.000000 1.908150 0.000000 
#    z 0.002670 0.000000 1.973520 
# 
# From -- ./inp_files/10350.got.cif
#   From: 2010.05.17/outbox.cif.g08.bks.cpg/sg4_6_cif.got.tgz:10350.got - 2010.06.03 18:43:04.
