data_PCOD9119705
_publ_section_title
;
Structure prediction by ZEFSAII (Michael W. Deem and Ramdas Pophale) SiO2 
 PCOD9119705
Probable space group: P 21
;
_chemical_formula_sum "Si O2"
_cell_formula_units_Z 8
_cell_length_a 12.998665
_cell_length_b 4.969806
_cell_length_c 15.448907
_cell_angle_alpha 90.000000
_cell_angle_beta 18.699269
_cell_angle_gamma 90.000000
_cell_volume 319.963686
_symmetry_space_group_name_H-M "P 21"
_symmetry_group_IT_number 4
_symmetry_cell_setting 'monoclinic'
loop_
_space_group_symop_operation_xyz
x,y,z
-x,1/2+y,-z
loop_
_atom_site_type_symbol
_atom_site_label
_atom_site_fract_x
_atom_site_fract_y
_atom_site_fract_z
Si Si1 0.796619 0.827740 0.364432
Si Si2 0.822202 0.812449 0.883479
Si Si3 0.084107 0.728053 0.486468
Si Si4 0.196570 0.121621 0.829210
O O1 0.696843 0.705540 0.351765
O O2 0.981473 0.589678 0.264508
O O3 0.474608 0.963192 0.658026
O O4 0.030071 0.083086 0.172598
O O5 0.895673 0.715799 0.727048
O O6 0.448051 0.836554 0.202588
O O7 0.094342 0.435694 0.434854
O O8 0.085126 0.403610 0.957054
#
# Coordination Sequence:
#
# PCOD9119705 Si02
#       4
#     2   2   2   2
#     4  12  27  47  66 116 140 200 252 299 369 432
#     4  12  27  45  80 106 148 190 252 309 361 466
#     4  12  26  50  74 108 144 190 240 314 392 442
#     4  12  26  46  74 100 158 204 246 310 368 438
#
# _framework density 25.002837
#
# number of rings (size 3 to 8) (size 9 to 14) (size 15 to 20)
#    0.000    0.000    0.000   10.500   10.500    0.000 
#    0.000    0.000    0.000    0.000    0.000    0.000 
#    0.000    0.000    0.000    0.000    0.000    0.000 
#
# Total GULP energy -44846.332241 kJ/mol
# GULP energy per Si atom -5605.791530 kJ/mol
# Density = 2.494593 g / cm^3
# Si number density = 25.002837 Si / 1000 Ang^3
#
#
#
# Elastic Constant Matrix: (Units=GPa)
#
#
# Indices 1 2 3 4 5 6 
#
# 1 28.6463 2.2285 9.2153 0.0000 12.0726 0.0000
# 2 2.2285 148.1568 27.7500 0.0000 -7.2311 0.0000
# 3 9.2153 27.7500 99.3988 0.0000 -2.0537 0.0000
# 4 0.0000 0.0000 0.0000 58.9778 0.0000 -10.8171
# 5 12.0726 -7.2311 -2.0537 0.0000 41.8428 0.0000
# 6 0.0000 0.0000 0.0000 -10.8171 0.0000 44.8919
#
#
#
# Elastic Compliance Matrix: (Units=1/GPa)
#
#
# Indices 1 2 3 4 5 6 
#
# 1 0.041364 -0.000478 -0.003954 0.000000 -0.012211 0.000000
# 2 -0.000478 0.007182 -0.001934 0.000000 0.001284 0.000000
# 3 -0.003954 -0.001934 0.010995 0.000000 0.001346 0.000000
# 4 0.000000 0.000000 0.000000 0.017740 0.000000 0.004274
# 5 -0.012211 0.001284 0.001346 0.000000 0.027710 0.000000
# 6 0.000000 0.000000 0.000000 0.004274 0.000000 0.023306
#
#
# Mechanical properties :
#
#
# Convention : Reuss Voigt Hill
#
# Bulk Modulus (GPa) = 21.36334 39.39881 30.38108
# Shear Modulus (GPa) = 31.92242 44.94303 38.43273
#
# Velocity S-wave (km/s) = 3.57704 4.24431 3.92488
# Velocity P-wave (km/s) = 5.06194 6.30959 5.71988
#
# Compressibility (1/GPa) = 0.04680915
#
# Stress axis : x y z
#
# Youngs Moduli (GPa) = 24.17579 139.24219 90.95183
#
# Poissons Ratio (x) = 0.06650 0.35960
# Poissons Ratio (y) = 0.01155 0.17592
# Poissons Ratio (z) = 0.09559 0.26932
#
# Static dielectric constant tensor:
#      x y z
#    x 1.996700 0.000000 -0.036450 
#    y 0.000000 1.901390 0.000000 
#    z -0.036450 0.000000 1.987870 
# 
# From -- ./inp_files/2281.got.cif
#   From: 2010.05.17/outbox.cif.g08.bks.cpg/sg4_2_cif.got.tgz:2281.got - 2010.06.03 18:43:04.
