data_PCOD9119867
_publ_section_title
;
Structure prediction by ZEFSAII (Michael W. Deem and Ramdas Pophale) SiO2 
 PCOD9119867
Probable space group: P 21
;
_chemical_formula_sum "Si O2"
_cell_formula_units_Z 16
_cell_length_a 15.000000
_cell_length_b 9.000000
_cell_length_c 6.000000
_cell_angle_alpha 90.000000
_cell_angle_beta 120.000000
_cell_angle_gamma 90.000000
_cell_volume 701.480577
_symmetry_space_group_name_H-M "P 21"
_symmetry_group_IT_number 4
_symmetry_cell_setting 'monoclinic'
loop_
_space_group_symop_operation_xyz
x,y,z
-x,1/2+y,-z
loop_
_atom_site_type_symbol
_atom_site_label
_atom_site_fract_x
_atom_site_fract_y
_atom_site_fract_z
Si Si1 0.391621 0.802830 0.410775
Si Si2 0.127982 0.477398 0.118432
Si Si3 0.452108 0.320839 0.030676
Si Si4 0.879272 0.478546 0.382057
Si Si5 0.206495 0.729633 0.512014
Si Si6 0.368238 0.999732 0.986131
Si Si7 0.011142 0.243496 0.258198
Si Si8 0.697356 0.053401 0.989424
O O1 0.501207 0.809745 0.663567
O O2 0.299102 0.785941 0.473382
O O3 0.376912 0.954296 0.255755
O O4 0.380015 0.650169 0.257826
O O5 0.170452 0.571081 0.378919
O O6 0.079705 0.326624 0.155876
O O7 0.221451 0.462061 0.058845
O O8 0.054707 0.605496 0.921424
O O9 0.407975 0.156442 0.937689
O O10 0.549585 0.379222 0.011043
O O11 0.364033 0.445370 0.922932
O O12 0.879411 0.358325 0.587270
O O13 0.923232 0.643925 0.481090
O O14 0.942872 0.379496 0.279355
O O15 0.755183 0.493552 0.203446
O O16 0.243589 0.683631 0.804286
#
# Coordination Sequence:
#
# PCOD9119867 Si02
#       8
#     2   2   2   2   2   2   2   2
#     4  11  21  44  69 103 139 191 236 299 361 443
#     4  11  26  46  74 109 141 193 247 310 369 448
#     4  12  26  43  71 102 145 193 240 302 372 451
#     4  12  25  48  74 107 148 199 245 314 378 445
#     4  11  21  46  74  99 150 186 233 312 373 433
#     4  12  26  45  71 106 147 191 247 302 374 447
#     4  12  27  47  77 109 148 197 254 312 383 444
#     4  11  24  45  72 103 148 186 240 303 376 439
#
# _framework density 22.808900000000001
#
# number of rings (size 3 to 8) (size 9 to 14) (size 15 to 20)
#    0.000    0.500    3.750    4.500    1.750    3.000 
#    2.250    0.000    0.000    0.000    0.000    0.000 
#    0.000    0.000    0.000    0.000    0.000    0.000 
#
# Total GULP energy -89262.308935 kJ/mol
# GULP energy per Si atom -5578.894308 kJ/mol
# Density = 2.275699 g / cm^3
# Si number density = 22.808900 Si / 1000 Ang^3
#
#
#
# Elastic Constant Matrix: (Units=GPa)
#
#
# Indices 1 2 3 4 5 6 
#
# 1 114.1383 59.1123 16.8541 0.0000 6.3977 0.0000
# 2 59.1123 109.2933 14.4465 0.0000 3.5516 0.0000
# 3 16.8541 14.4465 51.2182 0.0000 15.1098 0.0000
# 4 0.0000 0.0000 0.0000 29.1131 0.0000 -5.5264
# 5 6.3977 3.5516 15.1098 0.0000 26.1841 0.0000
# 6 0.0000 0.0000 0.0000 -5.5264 0.0000 54.4373
#
#
#
# Elastic Compliance Matrix: (Units=1/GPa)
#
#
# Indices 1 2 3 4 5 6 
#
# 1 0.012444 -0.006436 -0.001977 0.000000 -0.001027 0.000000
# 2 -0.006436 0.012835 -0.001751 0.000000 0.000842 0.000000
# 3 -0.001977 -0.001751 0.024653 0.000000 -0.013506 0.000000
# 4 0.000000 0.000000 0.000000 0.035024 0.000000 0.003556
# 5 -0.001027 0.000842 -0.013506 0.000000 0.046122 0.000000
# 6 0.000000 0.000000 0.000000 0.003556 0.000000 0.018731
#
#
# Mechanical properties :
#
#
# Convention : Reuss Voigt Hill
#
# Bulk Modulus (GPa) = 33.77783 50.60841 42.19312
# Shear Modulus (GPa) = 27.77751 34.22936 31.00344
#
# Velocity S-wave (km/s) = 3.49354 3.87809 3.69083
# Velocity P-wave (km/s) = 5.57802 6.50300 6.05819
#
# Compressibility (1/GPa) = 0.02960522
#
# Stress axis : x y z
#
# Youngs Moduli (GPa) = 80.36137 77.91468 40.56317
#
# Poissons Ratio (x) = 0.50144 0.08018
# Poissons Ratio (y) = 0.51718 0.07101
# Poissons Ratio (z) = 0.15885 0.13640
#
# Static dielectric constant tensor:
#      x y z
#    x 1.848610 0.000000 -0.005440 
#    y 0.000000 1.846510 0.000000 
#    z -0.005440 0.000000 2.020860 
# 
# From -- ./inp_files/3664.got.cif
#   From: 2010.05.17/outbox.ucp.g08.bks.cvg/sg4_2_cif.got.tgz:3664.got - 2010.06.11 12:51:24.
