data_PCOD9119136
_publ_section_title
;
Structure prediction by ZEFSAII (Michael W. Deem and Ramdas Pophale) SiO2 
 PCOD9119136
Probable space group: P 21
;
_chemical_formula_sum "Si O2"
_cell_formula_units_Z 16
_cell_length_a 11.997564
_cell_length_b 5.836382
_cell_length_c 15.187709
_cell_angle_alpha 90.000000
_cell_angle_beta 37.163734
_cell_angle_gamma 90.000000
_cell_volume 642.442354
_symmetry_space_group_name_H-M "P 21"
_symmetry_group_IT_number 4
_symmetry_cell_setting 'monoclinic'
loop_
_space_group_symop_operation_xyz
x,y,z
-x,1/2+y,-z
loop_
_atom_site_type_symbol
_atom_site_label
_atom_site_fract_x
_atom_site_fract_y
_atom_site_fract_z
Si Si1 0.243479 0.333710 0.267409
Si Si2 0.111843 0.765416 0.741246
Si Si3 0.612414 0.439620 0.563185
Si Si4 0.776349 0.056359 0.962969
Si Si5 0.164673 0.967136 0.188054
Si Si6 0.720202 0.261789 0.180102
Si Si7 0.088153 0.172920 0.543354
Si Si8 0.508489 0.658331 0.203949
O O1 0.203476 0.198043 0.382076
O O2 0.395833 0.517132 0.202089
O O3 0.049686 0.460377 0.373571
O O4 0.280263 0.171393 0.160722
O O5 0.307811 0.793182 0.568060
O O6 0.145047 0.797481 0.823550
O O7 0.987904 0.551183 0.787431
O O8 0.967524 0.962617 0.806486
O O9 0.417143 0.565242 0.693978
O O10 0.756021 0.645665 0.481639
O O11 0.625728 0.285905 0.642838
O O12 0.724526 0.259712 0.927847
O O13 0.813412 0.161459 0.035102
O O14 0.634610 0.849615 0.075670
O O15 0.043045 0.879634 0.346720
O O16 0.618555 0.484450 0.201036
#
# Coordination Sequence:
#
# PCOD9119136 Si02
#       8
#     2   2   2   2   2   2   2   2
#     4  12  23  41  80 116 154 200 261 325 390 462
#     4  12  27  46  78 111 154 202 265 322 386 464
#     4  11  24  45  72 119 156 193 257 330 386 456
#     4  11  27  50  75 109 158 210 263 311 389 473
#     4  12  25  44  78 114 153 205 262 321 380 475
#     4  11  28  46  79 108 156 206 256 325 396 454
#     4  12  22  42  74 116 149 201 254 317 395 457
#     4  11  26  48  76 113 158 205 258 325 394 461
#
# _framework density 24.904958000000001
#
# number of rings (size 3 to 8) (size 9 to 14) (size 15 to 20)
#    0.000    0.500    5.000    2.250    5.250    1.000 
#    0.000    0.000   27.500    0.000    0.000    0.000 
#    0.000    0.000    0.000    0.000    0.000    0.000 
#
# Total GULP energy -89394.323744 kJ/mol
# GULP energy per Si atom -5587.145234 kJ/mol
# Density = 2.484827 g / cm^3
# Si number density = 24.904958 Si / 1000 Ang^3
#
#
#
# Elastic Constant Matrix: (Units=GPa)
#
#
# Indices 1 2 3 4 5 6 
#
# 1 103.6950 44.0066 24.9870 0.0000 24.0337 0.0000
# 2 44.0066 105.1805 42.2225 0.0000 9.9416 0.0000
# 3 24.9870 42.2225 116.9384 0.0000 28.5493 0.0000
# 4 0.0000 0.0000 0.0000 49.0178 0.0000 1.9420
# 5 24.0337 9.9416 28.5493 0.0000 36.3326 0.0000
# 6 0.0000 0.0000 0.0000 1.9420 0.0000 25.8141
#
#
#
# Elastic Compliance Matrix: (Units=1/GPa)
#
#
# Indices 1 2 3 4 5 6 
#
# 1 0.013584 -0.005318 0.001059 0.000000 -0.008363 0.000000
# 2 -0.005318 0.013202 -0.004464 0.000000 0.003413 0.000000
# 3 0.001059 -0.004464 0.012138 0.000000 -0.009017 0.000000
# 4 0.000000 0.000000 0.000000 0.020462 0.000000 -0.001539
# 5 -0.008363 0.003413 -0.009017 0.000000 0.039207 0.000000
# 6 0.000000 0.000000 0.000000 -0.001539 0.000000 0.038854
#
#
# Mechanical properties :
#
#
# Convention : Reuss Voigt Hill
#
# Bulk Modulus (GPa) = 46.55710 60.91624 53.73667
# Shear Modulus (GPa) = 30.85449 36.53940 33.69694
#
# Velocity S-wave (km/s) = 3.52360 3.83450 3.68233
# Velocity P-wave (km/s) = 5.94044 6.64207 6.30103
#
# Compressibility (1/GPa) = 0.02147900
#
# Stress axis : x y z
#
# Youngs Moduli (GPa) = 73.61854 75.74777 82.38384
#
# Poissons Ratio (x) = 0.40283 -0.08727
# Poissons Ratio (y) = 0.39151 0.36772
# Poissons Ratio (z) = -0.07799 0.33810
#
# Static dielectric constant tensor:
#      x y z
#    x 1.943340 0.000000 0.013670 
#    y 0.000000 2.101460 0.000000 
#    z 0.013670 0.000000 1.961760 
# 
# From -- ./inp_files/12473.got.cif
#   From: 2010.05.17/outbox.cif.g08.bks.cpg/sg4_7_cif.got.tgz:12473.got - 2010.06.03 18:43:04.
