data_PCOD9119365
_publ_section_title
;
Structure prediction by ZEFSAII (Michael W. Deem and Ramdas Pophale) SiO2 
 PCOD9119365
Probable space group: P 21
;
_chemical_formula_sum "Si O2"
_cell_formula_units_Z 10
_cell_length_a 4.906751
_cell_length_b 10.686289
_cell_length_c 9.330957
_cell_angle_alpha 90.000000
_cell_angle_beta 51.912037
_cell_angle_gamma 90.000000
_cell_volume 385.085815
_symmetry_space_group_name_H-M "P 21"
_symmetry_group_IT_number 4
_symmetry_cell_setting 'monoclinic'
loop_
_space_group_symop_operation_xyz
x,y,z
-x,1/2+y,-z
loop_
_atom_site_type_symbol
_atom_site_label
_atom_site_fract_x
_atom_site_fract_y
_atom_site_fract_z
Si Si1 0.657192 0.243800 0.902442
Si Si2 0.869704 0.723910 0.671106
Si Si3 0.813584 0.578023 0.133624
Si Si4 0.491906 0.474256 0.754394
Si Si5 0.494719 0.367131 0.440448
O O1 0.031821 0.196717 0.830055
O O2 0.610429 0.366138 0.823836
O O3 0.489025 0.128559 0.869401
O O4 0.424349 0.262697 0.119449
O O5 0.783245 0.582241 0.659916
O O6 0.818265 0.810682 0.549395
O O7 0.237606 0.752391 0.621078
O O8 0.682546 0.471117 0.281725
O O9 0.133037 0.528760 0.934614
O O10 0.428506 0.427095 0.615166
#
# Coordination Sequence:
#
# PCOD9119365 Si02
#       5
#     2   2   2   2   2
#     4  11  25  47  76  98 145 187 237 289 365 408
#     4  11  26  49  69 110 142 184 242 292 347 432
#     4  11  26  47  72 105 138 190 238 295 348 424
#     4  11  28  45  78 102 145 192 233 295 359 416
#     4  12  27  46  73 103 148 181 244 293 349 420
#
# _framework density 25.968236999999998
#
# number of rings (size 3 to 8) (size 9 to 14) (size 15 to 20)
#    0.000    0.800    2.000    3.600    8.400    6.400 
#    0.000    0.000    0.000    0.000    0.000    0.000 
#    0.000    0.000    0.000    0.000    0.000    0.000 
#
# Total GULP energy -56242.116719 kJ/mol
# GULP energy per Si atom -5624.211672 kJ/mol
# Density = 2.590913 g / cm^3
# Si number density = 25.968237 Si / 1000 Ang^3
#
#
#
# Elastic Constant Matrix: (Units=GPa)
#
#
# Indices 1 2 3 4 5 6 
#
# 1 84.8878 10.0424 23.8478 0.0000 12.3013 0.0000
# 2 10.0424 121.7139 70.0497 0.0000 11.8657 0.0000
# 3 23.8478 70.0497 120.2624 0.0000 28.8638 0.0000
# 4 0.0000 0.0000 0.0000 32.5320 0.0000 15.6831
# 5 12.3013 11.8657 28.8638 0.0000 41.7203 0.0000
# 6 0.0000 0.0000 0.0000 15.6831 0.0000 36.2769
#
#
#
# Elastic Compliance Matrix: (Units=1/GPa)
#
#
# Indices 1 2 3 4 5 6 
#
# 1 0.012689 0.000461 -0.002225 0.000000 -0.002333 0.000000
# 2 0.000461 0.012484 -0.007768 0.000000 0.001688 0.000000
# 3 -0.002225 -0.007768 0.015101 0.000000 -0.007582 0.000000
# 4 0.000000 0.000000 0.000000 0.038832 0.000000 -0.016788
# 5 -0.002333 0.001688 -0.007582 0.000000 0.029423 0.000000
# 6 0.000000 0.000000 0.000000 -0.016788 0.000000 0.034823
#
#
# Mechanical properties :
#
#
# Convention : Reuss Voigt Hill
#
# Bulk Modulus (GPa) = 47.14768 59.41600 53.28184
# Shear Modulus (GPa) = 29.50098 36.96746 33.23422
#
# Velocity S-wave (km/s) = 3.37418 3.77711 3.58131
# Velocity P-wave (km/s) = 5.77715 6.47704 6.13708
#
# Compressibility (1/GPa) = 0.02120995
#
# Stress axis : x y z
#
# Youngs Moduli (GPa) = 78.80955 80.10088 66.22147
#
# Poissons Ratio (x) = -0.03691 0.14732
# Poissons Ratio (y) = -0.03632 0.51442
# Poissons Ratio (z) = 0.17532 0.62224
#
# Static dielectric constant tensor:
#      x y z
#    x 1.955160 0.000000 -0.030830 
#    y 0.000000 2.015270 0.000000 
#    z -0.030830 0.000000 2.019110 
# 
# From -- ./inp_files/915.got.cif
#   From: 2010.05.17/outbox.cif.g08.bks.cpg/sg4_1_cif.got.tgz:915.got - 2010.06.03 18:43:04.
