data_PCOD9119932
_publ_section_title
;
Structure prediction by ZEFSAII (Michael W. Deem and Ramdas Pophale) SiO2 
 PCOD9119932
Probable space group: C 2
;
_chemical_formula_sum "Si O2"
_cell_formula_units_Z 20
_cell_length_a 21.706533
_cell_length_b 6.653665
_cell_length_c 4.910201
_cell_angle_alpha 90.000000
_cell_angle_beta 89.058167
_cell_angle_gamma 90.000000
_cell_volume 709.074694
_symmetry_space_group_name_H-M "C 2"
_symmetry_group_IT_number 5
_symmetry_cell_setting 'monoclinic'
loop_
_space_group_symop_operation_xyz
x,y,z
-x,y,-z
1/2+x,1/2+y,z
1/2-x,1/2+y,-z
loop_
_atom_site_type_symbol
_atom_site_label
_atom_site_fract_x
_atom_site_fract_y
_atom_site_fract_z
Si Si1 0.819778 0.650540 0.381676
Si Si2 0.056714 0.235781 0.662827
Si Si3 0.561151 0.300828 0.878397
Si Si4 0.749898 0.514251 0.909316
Si Si5 0.875904 0.147054 0.846555
O O1 0.892303 0.674809 0.311442
O O2 0.790824 0.487835 0.178664
O O3 0.796507 0.613788 0.687999
O O4 0.788586 0.854932 0.267471
O O5 0.000000 0.328162 0.500000
O O6 0.039629 0.000539 0.718071
O O7 0.114747 0.224967 0.456227
O O8 0.919201 0.283799 0.037968
O O9 0.500000 0.199377 0.000000
O O10 0.599385 0.417829 0.113926
O O11 0.693398 0.637122 0.051396
#
# Coordination Sequence:
#
# PCOD9119932 Si02
#       5
#     4   4   4   4   4
#     4  11  24  38  63  88 127 160 206 248 313 362
#     4  10  15  27  48  79 113 143 181 248 310 330
#     4   9  19  31  54  86 116 148 195 264 298 341
#     4  11  23  40  58  90 122 166 204 251 300 374
#     4   9  18  29  50  76 117 148 183 238 300 350
#
# _framework density 28.205776
#
# number of rings (size 3 to 8) (size 9 to 14) (size 15 to 20)
#    1.200    0.800    2.000    3.000    5.600    0.000 
#    0.000    0.000    0.000    0.000    0.000   61.600 
#    0.000    0.000    0.000    0.000    0.000    0.000 
#
# Total GULP energy -55871.907016 kJ/mol
# GULP energy per Si atom -5587.190702 kJ/mol
# Density = 2.814158 g / cm^3
# Si number density = 28.205776 Si / 1000 Ang^3
#
#
#
# Elastic Constant Matrix: (Units=GPa)
#
#
# Indices 1 2 3 4 5 6 
#
# 1 161.9659 2.3187 51.9450 0.0000 -39.5539 0.0000
# 2 2.3187 32.2913 -1.5624 0.0000 -17.1472 0.0000
# 3 51.9450 -1.5624 194.2149 0.0000 -25.9856 0.0000
# 4 0.0000 0.0000 0.0000 28.4285 0.0000 -4.6795
# 5 -39.5539 -17.1472 -25.9856 0.0000 67.0208 0.0000
# 6 0.0000 0.0000 0.0000 -4.6795 0.0000 30.8909
#
#
#
# Elastic Compliance Matrix: (Units=1/GPa)
#
#
# Indices 1 2 3 4 5 6 
#
# 1 0.007695 0.001724 -0.001453 0.000000 0.004419 0.000000
# 2 0.001724 0.036699 0.001294 0.000000 0.010908 0.000000
# 3 -0.001453 0.001294 0.005777 0.000000 0.001714 0.000000
# 4 0.000000 0.000000 0.000000 0.036075 0.000000 0.005465
# 5 0.004419 0.010908 0.001714 0.000000 0.020984 0.000000
# 6 0.000000 0.000000 0.000000 0.005465 0.000000 0.033200
#
#
# Mechanical properties :
#
#
# Convention : Reuss Voigt Hill
#
# Bulk Modulus (GPa) = 18.76168 54.87496 36.81832
# Shear Modulus (GPa) = 32.24389 47.65275 39.94832
#
# Velocity S-wave (km/s) = 3.38474 4.11477 3.76748
# Velocity P-wave (km/s) = 4.68417 6.48634 5.65748
#
# Compressibility (1/GPa) = 0.05330014
#
# Stress axis : x y z
#
# Youngs Moduli (GPa) = 129.96212 27.24837 173.09417
#
# Poissons Ratio (x) = -0.04697 0.25149
# Poissons Ratio (y) = -0.22401 -0.22394
# Poissons Ratio (z) = 0.18882 -0.03525
#
# Static dielectric constant tensor:
#      x y z
#    x 2.146040 0.000000 -0.019300 
#    y 0.000000 2.528900 0.000000 
#    z -0.019300 0.000000 2.071890 
# 
# From -- ./inp_files/9115.got.cif
#   From: 2010.05.17/outbox.cif.g08.bks.cpg/sg5_5_cif.got.tgz:9115.got - 2010.06.03 18:56:24.
