data_PCOD9119803
_publ_section_title
;
Structure prediction by ZEFSAII (Michael W. Deem and Ramdas Pophale) SiO2 
 PCOD9119803
Probable space group: P 21
;
_chemical_formula_sum "Si O2"
_cell_formula_units_Z 8
_cell_length_a 7.829460
_cell_length_b 5.210817
_cell_length_c 14.841012
_cell_angle_alpha 90.000000
_cell_angle_beta 150.408204
_cell_angle_gamma 90.000000
_cell_volume 298.997462
_symmetry_space_group_name_H-M "P 21"
_symmetry_group_IT_number 4
_symmetry_cell_setting 'monoclinic'
loop_
_space_group_symop_operation_xyz
x,y,z
-x,1/2+y,-z
loop_
_atom_site_type_symbol
_atom_site_label
_atom_site_fract_x
_atom_site_fract_y
_atom_site_fract_z
Si Si1 0.034228 0.873110 0.286851
Si Si2 0.707856 0.685380 0.960514
Si Si3 0.792142 0.873115 0.539485
Si Si4 0.465771 0.685385 0.213148
O O1 0.407678 0.873935 0.407664
O O2 0.073925 0.659939 0.382888
O O3 0.999185 0.159931 0.308148
O O4 0.766791 0.779248 0.088931
O O5 0.573924 0.398556 0.882888
O O6 0.499186 0.898564 0.808148
O O7 0.092321 0.684560 0.092335
O O8 0.733208 0.779247 0.411068
#
# Coordination Sequence:
#
# PCOD9119803 Si02
#       4
#     2   2   2   2
#     4   9  15  21  27  33  39  45  51  57  63  69
#     4   9  15  21  27  33  39  45  51  57  63  69
#     4   9  15  21  27  33  39  45  51  57  63  69
#     4   9  15  21  27  33  39  45  51  57  63  69
#
# _framework density 26.756079
#
# number of rings (size 3 to 8) (size 9 to 14) (size 15 to 20)
#    0.000    3.000    0.000    3.000    0.000   12.000 
#    0.000    0.000    0.000    0.000    0.000    0.000 
#    0.000    0.000    0.000    0.000    0.000    0.000 
#
# Total GULP energy -44892.939460 kJ/mol
# GULP energy per Si atom -5611.617433 kJ/mol
# Density = 2.669518 g / cm^3
# Si number density = 26.756079 Si / 1000 Ang^3
#
#
#
# Elastic Constant Matrix: (Units=GPa)
#
#
# Indices 1 2 3 4 5 6 
#
# 1 101.0031 43.5266 30.0912 0.0000 -9.1431 0.0000
# 2 43.5266 188.2489 72.3785 0.0000 -17.6011 0.0000
# 3 30.0912 72.3785 152.2230 0.0000 -22.1156 0.0000
# 4 0.0000 0.0000 0.0000 43.1472 0.0000 12.3187
# 5 -9.1431 -17.6011 -22.1156 0.0000 50.8739 0.0000
# 6 0.0000 0.0000 0.0000 12.3187 0.0000 63.3448
#
#
#
# Elastic Compliance Matrix: (Units=1/GPa)
#
#
# Indices 1 2 3 4 5 6 
#
# 1 0.011204 -0.002091 -0.001103 0.000000 0.000811 0.000000
# 2 -0.002091 0.006935 -0.002765 0.000000 0.000822 0.000000
# 3 -0.001103 -0.002765 0.008469 0.000000 0.002527 0.000000
# 4 0.000000 0.000000 0.000000 0.024539 0.000000 -0.004772
# 5 0.000811 0.000822 0.002527 0.000000 0.021185 0.000000
# 6 0.000000 0.000000 0.000000 -0.004772 0.000000 0.016715
#
#
# Mechanical properties :
#
#
# Convention : Reuss Voigt Hill
#
# Bulk Modulus (GPa) = 68.06799 81.49639 74.78219
# Shear Modulus (GPa) = 47.23190 51.17176 49.20183
#
# Velocity S-wave (km/s) = 4.20608 4.37799 4.29290
# Velocity P-wave (km/s) = 7.00597 7.48872 7.25136
#
# Compressibility (1/GPa) = 0.01469119
#
# Stress axis : x y z
#
# Youngs Moduli (GPa) = 89.25703 144.18722 118.07620
#
# Poissons Ratio (x) = 0.30144 0.13022
# Poissons Ratio (y) = 0.18660 0.32648
# Poissons Ratio (z) = 0.09844 0.39867
#
# Static dielectric constant tensor:
#      x y z
#    x 2.254620 0.000000 0.146040 
#    y 0.000000 1.942790 0.000000 
#    z 0.146040 0.000000 2.015850 
# 
# From -- ./inp_files/5173.got.cif
#   From: 2010.05.17/outbox.cif.g08.bks.cpg/sg4_3_cif.got.tgz:5173.got - 2010.06.03 18:43:04.
