data_PCOD9119653
_publ_section_title
;
Structure prediction by ZEFSAII (Michael W. Deem and Ramdas Pophale) SiO2 
 PCOD9119653
Probable space group: P 21
;
_chemical_formula_sum "Si O2"
_cell_formula_units_Z 10
_cell_length_a 14.200722
_cell_length_b 4.942010
_cell_length_c 18.500957
_cell_angle_alpha 90.000000
_cell_angle_beta 161.084034
_cell_angle_gamma 90.000000
_cell_volume 420.916404
_symmetry_space_group_name_H-M "P 21"
_symmetry_group_IT_number 4
_symmetry_cell_setting 'monoclinic'
loop_
_space_group_symop_operation_xyz
x,y,z
-x,1/2+y,-z
loop_
_atom_site_type_symbol
_atom_site_label
_atom_site_fract_x
_atom_site_fract_y
_atom_site_fract_z
Si Si1 0.250712 0.081270 0.500703
Si Si2 0.386560 0.735238 0.961004
Si Si3 0.814746 0.513654 0.387197
Si Si4 0.895481 0.148487 0.967911
Si Si5 0.315641 0.927023 0.390093
O O1 0.235880 0.930002 0.566744
O O2 0.254850 0.905574 0.430897
O O3 0.959051 0.256970 0.283029
O O4 0.559426 0.232491 0.728495
O O5 0.472900 0.512884 0.963393
O O6 0.532847 0.621648 0.140300
O O7 0.965166 0.266445 0.455725
O O8 0.037295 0.040562 0.144755
O O9 0.072840 0.395547 0.063299
O O10 0.565201 0.149288 0.555634
#
# Coordination Sequence:
#
# PCOD9119653 Si02
#       5
#     2   2   2   2   2
#     4  12  26  46  80  98 148 190 234 286 376 390
#     4  12  25  47  72 105 143 184 238 292 347 426
#     4  12  25  47  72 105 143 184 238 292 347 426
#     4  12  25  47  72 105 143 184 238 292 347 426
#     4  12  25  47  72 105 143 184 238 292 347 426
#
# _framework density 23.757687000000001
#
# number of rings (size 3 to 8) (size 9 to 14) (size 15 to 20)
#    0.000    0.000    8.000    1.200    0.000    6.400 
#    0.000    8.000    0.000    0.000    0.000    0.000 
#    0.000    0.000    0.000    0.000    0.000    0.000 
#
# Total GULP energy -55998.720928 kJ/mol
# GULP energy per Si atom -5599.872093 kJ/mol
# Density = 2.370361 g / cm^3
# Si number density = 23.757687 Si / 1000 Ang^3
#
#
#
# Elastic Constant Matrix: (Units=GPa)
#
#
# Indices 1 2 3 4 5 6 
#
# 1 131.0870 -21.6644 30.6736 0.0000 -28.9254 0.0000
# 2 -21.6644 50.9921 -18.0745 0.0000 -7.6380 0.0000
# 3 30.6736 -18.0745 152.0357 0.0000 -23.4154 0.0000
# 4 0.0000 0.0000 0.0000 20.0423 0.0000 -7.9438
# 5 -28.9254 -7.6380 -23.4154 0.0000 42.0037 0.0000
# 6 0.0000 0.0000 0.0000 -7.9438 0.0000 16.9374
#
#
#
# Elastic Compliance Matrix: (Units=1/GPa)
#
#
# Indices 1 2 3 4 5 6 
#
# 1 0.010362 0.005536 -0.000195 0.000000 0.008034 0.000000
# 2 0.005536 0.024690 0.003388 0.000000 0.010191 0.000000
# 3 -0.000195 0.003388 0.007760 0.000000 0.004808 0.000000
# 4 0.000000 0.000000 0.000000 0.061287 0.000000 0.028744
# 5 0.008034 0.010191 0.004808 0.000000 0.033873 0.000000
# 6 0.000000 0.000000 0.000000 0.028744 0.000000 0.072522
#
#
# Mechanical properties :
#
#
# Convention : Reuss Voigt Hill
#
# Bulk Modulus (GPa) = 16.59183 35.10938 25.85060
# Shear Modulus (GPa) = 23.46024 38.67534 31.06779
#
# Velocity S-wave (km/s) = 3.14583 4.03911 3.62013
# Velocity P-wave (km/s) = 4.49376 6.04672 5.32713
#
# Compressibility (1/GPa) = 0.06027064
#
# Stress axis : x y z
#
# Youngs Moduli (GPa) = 96.50803 40.50155 128.86707
#
# Poissons Ratio (x) = -0.22424 0.02514
# Poissons Ratio (y) = -0.53432 -0.43658
# Poissons Ratio (z) = 0.01882 -0.13721
#
# Static dielectric constant tensor:
#      x y z
#    x 1.921280 0.000000 -0.035280 
#    y 0.000000 1.807890 0.000000 
#    z -0.035280 0.000000 1.934890 
# 
# From -- ./inp_files/57.got.cif
#   From: 2010.05.17/outbox.cif.g08.bks.cpg/sg4_1_cif.got.tgz:57.got - 2010.06.03 18:43:04.
