data_PCOD9119258
_publ_section_title
;
Structure prediction by ZEFSAII (Michael W. Deem and Ramdas Pophale) SiO2 
 PCOD9119258
Probable space group: P 21
;
_chemical_formula_sum "Si O2"
_cell_formula_units_Z 12
_cell_length_a 6.584003
_cell_length_b 6.600070
_cell_length_c 12.194201
_cell_angle_alpha 90.000000
_cell_angle_beta 129.640549
_cell_angle_gamma 90.000000
_cell_volume 408.053933
_symmetry_space_group_name_H-M "P 21"
_symmetry_group_IT_number 4
_symmetry_cell_setting 'monoclinic'
loop_
_space_group_symop_operation_xyz
x,y,z
-x,1/2+y,-z
loop_
_atom_site_type_symbol
_atom_site_label
_atom_site_fract_x
_atom_site_fract_y
_atom_site_fract_z
Si Si1 0.148209 0.426090 0.447088
Si Si2 0.179034 0.843510 0.199754
Si Si3 0.426805 0.331191 0.997764
Si Si4 0.686946 0.463591 0.513927
Si Si5 0.410352 0.644973 0.720890
Si Si6 0.387374 0.156079 0.790625
O O1 0.384054 0.490755 0.447844
O O2 0.165174 0.181113 0.444431
O O3 0.667810 0.318676 0.400830
O O4 0.893311 0.562319 0.333452
O O5 0.196986 0.866012 0.336030
O O6 0.293738 0.059851 0.198713
O O7 0.373144 0.672867 0.212982
O O8 0.877712 0.808996 0.067747
O O9 0.591752 0.269754 0.166886
O O10 0.513259 0.580644 0.050783
O O11 0.392774 0.375390 0.851423
O O12 0.239373 0.465757 0.603336
#
# Coordination Sequence:
#
# PCOD9119258 Si02
#       6
#     2   2   2   2   2   2
#     4  11  25  50  82 127 167 219 300 353 437 517
#     4  11  26  53  84 119 174 223 287 362 445 504
#     4  12  29  51  82 121 178 230 289 358 445 520
#     4  11  24  49  91 123 164 235 279 366 442 515
#     4  11  26  48  84 123 168 230 284 354 441 518
#     4  12  30  51  85 129 169 233 299 359 432 538
#
# _framework density 29.407876000000002
#
# number of rings (size 3 to 8) (size 9 to 14) (size 15 to 20)
#    0.000    0.667    3.333    3.000    9.333    5.333 
#    3.000    3.333    0.000    0.000    0.000    0.000 
#    0.000    0.000    0.000    0.000    0.000    0.000 
#
# Total GULP energy -66944.371625 kJ/mol
# GULP energy per Si atom -5578.697635 kJ/mol
# Density = 2.934094 g / cm^3
# Si number density = 29.407876 Si / 1000 Ang^3
#
#
#
# Elastic Constant Matrix: (Units=GPa)
#
#
# Indices 1 2 3 4 5 6 
#
# 1 134.0124 54.1649 54.8102 0.0000 -5.6540 0.0000
# 2 54.1649 85.4678 61.0255 0.0000 17.1837 0.0000
# 3 54.8102 61.0255 166.8078 0.0000 -24.8291 0.0000
# 4 0.0000 0.0000 0.0000 51.0390 0.0000 9.3448
# 5 -5.6540 17.1837 -24.8291 0.0000 79.3907 0.0000
# 6 0.0000 0.0000 0.0000 9.3448 0.0000 78.3813
#
#
#
# Elastic Compliance Matrix: (Units=1/GPa)
#
#
# Indices 1 2 3 4 5 6 
#
# 1 0.010475 -0.006446 -0.000803 0.000000 0.001890 0.000000
# 2 -0.006446 0.022475 -0.007234 0.000000 -0.007586 0.000000
# 3 -0.000803 -0.007234 0.009575 0.000000 0.004503 0.000000
# 4 0.000000 0.000000 0.000000 0.020030 0.000000 -0.002388
# 5 0.001890 -0.007586 0.004503 0.000000 0.015781 0.000000
# 6 0.000000 0.000000 0.000000 -0.002388 0.000000 0.013043
#
#
# Mechanical properties :
#
#
# Convention : Reuss Voigt Hill
#
# Bulk Modulus (GPa) = 73.73453 80.69881 77.21667
# Shear Modulus (GPa) = 40.04355 56.18135 48.11245
#
# Velocity S-wave (km/s) = 3.69407 4.37558 4.04919
# Velocity P-wave (km/s) = 6.58197 7.28206 6.94085
#
# Compressibility (1/GPa) = 0.01356217
#
# Stress axis : x y z
#
# Youngs Moduli (GPa) = 95.46418 44.49310 104.43500
#
# Poissons Ratio (x) = 0.28678 0.08381
# Poissons Ratio (y) = 0.61532 0.75546
# Poissons Ratio (z) = 0.07661 0.32185
#
# Static dielectric constant tensor:
#      x y z
#    x 2.339340 0.000000 -0.045980 
#    y 0.000000 3.133580 0.000000 
#    z -0.045980 0.000000 2.263910 
# 
# From -- ./inp_files/3376.got.cif
#   From: 2010.05.17/outbox.cif.g08.bks.cpg/sg4_2_cif.got.tgz:3376.got - 2010.06.03 18:43:04.
