data_PCOD9119620
_publ_section_title
;
Structure prediction by ZEFSAII (Michael W. Deem and Ramdas Pophale) SiO2 
 PCOD9119620
Probable space group: P 21
;
_chemical_formula_sum "Si O2"
_cell_formula_units_Z 14
_cell_length_a 12.518374
_cell_length_b 9.538671
_cell_length_c 8.991091
_cell_angle_alpha 90.000000
_cell_angle_beta 145.532826
_cell_angle_gamma 90.000000
_cell_volume 607.594675
_symmetry_space_group_name_H-M "P 21"
_symmetry_group_IT_number 4
_symmetry_cell_setting 'monoclinic'
loop_
_space_group_symop_operation_xyz
x,y,z
-x,1/2+y,-z
loop_
_atom_site_type_symbol
_atom_site_label
_atom_site_fract_x
_atom_site_fract_y
_atom_site_fract_z
Si Si1 0.449966 0.837320 0.459487
Si Si2 0.310410 0.496091 0.029779
Si Si3 0.915840 0.369825 0.500417
Si Si4 0.136998 0.794988 0.902451
Si Si5 0.265804 0.325548 0.465867
Si Si6 0.328764 0.652664 0.586006
Si Si7 0.396851 0.107389 0.853886
O O1 0.621140 0.787891 0.552456
O O2 0.352931 0.722829 0.453430
O O3 0.540290 0.944798 0.678025
O O4 0.291414 0.891009 0.162190
O O5 0.232664 0.645215 0.992059
O O6 0.127866 0.398545 0.798472
O O7 0.427779 0.521036 0.014076
O O8 0.918156 0.340397 0.326899
O O9 0.813010 0.245438 0.474497
O O10 0.786049 0.509011 0.365579
O O11 0.951068 0.783062 0.786906
O O12 0.270977 0.491899 0.499182
O O13 0.363288 0.241886 0.712381
O O14 0.531595 0.652687 0.902491
#
# Coordination Sequence:
#
# PCOD9119620 Si02
#       7
#     2   2   2   2   2   2   2
#     4  12  28  50  74 109 160 203 254 315 396 459
#     4  12  26  49  78 113 154 206 259 320 385 460
#     4  12  27  48  82 115 152 206 264 320 378 467
#     4  12  27  51  76 116 157 206 261 319 390 462
#     4  12  28  49  76 110 160 201 253 325 384 466
#     4  12  26  48  79 116 147 205 263 314 392 459
#     4  12  24  51  79 111 158 201 260 323 385 455
#
# _framework density 23.041677
#
# number of rings (size 3 to 8) (size 9 to 14) (size 15 to 20)
#    0.000    0.000    5.714    3.429    4.000    0.000 
#    7.714    0.000    0.000    0.000    0.000    0.000 
#    0.000    0.000    0.000    0.000    0.000    0.000 
#
# Total GULP energy -78450.674771 kJ/mol
# GULP energy per Si atom -5603.619627 kJ/mol
# Density = 2.298923 g / cm^3
# Si number density = 23.041677 Si / 1000 Ang^3
#
#
#
# Elastic Constant Matrix: (Units=GPa)
#
#
# Indices 1 2 3 4 5 6 
#
# 1 108.1246 -8.5002 27.7659 0.0000 9.7921 0.0000
# 2 -8.5002 65.0839 12.9344 0.0000 1.3100 0.0000
# 3 27.7659 12.9344 94.4303 0.0000 1.6643 0.0000
# 4 0.0000 0.0000 0.0000 39.0470 0.0000 1.8619
# 5 9.7921 1.3100 1.6643 0.0000 41.7741 0.0000
# 6 0.0000 0.0000 0.0000 1.8619 0.0000 19.2964
#
#
#
# Elastic Compliance Matrix: (Units=1/GPa)
#
#
# Indices 1 2 3 4 5 6 
#
# 1 0.010482 0.002078 -0.003325 0.000000 -0.002390 0.000000
# 2 0.002078 0.016214 -0.002816 0.000000 -0.000883 0.000000
# 3 -0.003325 -0.002816 0.011946 0.000000 0.000392 0.000000
# 4 0.000000 0.000000 0.000000 0.025729 0.000000 -0.002483
# 5 -0.002390 -0.000883 0.000392 0.000000 0.024511 0.000000
# 6 0.000000 0.000000 0.000000 -0.002483 0.000000 0.052063
#
#
# Mechanical properties :
#
#
# Convention : Reuss Voigt Hill
#
# Bulk Modulus (GPa) = 32.76974 36.89321 34.83148
# Shear Modulus (GPa) = 31.39879 35.71940 33.55910
#
# Velocity S-wave (km/s) = 3.69548 3.94154 3.82049
# Velocity P-wave (km/s) = 5.69750 6.06305 5.88312
#
# Compressibility (1/GPa) = 0.03051595
#
# Stress axis : x y z
#
# Youngs Moduli (GPa) = 95.40074 61.67654 83.70855
#
# Poissons Ratio (x) = -0.12815 0.27830
# Poissons Ratio (y) = -0.19823 0.23574
# Poissons Ratio (z) = 0.31717 0.17369
#
# Static dielectric constant tensor:
#      x y z
#    x 1.835690 0.000000 -0.001300 
#    y 0.000000 1.864770 0.000000 
#    z -0.001300 0.000000 1.868080 
# 
# From -- ./inp_files/7480.got.cif
#   From: 2010.05.17/outbox.cif.g08.bks.cpg/sg4_4_cif.got.tgz:7480.got - 2010.06.03 18:43:04.
