data_PCOD9119526
_publ_section_title
;
Structure prediction by ZEFSAII (Michael W. Deem and Ramdas Pophale) SiO2 
 PCOD9119526
Probable space group: P 21
;
_chemical_formula_sum "Si O2"
_cell_formula_units_Z 12
_cell_length_a 15.718059
_cell_length_b 6.819720
_cell_length_c 15.600218
_cell_angle_alpha 90.000000
_cell_angle_beta 162.306006
_cell_angle_gamma 90.000000
_cell_volume 508.246345
_symmetry_space_group_name_H-M "P 21"
_symmetry_group_IT_number 4
_symmetry_cell_setting 'monoclinic'
loop_
_space_group_symop_operation_xyz
x,y,z
-x,1/2+y,-z
loop_
_atom_site_type_symbol
_atom_site_label
_atom_site_fract_x
_atom_site_fract_y
_atom_site_fract_z
Si Si1 0.117557 0.794290 0.421534
Si Si2 0.315003 0.398693 0.120961
Si Si3 0.780235 0.138721 0.197056
Si Si4 0.293940 0.422954 0.704937
Si Si5 0.233642 0.151717 0.201247
Si Si6 0.321432 0.722494 0.239701
O O1 0.411426 0.882108 0.673402
O O2 0.193425 0.593005 0.542876
O O3 0.934298 0.958631 0.296171
O O4 0.929073 0.772130 0.156045
O O5 0.250821 0.623850 0.081386
O O6 0.346303 0.319294 0.247426
O O7 0.027910 0.282830 0.464938
O O8 0.631381 0.039270 0.136097
O O9 0.552968 0.278301 0.931876
O O10 0.306300 0.954303 0.222460
O O11 0.379488 0.167533 0.433523
O O12 0.906522 0.165376 0.906771
#
# Coordination Sequence:
#
# PCOD9119526 Si02
#       6
#     2   2   2   2   2   2
#     4  12  28  48  70 114 153 188 243 318 382 430
#     4  12  26  44  72 106 153 184 237 322 370 428
#     4  12  26  47  79 109 145 200 255 305 370 459
#     4  12  26  47  79 109 145 200 255 305 370 459
#     4  12  23  43  72 102 134 188 243 288 355 441
#     4  12  23  43  72 102 134 188 243 288 355 441
#
# _framework density 23.610596999999999
#
# number of rings (size 3 to 8) (size 9 to 14) (size 15 to 20)
#    0.000    0.000    5.000    5.000    2.333    4.000 
#    0.000    0.000    0.000    0.000    0.000    0.000 
#    0.000    0.000    0.000    0.000    0.000    0.000 
#
# Total GULP energy -67104.439953 kJ/mol
# GULP energy per Si atom -5592.036663 kJ/mol
# Density = 2.355686 g / cm^3
# Si number density = 23.610597 Si / 1000 Ang^3
#
#
#
# Elastic Constant Matrix: (Units=GPa)
#
#
# Indices 1 2 3 4 5 6 
#
# 1 48.0487 17.8112 9.2626 0.0000 1.1264 0.0000
# 2 17.8112 103.4699 28.4776 0.0000 -1.2403 0.0000
# 3 9.2626 28.4776 107.7713 0.0000 8.0411 0.0000
# 4 0.0000 0.0000 0.0000 45.8535 0.0000 -5.4138
# 5 1.1264 -1.2403 8.0411 0.0000 31.6083 0.0000
# 6 0.0000 0.0000 0.0000 -5.4138 0.0000 23.8525
#
#
#
# Elastic Compliance Matrix: (Units=1/GPa)
#
#
# Indices 1 2 3 4 5 6 
#
# 1 0.022341 -0.003602 -0.000916 0.000000 -0.000705 0.000000
# 2 -0.003602 0.011043 -0.002702 0.000000 0.001249 0.000000
# 3 -0.000916 -0.002702 0.010272 0.000000 -0.002687 0.000000
# 4 0.000000 0.000000 0.000000 0.022409 0.000000 0.005086
# 5 -0.000705 0.001249 -0.002687 0.000000 0.032395 0.000000
# 6 0.000000 0.000000 0.000000 0.005086 0.000000 0.043079
#
#
# Mechanical properties :
#
#
# Convention : Reuss Voigt Hill
#
# Bulk Modulus (GPa) = 34.22694 41.15476 37.69085
# Shear Modulus (GPa) = 30.17207 33.84544 32.00875
#
# Velocity S-wave (km/s) = 3.57866 3.79025 3.68597
# Velocity P-wave (km/s) = 5.62171 6.05170 5.84066
#
# Compressibility (1/GPa) = 0.02921675
#
# Stress axis : x y z
#
# Youngs Moduli (GPa) = 44.76172 90.55307 97.35240
#
# Poissons Ratio (x) = 0.32618 0.08915
# Poissons Ratio (y) = 0.16124 0.26302
# Poissons Ratio (z) = 0.04099 0.24465
#
# Static dielectric constant tensor:
#      x y z
#    x 1.874070 0.000000 -0.055340 
#    y 0.000000 1.922100 0.000000 
#    z -0.055340 0.000000 1.883200 
# 
# From -- ./inp_files/108.got.cif
#   From: 2010.05.17/outbox.cif.g08.bks.cpg/sg4_1_cif.got.tgz:108.got - 2010.06.03 18:43:04.
