data_PCOD9119649
_publ_section_title
;
Structure prediction by ZEFSAII (Michael W. Deem and Ramdas Pophale) SiO2 
 PCOD9119649
Probable space group: P 21
;
_chemical_formula_sum "Si O2"
_cell_formula_units_Z 12
_cell_length_a 19.967139
_cell_length_b 5.277744
_cell_length_c 11.859661
_cell_angle_alpha 90.000000
_cell_angle_beta 159.075401
_cell_angle_gamma 90.000000
_cell_volume 446.348190
_symmetry_space_group_name_H-M "P 21"
_symmetry_group_IT_number 4
_symmetry_cell_setting 'monoclinic'
loop_
_space_group_symop_operation_xyz
x,y,z
-x,1/2+y,-z
loop_
_atom_site_type_symbol
_atom_site_label
_atom_site_fract_x
_atom_site_fract_y
_atom_site_fract_z
Si Si1 0.560694 0.135600 0.153358
Si Si2 0.339862 0.668507 0.134452
Si Si3 0.226853 0.118075 0.211183
Si Si4 0.885967 0.838791 0.739942
Si Si5 0.015048 0.513317 0.751573
Si Si6 0.279764 0.176305 0.901414
O O1 0.774699 0.063391 0.504554
O O2 0.527276 0.357543 0.011476
O O3 0.458593 0.232301 0.104011
O O4 0.558683 0.596887 0.489937
O O5 0.209702 0.671777 0.040543
O O6 0.249013 0.439143 0.918283
O O7 0.324432 0.939292 0.051185
O O8 0.214931 0.312828 0.299198
O O9 0.101972 0.238475 0.914351
O O10 0.105416 0.904790 0.084862
O O11 0.889461 0.605529 0.659324
O O12 0.887388 0.584820 0.443647
#
# Coordination Sequence:
#
# PCOD9119649 Si02
#       6
#     2   2   2   2   2   2
#     4  12  25  46  79 114 151 197 257 320 388 453
#     4  12  31  51  82 113 158 207 261 318 389 465
#     4  12  29  48  77 112 157 203 259 322 390 463
#     4  12  27  46  77 108 154 200 257 319 390 457
#     4  12  29  51  79 111 157 207 261 319 391 468
#     4  12  27  52  80 114 157 204 261 318 386 466
#
# _framework density 26.884843
#
# number of rings (size 3 to 8) (size 9 to 14) (size 15 to 20)
#    0.000    0.000    5.000    3.000   11.667    0.000 
#    0.000    0.000    0.000    0.000    0.000    0.000 
#    0.000    0.000    0.000    0.000    0.000    0.000 
#
# Total GULP energy -67170.847727 kJ/mol
# GULP energy per Si atom -5597.570644 kJ/mol
# Density = 2.682365 g / cm^3
# Si number density = 26.884843 Si / 1000 Ang^3
#
#
#
# Elastic Constant Matrix: (Units=GPa)
#
#
# Indices 1 2 3 4 5 6 
#
# 1 103.6468 -8.9404 25.2536 0.0000 30.7202 0.0000
# 2 -8.9404 95.3731 11.8532 0.0000 -11.3620 0.0000
# 3 25.2536 11.8532 134.3041 0.0000 26.1384 0.0000
# 4 0.0000 0.0000 0.0000 45.4331 0.0000 1.1732
# 5 30.7202 -11.3620 26.1384 0.0000 47.9829 0.0000
# 6 0.0000 0.0000 0.0000 1.1732 0.0000 47.7256
#
#
#
# Elastic Compliance Matrix: (Units=1/GPa)
#
#
# Indices 1 2 3 4 5 6 
#
# 1 0.012008 0.000393 -0.000911 0.000000 -0.007098 0.000000
# 2 0.000393 0.011128 -0.001700 0.000000 0.003309 0.000000
# 3 -0.000911 -0.001700 0.008649 0.000000 -0.004531 0.000000
# 4 0.000000 0.000000 0.000000 0.022024 0.000000 -0.000541
# 5 -0.007098 0.003309 -0.004531 0.000000 0.028637 0.000000
# 6 0.000000 0.000000 0.000000 -0.000541 0.000000 0.020966
#
#
# Mechanical properties :
#
#
# Convention : Reuss Voigt Hill
#
# Bulk Modulus (GPa) = 36.56500 43.29522 39.93011
# Shear Modulus (GPa) = 42.74805 48.57216 45.66011
#
# Velocity S-wave (km/s) = 3.99186 4.25511 4.12559
# Velocity P-wave (km/s) = 5.90565 6.34667 6.13013
#
# Compressibility (1/GPa) = 0.02734856
#
# Stress axis : x y z
#
# Youngs Moduli (GPa) = 83.27780 89.86728 115.62146
#
# Poissons Ratio (x) = -0.03534 0.10534
# Poissons Ratio (y) = -0.03275 0.19656
# Poissons Ratio (z) = 0.07587 0.15278
#
# Static dielectric constant tensor:
#      x y z
#    x 2.118420 0.000000 -0.068130 
#    y 0.000000 2.157470 0.000000 
#    z -0.068130 0.000000 2.154150 
# 
# From -- ./inp_files/5156.got.cif
#   From: 2010.05.17/outbox.cif.g08.bks.cpg/sg4_3_cif.got.tgz:5156.got - 2010.06.03 18:43:04.
