data_PCOD9119239
_publ_section_title
;
Structure prediction by ZEFSAII (Michael W. Deem and Ramdas Pophale) SiO2 
 PCOD9119239
Probable space group: P 21
;
_chemical_formula_sum "Si O2"
_cell_formula_units_Z 16
_cell_length_a 10.942190
_cell_length_b 9.348713
_cell_length_c 6.724818
_cell_angle_alpha 90.000000
_cell_angle_beta 90.193710
_cell_angle_gamma 90.000000
_cell_volume 687.913975
_symmetry_space_group_name_H-M "P 21"
_symmetry_group_IT_number 4
_symmetry_cell_setting 'monoclinic'
loop_
_space_group_symop_operation_xyz
x,y,z
-x,1/2+y,-z
loop_
_atom_site_type_symbol
_atom_site_label
_atom_site_fract_x
_atom_site_fract_y
_atom_site_fract_z
Si Si1 0.663111 0.078550 0.821566
Si Si2 0.634014 0.499074 0.888942
Si Si3 0.484541 0.764452 0.864693
Si Si4 0.077377 0.680945 0.287303
Si Si5 0.477424 0.416128 0.523639
Si Si6 0.013320 0.509103 0.672790
Si Si7 0.871101 0.607750 0.005869
Si Si8 0.255886 0.384841 0.840275
O O1 0.778510 0.164972 0.740360
O O2 0.578310 0.032096 0.634075
O O3 0.609503 0.170559 0.005139
O O4 0.710468 0.939070 0.938559
O O5 0.603718 0.667417 0.896596
O O6 0.592096 0.456234 0.665917
O O7 0.541700 0.415469 0.032024
O O8 0.768943 0.483723 0.982126
O O9 0.479680 0.792442 0.629297
O O10 0.041654 0.847596 0.318769
O O11 0.034951 0.581068 0.464840
O O12 0.003340 0.604333 0.108578
O O13 0.367794 0.381348 0.681154
O O14 0.149564 0.490001 0.762413
O O15 0.917208 0.615791 0.779986
O O16 0.807080 0.731704 0.131255
#
# Coordination Sequence:
#
# PCOD9119239 Si02
#       8
#     2   2   2   2   2   2   2   2
#     4  12  24  50  74 109 148 195 245 316 370 447
#     4  12  27  47  71 112 148 196 248 311 371 447
#     4  12  27  48  77 106 152 194 249 318 373 443
#     4  11  26  46  79 109 151 195 252 306 378 442
#     4  12  25  46  78 109 146 197 250 300 388 447
#     4  11  25  46  75 117 145 199 247 306 373 453
#     4  11  26  47  73 109 156 192 249 308 374 439
#     4  11  24  48  79 107 150 202 244 313 379 442
#
# _framework density 23.25872
#
# number of rings (size 3 to 8) (size 9 to 14) (size 15 to 20)
#    0.000    0.500    5.000    2.250    3.500    4.000 
#    6.750    0.000    0.000    0.000    0.000    0.000 
#    0.000    0.000    0.000    0.000    0.000    0.000 
#
# Total GULP energy -89119.485725 kJ/mol
# GULP energy per Si atom -5569.967858 kJ/mol
# Density = 2.320578 g / cm^3
# Si number density = 23.258720 Si / 1000 Ang^3
#
#
#
# Elastic Constant Matrix: (Units=GPa)
#
#
# Indices 1 2 3 4 5 6 
#
# 1 47.5756 20.1315 20.3695 0.0000 -14.6758 0.0000
# 2 20.1315 76.2141 49.5144 0.0000 -5.0224 0.0000
# 3 20.3695 49.5144 107.8006 0.0000 -19.7641 0.0000
# 4 0.0000 0.0000 0.0000 46.8408 0.0000 -4.4918
# 5 -14.6758 -5.0224 -19.7641 0.0000 39.0719 0.0000
# 6 0.0000 0.0000 0.0000 -4.4918 0.0000 20.4550
#
#
#
# Elastic Compliance Matrix: (Units=1/GPa)
#
#
# Indices 1 2 3 4 5 6 
#
# 1 0.026581 -0.006031 -0.000622 0.000000 0.008894 0.000000
# 2 -0.006031 0.020234 -0.008920 0.000000 -0.004176 0.000000
# 3 -0.000622 -0.008920 0.014591 0.000000 0.006001 0.000000
# 4 0.000000 0.000000 0.000000 0.021808 0.000000 0.004789
# 5 0.008894 -0.004176 0.006001 0.000000 0.031433 0.000000
# 6 0.000000 0.000000 0.000000 0.004789 0.000000 0.049939
#
#
# Mechanical properties :
#
#
# Convention : Reuss Voigt Hill
#
# Bulk Modulus (GPa) = 33.04636 45.73567 39.39102
# Shear Modulus (GPa) = 24.29322 30.71186 27.50254
#
# Velocity S-wave (km/s) = 3.23534 3.63773 3.44242
# Velocity P-wave (km/s) = 5.30995 6.11152 5.72479
#
# Compressibility (1/GPa) = 0.03026052
#
# Stress axis : x y z
#
# Youngs Moduli (GPa) = 37.62072 49.42238 68.53550
#
# Poissons Ratio (x) = 0.29808 0.04261
# Poissons Ratio (y) = 0.22690 0.61132
# Poissons Ratio (z) = 0.02339 0.44083
#
# Static dielectric constant tensor:
#      x y z
#    x 2.009250 0.000000 0.039290 
#    y 0.000000 1.998930 0.000000 
#    z 0.039290 0.000000 1.869480 
# 
# From -- ./inp_files/2586.got.cif
#   From: 2010.05.17/outbox.cif.g08.bks.cpg/sg4_2_cif.got.tgz:2586.got - 2010.06.03 18:43:04.
