data_PCOD9119906
_publ_section_title
;
Structure prediction by ZEFSAII (Michael W. Deem and Ramdas Pophale) SiO2 
 PCOD9119906
Probable space group: P 21
;
_chemical_formula_sum "Si O2"
_cell_formula_units_Z 12
_cell_length_a 12.000000
_cell_length_b 9.000000
_cell_length_c 12.000000
_cell_angle_alpha 90.000000
_cell_angle_beta 20.000000
_cell_angle_gamma 90.000000
_cell_volume 443.258106
_symmetry_space_group_name_H-M "P 21"
_symmetry_group_IT_number 4
_symmetry_cell_setting 'monoclinic'
loop_
_space_group_symop_operation_xyz
x,y,z
-x,1/2+y,-z
loop_
_atom_site_type_symbol
_atom_site_label
_atom_site_fract_x
_atom_site_fract_y
_atom_site_fract_z
Si Si1 0.691020 0.212970 0.545410
Si Si2 0.094509 0.733247 0.018778
Si Si3 0.111884 0.047098 0.327194
Si Si4 0.129133 0.085730 0.977994
Si Si5 0.674200 0.202029 0.892539
Si Si6 0.647764 0.567518 0.586866
O O1 0.739479 0.392339 0.502186
O O2 0.852022 0.104416 0.483660
O O3 0.305939 0.181680 0.908244
O O4 0.760970 0.120773 0.365582
O O5 0.855579 0.685181 0.145791
O O6 0.906072 0.694503 0.309450
O O7 0.186645 0.907597 0.923542
O O8 0.361000 0.600708 0.767624
O O9 0.928836 0.074695 0.616209
O O10 0.221627 0.875732 0.207907
O O11 0.383850 0.175977 0.077089
O O12 0.512653 0.136013 0.153385
#
# Coordination Sequence:
#
# PCOD9119906 Si02
#       6
#     2   2   2   2   2   2
#     4  12  26  48  74 106 147 193 242 301 365 435
#     4  12  26  47  74 108 147 194 245 301 362 432
#     4  12  27  49  75 108 146 191 243 302 366 437
#     4  12  26  47  74 108 147 194 245 301 362 432
#     4  12  27  49  75 108 146 191 243 302 366 437
#     4  12  26  48  74 106 147 193 242 301 365 435
#
# _framework density 27.072263
#
# number of rings (size 3 to 8) (size 9 to 14) (size 15 to 20)
#    0.000    0.000    0.000   10.000    0.000    5.333 
#    0.000    1.667    0.000    0.000    0.000    0.000 
#    0.000    0.000    0.000    0.000    0.000    0.000 
#
# Total GULP energy -66827.625688 kJ/mol
# GULP energy per Si atom -5568.968807 kJ/mol
# Density = 2.701065 g / cm^3
# Si number density = 27.072263 Si / 1000 Ang^3
#
#
#
# Elastic Constant Matrix: (Units=GPa)
#
#
# Indices 1 2 3 4 5 6 
#
# 1 159.8282 74.8349 48.1788 0.0000 -0.2414 0.0000
# 2 74.8349 325.2506 34.5787 0.0000 -1.0727 0.0000
# 3 48.1788 34.5787 23.3194 0.0000 29.9084 0.0000
# 4 0.0000 0.0000 0.0000 55.2788 0.0000 -8.5629
# 5 -0.2414 -1.0727 29.9084 0.0000 65.6045 0.0000
# 6 0.0000 0.0000 0.0000 -8.5629 0.0000 46.6545
#
#
#
# Elastic Compliance Matrix: (Units=1/GPa)
#
#
# Indices 1 2 3 4 5 6 
#
# 1 -0.007609 -0.003839 0.051844 0.000000 -0.023726 0.000000
# 2 -0.003839 0.003107 0.007892 0.000000 -0.003561 0.000000
# 3 0.051844 0.007892 -0.183824 0.000000 0.084123 0.000000
# 4 0.000000 0.000000 0.000000 0.018619 0.000000 0.003417
# 5 -0.023726 -0.003561 0.084123 0.000000 -0.023254 0.000000
# 6 0.000000 0.000000 0.000000 0.003417 0.000000 0.022061
#
#
# Mechanical properties :
#
#
# Convention : Reuss Voigt Hill
#
# Bulk Modulus (GPa) = -13.06629 91.50923 39.22147
# Shear Modulus (GPa) = -16.22300 56.89463 20.33581
#
# Velocity S-wave (km/s) = -2.45061 4.58928 2.74372
# Velocity P-wave (km/s) = 3.58389 7.87129 4.95545
#
# Compressibility (1/GPa) = -0.07653282
#
# Stress axis : x y z
#
# Youngs Moduli (GPa) = -131.41496 321.84301 -5.43998
#
# Poissons Ratio (x) = 1.23561 0.28203
# Poissons Ratio (y) = -0.50453 0.04293
# Poissons Ratio (z) = 6.81309 -2.54000
#
# Static dielectric constant tensor:
#      x y z
#    x 2.494750 0.000000 -0.039830 
#    y 0.000000 1.798100 0.000000 
#    z -0.039830 0.000000 2.415760 
# 
# From -- ./inp_files/12084.got.cif
#   From: 2010.05.17/outbox.ucp.g08.bks.cvg/sg4_7_cif.got.tgz:12084.got - 2010.06.11 12:51:24.
