data_PCOD9119320
_publ_section_title
;
Structure prediction by ZEFSAII (Michael W. Deem and Ramdas Pophale) SiO2 
 PCOD9119320
Probable space group: P 21
;
_chemical_formula_sum "Si O2"
_cell_formula_units_Z 14
_cell_length_a 8.608764
_cell_length_b 8.147071
_cell_length_c 9.679218
_cell_angle_alpha 90.000000
_cell_angle_beta 126.358063
_cell_angle_gamma 90.000000
_cell_volume 546.707882
_symmetry_space_group_name_H-M "P 21"
_symmetry_group_IT_number 4
_symmetry_cell_setting 'monoclinic'
loop_
_space_group_symop_operation_xyz
x,y,z
-x,1/2+y,-z
loop_
_atom_site_type_symbol
_atom_site_label
_atom_site_fract_x
_atom_site_fract_y
_atom_site_fract_z
Si Si1 0.572543 0.289280 0.449883
Si Si2 0.238946 0.751545 0.148488
Si Si3 0.547513 0.806387 0.089289
Si Si4 0.240345 0.094113 0.602238
Si Si5 0.693567 0.144912 0.247122
Si Si6 0.839804 0.895890 0.852503
Si Si7 0.038426 0.385705 0.379149
O O1 0.650653 0.270983 0.646718
O O2 0.652848 0.465048 0.438137
O O3 0.670518 0.154434 0.400480
O O4 0.343948 0.288632 0.294836
O O5 0.367136 0.836504 0.097653
O O6 0.232022 0.558463 0.110008
O O7 0.017351 0.812816 0.026627
O O8 0.648565 0.642351 0.200571
O O9 0.677101 0.966598 0.172685
O O10 0.481594 0.757855 0.902833
O O11 0.213539 0.271567 0.519814
O O12 0.042855 0.009722 0.549588
O O13 0.873172 0.246459 0.285000
O O14 0.928600 0.958144 0.753178
#
# Coordination Sequence:
#
# PCOD9119320 Si02
#       7
#     2   2   2   2   2   2   2
#     4  11  28  50  78 112 152 202 257 315 391 457
#     4  12  30  48  78 113 154 205 253 323 386 460
#     4  12  25  48  75 107 154 200 253 313 386 460
#     4  11  25  46  75 109 149 199 254 313 389 452
#     4  11  26  47  76 109 148 197 254 314 381 452
#     4  12  29  49  75 114 154 198 259 314 393 457
#     4  11  25  46  71 112 145 193 252 316 376 456
#
# _framework density 25.607824000000001
#
# number of rings (size 3 to 8) (size 9 to 14) (size 15 to 20)
#    0.000    0.571    2.857    3.429   12.000    0.000 
#    0.000    0.000    0.000    0.000    0.000    0.000 
#    0.000    0.000    0.000    0.000    0.000    0.000 
#
# Total GULP energy -78386.133887 kJ/mol
# GULP energy per Si atom -5599.009563 kJ/mol
# Density = 2.554954 g / cm^3
# Si number density = 25.607824 Si / 1000 Ang^3
#
#
#
# Elastic Constant Matrix: (Units=GPa)
#
#
# Indices 1 2 3 4 5 6 
#
# 1 93.7379 -1.7858 33.4834 0.0000 9.0637 0.0000
# 2 -1.7858 90.0788 12.5474 0.0000 2.9276 0.0000
# 3 33.4834 12.5474 148.4491 0.0000 3.2733 0.0000
# 4 0.0000 0.0000 0.0000 47.1089 0.0000 15.8820
# 5 9.0637 2.9276 3.2733 0.0000 48.1110 0.0000
# 6 0.0000 0.0000 0.0000 15.8820 0.0000 37.6403
#
#
#
# Elastic Compliance Matrix: (Units=1/GPa)
#
#
# Indices 1 2 3 4 5 6 
#
# 1 0.011841 0.000676 -0.002682 0.000000 -0.002089 0.000000
# 2 0.000676 0.011291 -0.001091 0.000000 -0.000740 0.000000
# 3 -0.002682 -0.001091 0.007432 0.000000 0.000066 0.000000
# 4 0.000000 0.000000 0.000000 0.024748 0.000000 -0.010442
# 5 -0.002089 -0.000740 0.000066 0.000000 0.021219 0.000000
# 6 0.000000 0.000000 0.000000 -0.010442 0.000000 0.030973
#
#
# Mechanical properties :
#
#
# Convention : Reuss Voigt Hill
#
# Bulk Modulus (GPa) = 41.03191 46.75065 43.89128
# Shear Modulus (GPa) = 41.04407 45.77343 43.40875
#
# Velocity S-wave (km/s) = 4.00783 4.23244 4.12167
# Velocity P-wave (km/s) = 6.12168 6.49468 6.31093
#
# Compressibility (1/GPa) = 0.02437128
#
# Stress axis : x y z
#
# Youngs Moduli (GPa) = 84.45285 88.56800 134.55433
#
# Poissons Ratio (x) = -0.05989 0.36086
# Poissons Ratio (y) = -0.05711 0.14674
# Poissons Ratio (z) = 0.22649 0.09659
#
# Static dielectric constant tensor:
#      x y z
#    x 2.037430 0.000000 0.083930 
#    y 0.000000 1.950040 0.000000 
#    z 0.083930 0.000000 2.096220 
# 
# From -- ./inp_files/5251.got.cif
#   From: 2010.05.17/outbox.cif.g08.bks.cpg/sg4_3_cif.got.tgz:5251.got - 2010.06.03 18:43:04.
