data_PCOD9119116
_publ_section_title
;
Structure prediction by ZEFSAII (Michael W. Deem and Ramdas Pophale) SiO2 
 PCOD9119116
Probable space group: P 21
;
_chemical_formula_sum "Si O2"
_cell_formula_units_Z 8
_cell_length_a 8.969830
_cell_length_b 6.749055
_cell_length_c 9.362591
_cell_angle_alpha 90.000000
_cell_angle_beta 135.633470
_cell_angle_gamma 90.000000
_cell_volume 396.326517
_symmetry_space_group_name_H-M "P 21"
_symmetry_group_IT_number 4
_symmetry_cell_setting 'monoclinic'
loop_
_space_group_symop_operation_xyz
x,y,z
-x,1/2+y,-z
loop_
_atom_site_type_symbol
_atom_site_label
_atom_site_fract_x
_atom_site_fract_y
_atom_site_fract_z
Si Si1 0.705781 0.465790 0.390920
Si Si2 0.866711 0.204282 0.743107
Si Si3 0.234736 0.524354 0.024058
Si Si4 0.990438 0.818533 0.647762
O O1 0.711592 0.340319 0.541103
O O2 0.475886 0.459423 0.161438
O O3 0.887208 0.376039 0.412586
O O4 0.780033 0.690009 0.471783
O O5 0.770178 0.130742 0.825439
O O6 0.933774 0.013871 0.697115
O O7 0.074177 0.338721 0.916612
O O8 0.142841 0.676232 0.844986
#
# Coordination Sequence:
#
# PCOD9119116 Si02
#       4
#     2   2   2   2
#     4  11  26  42  68  94 128 173 207 264 320 371
#     4  11  24  45  62  96 133 162 219 260 308 387
#     4  11  26  42  68  94 128 173 207 264 320 371
#     4  11  24  45  62  96 133 162 219 260 308 387
#
# _framework density 20.185379000000001
#
# number of rings (size 3 to 8) (size 9 to 14) (size 15 to 20)
#    0.000    1.000    5.000    0.000    7.000    2.000 
#    0.000    0.000    0.000    0.000    0.000    0.000 
#    0.000    0.000    0.000    0.000    0.000    0.000 
#
# Total GULP energy -44751.728973 kJ/mol
# GULP energy per Si atom -5593.966122 kJ/mol
# Density = 2.013944 g / cm^3
# Si number density = 20.185379 Si / 1000 Ang^3
#
#
#
# Elastic Constant Matrix: (Units=GPa)
#
#
# Indices 1 2 3 4 5 6 
#
# 1 17.5752 11.3772 -2.1849 0.0000 -7.8666 0.0000
# 2 11.3772 88.6159 -5.2320 0.0000 -1.1046 0.0000
# 3 -2.1849 -5.2320 25.4569 0.0000 7.6882 0.0000
# 4 0.0000 0.0000 0.0000 27.1352 0.0000 -20.9991
# 5 -7.8666 -1.1046 7.6882 0.0000 43.3131 0.0000
# 6 0.0000 0.0000 0.0000 -20.9991 0.0000 31.0957
#
#
#
# Elastic Compliance Matrix: (Units=1/GPa)
#
#
# Indices 1 2 3 4 5 6 
#
# 1 0.067864 -0.008537 0.000437 0.000000 0.012030 0.000000
# 2 -0.008537 0.012498 0.002333 0.000000 -0.001646 0.000000
# 3 0.000437 0.002333 0.042009 0.000000 -0.007318 0.000000
# 4 0.000000 0.000000 0.000000 0.077194 0.000000 0.052130
# 5 0.012030 -0.001646 -0.007318 0.000000 0.026530 0.000000
# 6 0.000000 0.000000 0.000000 0.052130 0.000000 0.067363
#
#
# Mechanical properties :
#
#
# Convention : Reuss Voigt Hill
#
# Bulk Modulus (GPa) = 9.02234 15.50762 12.26498
# Shear Modulus (GPa) = 14.62253 28.82131 21.72192
#
# Velocity S-wave (km/s) = 2.69441 3.78276 3.28399
# Velocity P-wave (km/s) = 3.76288 5.17478 4.52425
#
# Compressibility (1/GPa) = 0.11083602
#
# Stress axis : x y z
#
# Youngs Moduli (GPa) = 14.73536 80.01312 23.80432
#
# Poissons Ratio (x) = 0.68309 -0.01039
# Poissons Ratio (y) = 0.12580 -0.05554
# Poissons Ratio (z) = -0.00643 -0.18667
#
# Static dielectric constant tensor:
#      x y z
#    x 1.684960 0.000000 -0.020030 
#    y 0.000000 1.699470 0.000000 
#    z -0.020030 0.000000 1.688100 
# 
# From -- ./inp_files/866.got.cif
#   From: 2010.05.17/outbox.cif.g08.bks.cpg/sg4_1_cif.got.tgz:866.got - 2010.06.03 18:43:04.
