data_PCOD9119727
_publ_section_title
;
Structure prediction by ZEFSAII (Michael W. Deem and Ramdas Pophale) SiO2 
 PCOD9119727
Probable space group: P 21
;
_chemical_formula_sum "Si O2"
_cell_formula_units_Z 16
_cell_length_a 12.399254
_cell_length_b 5.152270
_cell_length_c 18.316606
_cell_angle_alpha 90.000000
_cell_angle_beta 146.507143
_cell_angle_gamma 90.000000
_cell_volume 645.723897
_symmetry_space_group_name_H-M "P 21"
_symmetry_group_IT_number 4
_symmetry_cell_setting 'monoclinic'
loop_
_space_group_symop_operation_xyz
x,y,z
-x,1/2+y,-z
loop_
_atom_site_type_symbol
_atom_site_label
_atom_site_fract_x
_atom_site_fract_y
_atom_site_fract_z
Si Si1 0.307415 0.783940 0.723417
Si Si2 0.057914 0.719700 0.842775
Si Si3 0.148224 0.096634 0.418690
Si Si4 0.036494 0.598642 0.449079
Si Si5 0.469705 0.793323 0.437135
Si Si6 0.741568 0.880429 0.920599
Si Si7 0.383869 0.871221 0.927860
Si Si8 0.863112 0.095835 0.838073
O O1 0.169651 0.606488 0.596126
O O2 0.524064 0.785799 0.813265
O O3 0.325116 0.729331 0.819211
O O4 0.189259 0.057554 0.655805
O O5 0.206794 0.910916 0.884065
O O6 0.958378 0.569821 0.719724
O O7 0.188340 0.554826 0.971821
O O8 0.896743 0.866967 0.799134
O O9 0.079835 0.349903 0.423718
O O10 0.372677 0.157438 0.526871
O O11 0.098483 0.846373 0.437512
O O12 0.460533 0.577004 0.496917
O O13 0.265441 0.804348 0.278397
O O14 0.752958 0.024404 0.849789
O O15 0.916309 0.671496 0.015338
O O16 0.526885 0.650467 0.040800
#
# Coordination Sequence:
#
# PCOD9119727 Si02
#       8
#     2   2   2   2   2   2   2   2
#     4  12  28  52  82 116 167 210 267 335 405 493
#     4  12  26  48  77 110 155 203 261 327 394 468
#     4  12  27  49  81 116 163 211 265 337 400 482
#     4  12  29  51  77 120 160 210 264 329 414 485
#     4  12  26  48  80 116 161 214 272 336 403 478
#     4  12  27  51  79 113 161 210 272 330 411 474
#     4  12  28  48  79 115 151 203 255 322 391 466
#     4  12  27  49  77 114 156 213 266 336 392 488
#
# _framework density 24.778392
#
# number of rings (size 3 to 8) (size 9 to 14) (size 15 to 20)
#    0.000    0.000    5.000    3.750    3.500    2.000 
#    9.000    0.000    0.000    0.000    0.000    0.000 
#    0.000    0.000    0.000    0.000    0.000    0.000 
#
# Total GULP energy -89618.186981 kJ/mol
# GULP energy per Si atom -5601.136686 kJ/mol
# Density = 2.472200 g / cm^3
# Si number density = 24.778392 Si / 1000 Ang^3
#
#
#
# Elastic Constant Matrix: (Units=GPa)
#
#
# Indices 1 2 3 4 5 6 
#
# 1 121.4518 22.0464 37.4295 0.0000 -10.0906 0.0000
# 2 22.0464 92.2171 -6.3136 0.0000 -11.6569 0.0000
# 3 37.4295 -6.3136 108.0527 0.0000 -7.1274 0.0000
# 4 0.0000 0.0000 0.0000 33.0814 0.0000 -6.3340
# 5 -10.0906 -11.6569 -7.1274 0.0000 54.2977 0.0000
# 6 0.0000 0.0000 0.0000 -6.3340 0.0000 42.3735
#
#
#
# Elastic Compliance Matrix: (Units=1/GPa)
#
#
# Indices 1 2 3 4 5 6 
#
# 1 0.009831 -0.002484 -0.003496 0.000000 0.000835 0.000000
# 2 -0.002484 0.011846 0.001705 0.000000 0.002305 0.000000
# 3 -0.003496 0.001705 0.010639 0.000000 0.001113 0.000000
# 4 0.000000 0.000000 0.000000 0.031119 0.000000 0.004652
# 5 0.000835 0.002305 0.001113 0.000000 0.019213 0.000000
# 6 0.000000 0.000000 0.000000 0.004652 0.000000 0.024295
#
#
# Mechanical properties :
#
#
# Convention : Reuss Voigt Hill
#
# Bulk Modulus (GPa) = 42.07725 47.56068 44.81896
# Shear Modulus (GPa) = 40.51360 43.85446 42.18403
#
# Velocity S-wave (km/s) = 4.04795 4.21154 4.13055
# Velocity P-wave (km/s) = 6.23427 6.54871 6.39342
#
# Compressibility (1/GPa) = 0.02376581
#
# Stress axis : x y z
#
# Youngs Moduli (GPa) = 101.71569 84.41674 93.99686
#
# Poissons Ratio (x) = 0.20971 0.32858
# Poissons Ratio (y) = 0.25268 -0.16024
# Poissons Ratio (z) = 0.35556 -0.14391
#
# Static dielectric constant tensor:
#      x y z
#    x 1.974360 0.000000 0.031450 
#    y 0.000000 1.964130 0.000000 
#    z 0.031450 0.000000 2.008190 
# 
# From -- ./inp_files/15091.got.cif
#   From: 2010.05.17/outbox.cif.g08.bks.cpg/sg4_8_cif.got.tgz:15091.got - 2010.06.03 18:43:04.
