data_PCOD9119121
_publ_section_title
;
Structure prediction by ZEFSAII (Michael W. Deem and Ramdas Pophale) SiO2 
 PCOD9119121
Probable space group: P 21
;
_chemical_formula_sum "Si O2"
_cell_formula_units_Z 16
_cell_length_a 7.287509
_cell_length_b 5.472957
_cell_length_c 17.992175
_cell_angle_alpha 90.000000
_cell_angle_beta 107.791549
_cell_angle_gamma 90.000000
_cell_volume 683.284140
_symmetry_space_group_name_H-M "P 21"
_symmetry_group_IT_number 4
_symmetry_cell_setting 'monoclinic'
loop_
_space_group_symop_operation_xyz
x,y,z
-x,1/2+y,-z
loop_
_atom_site_type_symbol
_atom_site_label
_atom_site_fract_x
_atom_site_fract_y
_atom_site_fract_z
Si Si1 0.542733 0.972370 0.074284
Si Si2 0.916469 0.831112 0.864309
Si Si3 0.790902 0.619585 0.194886
Si Si4 0.382205 0.758823 0.484468
Si Si5 0.986265 0.221176 0.641877
Si Si6 0.183099 0.706092 0.617290
Si Si7 0.794826 0.167192 0.981745
Si Si8 0.512253 0.269090 0.220523
O O1 0.691376 0.763636 0.117160
O O2 0.314803 0.921515 0.043412
O O3 0.561720 0.154825 0.146180
O O4 0.618382 0.035341 0.002200
O O5 0.717466 0.750004 0.801616
O O6 0.852979 0.053193 0.911101
O O7 0.072132 0.912691 0.822902
O O8 0.033570 0.665550 0.937637
O O9 0.935044 0.767018 0.265560
O O10 0.607596 0.536520 0.221961
O O11 0.523027 0.525906 0.506232
O O12 0.255838 0.746470 0.543407
O O13 0.241757 0.718054 0.397071
O O14 0.062114 0.455919 0.605824
O O15 0.069644 0.953421 0.628579
O O16 0.364953 0.666917 0.695693
#
# Coordination Sequence:
#
# PCOD9119121 Si02
#       8
#     2   2   2   2   2   2   2   2
#     4  12  22  46  64  94 134 182 228 300 352 434
#     4  12  24  42  64 102 128 184 236 298 358 428
#     4  11  24  45  68  98 139 181 237 292 354 421
#     4  12  26  46  74 118 152 182 232 296 348 418
#     4  11  24  47  76 103 144 197 237 282 355 431
#     4  11  24  47  76 103 144 197 237 282 355 431
#     4  12  24  40  68  94 134 178 236 294 366 422
#     4  11  24  45  68  98 139 181 237 292 354 421
#
# _framework density 23.416319000000001
#
# number of rings (size 3 to 8) (size 9 to 14) (size 15 to 20)
#    0.000    0.500    3.750    5.250    1.750    0.000 
#    4.500    0.000    0.000    0.000    0.000    0.000 
#    0.000    0.000    0.000    0.000    0.000    0.000 
#
# Total GULP energy -89377.442407 kJ/mol
# GULP energy per Si atom -5586.090150 kJ/mol
# Density = 2.336302 g / cm^3
# Si number density = 23.416319 Si / 1000 Ang^3
#
#
#
# Elastic Constant Matrix: (Units=GPa)
#
#
# Indices 1 2 3 4 5 6 
#
# 1 101.9141 11.8477 14.6001 0.0000 23.9786 0.0000
# 2 11.8477 40.3994 0.5863 0.0000 1.1370 0.0000
# 3 14.6001 0.5863 76.1245 0.0000 28.2165 0.0000
# 4 0.0000 0.0000 0.0000 27.9881 0.0000 1.9266
# 5 23.9786 1.1370 28.2165 0.0000 41.7583 0.0000
# 6 0.0000 0.0000 0.0000 1.9266 0.0000 48.6344
#
#
#
# Elastic Compliance Matrix: (Units=1/GPa)
#
#
# Indices 1 2 3 4 5 6 
#
# 1 0.011765 -0.003261 0.000320 0.000000 -0.006883 0.000000
# 2 -0.003261 0.025676 -0.000010 0.000000 0.001180 0.000000
# 3 0.000320 -0.000010 0.017535 0.000000 -0.012032 0.000000
# 4 0.000000 0.000000 0.000000 0.035827 0.000000 -0.001419
# 5 -0.006883 0.001180 -0.012032 0.000000 0.035998 0.000000
# 6 0.000000 0.000000 0.000000 -0.001419 0.000000 0.020618
#
#
# Mechanical properties :
#
#
# Convention : Reuss Voigt Hill
#
# Bulk Modulus (GPa) = 20.37727 30.27848 25.32788
# Shear Modulus (GPa) = 29.46746 36.43641 32.95194
#
# Velocity S-wave (km/s) = 3.55126 3.94893 3.75536
# Velocity P-wave (km/s) = 5.05335 5.80953 5.44458
#
# Compressibility (1/GPa) = 0.04907428
#
# Stress axis : x y z
#
# Youngs Moduli (GPa) = 84.99825 38.94663 57.02919
#
# Poissons Ratio (x) = 0.12701 -0.01825
# Poissons Ratio (y) = 0.27719 0.00055
# Poissons Ratio (z) = -0.02720 0.00038
#
# Static dielectric constant tensor:
#      x y z
#    x 1.856220 0.000000 0.022850 
#    y 0.000000 2.025860 0.000000 
#    z 0.022850 0.000000 1.877070 
# 
# From -- ./inp_files/14664.got.cif
#   From: 2010.05.17/outbox.cif.g08.bks.cpg/sg4_8_cif.got.tgz:14664.got - 2010.06.03 18:43:04.
