data_PCOD9119292
_publ_section_title
;
Structure prediction by ZEFSAII (Michael W. Deem and Ramdas Pophale) SiO2 
 PCOD9119292
Probable space group: P 21
;
_chemical_formula_sum "Si O2"
_cell_formula_units_Z 16
_cell_length_a 20.524710
_cell_length_b 5.805325
_cell_length_c 9.635660
_cell_angle_alpha 90.000000
_cell_angle_beta 145.846579
_cell_angle_gamma 90.000000
_cell_volume 644.563645
_symmetry_space_group_name_H-M "P 21"
_symmetry_group_IT_number 4
_symmetry_cell_setting 'monoclinic'
loop_
_space_group_symop_operation_xyz
x,y,z
-x,1/2+y,-z
loop_
_atom_site_type_symbol
_atom_site_label
_atom_site_fract_x
_atom_site_fract_y
_atom_site_fract_z
Si Si1 0.366538 0.644630 0.150654
Si Si2 0.188491 0.131763 0.391498
Si Si3 0.380179 0.880166 0.911441
Si Si4 0.643455 0.024601 0.342420
Si Si5 0.013567 0.975613 0.305685
Si Si6 0.128048 0.749645 0.744312
Si Si7 0.414571 0.880511 0.519480
Si Si8 0.187736 0.113041 0.090923
O O1 0.408730 0.717584 0.375855
O O2 0.455801 0.470314 0.240518
O O3 0.363495 0.870241 0.046363
O O4 0.234277 0.569418 0.932192
O O5 0.242335 0.373119 0.433132
O O6 0.159936 0.005772 0.195089
O O7 0.296949 0.049159 0.678890
O O8 0.076308 0.103527 0.290175
O O9 0.342951 0.635068 0.784128
O O10 0.517381 0.904272 0.124789
O O11 0.627362 0.230876 0.424578
O O12 0.102736 0.806344 0.540450
O O13 0.983403 0.146086 0.377984
O O14 0.897173 0.832590 0.066686
O O15 0.162795 0.952211 0.913483
O O16 0.329127 0.101279 0.346720
#
# Coordination Sequence:
#
# PCOD9119292 Si02
#       8
#     2   2   2   2   2   2   2   2
#     4  11  25  44  74 114 152 198 253 312 391 464
#     4  12  28  46  74 111 149 207 256 320 384 459
#     4  12  23  45  73 111 150 194 250 313 385 466
#     4  12  25  47  74 111 156 197 255 316 388 463
#     4  12  27  50  78 109 150 208 261 319 382 453
#     4  11  26  50  75 110 151 199 263 317 376 463
#     4  11  25  47  75 117 159 199 252 323 396 460
#     4  11  27  49  75 109 155 194 262 322 384 458
#
# _framework density 24.822997000000001
#
# number of rings (size 3 to 8) (size 9 to 14) (size 15 to 20)
#    0.000    0.500    5.000    2.250    7.000    2.000 
#    0.000    0.000    0.000    0.000    0.000    0.000 
#    0.000    0.000    0.000    0.000    0.000    0.000 
#
# Total GULP energy -89374.975480 kJ/mol
# GULP energy per Si atom -5585.935968 kJ/mol
# Density = 2.476650 g / cm^3
# Si number density = 24.822997 Si / 1000 Ang^3
#
#
#
# Elastic Constant Matrix: (Units=GPa)
#
#
# Indices 1 2 3 4 5 6 
#
# 1 140.2808 26.3830 39.0192 0.0000 8.4300 0.0000
# 2 26.3830 37.6745 27.1605 0.0000 15.8880 0.0000
# 3 39.0192 27.1605 104.1919 0.0000 -3.8400 0.0000
# 4 0.0000 0.0000 0.0000 32.4849 0.0000 5.7504
# 5 8.4300 15.8880 -3.8400 0.0000 50.3013 0.0000
# 6 0.0000 0.0000 0.0000 5.7504 0.0000 34.8021
#
#
#
# Elastic Compliance Matrix: (Units=1/GPa)
#
#
# Indices 1 2 3 4 5 6 
#
# 1 0.008543 -0.004421 -0.002054 0.000000 -0.000192 0.000000
# 2 -0.004421 0.042436 -0.009901 0.000000 -0.013419 0.000000
# 3 -0.002054 -0.009901 0.013113 0.000000 0.004473 0.000000
# 4 0.000000 0.000000 0.000000 0.031711 0.000000 -0.005240
# 5 -0.000192 -0.013419 0.004473 0.000000 0.024492 0.000000
# 6 0.000000 0.000000 0.000000 -0.005240 0.000000 0.029600
#
#
# Mechanical properties :
#
#
# Convention : Reuss Voigt Hill
#
# Bulk Modulus (GPa) = 31.90825 51.91916 41.91371
# Shear Modulus (GPa) = 25.89440 36.15662 31.02551
#
# Velocity S-wave (km/s) = 3.23331 3.82065 3.53918
# Velocity P-wave (km/s) = 5.17892 6.35801 5.79852
#
# Compressibility (1/GPa) = 0.03133986
#
# Stress axis : x y z
#
# Youngs Moduli (GPa) = 117.05742 23.56511 76.26205
#
# Poissons Ratio (x) = 0.10417 0.15664
# Poissons Ratio (y) = 0.51747 0.75507
# Poissons Ratio (z) = 0.24043 0.23332
#
# Static dielectric constant tensor:
#      x y z
#    x 1.940520 0.000000 0.009440 
#    y 0.000000 2.084000 0.000000 
#    z 0.009440 0.000000 2.037910 
# 
# From -- ./inp_files/9544.got.cif
#   From: 2010.05.17/outbox.cif.g08.bks.cpg/sg4_5_cif.got.tgz:9544.got - 2010.06.03 18:43:04.
