data_PCOD9119800
_publ_section_title
;
Structure prediction by ZEFSAII (Michael W. Deem and Ramdas Pophale) SiO2 
 PCOD9119800
Probable space group: P 21
;
_chemical_formula_sum "Si O2"
_cell_formula_units_Z 12
_cell_length_a 8.462343
_cell_length_b 8.177940
_cell_length_c 13.609738
_cell_angle_alpha 90.000000
_cell_angle_beta 30.496421
_cell_angle_gamma 90.000000
_cell_volume 477.977139
_symmetry_space_group_name_H-M "P 21"
_symmetry_group_IT_number 4
_symmetry_cell_setting 'monoclinic'
loop_
_space_group_symop_operation_xyz
x,y,z
-x,1/2+y,-z
loop_
_atom_site_type_symbol
_atom_site_label
_atom_site_fract_x
_atom_site_fract_y
_atom_site_fract_z
Si Si1 0.643309 0.528400 0.210796
Si Si2 0.186693 0.378554 0.588103
Si Si3 0.583987 0.368878 0.566543
Si Si4 0.715391 0.205623 0.740438
Si Si5 0.637628 0.019289 0.127165
Si Si6 0.134895 0.206702 0.318319
O O1 0.468182 0.382048 0.358863
O O2 0.551679 0.696678 0.317644
O O3 0.490592 0.551875 0.184367
O O4 0.008020 0.516045 0.029627
O O5 0.364130 0.406338 0.593893
O O6 0.946875 0.228093 0.707827
O O7 0.982032 0.534972 0.665542
O O8 0.548423 0.500557 0.670731
O O9 0.952196 0.339567 0.350690
O O10 0.464489 0.353331 0.874502
O O11 0.957476 0.229257 0.518594
O O12 0.496455 0.173333 0.144493
#
# Coordination Sequence:
#
# PCOD9119800 Si02
#       6
#     2   2   2   2   2   2
#     4   9  19  34  53  79 103 137 179 214 262 314
#     4   9  17  34  53  73 105 135 175 222 254 308
#     4   9  19  34  53  79 103 137 179 214 262 314
#     4   8  17  32  51  73 101 141 174 201 257 323
#     4   9  17  34  53  73 105 135 175 222 254 308
#     4   8  17  32  51  73 101 141 174 201 257 323
#
# _framework density 25.105802000000001
#
# number of rings (size 3 to 8) (size 9 to 14) (size 15 to 20)
#    0.000    4.000    0.000    0.000    0.000    5.333 
#    0.000    6.667    0.000    0.000    0.000    0.000 
#    0.000    0.000    0.000    0.000    0.000    0.000 
#
# Total GULP energy -66856.511521 kJ/mol
# GULP energy per Si atom -5571.375960 kJ/mol
# Density = 2.504866 g / cm^3
# Si number density = 25.105802 Si / 1000 Ang^3
#
#
#
# Elastic Constant Matrix: (Units=GPa)
#
#
# Indices 1 2 3 4 5 6 
#
# 1 91.7776 -0.0346 43.6837 0.0000 -40.8683 0.0000
# 2 -0.0346 78.4248 22.0212 0.0000 -0.3905 0.0000
# 3 43.6837 22.0212 103.3284 0.0000 -47.5823 0.0000
# 4 0.0000 0.0000 0.0000 16.0319 0.0000 -6.4912
# 5 -40.8683 -0.3905 -47.5823 0.0000 42.1499 0.0000
# 6 0.0000 0.0000 0.0000 -6.4912 0.0000 15.8068
#
#
#
# Elastic Compliance Matrix: (Units=1/GPa)
#
#
# Indices 1 2 3 4 5 6 
#
# 1 0.019222 -0.000182 0.001029 0.000000 0.019797 0.000000
# 2 -0.000182 0.014487 -0.006310 0.000000 -0.007166 0.000000
# 3 0.001029 -0.006310 0.022951 0.000000 0.026849 0.000000
# 4 0.000000 0.000000 0.000000 0.074815 0.000000 0.030724
# 5 0.019797 -0.007166 0.026849 0.000000 0.073163 0.000000
# 6 0.000000 0.000000 0.000000 0.030724 0.000000 0.075881
#
#
# Mechanical properties :
#
#
# Convention : Reuss Voigt Hill
#
# Bulk Modulus (GPa) = 21.86572 44.98570 33.42571
# Shear Modulus (GPa) = 16.30306 28.65507 22.47906
#
# Velocity S-wave (km/s) = 2.55105 3.38209 2.99552
# Velocity P-wave (km/s) = 4.17198 5.76270 5.03061
#
# Compressibility (1/GPa) = 0.04573368
#
# Stress axis : x y z
#
# Youngs Moduli (GPa) = 52.02458 69.02617 43.57015
#
# Poissons Ratio (x) = 0.01255 -0.04483
# Poissons Ratio (y) = 0.00946 0.27495
# Poissons Ratio (z) = -0.05353 0.43559
#
# Static dielectric constant tensor:
#      x y z
#    x 2.060170 0.000000 -0.005890 
#    y 0.000000 2.112280 0.000000 
#    z -0.005890 0.000000 2.011910 
# 
# From -- ./inp_files/14927.got.cif
#   From: 2010.05.17/outbox.cif.g08.bks.cpg/sg4_8_cif.got.tgz:14927.got - 2010.06.03 18:43:04.
