data_PCOD9119804
_publ_section_title
;
Structure prediction by ZEFSAII (Michael W. Deem and Ramdas Pophale) SiO2 
 PCOD9119804
Probable space group: P 21
;
_chemical_formula_sum "Si O2"
_cell_formula_units_Z 16
_cell_length_a 5.516237
_cell_length_b 6.775474
_cell_length_c 17.524269
_cell_angle_alpha 90.000000
_cell_angle_beta 66.453936
_cell_angle_gamma 90.000000
_cell_volume 600.438196
_symmetry_space_group_name_H-M "P 21"
_symmetry_group_IT_number 4
_symmetry_cell_setting 'monoclinic'
loop_
_space_group_symop_operation_xyz
x,y,z
-x,1/2+y,-z
loop_
_atom_site_type_symbol
_atom_site_label
_atom_site_fract_x
_atom_site_fract_y
_atom_site_fract_z
Si Si1 0.200963 0.633330 0.544896
Si Si2 0.319888 0.944676 0.894708
Si Si3 0.455379 0.539749 0.356301
Si Si4 0.000845 0.449041 0.319973
Si Si5 0.287335 0.045386 0.065410
Si Si6 0.200806 0.505625 0.080964
Si Si7 0.396239 0.064166 0.379068
Si Si8 0.358242 0.099154 0.216759
O O1 0.354566 0.638630 0.446216
O O2 0.138618 0.849285 0.587885
O O3 0.383665 0.521683 0.584649
O O4 0.915945 0.531201 0.567110
O O5 0.604182 0.045622 0.873459
O O6 0.403910 0.745881 0.840438
O O7 0.097455 0.072454 0.881660
O O8 0.206279 0.937316 0.997271
O O9 0.767640 0.562425 0.306608
O O10 0.420927 0.302984 0.369923
O O11 0.244949 0.580219 0.316639
O O12 0.117393 0.253253 0.264589
O O13 0.178165 0.267148 0.077906
O O14 0.263029 0.976054 0.155188
O O15 0.604610 0.058237 0.012297
O O16 0.441683 0.999200 0.285563
#
# Coordination Sequence:
#
# PCOD9119804 Si02
#       8
#     2   2   2   2   2   2   2   2
#     4   9  16  30  47  72 103 128 162 208 253 312
#     4   9  20  31  51  78 105 143 180 224 278 317
#     4   9  16  30  47  72 105 125 161 210 250 315
#     4   9  19  29  47  82  96 132 174 207 271 298
#     4   9  20  34  54  80 109 145 188 230 279 321
#     4   9  20  32  50  79 104 137 195 219 279 328
#     4   9  19  29  47  82  96 133 173 208 268 301
#     4   9  18  35  51  77 114 133 179 238 258 330
#
# _framework density 26.647207000000002
#
# number of rings (size 3 to 8) (size 9 to 14) (size 15 to 20)
#    0.750    2.500    0.000    0.750    3.500    8.000 
#    0.000    0.000    0.000    0.000   52.000    0.000 
#    0.000    0.000    0.000    0.000    0.000    0.000 
#
# Total GULP energy -89178.089372 kJ/mol
# GULP energy per Si atom -5573.630586 kJ/mol
# Density = 2.658656 g / cm^3
# Si number density = 26.647207 Si / 1000 Ang^3
#
#
#
# Elastic Constant Matrix: (Units=GPa)
#
#
# Indices 1 2 3 4 5 6 
#
# 1 260.7990 -5.1123 51.2952 0.0000 -8.7560 0.0000
# 2 -5.1123 77.0312 -3.1989 0.0000 -1.1609 0.0000
# 3 51.2952 -3.1989 117.7570 0.0000 30.1479 0.0000
# 4 0.0000 0.0000 0.0000 29.1879 0.0000 -1.4240
# 5 -8.7560 -1.1609 30.1479 0.0000 34.9605 0.0000
# 6 0.0000 0.0000 0.0000 -1.4240 0.0000 10.1179
#
#
#
# Elastic Compliance Matrix: (Units=1/GPa)
#
#
# Indices 1 2 3 4 5 6 
#
# 1 0.004532 0.000235 -0.002901 0.000000 0.003644 0.000000
# 2 0.000235 0.013009 0.000161 0.000000 0.000352 0.000000
# 3 -0.002901 0.000161 0.012762 0.000000 -0.011727 0.000000
# 4 0.000000 0.000000 0.000000 0.034498 0.000000 0.004855
# 5 0.003644 0.000352 -0.011727 0.000000 0.039640 0.000000
# 6 0.000000 0.000000 0.000000 0.004855 0.000000 0.099518
#
#
# Mechanical properties :
#
#
# Convention : Reuss Voigt Hill
#
# Bulk Modulus (GPa) = 39.53513 60.17282 49.85397
# Shear Modulus (GPa) = 22.99902 42.36012 32.67957
#
# Velocity S-wave (km/s) = 2.94103 3.99139 3.50577
# Velocity P-wave (km/s) = 5.13825 6.62358 5.92762
#
# Compressibility (1/GPa) = 0.02529396
#
# Stress axis : x y z
#
# Youngs Moduli (GPa) = 220.66034 76.86784 78.35647
#
# Poissons Ratio (x) = -0.01808 0.22729
# Poissons Ratio (y) = -0.05190 -0.01260
# Poissons Ratio (z) = 0.64007 -0.01236
#
# Static dielectric constant tensor:
#      x y z
#    x 2.193630 0.000000 0.050320 
#    y 0.000000 2.108910 0.000000 
#    z 0.050320 0.000000 2.139540 
# 
# From -- ./inp_files/14730.got.cif
#   From: 2010.05.17/outbox.cif.g08.bks.cpg/sg4_8_cif.got.tgz:14730.got - 2010.06.03 18:43:04.
