data_PCOD9119300
_publ_section_title
;
Structure prediction by ZEFSAII (Michael W. Deem and Ramdas Pophale) SiO2 
 PCOD9119300
Probable space group: P 21
;
_chemical_formula_sum "Si O2"
_cell_formula_units_Z 16
_cell_length_a 18.077761
_cell_length_b 8.176028
_cell_length_c 9.755394
_cell_angle_alpha 90.000000
_cell_angle_beta 151.811093
_cell_angle_gamma 90.000000
_cell_volume 681.119704
_symmetry_space_group_name_H-M "P 21"
_symmetry_group_IT_number 4
_symmetry_cell_setting 'monoclinic'
loop_
_space_group_symop_operation_xyz
x,y,z
-x,1/2+y,-z
loop_
_atom_site_type_symbol
_atom_site_label
_atom_site_fract_x
_atom_site_fract_y
_atom_site_fract_z
Si Si1 0.463541 0.856760 0.749708
Si Si2 0.090864 0.692303 0.834202
Si Si3 0.080597 0.862716 0.535658
Si Si4 0.460047 0.634632 0.489412
Si Si5 0.931444 0.758401 0.056403
Si Si6 0.110213 0.913130 0.121739
Si Si7 0.414258 0.308416 0.552256
Si Si8 0.615858 0.180848 0.106284
O O1 0.511360 0.767408 0.687248
O O2 0.296127 0.935359 0.437104
O O3 0.413098 0.720185 0.781374
O O4 0.584181 0.991842 0.007998
O O5 0.087639 0.827550 0.707933
O O6 0.970895 0.547925 0.591196
O O7 0.273785 0.638585 0.149353
O O8 0.059657 0.772987 0.931414
O O9 0.230705 0.770094 0.709509
O O10 0.939246 0.764342 0.231941
O O11 0.496603 0.462669 0.617795
O O12 0.546880 0.664009 0.489788
O O13 0.960678 0.578512 0.050907
O O14 0.768773 0.829405 0.741223
O O15 0.055608 0.872193 0.184229
O O16 0.477366 0.275597 0.803766
#
# Coordination Sequence:
#
# PCOD9119300 Si02
#       8
#     2   2   2   2   2   2   2   2
#     4  11  25  46  72 105 148 189 241 299 364 429
#     4  11  25  46  72 105 148 189 241 299 364 429
#     4  12  25  46  72 108 149 189 241 304 362 430
#     4  11  25  45  73 106 144 192 242 296 362 435
#     4  12  25  45  75 104 146 192 243 296 363 435
#     4  11  25  45  73 106 144 192 242 296 362 435
#     4  12  25  45  75 104 146 192 243 296 363 435
#     4  12  25  46  72 108 149 189 241 304 362 430
#
# _framework density 23.490731
#
# number of rings (size 3 to 8) (size 9 to 14) (size 15 to 20)
#    0.000    0.500    5.000    3.000    3.500    2.000 
#    0.000    3.750    0.000    0.000    0.000    0.000 
#    0.000    0.000    0.000    0.000    0.000    0.000 
#
# Total GULP energy -89364.931893 kJ/mol
# GULP energy per Si atom -5585.308243 kJ/mol
# Density = 2.343726 g / cm^3
# Si number density = 23.490731 Si / 1000 Ang^3
#
#
#
# Elastic Constant Matrix: (Units=GPa)
#
#
# Indices 1 2 3 4 5 6 
#
# 1 55.2088 19.8979 -0.7150 0.0000 -0.9494 0.0000
# 2 19.8979 106.2028 14.8226 0.0000 -3.9003 0.0000
# 3 -0.7150 14.8226 66.7173 0.0000 -12.3264 0.0000
# 4 0.0000 0.0000 0.0000 42.5216 0.0000 -8.2093
# 5 -0.9494 -3.9003 -12.3264 0.0000 33.7966 0.0000
# 6 0.0000 0.0000 0.0000 -8.2093 0.0000 35.5328
#
#
#
# Elastic Compliance Matrix: (Units=1/GPa)
#
#
# Indices 1 2 3 4 5 6 
#
# 1 0.019505 -0.003795 0.001150 0.000000 0.000529 0.000000
# 2 -0.003795 0.010460 -0.002317 0.000000 0.000255 0.000000
# 3 0.001150 -0.002317 0.016590 0.000000 0.005816 0.000000
# 4 0.000000 0.000000 0.000000 0.024615 0.000000 0.005687
# 5 0.000529 0.000255 0.005816 0.000000 0.031754 0.000000
# 6 0.000000 0.000000 0.000000 0.005687 0.000000 0.029457
#
#
# Mechanical properties :
#
#
# Convention : Reuss Voigt Hill
#
# Bulk Modulus (GPa) = 27.30033 32.90442 30.10238
# Shear Modulus (GPa) = 32.35887 35.31175 33.83531
#
# Velocity S-wave (km/s) = 3.71552 3.88135 3.79934
# Velocity P-wave (km/s) = 5.48213 5.84160 5.66472
#
# Compressibility (1/GPa) = 0.03662959
#
# Stress axis : x y z
#
# Youngs Moduli (GPa) = 51.26895 95.60346 60.27624
#
# Poissons Ratio (x) = 0.36286 -0.06932
# Poissons Ratio (y) = 0.19459 0.13968
# Poissons Ratio (z) = -0.05896 0.22155
#
# Static dielectric constant tensor:
#      x y z
#    x 1.813030 0.000000 0.024620 
#    y 0.000000 2.036610 0.000000 
#    z 0.024620 0.000000 1.878350 
# 
# From -- ./inp_files/9629.got.cif
#   From: 2010.05.17/outbox.cif.g08.bks.cpg/sg4_5_cif.got.tgz:9629.got - 2010.06.03 18:43:04.
