data_PCOD9119570
_publ_section_title
;
Structure prediction by ZEFSAII (Michael W. Deem and Ramdas Pophale) SiO2 
 PCOD9119570
Probable space group: P 21
;
_chemical_formula_sum "Si O2"
_cell_formula_units_Z 16
_cell_length_a 6.996005
_cell_length_b 5.246288
_cell_length_c 31.188264
_cell_angle_alpha 90.000000
_cell_angle_beta 37.063398
_cell_angle_gamma 90.000000
_cell_volume 689.911592
_symmetry_space_group_name_H-M "P 21"
_symmetry_group_IT_number 4
_symmetry_cell_setting 'monoclinic'
loop_
_space_group_symop_operation_xyz
x,y,z
-x,1/2+y,-z
loop_
_atom_site_type_symbol
_atom_site_label
_atom_site_fract_x
_atom_site_fract_y
_atom_site_fract_z
Si Si1 0.175103 0.640560 0.002284
Si Si2 0.314228 0.663946 0.234567
Si Si3 0.256573 0.421906 0.076941
Si Si4 0.415426 0.218355 0.628345
Si Si5 0.537100 0.275599 0.888817
Si Si6 0.355657 0.660945 0.787990
Si Si7 0.408764 0.218022 0.350346
Si Si8 0.337120 0.662407 0.510354
O O1 0.156387 0.453227 0.045871
O O2 0.822262 0.661777 0.048584
O O3 0.368417 0.864061 0.990802
O O4 0.423001 0.560100 0.920942
O O5 0.312765 0.720660 0.183911
O O6 0.457319 0.388515 0.220609
O O7 0.956494 0.686264 0.315471
O O8 0.527363 0.887315 0.216727
O O9 0.250908 0.654685 0.111726
O O10 0.011993 0.213851 0.137965
O O11 0.473106 0.491037 0.639944
O O12 0.613834 0.193662 0.549277
O O13 0.512807 0.990679 0.642836
O O14 0.429071 0.689670 0.724724
O O15 0.031593 0.188998 0.412499
O O16 0.469648 0.389215 0.501333
#
# Coordination Sequence:
#
# PCOD9119570 Si02
#       8
#     2   2   2   2   2   2   2   2
#     4  12  26  44  68  98 134 180 238 294 362 430
#     4  12  28  47  71 101 142 185 236 291 357 424
#     4  12  27  44  69  98 137 183 236 296 363 430
#     4  12  25  46  73 106 144 187 238 288 350 419
#     4  12  27  44  69  98 137 183 236 296 363 430
#     4  12  28  47  71 101 142 185 236 291 357 424
#     4  12  25  46  73 106 144 187 238 288 350 419
#     4  12  24  44  74 108 148 188 234 288 350 414
#
# _framework density 23.191379000000001
#
# number of rings (size 3 to 8) (size 9 to 14) (size 15 to 20)
#    0.000    0.000    3.750    6.000    8.750    0.000 
#    0.000    0.000    0.000    0.000    0.000    0.000 
#    0.000    0.000    0.000    0.000    0.000    0.000 
#
# Total GULP energy -89563.555421 kJ/mol
# GULP energy per Si atom -5597.722214 kJ/mol
# Density = 2.313859 g / cm^3
# Si number density = 23.191379 Si / 1000 Ang^3
#
#
#
# Elastic Constant Matrix: (Units=GPa)
#
#
# Indices 1 2 3 4 5 6 
#
# 1 69.9568 -3.3394 8.4873 0.0000 -7.4716 0.0000
# 2 -3.3394 40.2962 -4.4961 0.0002 -10.1601 0.0000
# 3 8.4873 -4.4961 78.1673 0.0003 8.8703 0.0001
# 4 0.0000 0.0002 0.0003 28.9744 0.0000 -4.4737
# 5 -7.4716 -10.1601 8.8703 0.0000 67.9350 0.0000
# 6 0.0000 0.0000 0.0001 -4.4737 0.0000 57.4698
#
#
#
# Elastic Compliance Matrix: (Units=1/GPa)
#
#
# Indices 1 2 3 4 5 6 
#
# 1 0.014805 0.001558 -0.001755 0.000000 0.002090 0.000000
# 2 0.001558 0.026040 0.000880 0.000000 0.003951 0.000000
# 3 -0.001755 0.000880 0.013237 0.000000 -0.001790 0.000000
# 4 0.000000 0.000000 0.000000 0.034933 0.000000 0.002719
# 5 0.002090 0.003951 -0.001790 0.000000 0.015774 0.000000
# 6 0.000000 0.000000 0.000000 0.002719 0.000000 0.017612
#
#
# Mechanical properties :
#
#
# Convention : Reuss Voigt Hill
#
# Bulk Modulus (GPa) = 18.03462 21.08042 19.55752
# Shear Modulus (GPa) = 35.83762 43.39374 39.61568
#
# Velocity S-wave (km/s) = 3.93529 4.33033 4.13753
# Velocity P-wave (km/s) = 5.33311 5.84054 5.59258
#
# Compressibility (1/GPa) = 0.05544892
#
# Stress axis : x y z
#
# Youngs Moduli (GPa) = 67.54417 38.40284 75.54366
#
# Poissons Ratio (x) = -0.05984 0.13259
# Poissons Ratio (y) = -0.10525 -0.06650
# Poissons Ratio (z) = 0.11855 -0.03381
#
# Static dielectric constant tensor:
#      x y z
#    x 1.851880 0.000000 0.004240 
#    y 0.000000 1.975850 0.000000 
#    z 0.004240 0.000000 1.820940 
# 
# From -- ./inp_files/3953.got.cif
#   From: 2010.05.17/outbox.cif.g08.bks.cpg/sg4_2_cif.got.tgz:3953.got - 2010.06.03 18:43:04.
