data_PCOD9119897
_publ_section_title
;
Structure prediction by ZEFSAII (Michael W. Deem and Ramdas Pophale) SiO2 
 PCOD9119897
Probable space group: P 21
;
_chemical_formula_sum "Si O2"
_cell_formula_units_Z 16
_cell_length_a 12.000000
_cell_length_b 6.000000
_cell_length_c 9.000000
_cell_angle_alpha 90.000000
_cell_angle_beta 80.000000
_cell_angle_gamma 90.000000
_cell_volume 638.155424
_symmetry_space_group_name_H-M "P 21"
_symmetry_group_IT_number 4
_symmetry_cell_setting 'monoclinic'
loop_
_space_group_symop_operation_xyz
x,y,z
-x,1/2+y,-z
loop_
_atom_site_type_symbol
_atom_site_label
_atom_site_fract_x
_atom_site_fract_y
_atom_site_fract_z
Si Si1 0.613340 0.832290 0.407777
Si Si2 0.784114 0.928501 0.800361
Si Si3 0.801012 0.133706 0.474983
Si Si4 0.372541 0.965544 0.848129
Si Si5 0.866989 0.280855 0.002183
Si Si6 0.638854 0.473279 0.599509
Si Si7 0.012336 0.108155 0.235381
Si Si8 0.438406 0.167697 0.122215
O O1 0.632248 0.631525 0.288964
O O2 0.635624 0.733367 0.565573
O O3 0.480379 0.883975 0.434448
O O4 0.710563 0.018223 0.383053
O O5 0.657717 0.853104 0.858795
O O6 0.871355 0.728056 0.751732
O O7 0.790344 0.069572 0.649362
O O8 0.825945 0.053168 0.937889
O O9 0.750629 0.381328 0.497963
O O10 0.926295 0.084317 0.390996
O O11 0.445459 0.736722 0.823256
O O12 0.448425 0.092509 0.952221
O O13 0.245939 0.920773 0.934502
O O14 0.948763 0.389769 0.860815
O O15 0.938708 0.248947 0.134207
O O16 0.622094 0.460768 0.778604
#
# Coordination Sequence:
#
# PCOD9119897 Si02
#       8
#     2   2   2   2   2   2   2   2
#     4  12  25  44  73 107 151 189 240 294 365 439
#     4  12  27  50  74 107 149 188 243 307 367 432
#     4  12  29  45  77 109 144 198 245 300 369 439
#     4  12  26  44  76 113 146 194 242 302 369 442
#     4  12  27  51  75 104 147 194 246 304 359 434
#     4  12  24  48  70 108 150 191 239 300 365 437
#     4  12  29  49  75 105 143 198 247 300 363 436
#     4  12  25  47  74 113 150 190 244 303 377 437
#
# _framework density 25.072261999999998
#
# number of rings (size 3 to 8) (size 9 to 14) (size 15 to 20)
#    0.000    0.000    5.000    4.500    7.000    1.000 
#    0.000    0.000    0.000    0.000    0.000    0.000 
#    0.000    0.000    0.000    0.000    0.000    0.000 
#
# Total GULP energy -89400.288427 kJ/mol
# GULP energy per Si atom -5587.518027 kJ/mol
# Density = 2.501520 g / cm^3
# Si number density = 25.072262 Si / 1000 Ang^3
#
#
#
# Elastic Constant Matrix: (Units=GPa)
#
#
# Indices 1 2 3 4 5 6 
#
# 1 106.9011 7.3287 18.6534 0.0000 -18.1507 0.0000
# 2 7.3287 20.2328 16.1732 0.0000 -5.3020 0.0000
# 3 18.6534 16.1732 62.0350 0.0000 -10.8872 0.0000
# 4 0.0000 0.0000 0.0000 37.4263 0.0000 5.6471
# 5 -18.1507 -5.3020 -10.8872 0.0000 51.0257 0.0000
# 6 0.0000 0.0000 0.0000 5.6471 0.0000 38.7443
#
#
#
# Elastic Compliance Matrix: (Units=1/GPa)
#
#
# Indices 1 2 3 4 5 6 
#
# 1 0.010352 -0.001120 -0.002280 0.000000 0.003079 0.000000
# 2 -0.001120 0.063043 -0.015604 0.000000 0.002823 0.000000
# 3 -0.002280 -0.015604 0.021242 0.000000 0.002100 0.000000
# 4 0.000000 0.000000 0.000000 0.027320 0.000000 -0.003982
# 5 0.003079 0.002823 0.002100 0.000000 0.021435 0.000000
# 6 0.000000 0.000000 0.000000 -0.003982 0.000000 0.026391
#
#
# Mechanical properties :
#
#
# Convention : Reuss Voigt Hill
#
# Bulk Modulus (GPa) = 17.65877 30.38660 24.02269
# Shear Modulus (GPa) = 22.05880 35.24017 28.64949
#
# Velocity S-wave (km/s) = 2.96937 3.75313 3.38402
# Velocity P-wave (km/s) = 4.33759 5.56122 4.98708
#
# Compressibility (1/GPa) = 0.05662908
#
# Stress axis : x y z
#
# Youngs Moduli (GPa) = 96.59992 15.86221 47.07603
#
# Poissons Ratio (x) = 0.01776 0.10735
# Poissons Ratio (y) = 0.10818 0.73456
# Poissons Ratio (z) = 0.22028 0.24751
#
# Static dielectric constant tensor:
#      x y z
#    x 1.916430 0.000000 -0.012800 
#    y 0.000000 2.111430 0.000000 
#    z -0.012800 0.000000 2.028320 
# 
# From -- ./inp_files/7363.got.cif
#   From: 2010.05.17/outbox.ucp.g08.bks.cvg/sg4_4_cif.got.tgz:7363.got - 2010.06.11 12:51:24.
