data_PCOD9119441
_publ_section_title
;
Structure prediction by ZEFSAII (Michael W. Deem and Ramdas Pophale) SiO2 
 PCOD9119441
Probable space group: P 21
;
_chemical_formula_sum "Si O2"
_cell_formula_units_Z 14
_cell_length_a 8.754846
_cell_length_b 7.639678
_cell_length_c 9.927433
_cell_angle_alpha 90.000000
_cell_angle_beta 54.167795
_cell_angle_gamma 90.000000
_cell_volume 538.318613
_symmetry_space_group_name_H-M "P 21"
_symmetry_group_IT_number 4
_symmetry_cell_setting 'monoclinic'
loop_
_space_group_symop_operation_xyz
x,y,z
-x,1/2+y,-z
loop_
_atom_site_type_symbol
_atom_site_label
_atom_site_fract_x
_atom_site_fract_y
_atom_site_fract_z
Si Si1 0.674805 0.101040 0.298581
Si Si2 0.689280 0.519390 0.323177
Si Si3 0.630472 0.169136 0.019357
Si Si4 0.018255 0.320744 0.767129
Si Si5 0.760172 0.772581 0.685626
Si Si6 0.872290 0.394872 0.542139
Si Si7 0.589471 0.102496 0.730485
O O1 0.486770 0.057108 0.483350
O O2 0.637473 0.067157 0.157705
O O3 0.715391 0.309813 0.297268
O O4 0.850216 0.978402 0.249391
O O5 0.866929 0.639573 0.270687
O O6 0.807830 0.591570 0.589369
O O7 0.620003 0.595825 0.214587
O O8 0.416656 0.239419 0.127664
O O9 0.638341 0.096628 0.863402
O O10 0.809723 0.298038 0.938759
O O11 0.961912 0.353094 0.641535
O O12 0.955038 0.846470 0.643944
O O13 0.677289 0.921450 0.631103
O O14 0.700626 0.264700 0.612655
#
# Coordination Sequence:
#
# PCOD9119441 Si02
#       7
#     2   2   2   2   2   2   2
#     4  12  26  50  80 115 155 207 259 316 384 463
#     4  12  26  50  84 113 157 208 263 321 379 461
#     4  11  29  50  78 112 161 202 253 321 394 466
#     4  11  28  50  72 116 160 201 262 308 400 461
#     4  12  24  48  78 111 154 196 266 318 386 449
#     4  11  26  47  78 113 150 209 262 324 375 469
#     4  11  27  49  76 118 155 201 259 326 388 459
#
# _framework density 26.006905
#
# number of rings (size 3 to 8) (size 9 to 14) (size 15 to 20)
#    0.000    0.571    4.286    1.714    8.000    3.429 
#    0.000    1.429    0.000    0.000    0.000    0.000 
#    0.000    0.000    0.000    0.000    0.000    0.000 
#
# Total GULP energy -78299.091203 kJ/mol
# GULP energy per Si atom -5592.792229 kJ/mol
# Density = 2.594771 g / cm^3
# Si number density = 26.006905 Si / 1000 Ang^3
#
#
#
# Elastic Constant Matrix: (Units=GPa)
#
#
# Indices 1 2 3 4 5 6 
#
# 1 149.7231 84.8196 64.4666 0.0000 10.3527 0.0000
# 2 84.8196 191.7783 28.6650 0.0000 -17.2811 0.0000
# 3 64.4666 28.6650 120.2093 0.0000 -2.2500 0.0000
# 4 0.0000 0.0000 0.0000 22.7695 0.0000 -11.9082
# 5 10.3527 -17.2811 -2.2500 0.0000 64.5487 0.0000
# 6 0.0000 0.0000 0.0000 -11.9082 0.0000 46.3653
#
#
#
# Elastic Compliance Matrix: (Units=1/GPa)
#
#
# Indices 1 2 3 4 5 6 
#
# 1 0.011902 -0.004775 -0.005308 0.000000 -0.003372 0.000000
# 2 -0.004775 0.007453 0.000836 0.000000 0.002790 0.000000
# 3 -0.005308 0.000836 0.010993 0.000000 0.001458 0.000000
# 4 0.000000 0.000000 0.000000 0.050733 0.000000 0.013030
# 5 -0.003372 0.002790 0.001458 0.000000 0.016831 0.000000
# 6 0.000000 0.000000 0.000000 0.013030 0.000000 0.024914
#
#
# Mechanical properties :
#
#
# Convention : Reuss Voigt Hill
#
# Bulk Modulus (GPa) = 84.35301 90.84591 87.59946
# Shear Modulus (GPa) = 34.41831 45.65400 40.03615
#
# Velocity S-wave (km/s) = 3.64184 4.19436 3.92783
# Velocity P-wave (km/s) = 7.08444 7.64619 7.37067
#
# Compressibility (1/GPa) = 0.01185494
#
# Stress axis : x y z
#
# Youngs Moduli (GPa) = 84.01627 134.18070 90.96487
#
# Poissons Ratio (x) = 0.64068 0.48281
# Poissons Ratio (y) = 0.40116 -0.07602
# Poissons Ratio (z) = 0.44593 -0.11214
#
# Static dielectric constant tensor:
#      x y z
#    x 2.108410 0.000000 -0.063470 
#    y 0.000000 2.066240 0.000000 
#    z -0.063470 0.000000 2.140120 
# 
# From -- ./inp_files/5352.got.cif
#   From: 2010.05.17/outbox.cif.g08.bks.cpg/sg4_3_cif.got.tgz:5352.got - 2010.06.03 18:43:04.
