data_PCOD9119830
_publ_section_title
;
Structure prediction by ZEFSAII (Michael W. Deem and Ramdas Pophale) SiO2 
 PCOD9119830
Probable space group: P 21
;
_chemical_formula_sum "Si O2"
_cell_formula_units_Z 16
_cell_length_a 18.000000
_cell_length_b 9.000000
_cell_length_c 9.000000
_cell_angle_alpha 90.000000
_cell_angle_beta 150.000000
_cell_angle_gamma 90.000000
_cell_volume 729.000000
_symmetry_space_group_name_H-M "P 21"
_symmetry_group_IT_number 4
_symmetry_cell_setting 'monoclinic'
loop_
_space_group_symop_operation_xyz
x,y,z
-x,1/2+y,-z
loop_
_atom_site_type_symbol
_atom_site_label
_atom_site_fract_x
_atom_site_fract_y
_atom_site_fract_z
Si Si1 0.984948 0.281210 0.780597
Si Si2 0.667244 0.864413 0.655288
Si Si3 0.865933 0.511814 0.383769
Si Si4 0.085040 0.478444 0.493852
Si Si5 0.939555 0.721942 0.765750
Si Si6 0.558064 0.636933 0.702660
Si Si7 0.393653 0.194936 0.728006
Si Si8 0.433368 0.399733 0.079231
O O1 0.856334 0.388298 0.495755
O O2 0.965458 0.142279 0.639092
O O3 0.150371 0.359464 0.046072
O O4 0.964964 0.230221 0.917657
O O5 0.626462 0.712906 0.673956
O O6 0.599404 0.827654 0.378194
O O7 0.574912 0.014105 0.544851
O O8 0.954924 0.637076 0.633544
O O9 0.974625 0.448313 0.442017
O O10 0.705542 0.568606 0.043916
O O11 0.061917 0.387333 0.301561
O O12 0.262185 0.446314 0.830187
O O13 0.781556 0.662952 0.553621
O O14 0.500891 0.791306 0.679937
O O15 0.482790 0.049214 0.828629
O O16 0.435793 0.278108 0.951822
#
# Coordination Sequence:
#
# PCOD9119830 Si02
#       8
#     2   2   2   2   2   2   2   2
#     4  11  24  43  69 103 144 185 238 308 374 431
#     4  11  25  45  66 104 150 187 243 312 363 438
#     4  12  23  44  73 103 139 192 248 294 364 452
#     4  11  22  42  70 102 140 188 243 301 358 442
#     4  10  23  45  66  99 144 186 238 303 363 437
#     4  12  24  47  69 103 146 196 249 303 368 442
#     4  10  22  41  69  98 143 185 239 301 360 436
#     4  11  23  43  72 104 138 193 248 298 370 440
#
# _framework density 21.947873999999999
#
# number of rings (size 3 to 8) (size 9 to 14) (size 15 to 20)
#    0.000    1.000    3.750    3.750    1.750    0.000 
#    2.250    1.250    0.000    0.000    0.000    0.000 
#    0.000    0.000    0.000    0.000    0.000    0.000 
#
# Total GULP energy -89086.337406 kJ/mol
# GULP energy per Si atom -5567.896088 kJ/mol
# Density = 2.189792 g / cm^3
# Si number density = 21.947874 Si / 1000 Ang^3
#
#
#
# Elastic Constant Matrix: (Units=GPa)
#
#
# Indices 1 2 3 4 5 6 
#
# 1 71.0455 5.2682 8.5762 0.0000 2.1040 0.0000
# 2 5.2682 87.2324 25.3989 0.0000 12.8712 0.0000
# 3 8.5762 25.3989 53.7243 0.0000 -4.3070 0.0000
# 4 0.0000 0.0000 0.0000 39.5050 0.0000 -2.0835
# 5 2.1040 12.8712 -4.3070 0.0000 35.7374 0.0000
# 6 0.0000 0.0000 0.0000 -2.0835 0.0000 44.6296
#
#
#
# Elastic Compliance Matrix: (Units=1/GPa)
#
#
# Indices 1 2 3 4 5 6 
#
# 1 0.014398 -0.000008 -0.002385 0.000000 -0.001132 0.000000
# 2 -0.000008 0.014504 -0.007346 0.000000 -0.006109 0.000000
# 3 -0.002385 -0.007346 0.022912 0.000000 0.005547 0.000000
# 4 0.000000 0.000000 0.000000 0.025376 0.000000 0.001185
# 5 -0.001132 -0.006109 0.005547 0.000000 0.030917 0.000000
# 6 0.000000 0.000000 0.000000 0.001185 0.000000 0.022462
#
#
# Mechanical properties :
#
#
# Convention : Reuss Voigt Hill
#
# Bulk Modulus (GPa) = 30.92537 32.27654 31.60096
# Shear Modulus (GPa) = 31.08977 35.49167 33.29072
#
# Velocity S-wave (km/s) = 3.76776 4.02567 3.89885
# Velocity P-wave (km/s) = 5.74883 6.02876 5.89046
#
# Compressibility (1/GPa) = 0.03233591
#
# Stress axis : x y z
#
# Youngs Moduli (GPa) = 69.45625 68.94559 43.64570
#
# Poissons Ratio (x) = 0.00054 0.10411
# Poissons Ratio (y) = 0.00055 0.32060
# Poissons Ratio (z) = 0.16568 0.50644
#
# Static dielectric constant tensor:
#      x y z
#    x 1.859210 0.000000 -0.038660 
#    y 0.000000 1.909820 0.000000 
#    z -0.038660 0.000000 1.815140 
# 
# From -- ./inp_files/9677.got.cif
#   From: 2010.05.17/outbox.ucp.g08.bks.cvg/sg4_5_cif.got.tgz:9677.got - 2010.06.11 12:51:24.
