data_PCOD9119642
_publ_section_title
;
Structure prediction by ZEFSAII (Michael W. Deem and Ramdas Pophale) SiO2 
 PCOD9119642
Probable space group: P 21
;
_chemical_formula_sum "Si O2"
_cell_formula_units_Z 12
_cell_length_a 14.553086
_cell_length_b 8.392173
_cell_length_c 9.417793
_cell_angle_alpha 90.000000
_cell_angle_beta 24.960025
_cell_angle_gamma 90.000000
_cell_volume 485.374029
_symmetry_space_group_name_H-M "P 21"
_symmetry_group_IT_number 4
_symmetry_cell_setting 'monoclinic'
loop_
_space_group_symop_operation_xyz
x,y,z
-x,1/2+y,-z
loop_
_atom_site_type_symbol
_atom_site_label
_atom_site_fract_x
_atom_site_fract_y
_atom_site_fract_z
Si Si1 0.881232 0.597350 0.235921
Si Si2 0.172702 0.312209 0.437571
Si Si3 0.371761 0.573102 0.499296
Si Si4 0.337351 0.811945 0.289806
Si Si5 0.902192 0.134054 0.611378
Si Si6 0.518151 0.224875 0.361310
O O1 0.921802 0.746239 0.284455
O O2 0.748448 0.465615 0.509223
O O3 0.719814 0.652578 0.338865
O O4 0.115558 0.531750 0.868981
O O5 0.077518 0.470577 0.501835
O O6 0.115860 0.179901 0.398799
O O7 0.426699 0.340340 0.107566
O O8 0.381372 0.670427 0.340036
O O9 0.506158 0.410932 0.335378
O O10 0.431091 0.691335 0.545964
O O11 0.164588 0.761433 0.414070
O O12 0.701878 0.138509 0.005829
#
# Coordination Sequence:
#
# PCOD9119642 Si02
#       6
#     2   2   2   2   2   2
#     4  12  25  49  74 106 148 189 244 298 365 436
#     4  12  25  45  76 107 143 184 246 299 360 430
#     4  12  29  46  73 108 147 196 239 300 364 436
#     4  12  26  46  75 108 143 190 244 299 363 428
#     4  12  27  45  76 106 143 191 239 303 363 432
#     4  12  26  49  72 105 150 188 242 299 365 432
#
# _framework density 24.723199999999999
#
# number of rings (size 3 to 8) (size 9 to 14) (size 15 to 20)
#    0.000    0.000    5.000    4.000    4.667    1.333 
#    0.000    0.000    0.000    0.000    0.000    0.000 
#    0.000    0.000    0.000    0.000    0.000    0.000 
#
# Total GULP energy -67298.903936 kJ/mol
# GULP energy per Si atom -5608.241995 kJ/mol
# Density = 2.466693 g / cm^3
# Si number density = 24.723200 Si / 1000 Ang^3
#
#
#
# Elastic Constant Matrix: (Units=GPa)
#
#
# Indices 1 2 3 4 5 6 
#
# 1 130.7434 15.9890 13.8282 0.0000 3.1337 0.0000
# 2 15.9890 97.4371 13.6886 0.0000 0.8180 0.0000
# 3 13.8282 13.6886 52.7416 0.0000 -18.5329 0.0000
# 4 0.0000 0.0000 0.0000 32.7962 0.0000 3.2318
# 5 3.1337 0.8180 -18.5329 0.0000 29.8817 0.0000
# 6 0.0000 0.0000 0.0000 3.2318 0.0000 48.5480
#
#
#
# Elastic Compliance Matrix: (Units=1/GPa)
#
#
# Indices 1 2 3 4 5 6 
#
# 1 0.008117 -0.000919 -0.002787 0.000000 -0.002555 0.000000
# 2 -0.000919 0.010911 -0.003404 0.000000 -0.002314 0.000000
# 3 -0.002787 -0.003404 0.026481 0.000000 0.016809 0.000000
# 4 0.000000 0.000000 0.000000 0.030693 0.000000 -0.002043
# 5 -0.002555 -0.002314 0.016809 0.000000 0.044222 0.000000
# 6 0.000000 0.000000 0.000000 -0.002043 0.000000 0.020734
#
#
# Mechanical properties :
#
#
# Convention : Reuss Voigt Hill
#
# Bulk Modulus (GPa) = 31.96002 40.88152 36.42077
# Shear Modulus (GPa) = 30.15520 38.07293 34.11406
#
# Velocity S-wave (km/s) = 3.49623 3.92850 3.71865
# Velocity P-wave (km/s) = 5.40864 6.09500 5.76205
#
# Compressibility (1/GPa) = 0.03128910
#
# Stress axis : x y z
#
# Youngs Moduli (GPa) = 123.19827 91.64676 37.76248
#
# Poissons Ratio (x) = 0.08422 0.10526
# Poissons Ratio (y) = 0.11321 0.12854
# Poissons Ratio (z) = 0.34341 0.31197
#
# Static dielectric constant tensor:
#      x y z
#    x 1.898410 0.000000 0.020380 
#    y 0.000000 1.966760 0.000000 
#    z 0.020380 0.000000 1.950670 
# 
# From -- ./inp_files/9105.got.cif
#   From: 2010.05.17/outbox.cif.g08.bks.cpg/sg4_5_cif.got.tgz:9105.got - 2010.06.03 18:43:04.
