data_PCOD9119875
_publ_section_title
;
Structure prediction by ZEFSAII (Michael W. Deem and Ramdas Pophale) SiO2 
 PCOD9119875
Probable space group: P 21
;
_chemical_formula_sum "Si O2"
_cell_formula_units_Z 16
_cell_length_a 18.000000
_cell_length_b 9.000000
_cell_length_c 9.000000
_cell_angle_alpha 90.000000
_cell_angle_beta 150.000000
_cell_angle_gamma 90.000000
_cell_volume 729.000000
_symmetry_space_group_name_H-M "P 21"
_symmetry_group_IT_number 4
_symmetry_cell_setting 'monoclinic'
loop_
_space_group_symop_operation_xyz
x,y,z
-x,1/2+y,-z
loop_
_atom_site_type_symbol
_atom_site_label
_atom_site_fract_x
_atom_site_fract_y
_atom_site_fract_z
Si Si1 0.722051 0.520150 0.778118
Si Si2 0.477485 0.395995 0.836933
Si Si3 0.966247 0.467952 0.780195
Si Si4 0.432161 0.454190 0.089863
Si Si5 0.767168 0.229216 0.249426
Si Si6 0.461426 0.143636 0.279038
Si Si7 0.205259 0.689311 0.040176
Si Si8 0.834569 0.730555 0.744416
O O1 0.570439 0.524254 0.418605
O O2 0.662986 0.558679 0.840352
O O3 0.795592 0.357019 0.894292
O O4 0.826627 0.645904 0.889601
O O5 0.489142 0.557618 0.783610
O O6 0.320978 0.314281 0.546714
O O7 0.501608 0.407097 0.053297
O O8 0.606425 0.306963 0.977991
O O9 0.870925 0.346530 0.519777
O O10 0.867486 0.599227 0.683397
O O11 0.097922 0.563454 0.925221
O O12 0.043884 0.360973 0.036410
O O13 0.399385 0.305465 0.127848
O O14 0.289669 0.559919 0.808798
O O15 0.831242 0.209501 0.196038
O O16 0.618468 0.149862 0.640095
#
# Coordination Sequence:
#
# PCOD9119875 Si02
#       8
#     2   2   2   2   2   2   2   2
#     4  11  23  45  78 111 146 193 263 319 374 444
#     4  12  24  46  75 111 144 194 256 320 374 446
#     4  12  30  48  73 109 160 206 251 307 390 470
#     4  11  25  40  75 113 148 185 252 326 379 429
#     4  12  26  47  74 110 149 192 255 322 374 438
#     4  11  23  43  78 114 143 196 256 321 379 443
#     4  11  24  48  73 106 155 204 248 308 386 462
#     4  12  27  49  74 106 151 206 257 305 388 460
#
# _framework density 21.947873999999999
#
# number of rings (size 3 to 8) (size 9 to 14) (size 15 to 20)
#    0.000    0.500    5.000    2.250    7.000    3.000 
#    2.250    0.000    0.000    0.000    0.000    0.000 
#    0.000    0.000    0.000    0.000    0.000    0.000 
#
# Total GULP energy -89354.765459 kJ/mol
# GULP energy per Si atom -5584.672841 kJ/mol
# Density = 2.189792 g / cm^3
# Si number density = 21.947874 Si / 1000 Ang^3
#
#
#
# Elastic Constant Matrix: (Units=GPa)
#
#
# Indices 1 2 3 4 5 6 
#
# 1 74.8788 26.6990 7.1397 0.0000 6.7802 0.0000
# 2 26.6990 143.3132 40.3548 0.0000 13.8389 0.0000
# 3 7.1397 40.3548 50.9524 0.0000 10.4537 0.0000
# 4 0.0000 0.0000 0.0000 48.0034 0.0000 1.9832
# 5 6.7802 13.8389 10.4537 0.0000 25.5674 0.0000
# 6 0.0000 0.0000 0.0000 1.9832 0.0000 49.9003
#
#
#
# Elastic Compliance Matrix: (Units=1/GPa)
#
#
# Indices 1 2 3 4 5 6 
#
# 1 0.014469 -0.002601 0.000580 0.000000 -0.002666 0.000000
# 2 -0.002601 0.009556 -0.006860 0.000000 -0.001678 0.000000
# 3 0.000580 -0.006860 0.026468 0.000000 -0.007263 0.000000
# 4 0.000000 0.000000 0.000000 0.020866 0.000000 -0.000829
# 5 -0.002666 -0.001678 -0.007263 0.000000 0.043697 0.000000
# 6 0.000000 0.000000 0.000000 -0.000829 0.000000 0.020073
#
#
# Mechanical properties :
#
#
# Convention : Reuss Voigt Hill
#
# Bulk Modulus (GPa) = 30.55290 46.39238 38.47264
# Shear Modulus (GPa) = 30.52491 37.69096 34.10794
#
# Velocity S-wave (km/s) = 3.73338 4.14852 3.94641
# Velocity P-wave (km/s) = 5.70395 6.64307 6.19134
#
# Compressibility (1/GPa) = 0.03273012
#
# Stress axis : x y z
#
# Youngs Moduli (GPa) = 69.11538 104.64708 37.78163
#
# Poissons Ratio (x) = 0.27222 -0.02191
# Poissons Ratio (y) = 0.17979 0.25917
# Poissons Ratio (z) = -0.04007 0.71784
#
# Static dielectric constant tensor:
#      x y z
#    x 1.796750 0.000000 -0.017550 
#    y 0.000000 1.852300 0.000000 
#    z -0.017550 0.000000 1.811970 
# 
# From -- ./inp_files/9654.got.cif
#   From: 2010.05.17/outbox.ucp.g08.bks.cvg/sg4_5_cif.got.tgz:9654.got - 2010.06.11 12:51:24.
