data_PCOD9119055
_publ_section_title
;
Structure prediction by ZEFSAII (Michael W. Deem and Ramdas Pophale) SiO2 
 PCOD9119055
Probable space group: P 21
;
_chemical_formula_sum "Si O2"
_cell_formula_units_Z 16
_cell_length_a 14.801208
_cell_length_b 7.681330
_cell_length_c 6.510069
_cell_angle_alpha 90.000000
_cell_angle_beta 65.894208
_cell_angle_gamma 90.000000
_cell_volume 675.602779
_symmetry_space_group_name_H-M "P 21"
_symmetry_group_IT_number 4
_symmetry_cell_setting 'monoclinic'
loop_
_space_group_symop_operation_xyz
x,y,z
-x,1/2+y,-z
loop_
_atom_site_type_symbol
_atom_site_label
_atom_site_fract_x
_atom_site_fract_y
_atom_site_fract_z
Si Si1 0.449869 0.290030 0.060427
Si Si2 0.220840 0.587603 0.302914
Si Si3 0.269285 0.059312 0.054694
Si Si4 0.365934 0.687894 0.855688
Si Si5 0.095690 0.055636 0.900490
Si Si6 0.594583 0.147967 0.650193
Si Si7 0.039831 0.739081 0.675213
Si Si8 0.131108 0.242537 0.465441
O O1 0.354837 0.186069 0.063688
O O2 0.515914 0.293951 0.790436
O O3 0.528640 0.183868 0.126833
O O4 0.429025 0.461241 0.217853
O O5 0.299799 0.699850 0.355634
O O6 0.116878 0.679302 0.430973
O O7 0.206883 0.400523 0.418965
O O8 0.276490 0.571452 0.033392
O O9 0.199133 0.095668 0.921277
O O10 0.323273 0.881421 0.938884
O O11 0.187800 0.076888 0.312980
O O12 0.390032 0.638169 0.603635
O O13 0.084983 0.189079 0.722203
O O14 0.087179 0.870280 0.795638
O O15 0.007896 0.084032 0.145559
O O16 0.946778 0.810317 0.632337
#
# Coordination Sequence:
#
# PCOD9119055 Si02
#       8
#     2   2   2   2   2   2   2   2
#     4  11  24  50  70 106 148 188 246 309 373 435
#     4  11  24  44  67 104 144 184 245 301 373 429
#     4  11  24  47  70 106 145 190 249 308 362 449
#     4  11  26  45  75 106 144 197 247 305 377 443
#     4  11  25  43  72 105 141 201 249 298 381 442
#     4  11  25  47  75 106 144 193 244 311 369 451
#     4  11  24  43  69 104 148 190 247 307 366 444
#     4  11  24  43  68 103 146 197 239 313 361 443
#
# _framework density 23.682552999999999
#
# number of rings (size 3 to 8) (size 9 to 14) (size 15 to 20)
#    0.000    1.000    2.500    3.000    0.000   12.000 
#    0.000    0.000    0.000    0.000    0.000    0.000 
#    0.000    0.000    0.000    0.000    0.000    0.000 
#
# Total GULP energy -89224.156379 kJ/mol
# GULP energy per Si atom -5576.509774 kJ/mol
# Density = 2.362865 g / cm^3
# Si number density = 23.682553 Si / 1000 Ang^3
#
#
#
# Elastic Constant Matrix: (Units=GPa)
#
#
# Indices 1 2 3 4 5 6 
#
# 1 113.3263 25.5609 59.3627 0.0000 -7.0335 0.0000
# 2 25.5609 102.4788 39.5374 0.0000 -10.1433 0.0000
# 3 59.3627 39.5374 148.7733 0.0000 2.3441 0.0000
# 4 0.0000 0.0000 0.0000 32.2567 0.0000 1.7162
# 5 -7.0335 -10.1433 2.3441 0.0000 32.8671 0.0000
# 6 0.0000 0.0000 0.0000 1.7162 0.0000 23.3276
#
#
#
# Elastic Compliance Matrix: (Units=1/GPa)
#
#
# Indices 1 2 3 4 5 6 
#
# 1 0.011478 -0.000931 -0.004372 0.000000 0.002481 0.000000
# 2 -0.000931 0.011382 -0.002709 0.000000 0.003507 0.000000
# 3 -0.004372 -0.002709 0.009224 0.000000 -0.002429 0.000000
# 4 0.000000 0.000000 0.000000 0.031123 0.000000 -0.002290
# 5 0.002481 0.003507 -0.002429 0.000000 0.032212 0.000000
# 6 0.000000 0.000000 0.000000 -0.002290 0.000000 0.043036
#
#
# Mechanical properties :
#
#
# Convention : Reuss Voigt Hill
#
# Bulk Modulus (GPa) = 62.25809 68.16674 65.21241
# Shear Modulus (GPa) = 31.28283 33.69810 32.49046
#
# Velocity S-wave (km/s) = 3.63839 3.77624 3.70796
# Velocity P-wave (km/s) = 6.63296 6.91804 6.77700
#
# Compressibility (1/GPa) = 0.01606217
#
# Stress axis : x y z
#
# Youngs Moduli (GPa) = 87.12385 87.85445 108.41124
#
# Poissons Ratio (x) = 0.08177 0.47393
# Poissons Ratio (y) = 0.08109 0.29367
# Poissons Ratio (z) = 0.38087 0.23798
#
# Static dielectric constant tensor:
#      x y z
#    x 1.889880 0.000000 -0.022020 
#    y 0.000000 2.016720 0.000000 
#    z -0.022020 0.000000 1.916850 
# 
# From -- ./inp_files/3414.got.cif
#   From: 2010.05.17/outbox.cif.g08.bks.cpg/sg4_2_cif.got.tgz:3414.got - 2010.06.03 18:43:04.
