data_PCOD9119343
_publ_section_title
;
Structure prediction by ZEFSAII (Michael W. Deem and Ramdas Pophale) SiO2 
 PCOD9119343
Probable space group: P 21
;
_chemical_formula_sum "Si O2"
_cell_formula_units_Z 16
_cell_length_a 12.850677
_cell_length_b 4.982578
_cell_length_c 14.730751
_cell_angle_alpha 90.000000
_cell_angle_beta 138.622452
_cell_angle_gamma 90.000000
_cell_volume 623.473797
_symmetry_space_group_name_H-M "P 21"
_symmetry_group_IT_number 4
_symmetry_cell_setting 'monoclinic'
loop_
_space_group_symop_operation_xyz
x,y,z
-x,1/2+y,-z
loop_
_atom_site_type_symbol
_atom_site_label
_atom_site_fract_x
_atom_site_fract_y
_atom_site_fract_z
Si Si1 0.996867 0.334640 0.356016
Si Si2 0.700893 0.739386 0.542999
Si Si3 0.427976 0.745610 0.638746
Si Si4 0.230489 0.538086 0.664120
Si Si5 0.819117 0.584242 0.082223
Si Si6 0.096699 0.586627 0.980952
Si Si7 0.752546 0.724124 0.786321
Si Si8 0.501520 0.309826 0.941873
O O1 0.122559 0.174343 0.376502
O O2 0.097188 0.440042 0.507267
O O3 0.855694 0.167920 0.307079
O O4 0.920858 0.556121 0.240857
O O5 0.585905 0.535151 0.416418
O O6 0.688128 0.732254 0.642107
O O7 0.667141 0.038275 0.486554
O O8 0.342475 0.735216 0.679331
O O9 0.606619 0.641346 0.754018
O O10 0.350110 0.312895 0.777806
O O11 0.806660 0.005463 0.866174
O O12 0.648356 0.461360 0.992514
O O13 0.839912 0.874728 0.052246
O O14 0.912441 0.554610 0.883363
O O15 0.112052 0.875294 0.945877
O O16 0.537866 0.013058 0.000679
#
# Coordination Sequence:
#
# PCOD9119343 Si02
#       8
#     2   2   2   2   2   2   2   2
#     4  11  25  46  77 114 151 203 256 324 376 465
#     4  11  26  46  76 108 147 200 250 316 387 451
#     4  11  27  48  73 111 151 198 250 318 384 458
#     4  11  26  46  76 114 152 203 256 318 385 466
#     4  12  27  51  75 114 161 203 262 319 396 466
#     4  12  29  46  78 113 149 208 252 325 386 463
#     4  12  27  49  77 109 155 194 263 311 389 458
#     4  12  27  48  76 113 158 211 259 317 395 469
#
# _framework density 25.662666000000002
#
# number of rings (size 3 to 8) (size 9 to 14) (size 15 to 20)
#    0.000    0.500    2.500    3.750    5.250    8.000 
#    0.000    0.000    0.000    0.000    0.000    0.000 
#    0.000    0.000    0.000    0.000    0.000    0.000 
#
# Total GULP energy -89696.874315 kJ/mol
# GULP energy per Si atom -5606.054645 kJ/mol
# Density = 2.560426 g / cm^3
# Si number density = 25.662666 Si / 1000 Ang^3
#
#
#
# Elastic Constant Matrix: (Units=GPa)
#
#
# Indices 1 2 3 4 5 6 
#
# 1 154.1459 0.0794 16.5692 0.0000 21.0809 0.0000
# 2 0.0794 57.9962 3.6281 0.0000 -15.9744 0.0000
# 3 16.5692 3.6281 92.9872 0.0000 -9.5828 0.0000
# 4 0.0000 0.0000 0.0000 37.8423 0.0000 -2.0031
# 5 21.0809 -15.9744 -9.5828 0.0000 36.2293 0.0000
# 6 0.0000 0.0000 0.0000 -2.0031 0.0000 32.2684
#
#
#
# Elastic Compliance Matrix: (Units=1/GPa)
#
#
# Indices 1 2 3 4 5 6 
#
# 1 0.007425 -0.001388 -0.001827 0.000000 -0.005416 0.000000
# 2 -0.001388 0.019887 0.000471 0.000000 0.009701 0.000000
# 3 -0.001827 0.000471 0.011506 0.000000 0.004314 0.000000
# 4 0.000000 0.000000 0.000000 0.026513 0.000000 0.001646
# 5 -0.005416 0.009701 0.004314 0.000000 0.036171 0.000000
# 6 0.000000 0.000000 0.000000 0.001646 0.000000 0.031092
#
#
# Mechanical properties :
#
#
# Convention : Reuss Voigt Hill
#
# Bulk Modulus (GPa) = 30.00226 38.40919 34.20572
# Shear Modulus (GPa) = 33.51397 40.25816 36.88607
#
# Velocity S-wave (km/s) = 3.61770 3.96503 3.79534
# Velocity P-wave (km/s) = 5.40063 5.99679 5.70650
#
# Compressibility (1/GPa) = 0.03333082
#
# Stress axis : x y z
#
# Youngs Moduli (GPa) = 134.67856 50.28448 86.91163
#
# Poissons Ratio (x) = 0.06977 0.15879
# Poissons Ratio (y) = 0.18687 -0.04094
# Poissons Ratio (z) = 0.24606 -0.02368
#
# Static dielectric constant tensor:
#      x y z
#    x 2.021760 0.000000 0.001290 
#    y 0.000000 1.970210 0.000000 
#    z 0.001290 0.000000 2.012320 
# 
# From -- ./inp_files/11667.got.cif
#   From: 2010.05.17/outbox.cif.g08.bks.cpg/sg4_6_cif.got.tgz:11667.got - 2010.06.03 18:43:04.
