data_PCOD9119248
_publ_section_title
;
Structure prediction by ZEFSAII (Michael W. Deem and Ramdas Pophale) SiO2 
 PCOD9119248
Probable space group: P 21
;
_chemical_formula_sum "Si O2"
_cell_formula_units_Z 16
_cell_length_a 8.154375
_cell_length_b 8.290274
_cell_length_c 13.477796
_cell_angle_alpha 90.000000
_cell_angle_beta 140.393445
_cell_angle_gamma 90.000000
_cell_volume 580.853887
_symmetry_space_group_name_H-M "P 21"
_symmetry_group_IT_number 4
_symmetry_cell_setting 'monoclinic'
loop_
_space_group_symop_operation_xyz
x,y,z
-x,1/2+y,-z
loop_
_atom_site_type_symbol
_atom_site_label
_atom_site_fract_x
_atom_site_fract_y
_atom_site_fract_z
Si Si1 0.517644 0.246730 0.389290
Si Si2 0.747981 0.545380 0.893254
Si Si3 0.960023 0.931834 0.375801
Si Si4 0.041516 0.296450 0.405375
Si Si5 0.685204 0.059122 0.946382
Si Si6 0.191222 0.515696 0.332962
Si Si7 0.467696 0.875828 0.023610
Si Si8 0.415307 0.716900 0.286419
O O1 0.426904 0.183917 0.239045
O O2 0.761337 0.363602 0.521559
O O3 0.288011 0.360531 0.317447
O O4 0.606460 0.087884 0.491740
O O5 0.684570 0.512136 0.980215
O O6 0.657486 0.377167 0.803398
O O7 0.034153 0.557506 0.977077
O O8 0.949434 0.878130 0.484144
O O9 0.739246 0.851030 0.208780
O O10 0.914821 0.122554 0.344156
O O11 0.966729 0.435704 0.293147
O O12 0.340552 0.245524 0.531110
O O13 0.680468 0.209670 0.020981
O O14 0.513812 0.091608 0.768134
O O15 0.573331 0.918124 0.963001
O O16 0.185661 0.655138 0.248819
#
# Coordination Sequence:
#
# PCOD9119248 Si02
#       8
#     2   2   2   2   2   2   2   2
#     4  12  23  42  72 116 152 197 249 314 389 467
#     4  11  25  52  77 109 159 203 259 323 381 465
#     4  12  25  47  75 109 160 191 246 334 381 465
#     4  12  23  46  72 111 147 195 237 308 403 451
#     4  11  28  51  79 105 154 211 258 321 379 449
#     4  12  23  40  72 108 152 188 253 294 384 470
#     4  11  27  53  76 109 150 205 267 313 390 457
#     4  11  24  49  71 109 150 194 257 313 375 462
#
# _framework density 27.545653999999999
#
# number of rings (size 3 to 8) (size 9 to 14) (size 15 to 20)
#    0.000    0.500    6.250    1.500    5.250    5.000 
#    4.500    0.000    0.000    0.000    0.000    0.000 
#    0.000    0.000    0.000    0.000    0.000    0.000 
#
# Total GULP energy -89479.683342 kJ/mol
# GULP energy per Si atom -5592.480209 kJ/mol
# Density = 2.748296 g / cm^3
# Si number density = 27.545654 Si / 1000 Ang^3
#
#
#
# Elastic Constant Matrix: (Units=GPa)
#
#
# Indices 1 2 3 4 5 6 
#
# 1 101.4915 20.5608 42.2885 0.0000 -11.6196 0.0000
# 2 20.5608 97.1389 11.2550 0.0000 -18.4188 0.0000
# 3 42.2885 11.2550 60.6050 0.0000 -2.7739 0.0000
# 4 0.0000 0.0000 0.0000 21.5182 0.0000 0.7456
# 5 -11.6196 -18.4188 -2.7739 0.0000 59.7651 0.0000
# 6 0.0000 0.0000 0.0000 0.7456 0.0000 58.2794
#
#
#
# Elastic Compliance Matrix: (Units=1/GPa)
#
#
# Indices 1 2 3 4 5 6 
#
# 1 0.014422 -0.001576 -0.009685 0.000000 0.001869 0.000000
# 2 -0.001576 0.011324 -0.000859 0.000000 0.003144 0.000000
# 3 -0.009685 -0.000859 0.023369 0.000000 -0.001063 0.000000
# 4 0.000000 0.000000 0.000000 0.046493 0.000000 -0.000595
# 5 0.001869 0.003144 -0.001063 0.000000 0.018015 0.000000
# 6 0.000000 0.000000 0.000000 -0.000595 0.000000 0.017166
#
#
# Mechanical properties :
#
#
# Convention : Reuss Voigt Hill
#
# Bulk Modulus (GPa) = 40.20263 45.27156 42.73709
# Shear Modulus (GPa) = 30.61467 40.25460 35.43463
#
# Velocity S-wave (km/s) = 3.33741 3.82694 3.59053
# Velocity P-wave (km/s) = 5.42933 5.99984 5.72170
#
# Compressibility (1/GPa) = 0.02487399
#
# Stress axis : x y z
#
# Youngs Moduli (GPa) = 69.34020 88.30997 42.79172
#
# Poissons Ratio (x) = 0.13918 0.41443
# Poissons Ratio (y) = 0.10929 0.03677
# Poissons Ratio (z) = 0.67155 0.07589
#
# Static dielectric constant tensor:
#      x y z
#    x 2.465830 0.000000 0.140320 
#    y 0.000000 2.150260 0.000000 
#    z 0.140320 0.000000 2.213580 
# 
# From -- ./inp_files/13701.got.cif
#   From: 2010.05.17/outbox.cif.g08.bks.cpg/sg4_7_cif.got.tgz:13701.got - 2010.06.03 18:43:04.
