data_PCOD9119171
_publ_section_title
;
Structure prediction by ZEFSAII (Michael W. Deem and Ramdas Pophale) SiO2 
 PCOD9119171
Probable space group: P 21
;
_chemical_formula_sum "Si O2"
_cell_formula_units_Z 14
_cell_length_a 9.344580
_cell_length_b 8.764613
_cell_length_c 14.199383
_cell_angle_alpha 90.000000
_cell_angle_beta 31.607236
_cell_angle_gamma 90.000000
_cell_volume 609.495848
_symmetry_space_group_name_H-M "P 21"
_symmetry_group_IT_number 4
_symmetry_cell_setting 'monoclinic'
loop_
_space_group_symop_operation_xyz
x,y,z
-x,1/2+y,-z
loop_
_atom_site_type_symbol
_atom_site_label
_atom_site_fract_x
_atom_site_fract_y
_atom_site_fract_z
Si Si1 0.663250 0.692240 0.034505
Si Si2 0.255398 0.505489 0.981097
Si Si3 0.783578 0.540668 0.785781
Si Si4 0.139766 0.748873 0.462787
Si Si5 0.959352 0.768229 0.242225
Si Si6 0.760660 0.595321 0.527484
Si Si7 0.829004 0.004158 0.172370
O O1 0.420417 0.706436 0.248134
O O2 0.594233 0.614409 0.973612
O O3 0.908195 0.592874 0.939421
O O4 0.781063 0.855864 0.935087
O O5 0.137828 0.669294 0.070333
O O6 0.582432 0.521565 0.810263
O O7 0.126716 0.441014 0.956834
O O8 0.042077 0.637730 0.603114
O O9 0.882337 0.384927 0.778135
O O10 0.908423 0.716638 0.513358
O O11 0.151027 0.921294 0.496362
O O12 0.839482 0.641521 0.377538
O O13 0.768288 0.874311 0.283734
O O14 0.433532 0.605342 0.704713
#
# Coordination Sequence:
#
# PCOD9119171 Si02
#       7
#     2   2   2   2   2   2   2
#     4  11  25  46  71 107 144 191 241 305 366 433
#     4  12  21  46  71 102 147 185 246 297 362 436
#     4  11  24  46  75 109 147 188 251 303 360 438
#     4  12  24  47  77 109 146 194 247 302 361 436
#     4  11  27  45  71 110 146 196 238 305 373 436
#     4  12  25  48  74 110 149 190 249 302 364 439
#     4  11  26  48  69 105 147 186 242 298 370 434
#
# _framework density 22.969804
#
# number of rings (size 3 to 8) (size 9 to 14) (size 15 to 20)
#    0.000    0.571    2.857    5.143    0.000    5.714 
#   10.286    0.000    0.000    0.000    0.000    0.000 
#    0.000    0.000    0.000    0.000    0.000    0.000 
#
# Total GULP energy -78032.970225 kJ/mol
# GULP energy per Si atom -5573.783588 kJ/mol
# Density = 2.291752 g / cm^3
# Si number density = 22.969804 Si / 1000 Ang^3
#
#
#
# Elastic Constant Matrix: (Units=GPa)
#
#
# Indices 1 2 3 4 5 6 
#
# 1 123.1575 38.6125 38.3294 0.0000 -5.0071 0.0000
# 2 38.6125 76.6331 33.4618 0.0000 21.4918 0.0000
# 3 38.3294 33.4618 73.0449 0.0000 12.5501 0.0000
# 4 0.0000 0.0000 0.0000 31.3720 0.0000 16.3772
# 5 -5.0071 21.4918 12.5501 0.0000 34.0728 0.0000
# 6 0.0000 0.0000 0.0000 16.3772 0.0000 48.7120
#
#
#
# Elastic Compliance Matrix: (Units=1/GPa)
#
#
# Indices 1 2 3 4 5 6 
#
# 1 0.011703 -0.005852 -0.004687 0.000000 0.007137 0.000000
# 2 -0.005852 0.021604 -0.004630 0.000000 -0.012782 0.000000
# 3 -0.004687 -0.004630 0.019095 0.000000 -0.004802 0.000000
# 4 0.000000 0.000000 0.000000 0.038661 0.000000 -0.012998
# 5 0.007137 -0.012782 -0.004802 0.000000 0.040229 0.000000
# 6 0.000000 0.000000 0.000000 -0.012998 0.000000 0.024899
#
#
# Mechanical properties :
#
#
# Convention : Reuss Voigt Hill
#
# Bulk Modulus (GPa) = 45.31949 54.84920 50.08435
# Shear Modulus (GPa) = 25.78871 33.66015 29.72443
#
# Velocity S-wave (km/s) = 3.35434 3.83222 3.60121
# Velocity P-wave (km/s) = 5.89703 6.59635 6.25647
#
# Compressibility (1/GPa) = 0.02206556
#
# Stress axis : x y z
#
# Youngs Moduli (GPa) = 85.44701 46.28746 52.36865
#
# Poissons Ratio (x) = 0.27088 0.24543
# Poissons Ratio (y) = 0.50004 0.24246
# Poissons Ratio (z) = 0.40045 0.21431
#
# Static dielectric constant tensor:
#      x y z
#    x 1.932840 0.000000 0.100550 
#    y 0.000000 1.922220 0.000000 
#    z 0.100550 0.000000 2.007960 
# 
# From -- ./inp_files/13637.got.cif
#   From: 2010.05.17/outbox.cif.g08.bks.cpg/sg4_7_cif.got.tgz:13637.got - 2010.06.03 18:43:04.
