data_PCOD9119491
_publ_section_title
;
Structure prediction by ZEFSAII (Michael W. Deem and Ramdas Pophale) SiO2 
 PCOD9119491
Probable space group: P 21
;
_chemical_formula_sum "Si O2"
_cell_formula_units_Z 14
_cell_length_a 8.455822
_cell_length_b 12.217909
_cell_length_c 5.073757
_cell_angle_alpha 90.000000
_cell_angle_beta 93.426935
_cell_angle_gamma 90.000000
_cell_volume 523.245013
_symmetry_space_group_name_H-M "P 21"
_symmetry_group_IT_number 4
_symmetry_cell_setting 'monoclinic'
loop_
_space_group_symop_operation_xyz
x,y,z
-x,1/2+y,-z
loop_
_atom_site_type_symbol
_atom_site_label
_atom_site_fract_x
_atom_site_fract_y
_atom_site_fract_z
Si Si1 0.855762 0.341090 0.668433
Si Si2 0.957377 0.582764 0.639029
Si Si3 0.726391 0.995950 0.078385
Si Si4 0.573270 0.576382 0.182254
Si Si5 0.131863 0.203616 0.868830
Si Si6 0.324091 0.834886 0.849755
Si Si7 0.605142 0.911621 0.568635
O O1 0.809548 0.300792 0.373348
O O2 0.857510 0.471537 0.641486
O O3 0.029062 0.310021 0.793508
O O4 0.727369 0.297139 0.866172
O O5 0.125906 0.554354 0.781150
O O6 0.962973 0.620648 0.337994
O O7 0.880078 0.671666 0.826649
O O8 0.662452 0.906236 0.279744
O O9 0.582805 0.081495 0.012756
O O10 0.742595 0.937399 0.795177
O O11 0.688698 0.677504 0.200316
O O12 0.671517 0.467876 0.105061
O O13 0.497526 0.525575 0.439223
O O14 0.489669 0.825162 0.702681
#
# Coordination Sequence:
#
# PCOD9119491 Si02
#       7
#     2   2   2   2   2   2   2
#     4  12  21  38  59  92 123 153 212 253 302 364
#     4  12  22  42  60  93 126 160 192 273 306 344
#     4   9  19  32  62  85 117 153 195 236 316 356
#     4   8  19  35  61  84 111 163 200 234 299 369
#     4  12  25  35  67  88 120 166 206 247 315 358
#     4   9  18  35  60  84 114 154 196 254 282 362
#     4   8  16  31  59  84 105 161 195 225 294 363
#
# _framework density 26.756107
#
# number of rings (size 3 to 8) (size 9 to 14) (size 15 to 20)
#    1.714    0.000    2.857    3.429    2.000    0.000 
#    0.000    0.000   15.714    0.000    0.000    0.000 
#    0.000    0.000    0.000    0.000    0.000    0.000 
#
# Total GULP energy -78104.120202 kJ/mol
# GULP energy per Si atom -5578.865729 kJ/mol
# Density = 2.669521 g / cm^3
# Si number density = 26.756107 Si / 1000 Ang^3
#
#
#
# Elastic Constant Matrix: (Units=GPa)
#
#
# Indices 1 2 3 4 5 6 
#
# 1 79.1096 10.9646 9.4022 0.0000 28.4786 0.0000
# 2 10.9646 66.9723 13.0319 0.0000 -17.2505 0.0000
# 3 9.4022 13.0319 95.1170 0.0000 9.0713 0.0000
# 4 0.0000 0.0000 0.0000 18.7944 0.0000 4.9779
# 5 28.4786 -17.2505 9.0713 0.0000 40.2635 0.0000
# 6 0.0000 0.0000 0.0000 4.9779 0.0000 31.8745
#
#
#
# Elastic Compliance Matrix: (Units=1/GPa)
#
#
# Indices 1 2 3 4 5 6 
#
# 1 0.020075 -0.008037 0.000817 0.000000 -0.017827 0.000000
# 2 -0.008037 0.020915 -0.003544 0.000000 0.015444 0.000000
# 3 0.000817 -0.003544 0.011362 0.000000 -0.004656 0.000000
# 4 0.000000 0.000000 0.000000 0.055503 0.000000 -0.008668
# 5 -0.017827 0.015444 -0.004656 0.000000 0.045111 0.000000
# 6 0.000000 0.000000 0.000000 -0.008668 0.000000 0.032727
#
#
# Mechanical properties :
#
#
# Convention : Reuss Voigt Hill
#
# Bulk Modulus (GPa) = 32.44279 34.22182 33.33231
# Shear Modulus (GPa) = 22.98884 32.03982 27.51433
#
# Velocity S-wave (km/s) = 2.93439 3.46421 3.21025
# Velocity P-wave (km/s) = 4.86133 5.36834 5.12112
#
# Compressibility (1/GPa) = 0.03082349
#
# Stress axis : x y z
#
# Youngs Moduli (GPa) = 49.81315 47.81242 88.01091
#
# Poissons Ratio (x) = 0.38429 -0.07190
# Poissons Ratio (y) = 0.40037 0.31191
# Poissons Ratio (z) = -0.04069 0.16945
#
# Static dielectric constant tensor:
#      x y z
#    x 2.132260 0.000000 0.004050 
#    y 0.000000 2.241210 0.000000 
#    z 0.004050 0.000000 2.004530 
# 
# From -- ./inp_files/1641.got.cif
#   From: 2010.05.17/outbox.cif.g08.bks.cpg/sg4_1_cif.got.tgz:1641.got - 2010.06.03 18:43:04.
