data_PCOD9119203
_publ_section_title
;
Structure prediction by ZEFSAII (Michael W. Deem and Ramdas Pophale) SiO2 
 PCOD9119203
Probable space group: P 21
;
_chemical_formula_sum "Si O2"
_cell_formula_units_Z 16
_cell_length_a 5.194426
_cell_length_b 12.079759
_cell_length_c 10.989757
_cell_angle_alpha 90.000000
_cell_angle_beta 64.725454
_cell_angle_gamma 90.000000
_cell_volume 623.567050
_symmetry_space_group_name_H-M "P 21"
_symmetry_group_IT_number 4
_symmetry_cell_setting 'monoclinic'
loop_
_space_group_symop_operation_xyz
x,y,z
-x,1/2+y,-z
loop_
_atom_site_type_symbol
_atom_site_label
_atom_site_fract_x
_atom_site_fract_y
_atom_site_fract_z
Si Si1 0.145983 0.207710 0.358650
Si Si2 0.812649 0.876101 0.363175
Si Si3 0.950783 0.641229 0.349761
Si Si4 0.536984 0.604984 0.125408
Si Si5 0.236778 0.327037 0.978237
Si Si6 0.822503 0.409295 0.459108
Si Si7 0.679395 0.498770 0.837892
Si Si8 0.422183 0.862848 0.835377
O O1 0.426773 0.285074 0.294109
O O2 0.035310 0.160161 0.508245
O O3 0.900329 0.295619 0.373629
O O4 0.231464 0.101412 0.263752
O O5 0.501469 0.927029 0.434498
O O6 0.754711 0.745064 0.355044
O O7 0.981562 0.898334 0.457943
O O8 0.039053 0.922877 0.221155
O O9 0.236366 0.659128 0.216717
O O10 0.885260 0.512020 0.358597
O O11 0.752609 0.706620 0.086103
O O12 0.540353 0.492791 0.203114
O O13 0.587853 0.554862 0.982216
O O14 0.413944 0.417590 0.864830
O O15 0.410318 0.329443 0.072675
O O16 0.910946 0.350430 0.073536
#
# Coordination Sequence:
#
# PCOD9119203 Si02
#       8
#     2   2   2   2   2   2   2   2
#     4  11  24  47  75 108 148 194 246 302 368 438
#     4  11  26  46  74 108 145 193 245 298 366 434
#     4  11  24  48  74 107 151 192 244 306 364 437
#     4  11  24  48  74 107 151 192 244 306 364 437
#     4  11  26  47  73 110 145 192 244 301 362 433
#     4  11  26  47  73 110 145 192 244 301 362 433
#     4  11  24  47  75 108 148 194 246 302 368 438
#     4  11  26  46  74 108 145 193 245 298 366 434
#
# _framework density 25.658830999999999
#
# number of rings (size 3 to 8) (size 9 to 14) (size 15 to 20)
#    0.000    1.000    5.000    0.000    3.500    5.000 
#    0.000    6.250    0.000    0.000    0.000    0.000 
#    0.000    0.000    0.000    0.000    0.000    0.000 
#
# Total GULP energy -89438.047124 kJ/mol
# GULP energy per Si atom -5589.877945 kJ/mol
# Density = 2.560043 g / cm^3
# Si number density = 25.658831 Si / 1000 Ang^3
#
#
#
# Elastic Constant Matrix: (Units=GPa)
#
#
# Indices 1 2 3 4 5 6 
#
# 1 128.2768 12.2355 37.3669 0.0000 -24.8785 0.0000
# 2 12.2355 152.5306 26.1783 0.0000 0.0260 0.0000
# 3 37.3669 26.1783 145.7136 0.0000 -35.1414 0.0000
# 4 0.0000 0.0000 0.0000 64.4259 0.0000 -23.4311
# 5 -24.8785 0.0260 -35.1414 0.0000 50.7442 0.0000
# 6 0.0000 0.0000 0.0000 -23.4311 0.0000 -3.2973
#
#
#
# Elastic Compliance Matrix: (Units=1/GPa)
#
#
# Indices 1 2 3 4 5 6 
#
# 1 0.008904 -0.000479 -0.001374 0.000000 0.003414 0.000000
# 2 -0.000479 0.006834 -0.001396 0.000000 -0.001205 0.000000
# 3 -0.001374 -0.001396 0.008768 0.000000 0.005399 0.000000
# 4 0.000000 0.000000 0.000000 0.004330 0.000000 -0.030772
# 5 0.003414 -0.001205 0.005399 0.000000 0.025120 0.000000
# 6 0.000000 0.000000 0.000000 -0.030772 0.000000 -0.084610
#
#
# Mechanical properties :
#
#
# Convention : Reuss Voigt Hill
#
# Bulk Modulus (GPa) = 55.52782 64.23138 59.87960
# Shear Modulus (GPa) = -275.42149 45.75727 -114.83211
#
# Velocity S-wave (km/s) = -10.37173 4.22749 -6.69706
# Velocity P-wave (km/s) = 11.03371 6.99400 6.03434
#
# Compressibility (1/GPa) = 0.01800899
#
# Stress axis : x y z
#
# Youngs Moduli (GPa) = 112.31332 146.32286 114.05259
#
# Poissons Ratio (x) = 0.07009 0.15669
# Poissons Ratio (y) = 0.05380 0.15916
# Poissons Ratio (z) = 0.15430 0.20420
#
# Static dielectric constant tensor:
#      x y z
#    x 2.117460 0.000000 0.153580 
#    y 0.000000 2.050580 0.000000 
#    z 0.153580 0.000000 2.070330 
# 
# From -- ./inp_files/13381.got.cif
#   From: 2010.05.17/outbox.cif.g08.bks.cpg/sg4_7_cif.got.tgz:13381.got - 2010.06.03 18:43:04.
