data_PCOD9119156
_publ_section_title
;
Structure prediction by ZEFSAII (Michael W. Deem and Ramdas Pophale) SiO2 
 PCOD9119156
Probable space group: P 21
;
_chemical_formula_sum "Si O2"
_cell_formula_units_Z 12
_cell_length_a 6.587752
_cell_length_b 9.887042
_cell_length_c 8.086794
_cell_angle_alpha 90.000000
_cell_angle_beta 102.965527
_cell_angle_gamma 90.000000
_cell_volume 513.291623
_symmetry_space_group_name_H-M "P 21"
_symmetry_group_IT_number 4
_symmetry_cell_setting 'monoclinic'
loop_
_space_group_symop_operation_xyz
x,y,z
-x,1/2+y,-z
loop_
_atom_site_type_symbol
_atom_site_label
_atom_site_fract_x
_atom_site_fract_y
_atom_site_fract_z
Si Si1 0.476499 0.835710 0.175459
Si Si2 0.546279 0.230351 0.463083
Si Si3 0.097741 0.220107 0.217036
Si Si4 0.833261 0.006295 0.353767
Si Si5 0.174990 0.934086 0.679722
Si Si6 0.654425 0.613882 0.026891
O O1 0.404668 0.779915 0.341322
O O2 0.468038 0.716621 0.038331
O O3 0.714717 0.880943 0.253022
O O4 0.388282 0.976926 0.086081
O O5 0.300969 0.217329 0.375782
O O6 0.667002 0.092844 0.433386
O O7 0.639219 0.342568 0.355834
O O8 0.938515 0.103426 0.239976
O O9 0.969855 0.356670 0.215740
O O10 0.183572 0.197040 0.051361
O O11 0.020910 0.961363 0.502400
O O12 0.264007 0.065587 0.781691
#
# Coordination Sequence:
#
# PCOD9119156 Si02
#       6
#     2   2   2   2   2   2
#     4  12  27  47  77 107 153 199 246 307 376 443
#     4  11  24  49  76 102 147 199 250 301 360 448
#     4  11  24  46  71 105 147 190 249 303 370 439
#     4  11  25  45  74 106 137 199 258 291 362 454
#     4  11  26  44  74 108 141 193 254 298 367 447
#     4  12  28  45  72 114 153 192 239 320 381 429
#
# _framework density 23.378526000000001
#
# number of rings (size 3 to 8) (size 9 to 14) (size 15 to 20)
#    0.000    0.667    3.333    3.000    9.333    2.667 
#    0.000    0.000    0.000    0.000    0.000    0.000 
#    0.000    0.000    0.000    0.000    0.000    0.000 
#
# Total GULP energy -67143.059759 kJ/mol
# GULP energy per Si atom -5595.254980 kJ/mol
# Density = 2.332532 g / cm^3
# Si number density = 23.378526 Si / 1000 Ang^3
#
#
#
# Elastic Constant Matrix: (Units=GPa)
#
#
# Indices 1 2 3 4 5 6 
#
# 1 79.3885 33.4387 29.9144 0.0000 -11.8156 0.0000
# 2 33.4387 88.7572 21.0329 0.0000 -14.6997 0.0000
# 3 29.9144 21.0329 74.7327 0.0000 -5.4740 0.0000
# 4 0.0000 0.0000 0.0000 44.9270 0.0000 -0.0639
# 5 -11.8156 -14.6997 -5.4740 0.0000 41.6537 0.0000
# 6 0.0000 0.0000 0.0000 -0.0639 0.0000 27.2277
#
#
#
# Elastic Compliance Matrix: (Units=1/GPa)
#
#
# Indices 1 2 3 4 5 6 
#
# 1 0.016937 -0.004727 -0.005270 0.000000 0.002444 0.000000
# 2 -0.004727 0.014036 -0.001811 0.000000 0.003374 0.000000
# 3 -0.005270 -0.001811 0.015998 0.000000 -0.000032 0.000000
# 4 0.000000 0.000000 0.000000 0.022258 0.000000 0.000052
# 5 0.002444 0.003374 -0.000032 0.000000 0.025887 0.000000
# 6 0.000000 0.000000 0.000000 0.000052 0.000000 0.036727
#
#
# Mechanical properties :
#
#
# Convention : Reuss Voigt Hill
#
# Bulk Modulus (GPa) = 42.81928 45.73894 44.27911
# Shear Modulus (GPa) = 30.62883 33.32783 31.97833
#
# Velocity S-wave (km/s) = 3.62349 3.77977 3.70246
# Velocity P-wave (km/s) = 5.98846 6.21739 6.10400
#
# Compressibility (1/GPa) = 0.02335397
#
# Stress axis : x y z
#
# Youngs Moduli (GPa) = 59.04239 71.24734 62.50811
#
# Poissons Ratio (x) = 0.33681 0.32943
# Poissons Ratio (y) = 0.27911 0.11319
# Poissons Ratio (z) = 0.31116 0.12901
#
# Static dielectric constant tensor:
#      x y z
#    x 1.841490 0.000000 0.023580 
#    y 0.000000 1.882600 0.000000 
#    z 0.023580 0.000000 1.876220 
# 
# From -- ./inp_files/1212.got.cif
#   From: 2010.05.17/outbox.cif.g08.bks.cpg/sg4_1_cif.got.tgz:1212.got - 2010.06.03 18:43:04.
