data_PCOD9119994
_publ_section_title
;
Structure prediction by ZEFSAII (Michael W. Deem and Ramdas Pophale) SiO2 
 PCOD9119994
Probable space group: C 2
;
_chemical_formula_sum "Si O2"
_cell_formula_units_Z 28
_cell_length_a 18.213542
_cell_length_b 5.242125
_cell_length_c 18.219585
_cell_angle_alpha 90.000000
_cell_angle_beta 132.713651
_cell_angle_gamma 90.000000
_cell_volume 1278.149435
_symmetry_space_group_name_H-M "C 2"
_symmetry_group_IT_number 5
_symmetry_cell_setting 'monoclinic'
loop_
_space_group_symop_operation_xyz
x,y,z
-x,y,-z
1/2+x,1/2+y,z
1/2-x,1/2+y,-z
loop_
_atom_site_type_symbol
_atom_site_label
_atom_site_fract_x
_atom_site_fract_y
_atom_site_fract_z
Si Si1 0.095070 0.688990 0.617127
Si Si2 0.881534 0.187672 0.422747
Si Si3 0.078082 0.493135 0.764868
Si Si4 0.077229 0.269418 0.240041
Si Si5 0.227680 0.835541 0.032982
Si Si6 0.512380 0.263900 0.862316
Si Si7 0.241369 0.946664 0.539444
O O1 0.161056 0.465123 0.625340
O O2 0.060015 0.589218 0.671563
O O3 0.000000 0.733283 0.500000
O O4 0.145195 0.966255 0.653266
O O5 0.000000 0.233675 0.500000
O O6 0.849957 0.075800 0.479373
O O7 0.001016 0.284646 0.744126
O O8 0.058423 0.715209 0.811486
O O9 0.190943 0.394750 0.849717
O O10 0.179829 0.353355 0.346388
O O11 0.064169 0.995644 0.195014
O O12 0.040225 0.493012 0.160207
O O13 0.111429 0.820884 0.976221
O O14 0.241928 0.070865 0.985737
O O15 0.215485 0.689872 0.476805
#
# Coordination Sequence:
#
# PCOD9119994 Si02
#       7
#     4   4   4   4   4   4   4
#     4  10  22  35  55  76 114 153 192 228 281 341
#     4  10  24  39  56  78 111 151 192 241 286 333
#     4   9  21  30  58  83 116 151 188 236 291 340
#     4  10  21  32  54  80 115 144 190 231 300 331
#     4  10  16  30  49  84 121 141 182 237 307 336
#     4   9  18  32  52  85 119 144 181 247 298 341
#     4  12  26  40  61  84 114 155 206 245 289 345
#
# _framework density 21.906669999999998
#
# number of rings (size 3 to 8) (size 9 to 14) (size 15 to 20)
#    0.857    1.143    1.429    1.714   10.000    0.000 
#    0.000    0.000    0.000    0.000    0.000    6.000 
#    0.000    0.000    0.000    0.000    0.000    0.000 
#
# Total GULP energy -78012.062946 kJ/mol
# GULP energy per Si atom -5572.290210 kJ/mol
# Density = 2.185681 g / cm^3
# Si number density = 21.906670 Si / 1000 Ang^3
#
#
#
# Elastic Constant Matrix: (Units=GPa)
#
#
# Indices 1 2 3 4 5 6 
#
# 1 34.9934 -0.3080 8.4412 0.0000 11.5972 0.0000
# 2 -0.3080 135.5933 -13.6362 0.0000 7.9340 0.0001
# 3 8.4412 -13.6362 46.0044 0.0000 16.2241 0.0000
# 4 0.0000 0.0000 0.0000 18.5401 0.0000 6.5438
# 5 11.5972 7.9340 16.2241 0.0000 24.0120 0.0000
# 6 0.0000 0.0001 0.0000 6.5438 0.0000 15.4950
#
#
#
# Elastic Compliance Matrix: (Units=1/GPa)
#
#
# Indices 1 2 3 4 5 6 
#
# 1 0.034172 0.001062 -0.000015 0.000000 -0.016845 0.000000
# 2 0.001062 0.008185 0.004419 0.000000 -0.006203 0.000000
# 3 -0.000015 0.004419 0.030933 0.000000 -0.022353 0.000000
# 4 0.000000 0.000000 0.000000 0.063385 0.000000 -0.026769
# 5 -0.016845 -0.006203 -0.022353 0.000000 0.066935 0.000000
# 6 0.000000 0.000000 0.000000 -0.026769 0.000000 0.075842
#
#
# Mechanical properties :
#
#
# Convention : Reuss Voigt Hill
#
# Bulk Modulus (GPa) = 11.87346 22.84278 17.35812
# Shear Modulus (GPa) = 16.85807 26.41567 21.63687
#
# Velocity S-wave (km/s) = 2.77707 3.47627 3.14615
# Velocity P-wave (km/s) = 3.96417 5.15389 4.59767
#
# Compressibility (1/GPa) = 0.08422145
#
# Stress axis : x y z
#
# Youngs Moduli (GPa) = 29.26330 122.17876 32.32835
#
# Poissons Ratio (x) = -0.12973 0.00048
# Poissons Ratio (y) = -0.03107 -0.14285
# Poissons Ratio (z) = 0.00043 -0.53987
#
# Static dielectric constant tensor:
#      x y z
#    x 1.894540 0.000000 0.062890 
#    y 0.000000 1.878320 0.000000 
#    z 0.062890 0.000000 1.846650 
# 
# From -- ./inp_files/62602.got.cif
#   From: 2010.05.17/outbox.cif.g08.bks.cpg/sg5_32_cif.got.tgz:62602.got - 2010.06.03 18:56:24.
