data_PCOD9119714
_publ_section_title
;
Structure prediction by ZEFSAII (Michael W. Deem and Ramdas Pophale) SiO2 
 PCOD9119714
Probable space group: P 21
;
_chemical_formula_sum "Si O2"
_cell_formula_units_Z 12
_cell_length_a 25.778296
_cell_length_b 4.957103
_cell_length_c 5.286633
_cell_angle_alpha 90.000000
_cell_angle_beta 44.894463
_cell_angle_gamma 90.000000
_cell_volume 476.809480
_symmetry_space_group_name_H-M "P 21"
_symmetry_group_IT_number 4
_symmetry_cell_setting 'monoclinic'
loop_
_space_group_symop_operation_xyz
x,y,z
-x,1/2+y,-z
loop_
_atom_site_type_symbol
_atom_site_label
_atom_site_fract_x
_atom_site_fract_y
_atom_site_fract_z
Si Si1 0.367199 0.191590 0.009299
Si Si2 0.856078 0.377039 0.998208
Si Si3 0.667954 0.188687 0.174506
Si Si4 0.459099 0.884574 0.045889
Si Si5 0.761493 0.893927 0.205907
Si Si6 0.050892 0.894252 0.814580
O O1 0.315438 0.293632 0.414102
O O2 0.439641 0.043026 0.858505
O O3 0.379027 0.460720 0.807125
O O4 0.322210 0.960579 0.016773
O O5 0.910129 0.299694 0.579763
O O6 0.814750 0.640664 0.034724
O O7 0.896112 0.427110 0.125985
O O8 0.798632 0.134611 0.232803
O O9 0.619383 0.285809 0.577941
O O10 0.740644 0.034392 0.013255
O O11 0.508103 0.617468 0.886140
O O12 0.010365 0.174810 0.902482
#
# Coordination Sequence:
#
# PCOD9119714 Si02
#       6
#     2   2   2   2   2   2
#     4  12  26  47  74 102 146 196 238 320 385 441
#     4  12  27  45  80 111 149 208 252 312 374 458
#     4  12  26  47  74 102 146 196 238 320 385 441
#     4  12  26  48  70 104 144 188 256 304 376 470
#     4  12  27  47  70 111 147 184 254 310 374 454
#     4  12  26  50  74 112 156 200 252 310 374 442
#
# _framework density 25.167289
#
# number of rings (size 3 to 8) (size 9 to 14) (size 15 to 20)
#    0.000    0.000    0.000   11.000    7.000    2.667 
#    0.000    3.333    0.000    0.000    0.000    0.000 
#    0.000    0.000    0.000    0.000    0.000    0.000 
#
# Total GULP energy -67284.910493 kJ/mol
# GULP energy per Si atom -5607.075874 kJ/mol
# Density = 2.511001 g / cm^3
# Si number density = 25.167289 Si / 1000 Ang^3
#
#
#
# Elastic Constant Matrix: (Units=GPa)
#
#
# Indices 1 2 3 4 5 6 
#
# 1 106.6126 48.8346 18.2939 0.0000 -2.5014 0.0000
# 2 48.8346 184.9064 11.7168 0.0000 -7.2748 0.0000
# 3 18.2939 11.7168 49.5222 0.0000 13.0625 0.0000
# 4 0.0000 0.0000 0.0000 44.2095 0.0000 -3.9260
# 5 -2.5014 -7.2748 13.0625 0.0000 32.2493 0.0000
# 6 0.0000 0.0000 0.0000 -3.9260 0.0000 65.5914
#
#
#
# Elastic Compliance Matrix: (Units=1/GPa)
#
#
# Indices 1 2 3 4 5 6 
#
# 1 0.011342 -0.002662 -0.004069 0.000000 0.001927 0.000000
# 2 -0.002662 0.006230 -0.000903 0.000000 0.001565 0.000000
# 3 -0.004069 -0.000903 0.024684 0.000000 -0.010517 0.000000
# 4 0.000000 0.000000 0.000000 0.022740 0.000000 0.001361
# 5 0.001927 0.001565 -0.010517 0.000000 0.035771 0.000000
# 6 0.000000 0.000000 0.000000 0.001361 0.000000 0.015327
#
#
# Mechanical properties :
#
#
# Convention : Reuss Voigt Hill
#
# Bulk Modulus (GPa) = 37.05282 55.41465 46.23374
# Shear Modulus (GPa) = 35.62294 45.88977 40.75635
#
# Velocity S-wave (km/s) = 3.76632 4.27475 4.02856
# Velocity P-wave (km/s) = 5.80243 6.81403 6.32847
#
# Compressibility (1/GPa) = 0.02698850
#
# Stress axis : x y z
#
# Youngs Moduli (GPa) = 88.16463 160.51409 40.51235
#
# Poissons Ratio (x) = 0.42728 0.16483
# Poissons Ratio (y) = 0.23469 0.03660
# Poissons Ratio (z) = 0.35870 0.14501
#
# Static dielectric constant tensor:
#      x y z
#    x 2.005970 0.000000 0.008620 
#    y 0.000000 1.915690 0.000000 
#    z 0.008620 0.000000 1.971340 
# 
# From -- ./inp_files/4425.got.cif
#   From: 2010.05.17/outbox.cif.g08.bks.cpg/sg4_3_cif.got.tgz:4425.got - 2010.06.03 18:43:04.
