data_PCOD9119841
_publ_section_title
;
Structure prediction by ZEFSAII (Michael W. Deem and Ramdas Pophale) SiO2 
 PCOD9119841
Probable space group: P 21
;
_chemical_formula_sum "Si O2"
_cell_formula_units_Z 16
_cell_length_a 9.000000
_cell_length_b 9.000000
_cell_length_c 9.000000
_cell_angle_alpha 90.000000
_cell_angle_beta 90.000000
_cell_angle_gamma 90.000000
_cell_volume 729.000000
_symmetry_space_group_name_H-M "P 21"
_symmetry_group_IT_number 4
_symmetry_cell_setting 'monoclinic'
loop_
_space_group_symop_operation_xyz
x,y,z
-x,1/2+y,-z
loop_
_atom_site_type_symbol
_atom_site_label
_atom_site_fract_x
_atom_site_fract_y
_atom_site_fract_z
Si Si1 0.539158 0.481480 0.105438
Si Si2 0.310284 0.245015 0.060022
Si Si3 0.331702 0.210632 0.408843
Si Si4 0.154400 0.841423 0.850880
Si Si5 0.095754 0.985154 0.532520
Si Si6 0.998227 0.629985 0.032355
Si Si7 0.573163 0.044576 0.571881
Si Si8 0.861398 0.202505 0.655333
O O1 0.388156 0.404235 0.052491
O O2 0.677222 0.367168 0.097397
O O3 0.524563 0.520325 0.279491
O O4 0.580368 0.623425 0.009644
O O5 0.289055 0.215655 0.235592
O O6 0.156612 0.220008 0.975931
O O7 0.208727 0.118845 0.497837
O O8 0.479928 0.114507 0.438084
O O9 0.359321 0.380857 0.459303
O O10 0.138127 0.892285 0.680539
O O11 0.054150 0.961157 0.942716
O O12 0.090675 0.679783 0.888324
O O13 0.945171 0.071798 0.565948
O O14 0.094695 0.864967 0.401805
O O15 0.093769 0.678269 0.174570
O O16 0.691384 0.167814 0.622135
#
# Coordination Sequence:
#
# PCOD9119841 Si02
#       8
#     2   2   2   2   2   2   2   2
#     4  10  23  43  64  97 131 172 221 272 329 398
#     4  10  25  42  67  97 132 176 220 277 332 400
#     4  11  24  45  67  98 133 175 223 280 337 401
#     4  10  23  43  65  95 131 176 220 276 326 396
#     4  11  24  44  66  99 137 173 228 277 331 408
#     4  10  25  43  65  96 131 176 222 273 335 387
#     4  11  24  44  69  96 134 176 222 279 342 396
#     4  11  26  42  69 100 133 182 222 280 340 400
#
# _framework density 21.947873999999999
#
# number of rings (size 3 to 8) (size 9 to 14) (size 15 to 20)
#    0.000    1.500    1.250    1.500   15.750    1.000 
#    2.250    0.000    0.000    0.000    0.000    0.000 
#    0.000    0.000    0.000    0.000    0.000    0.000 
#
# Total GULP energy -89441.272864 kJ/mol
# GULP energy per Si atom -5590.079554 kJ/mol
# Density = 2.189792 g / cm^3
# Si number density = 21.947874 Si / 1000 Ang^3
#
#
#
# Elastic Constant Matrix: (Units=GPa)
#
#
# Indices 1 2 3 4 5 6 
#
# 1 41.0550 -1.5127 12.6518 0.0000 -0.5605 0.0000
# 2 -1.5127 30.9358 8.1571 0.0000 -4.1914 0.0000
# 3 12.6518 8.1571 22.0384 0.0000 -11.5226 0.0000
# 4 0.0000 0.0000 0.0000 29.8813 0.0000 -8.7822
# 5 -0.5605 -4.1914 -11.5226 0.0000 20.4909 0.0000
# 6 0.0000 0.0000 0.0000 -8.7822 0.0000 25.1031
#
#
#
# Elastic Compliance Matrix: (Units=1/GPa)
#
#
# Indices 1 2 3 4 5 6 
#
# 1 0.033479 0.007467 -0.029329 0.000000 -0.014050 0.000000
# 2 0.007467 0.037487 -0.019895 0.000000 -0.003316 0.000000
# 3 -0.029329 -0.019895 0.094944 0.000000 0.048518 0.000000
# 4 0.000000 0.000000 0.000000 0.037301 0.000000 0.013050
# 5 -0.014050 -0.003316 0.048518 0.000000 0.075023 0.000000
# 6 0.000000 0.000000 0.000000 0.013050 0.000000 0.044401
#
#
# Mechanical properties :
#
#
# Convention : Reuss Voigt Hill
#
# Bulk Modulus (GPa) = 12.13664 14.73573 13.43619
# Shear Modulus (GPa) = 11.53096 20.07725 15.80410
#
# Velocity S-wave (km/s) = 2.29460 3.02780 2.68633
# Velocity P-wave (km/s) = 3.54430 4.35338 3.96951
#
# Compressibility (1/GPa) = 0.08239510
#
# Stress axis : x y z
#
# Youngs Moduli (GPa) = 29.86934 26.67604 10.53252
#
# Poissons Ratio (x) = -0.19919 0.30891
# Poissons Ratio (y) = -0.22303 0.20955
# Poissons Ratio (z) = 0.87604 0.53072
#
# Static dielectric constant tensor:
#      x y z
#    x 1.857610 0.000000 -0.024550 
#    y 0.000000 1.773760 0.000000 
#    z -0.024550 0.000000 1.770680 
# 
# From -- ./inp_files/5827.got.cif
#   From: 2010.05.17/outbox.ucp.g08.bks.cvg/sg4_3_cif.got.tgz:5827.got - 2010.06.11 12:51:24.
