data_PCOD9119770
_publ_section_title
;
Structure prediction by ZEFSAII (Michael W. Deem and Ramdas Pophale) SiO2 
 PCOD9119770
Probable space group: P 21
;
_chemical_formula_sum "Si O2"
_cell_formula_units_Z 14
_cell_length_a 16.351164
_cell_length_b 5.272099
_cell_length_c 9.479370
_cell_angle_alpha 90.000000
_cell_angle_beta 43.751650
_cell_angle_gamma 90.000000
_cell_volume 565.099802
_symmetry_space_group_name_H-M "P 21"
_symmetry_group_IT_number 4
_symmetry_cell_setting 'monoclinic'
loop_
_space_group_symop_operation_xyz
x,y,z
-x,1/2+y,-z
loop_
_atom_site_type_symbol
_atom_site_label
_atom_site_fract_x
_atom_site_fract_y
_atom_site_fract_z
Si Si1 0.944307 0.621080 0.220358
Si Si2 0.696747 0.686677 0.018680
Si Si3 0.733442 0.273746 0.447978
Si Si4 0.928670 0.748478 0.545234
Si Si5 0.421000 0.906362 0.616823
Si Si6 0.177352 0.394124 0.865313
Si Si7 0.488284 0.890692 0.096826
O O1 0.859392 0.376680 0.342222
O O2 0.913120 0.785633 0.396719
O O3 0.910892 0.705538 0.104240
O O4 0.084990 0.596117 0.043566
O O5 0.640918 0.428531 0.152657
O O6 0.746745 0.809022 0.098820
O O7 0.589632 0.842108 0.085137
O O8 0.805063 0.678215 0.774975
O O9 0.676755 0.425461 0.385506
O O10 0.637717 0.299573 0.687919
O O11 0.748391 0.001833 0.357722
O O12 0.014320 0.504620 0.462136
O O13 0.491468 0.645648 0.507927
O O14 0.518074 0.683288 0.939325
#
# Coordination Sequence:
#
# PCOD9119770 Si02
#       7
#     2   2   2   2   2   2   2
#     4  12  27  49  79 116 162 208 269 327 399 471
#     4  12  28  52  83 115 162 207 271 328 401 482
#     4  12  28  47  82 112 160 205 267 329 400 469
#     4  12  31  51  79 113 160 213 266 321 397 478
#     4  12  27  48  79 118 153 202 264 332 395 466
#     4  12  27  50  81 120 156 215 267 337 394 470
#     4  12  32  53  79 116 161 214 262 326 404 480
#
# _framework density 24.774386
#
# number of rings (size 3 to 8) (size 9 to 14) (size 15 to 20)
#    0.000    0.000    5.714    1.714   12.000    2.286 
#    0.000    0.000    0.000    0.000    0.000    0.000 
#    0.000    0.000    0.000    0.000    0.000    0.000 
#
# Total GULP energy -78370.780059 kJ/mol
# GULP energy per Si atom -5597.912861 kJ/mol
# Density = 2.471800 g / cm^3
# Si number density = 24.774386 Si / 1000 Ang^3
#
#
#
# Elastic Constant Matrix: (Units=GPa)
#
#
# Indices 1 2 3 4 5 6 
#
# 1 111.4486 16.7446 -2.5850 0.0000 9.1166 0.0000
# 2 16.7446 71.9038 0.5504 0.0000 -6.3309 0.0000
# 3 -2.5850 0.5504 107.3711 0.0000 -12.8141 0.0000
# 4 0.0000 0.0000 0.0000 31.7355 0.0000 4.0698
# 5 9.1166 -6.3309 -12.8141 0.0000 38.6726 0.0000
# 6 0.0000 0.0000 0.0000 4.0698 0.0000 34.4388
#
#
#
# Elastic Compliance Matrix: (Units=1/GPa)
#
#
# Indices 1 2 3 4 5 6 
#
# 1 0.009560 -0.002462 -0.000077 0.000000 -0.002682 0.000000
# 2 -0.002462 0.014749 0.000232 0.000000 0.003072 0.000000
# 3 -0.000077 0.000232 0.009701 0.000000 0.003270 0.000000
# 4 0.000000 0.000000 0.000000 0.031995 0.000000 -0.003781
# 5 -0.002682 0.003072 0.003270 0.000000 0.028077 0.000000
# 6 0.000000 0.000000 0.000000 -0.003781 0.000000 0.029484
#
#
# Mechanical properties :
#
#
# Convention : Reuss Voigt Hill
#
# Bulk Modulus (GPa) = 34.01895 35.57149 34.79522
# Shear Modulus (GPa) = 36.23710 39.37028 37.80369
#
# Velocity S-wave (km/s) = 3.82865 3.99074 3.91054
# Velocity P-wave (km/s) = 5.77114 5.96859 5.87070
#
# Compressibility (1/GPa) = 0.02939538
#
# Stress axis : x y z
#
# Youngs Moduli (GPa) = 104.59956 67.79908 103.08477
#
# Poissons Ratio (x) = 0.16692 0.00797
# Poissons Ratio (y) = 0.25752 -0.02389
# Poissons Ratio (z) = 0.00809 -0.01571
#
# Static dielectric constant tensor:
#      x y z
#    x 1.946710 0.000000 -0.007120 
#    y 0.000000 2.089410 0.000000 
#    z -0.007120 0.000000 1.985320 
# 
# From -- ./inp_files/7094.got.cif
#   From: 2010.05.17/outbox.cif.g08.bks.cpg/sg4_4_cif.got.tgz:7094.got - 2010.06.03 18:43:04.
