data_PCOD9119986
_publ_section_title
;
Structure prediction by ZEFSAII (Michael W. Deem and Ramdas Pophale) SiO2 
 PCOD9119986
Probable space group: C 2
;
_chemical_formula_sum "Si O2"
_cell_formula_units_Z 28
_cell_length_a 19.396995
_cell_length_b 7.093079
_cell_length_c 10.427485
_cell_angle_alpha 90.000000
_cell_angle_beta 55.677595
_cell_angle_gamma 90.000000
_cell_volume 1184.853493
_symmetry_space_group_name_H-M "C 2"
_symmetry_group_IT_number 5
_symmetry_cell_setting 'monoclinic'
loop_
_space_group_symop_operation_xyz
x,y,z
-x,y,-z
1/2+x,1/2+y,z
1/2-x,1/2+y,-z
loop_
_atom_site_type_symbol
_atom_site_label
_atom_site_fract_x
_atom_site_fract_y
_atom_site_fract_z
Si Si1 0.000000 0.026060 0.500000
Si Si2 0.311063 0.838020 0.559935
Si Si3 0.309943 0.440795 0.677077
Si Si4 0.317523 0.590834 0.212722
Si Si5 0.222874 0.146978 0.024246
Si Si6 0.627641 0.002831 0.233237
Si Si7 0.000000 0.214529 0.000000
Si Si8 0.018541 0.341889 0.707871
O O1 0.998154 0.165727 0.374797
O O2 0.911517 0.913578 0.584710
O O3 0.302548 0.615785 0.586880
O O4 0.352782 0.935975 0.643460
O O5 0.382783 0.872879 0.382177
O O6 0.221912 0.934596 0.653974
O O7 0.245300 0.272995 0.709378
O O8 0.279834 0.537488 0.840363
O O9 0.415609 0.609219 0.128459
O O10 0.310219 0.541450 0.068293
O O11 0.166888 0.328535 0.110398
O O12 0.318756 0.174545 0.877710
O O13 0.530723 0.011567 0.307592
O O14 0.018749 0.324143 0.111126
#
# Coordination Sequence:
#
# PCOD9119986 Si02
#       8
#     2   4   4   4   4   4   2   4
#     4  10  18  36  62  86 120 168 200 256 320 364
#     4   9  21  37  63  86 120 164 206 259 313 364
#     4  10  18  36  59  90 124 155 209 262 312 365
#     4  11  22  39  57  94 122 168 210 255 311 376
#     4  10  16  29  53  85 116 147 199 254 300 356
#     4  10  16  30  57  81 114 153 195 249 306 356
#     4  12  24  38  66  90 132 168 214 252 314 378
#     4  11  18  39  60  89 123 169 201 254 321 372
#
# _framework density 23.631612000000001
#
# number of rings (size 3 to 8) (size 9 to 14) (size 15 to 20)
#    0.000    1.714    7.143    0.000    0.000    0.000 
#   10.286    0.714    0.000    0.000    0.000    0.000 
#    0.000    0.000    0.000    0.000    0.000    0.000 
#
# Total GULP energy -78014.289661 kJ/mol
# GULP energy per Si atom -5572.449262 kJ/mol
# Density = 2.357783 g / cm^3
# Si number density = 23.631612 Si / 1000 Ang^3
#
#
#
# Elastic Constant Matrix: (Units=GPa)
#
#
# Indices 1 2 3 4 5 6 
#
# 1 94.8930 19.8793 30.9811 0.0000 -26.5885 0.0000
# 2 19.8793 54.5925 11.2993 0.0000 -17.5782 0.0000
# 3 30.9811 11.2993 114.0196 0.0000 -17.2304 0.0000
# 4 0.0000 0.0000 0.0000 23.1694 0.0000 -13.6930
# 5 -26.5885 -17.5782 -17.2304 0.0000 57.4694 0.0000
# 6 0.0000 0.0000 0.0000 -13.6930 0.0000 18.0407
#
#
#
# Elastic Compliance Matrix: (Units=1/GPa)
#
#
# Indices 1 2 3 4 5 6 
#
# 1 0.013248 -0.002838 -0.002643 0.000000 0.004469 0.000000
# 2 -0.002838 0.021065 -0.000567 0.000000 0.004960 0.000000
# 3 -0.002643 -0.000567 0.009777 0.000000 0.001535 0.000000
# 4 0.000000 0.000000 0.000000 0.078270 0.000000 0.059407
# 5 0.004469 0.004960 0.001535 0.000000 0.021445 0.000000
# 6 0.000000 0.000000 0.000000 0.059407 0.000000 0.100521
#
#
# Mechanical properties :
#
#
# Convention : Reuss Voigt Hill
#
# Bulk Modulus (GPa) = 31.25600 43.09161 37.17380
# Shear Modulus (GPa) = 18.72053 33.15890 25.93971
#
# Velocity S-wave (km/s) = 2.81763 3.74994 3.31670
# Velocity P-wave (km/s) = 4.88266 6.08471 5.51653
#
# Compressibility (1/GPa) = 0.03199385
#
# Stress axis : x y z
#
# Youngs Moduli (GPa) = 75.48442 47.47102 102.28349
#
# Poissons Ratio (x) = 0.13473 0.27035
# Poissons Ratio (y) = 0.21424 0.05798
# Poissons Ratio (z) = 0.19951 0.02691
#
# Static dielectric constant tensor:
#      x y z
#    x 2.030370 0.000000 -0.029800 
#    y 0.000000 2.028210 0.000000 
#    z -0.029800 0.000000 1.927930 
# 
# From -- ./inp_files/45998.got.cif
#   From: 2010.05.17/outbox.cif.g08.bks.cpg/sg5_23_cif.got.tgz:45998.got - 2010.06.03 18:56:24.
