data_PCOD9119498
_publ_section_title
;
Structure prediction by ZEFSAII (Michael W. Deem and Ramdas Pophale) SiO2 
 PCOD9119498
Probable space group: P 21
;
_chemical_formula_sum "Si O2"
_cell_formula_units_Z 14
_cell_length_a 15.378673
_cell_length_b 5.841666
_cell_length_c 9.933519
_cell_angle_alpha 90.000000
_cell_angle_beta 45.418992
_cell_angle_gamma 90.000000
_cell_volume 635.618466
_symmetry_space_group_name_H-M "P 21"
_symmetry_group_IT_number 4
_symmetry_cell_setting 'monoclinic'
loop_
_space_group_symop_operation_xyz
x,y,z
-x,1/2+y,-z
loop_
_atom_site_type_symbol
_atom_site_label
_atom_site_fract_x
_atom_site_fract_y
_atom_site_fract_z
Si Si1 0.187805 0.722370 0.312535
Si Si2 0.247131 0.998681 0.002240
Si Si3 0.852546 0.306694 0.129944
Si Si4 0.901633 0.681772 0.256236
Si Si5 0.059202 0.364156 0.283424
Si Si6 0.490742 0.090635 0.589475
Si Si7 0.269135 0.544731 0.499533
O O1 0.165221 0.494138 0.249655
O O2 0.255500 0.691828 0.380108
O O3 0.047500 0.789652 0.498371
O O4 0.254785 0.902620 0.144101
O O5 0.126098 0.156163 0.135751
O O6 0.365222 0.112596 0.809685
O O7 0.218090 0.788431 0.932560
O O8 0.821673 0.546624 0.234250
O O9 0.812172 0.131293 0.286445
O O10 0.994635 0.310493 0.941284
O O11 0.984390 0.516146 0.258115
O O12 0.805266 0.813944 0.452585
O O13 0.512361 0.344019 0.493161
O O14 0.597756 0.043803 0.581942
#
# Coordination Sequence:
#
# PCOD9119498 Si02
#       7
#     2   2   2   2   2   2   2
#     4  12  25  45  70 112 152 195 247 322 404 479
#     4  12  27  46  76 106 150 208 256 320 396 473
#     4  12  22  40  68 106 139 184 252 314 386 455
#     4  12  23  38  70 110 150 190 250 324 396 466
#     4  12  24  43  71 110 158 195 247 317 409 477
#     4  12  30  56  82 113 155 216 277 334 387 472
#     4  12  27  46  71 109 152 198 261 325 388 474
#
# _framework density 22.025793
#
# number of rings (size 3 to 8) (size 9 to 14) (size 15 to 20)
#    0.000    0.000    7.143    3.429    4.000    0.000 
#    2.571    0.000    0.000    0.000    0.000    0.000 
#    0.000    0.000    0.000    0.000    0.000    0.000 
#
# Total GULP energy -78110.042151 kJ/mol
# GULP energy per Si atom -5579.288725 kJ/mol
# Density = 2.197566 g / cm^3
# Si number density = 22.025793 Si / 1000 Ang^3
#
#
#
# Elastic Constant Matrix: (Units=GPa)
#
#
# Indices 1 2 3 4 5 6 
#
# 1 105.4344 17.4214 24.6659 0.0000 11.4334 0.0000
# 2 17.4214 60.2821 29.1673 0.0000 12.2887 0.0000
# 3 24.6659 29.1673 112.1102 0.0000 7.3992 0.0000
# 4 0.0000 0.0000 0.0000 27.7769 0.0000 5.7291
# 5 11.4334 12.2887 7.3992 0.0000 31.7654 0.0000
# 6 0.0000 0.0000 0.0000 5.7291 0.0000 30.5258
#
#
#
# Elastic Compliance Matrix: (Units=1/GPa)
#
#
# Indices 1 2 3 4 5 6 
#
# 1 0.010448 -0.001645 -0.001691 0.000000 -0.002730 0.000000
# 2 -0.001645 0.020560 -0.004571 0.000000 -0.006297 0.000000
# 3 -0.001691 -0.004571 0.010485 0.000000 -0.000065 0.000000
# 4 0.000000 0.000000 0.000000 0.037451 0.000000 -0.007029
# 5 -0.002730 -0.006297 -0.000065 0.000000 0.034915 0.000000
# 6 0.000000 0.000000 0.000000 -0.007029 0.000000 0.034078
#
#
# Mechanical properties :
#
#
# Convention : Reuss Voigt Hill
#
# Bulk Modulus (GPa) = 38.94204 46.70398 42.82301
# Shear Modulus (GPa) = 29.01745 31.78510 30.40127
#
# Velocity S-wave (km/s) = 3.63358 3.80292 3.71921
# Velocity P-wave (km/s) = 5.94327 6.36657 6.15856
#
# Compressibility (1/GPa) = 0.02567919
#
# Stress axis : x y z
#
# Youngs Moduli (GPa) = 95.71263 48.63930 95.37084
#
# Poissons Ratio (x) = 0.08000 0.16123
# Poissons Ratio (y) = 0.15743 0.43598
# Poissons Ratio (z) = 0.16181 0.22235
#
# Static dielectric constant tensor:
#      x y z
#    x 1.807790 0.000000 0.032920 
#    y 0.000000 2.017620 0.000000 
#    z 0.032920 0.000000 1.824600 
# 
# From -- ./inp_files/7087.got.cif
#   From: 2010.05.17/outbox.cif.g08.bks.cpg/sg4_4_cif.got.tgz:7087.got - 2010.06.03 18:43:04.
