data_PCOD9119389
_publ_section_title
;
Structure prediction by ZEFSAII (Michael W. Deem and Ramdas Pophale) SiO2 
 PCOD9119389
Probable space group: P 21
;
_chemical_formula_sum "Si O2"
_cell_formula_units_Z 10
_cell_length_a 5.017346
_cell_length_b 15.831678
_cell_length_c 5.253273
_cell_angle_alpha 90.000000
_cell_angle_beta 80.679257
_cell_angle_gamma 90.000000
_cell_volume 411.773937
_symmetry_space_group_name_H-M "P 21"
_symmetry_group_IT_number 4
_symmetry_cell_setting 'monoclinic'
loop_
_space_group_symop_operation_xyz
x,y,z
-x,1/2+y,-z
loop_
_atom_site_type_symbol
_atom_site_label
_atom_site_fract_x
_atom_site_fract_y
_atom_site_fract_z
Si Si1 0.639183 0.421890 0.634227
Si Si2 0.709349 0.280027 0.271250
Si Si3 0.208974 0.059567 0.743112
Si Si4 0.076285 0.398104 0.961255
Si Si5 0.694213 0.171448 0.783866
O O1 0.567233 0.365013 0.398607
O O2 0.705123 0.516503 0.536685
O O3 0.905774 0.384787 0.727244
O O4 0.385939 0.413515 0.856651
O O5 0.684108 0.216920 0.511711
O O6 0.003156 0.318890 0.150762
O O7 0.622990 0.233236 0.027805
O O8 0.481350 0.095116 0.821063
O O9 0.995148 0.134854 0.762304
O O10 0.057795 0.983167 0.908049
#
# Coordination Sequence:
#
# PCOD9119389 Si02
#       5
#     2   2   2   2   2
#     4  11  25  49  76 104 144 197 241 293 354 442
#     4  11  28  50  74 109 148 190 244 295 366 426
#     4  11  28  46  74 109 148 190 244 295 366 426
#     4  11  25  49  76 104 144 197 241 293 354 442
#     4  12  28  48  76 108 150 188 236 310 360 422
#
# _framework density 24.285170000000001
#
# number of rings (size 3 to 8) (size 9 to 14) (size 15 to 20)
#    0.000    0.800    2.000    2.400   11.200    8.000 
#    0.000    0.000    0.000    0.000    0.000    0.000 
#    0.000    0.000    0.000    0.000    0.000    0.000 
#
# Total GULP energy -55960.555195 kJ/mol
# GULP energy per Si atom -5596.055520 kJ/mol
# Density = 2.422990 g / cm^3
# Si number density = 24.285170 Si / 1000 Ang^3
#
#
#
# Elastic Constant Matrix: (Units=GPa)
#
#
# Indices 1 2 3 4 5 6 
#
# 1 83.2655 -0.0682 25.3098 0.0000 -14.6535 0.0000
# 2 -0.0682 77.2307 43.9510 0.0000 -3.2347 0.0000
# 3 25.3098 43.9510 142.8696 0.0000 0.0263 0.0000
# 4 0.0000 0.0000 0.0000 59.6188 0.0000 2.2518
# 5 -14.6535 -3.2347 0.0263 0.0000 36.8352 0.0000
# 6 0.0000 0.0000 0.0000 2.2518 0.0000 34.0233
#
#
#
# Elastic Compliance Matrix: (Units=1/GPa)
#
#
# Indices 1 2 3 4 5 6 
#
# 1 0.013961 0.002013 -0.003093 0.000000 0.005733 0.000000
# 2 0.002013 0.016057 -0.005297 0.000000 0.002215 0.000000
# 3 -0.003093 -0.005297 0.009177 0.000000 -0.001702 0.000000
# 4 0.000000 0.000000 0.000000 0.016815 0.000000 -0.001113
# 5 0.005733 0.002215 -0.001702 0.000000 0.029624 0.000000
# 6 0.000000 0.000000 0.000000 -0.001113 0.000000 0.029465
#
#
# Mechanical properties :
#
#
# Convention : Reuss Voigt Hill
#
# Bulk Modulus (GPa) = 37.82103 49.08347 43.45225
# Shear Modulus (GPa) = 36.58522 41.70701 39.14612
#
# Velocity S-wave (km/s) = 3.88556 4.14863 4.01925
# Velocity P-wave (km/s) = 5.97809 6.57293 6.28255
#
# Compressibility (1/GPa) = 0.02644031
#
# Stress axis : x y z
#
# Youngs Moduli (GPa) = 71.63022 62.27823 108.96669
#
# Poissons Ratio (x) = -0.12536 0.33708
# Poissons Ratio (y) = -0.14418 0.57715
# Poissons Ratio (z) = 0.22158 0.32986
#
# Static dielectric constant tensor:
#      x y z
#    x 1.898590 0.000000 0.039010 
#    y 0.000000 1.956900 0.000000 
#    z 0.039010 0.000000 1.966380 
# 
# From -- ./inp_files/241.got.cif
#   From: 2010.05.17/outbox.cif.g08.bks.cpg/sg4_1_cif.got.tgz:241.got - 2010.06.03 18:43:04.
