data_PCOD9119095
_publ_section_title
;
Structure prediction by ZEFSAII (Michael W. Deem and Ramdas Pophale) SiO2 
 PCOD9119095
Probable space group: P 21
;
_chemical_formula_sum "Si O2"
_cell_formula_units_Z 16
_cell_length_a 11.157235
_cell_length_b 11.354908
_cell_length_c 14.202945
_cell_angle_alpha 90.000000
_cell_angle_beta 20.722615
_cell_angle_gamma 90.000000
_cell_volume 636.693612
_symmetry_space_group_name_H-M "P 21"
_symmetry_group_IT_number 4
_symmetry_cell_setting 'monoclinic'
loop_
_space_group_symop_operation_xyz
x,y,z
-x,1/2+y,-z
loop_
_atom_site_type_symbol
_atom_site_label
_atom_site_fract_x
_atom_site_fract_y
_atom_site_fract_z
Si Si1 0.059179 0.033900 0.069937
Si Si2 0.141115 0.891007 0.396856
Si Si3 0.758983 0.619920 0.453760
Si Si4 0.284288 0.856622 0.508310
Si Si5 0.494588 0.117826 0.066730
Si Si6 0.644967 0.637705 0.328560
Si Si7 0.480949 0.814336 0.796370
Si Si8 0.320696 0.212011 0.012316
O O1 0.125259 0.062810 0.911541
O O2 0.331078 0.121333 0.920430
O O3 0.166829 0.900300 0.010481
O O4 0.711273 0.074273 0.378294
O O5 0.153009 0.853945 0.497429
O O6 0.346327 0.781737 0.202872
O O7 0.799278 0.898046 0.588850
O O8 0.348136 0.010694 0.234058
O O9 0.596851 0.489701 0.564510
O O10 0.822342 0.656535 0.298914
O O11 0.562281 0.723962 0.651354
O O12 0.114276 0.592253 0.244518
O O13 0.554789 0.760054 0.342522
O O14 0.953078 0.813337 0.809107
O O15 0.517401 0.233968 0.112260
O O16 0.254587 0.134604 0.153475
#
# Coordination Sequence:
#
# PCOD9119095 Si02
#       8
#     2   2   2   2   2   2   2   2
#     4  11  29  50  76 107 151 204 255 314 378 462
#     4  12  24  43  72 107 151 193 247 319 394 465
#     4  12  28  48  74 113 145 204 260 322 380 455
#     4  11  24  48  72 104 147 198 253 315 383 463
#     4  12  27  43  72 111 156 193 252 321 393 465
#     4  11  29  53  78 109 152 209 262 310 381 453
#     4  12  29  43  74 113 156 197 252 324 393 465
#     4  11  24  44  72 106 146 198 245 311 394 458
#
# _framework density 25.129826000000001
#
# number of rings (size 3 to 8) (size 9 to 14) (size 15 to 20)
#    0.000    0.500    6.250    0.000   14.000    0.000 
#    0.000    0.000    0.000    0.000    0.000    0.000 
#    0.000    0.000    0.000    0.000    0.000    0.000 
#
# Total GULP energy -89471.501078 kJ/mol
# GULP energy per Si atom -5591.968817 kJ/mol
# Density = 2.507263 g / cm^3
# Si number density = 25.129826 Si / 1000 Ang^3
#
#
#
# Elastic Constant Matrix: (Units=GPa)
#
#
# Indices 1 2 3 4 5 6 
#
# 1 119.6496 46.0380 13.8836 0.0000 19.4116 0.0000
# 2 46.0380 144.5193 53.1562 0.0000 0.4248 0.0000
# 3 13.8836 53.1562 84.0025 0.0000 -2.6307 0.0000
# 4 0.0000 0.0000 0.0000 38.9978 0.0000 2.9102
# 5 19.4116 0.4248 -2.6307 0.0000 42.0259 0.0000
# 6 0.0000 0.0000 0.0000 2.9102 0.0000 36.6178
#
#
#
# Elastic Compliance Matrix: (Units=1/GPa)
#
#
# Indices 1 2 3 4 5 6 
#
# 1 0.010407 -0.003407 0.000287 0.000000 -0.004754 0.000000
# 2 -0.003407 0.010142 -0.005820 0.000000 0.001107 0.000000
# 3 0.000287 -0.005820 0.015568 0.000000 0.000901 0.000000
# 4 0.000000 0.000000 0.000000 0.025795 0.000000 -0.002050
# 5 -0.004754 0.001107 0.000901 0.000000 0.026036 0.000000
# 6 0.000000 0.000000 0.000000 -0.002050 0.000000 0.027472
#
#
# Mechanical properties :
#
#
# Convention : Reuss Voigt Hill
#
# Bulk Modulus (GPa) = 54.83375 63.81412 59.32393
# Shear Modulus (GPa) = 35.87324 39.20120 37.53722
#
# Velocity S-wave (km/s) = 3.78235 3.95390 3.86908
# Velocity P-wave (km/s) = 6.39863 6.80392 6.60438
#
# Compressibility (1/GPa) = 0.01823695
#
# Stress axis : x y z
#
# Youngs Moduli (GPa) = 96.09311 98.59781 64.23348
#
# Poissons Ratio (x) = 0.33589 -0.01842
# Poissons Ratio (y) = 0.32735 0.37385
# Poissons Ratio (z) = -0.02756 0.57386
#
# Static dielectric constant tensor:
#      x y z
#    x 1.979090 0.000000 -0.028660 
#    y 0.000000 1.964230 0.000000 
#    z -0.028660 0.000000 2.120030 
# 
# From -- ./inp_files/2715.got.cif
#   From: 2010.05.17/outbox.cif.g08.bks.cpg/sg4_2_cif.got.tgz:2715.got - 2010.06.03 18:43:04.
