data_PCOD9119872
_publ_section_title
;
Structure prediction by ZEFSAII (Michael W. Deem and Ramdas Pophale) SiO2 
 PCOD9119872
Probable space group: P 21
;
_chemical_formula_sum "Si O2"
_cell_formula_units_Z 16
_cell_length_a 15.000000
_cell_length_b 9.000000
_cell_length_c 15.000000
_cell_angle_alpha 90.000000
_cell_angle_beta 160.000000
_cell_angle_gamma 90.000000
_cell_volume 692.590790
_symmetry_space_group_name_H-M "P 21"
_symmetry_group_IT_number 4
_symmetry_cell_setting 'monoclinic'
loop_
_space_group_symop_operation_xyz
x,y,z
-x,1/2+y,-z
loop_
_atom_site_type_symbol
_atom_site_label
_atom_site_fract_x
_atom_site_fract_y
_atom_site_fract_z
Si Si1 0.847676 0.210090 0.596938
Si Si2 0.933454 0.888825 0.736542
Si Si3 0.616177 0.890850 0.909422
Si Si4 0.708134 0.059885 0.183078
Si Si5 0.528369 0.206008 0.767701
Si Si6 0.719218 0.319664 0.668631
Si Si7 0.179896 0.498777 0.176772
Si Si8 0.756437 0.743078 0.310656
O O1 0.649516 0.292046 0.341935
O O2 0.711925 0.247214 0.563834
O O3 0.884797 0.031704 0.625926
O O4 0.132444 0.286241 0.867686
O O5 0.679807 0.781805 0.494444
O O6 0.950917 0.962811 0.850243
O O7 0.199004 0.796159 0.969318
O O8 0.581635 0.029142 0.807157
O O9 0.677217 0.978122 0.058303
O O10 0.752782 0.918523 0.288295
O O11 0.957666 0.168904 0.422271
O O12 0.441840 0.155436 0.942439
O O13 0.369654 0.220121 0.711092
O O14 0.452734 0.409822 0.432254
O O15 0.768084 0.176173 0.779042
O O16 0.965775 0.430745 0.908606
#
# Coordination Sequence:
#
# PCOD9119872 Si02
#       8
#     2   2   2   2   2   2   2   2
#     4  11  24  41  62  91 125 163 207 257 309 368
#     4  11  24  41  62  91 125 163 207 257 309 368
#     4  11  23  41  63  91 125 162 206 255 306 366
#     4  11  24  43  65  94 128 164 206 255 305 365
#     4  11  23  41  63  91 125 162 206 255 306 366
#     4  11  24  41  62  90 124 161 208 259 310 369
#     4  11  24  41  62  90 124 161 208 259 310 369
#     4  11  24  43  65  94 128 164 206 255 305 365
#
# _framework density 23.101664
#
# number of rings (size 3 to 8) (size 9 to 14) (size 15 to 20)
#    0.000    1.000    0.000    7.500    0.000   13.000 
#    0.000    0.000    0.000    0.000    0.000    0.000 
#    0.000    0.000    0.000    0.000    0.000    0.000 
#
# Total GULP energy -89614.518761 kJ/mol
# GULP energy per Si atom -5600.907423 kJ/mol
# Density = 2.304908 g / cm^3
# Si number density = 23.101664 Si / 1000 Ang^3
#
#
#
# Elastic Constant Matrix: (Units=GPa)
#
#
# Indices 1 2 3 4 5 6 
#
# 1 26.3200 -6.3240 -6.8959 0.0000 -2.5630 0.0000
# 2 -6.3240 90.0535 33.4216 0.0000 11.1706 0.0000
# 3 -6.8959 33.4216 158.0960 0.0000 20.2970 0.0000
# 4 0.0000 0.0000 0.0000 57.7645 0.0000 4.6215
# 5 -2.5630 11.1706 20.2970 0.0000 33.9339 0.0000
# 6 0.0000 0.0000 0.0000 4.6215 0.0000 34.7261
#
#
#
# Elastic Compliance Matrix: (Units=1/GPa)
#
#
# Indices 1 2 3 4 5 6 
#
# 1 0.038939 0.002150 0.001037 0.000000 0.001613 0.000000
# 2 0.002150 0.012392 -0.002191 0.000000 -0.002606 0.000000
# 3 0.001037 -0.002191 0.007291 0.000000 -0.003561 0.000000
# 4 0.000000 0.000000 0.000000 0.017498 0.000000 -0.002329
# 5 0.001613 -0.002606 -0.003561 0.000000 0.032579 0.000000
# 6 0.000000 0.000000 0.000000 -0.002329 0.000000 0.029107
#
#
# Mechanical properties :
#
#
# Convention : Reuss Voigt Hill
#
# Bulk Modulus (GPa) = 16.49825 34.98588 25.74207
# Shear Modulus (GPa) = 32.04727 42.23611 37.14169
#
# Velocity S-wave (km/s) = 3.72859 4.28047 4.01403
# Velocity P-wave (km/s) = 5.06889 6.29341 5.71405
#
# Compressibility (1/GPa) = 0.06061248
#
# Stress axis : x y z
#
# Youngs Moduli (GPa) = 25.68109 80.69713 137.15612
#
# Poissons Ratio (x) = -0.17346 -0.14222
# Poissons Ratio (y) = -0.05520 0.30055
# Poissons Ratio (z) = -0.02663 0.17683
#
# Static dielectric constant tensor:
#      x y z
#    x 1.962790 0.000000 -0.076140 
#    y 0.000000 1.860010 0.000000 
#    z -0.076140 0.000000 1.825290 
# 
# From -- ./inp_files/14218.got.cif
#   From: 2010.05.17/outbox.ucp.g08.bks.cvg/sg4_8_cif.got.tgz:14218.got - 2010.06.11 12:51:24.
