data_PCOD9119583
_publ_section_title
;
Structure prediction by ZEFSAII (Michael W. Deem and Ramdas Pophale) SiO2 
 PCOD9119583
Probable space group: P 21
;
_chemical_formula_sum "Si O2"
_cell_formula_units_Z 16
_cell_length_a 19.805034
_cell_length_b 5.969251
_cell_length_c 12.049851
_cell_angle_alpha 90.000000
_cell_angle_beta 154.621340
_cell_angle_gamma 90.000000
_cell_volume 610.559386
_symmetry_space_group_name_H-M "P 21"
_symmetry_group_IT_number 4
_symmetry_cell_setting 'monoclinic'
loop_
_space_group_symop_operation_xyz
x,y,z
-x,1/2+y,-z
loop_
_atom_site_type_symbol
_atom_site_label
_atom_site_fract_x
_atom_site_fract_y
_atom_site_fract_z
Si Si1 0.348754 0.175390 0.835982
Si Si2 0.541882 0.126179 0.731435
Si Si3 0.704097 0.826893 0.790928
Si Si4 0.641004 0.375062 0.365126
Si Si5 0.071556 0.002242 0.776973
Si Si6 0.178256 0.813345 0.714844
Si Si7 0.820239 0.984090 0.562684
Si Si8 0.931560 0.819214 0.928479
O O1 0.290768 0.414323 0.704077
O O2 0.373557 0.038644 0.760548
O O3 0.221351 0.047569 0.720931
O O4 0.505281 0.192152 0.139501
O O5 0.443447 0.297835 0.510228
O O6 0.656002 0.001717 0.813533
O O7 0.408163 0.967292 0.588688
O O8 0.654122 0.204761 0.999475
O O9 0.854701 0.862267 0.934505
O O10 0.760702 0.606732 0.942330
O O11 0.801814 0.239660 0.577881
O O12 0.944223 0.186824 0.546366
O O13 0.988896 0.909096 0.763767
O O14 0.092341 0.842591 0.704431
O O15 0.789645 0.840928 0.626406
O O16 0.019367 0.056981 0.024321
#
# Coordination Sequence:
#
# PCOD9119583 Si02
#       8
#     2   2   2   2   2   2   2   2
#     4  12  24  45  74 112 151 202 259 330 407 487
#     4  12  29  49  77 114 160 213 266 340 406 491
#     4  12  29  50  78 113 163 212 271 334 412 491
#     4  12  25  46  74 113 153 198 269 318 411 479
#     4  12  25  48  73 114 152 204 261 325 408 481
#     4  12  26  47  77 113 157 201 263 333 408 487
#     4  12  27  44  79 108 156 208 261 337 400 489
#     4  12  31  53  84 119 162 218 280 341 412 495
#
# _framework density 26.205475
#
# number of rings (size 3 to 8) (size 9 to 14) (size 15 to 20)
#    0.000    0.000    3.750    5.250   10.500    0.000 
#    0.000    0.000    0.000    0.000    0.000    0.000 
#    0.000    0.000    0.000    0.000    0.000    0.000 
#
# Total GULP energy -89396.710491 kJ/mol
# GULP energy per Si atom -5587.294406 kJ/mol
# Density = 2.614583 g / cm^3
# Si number density = 26.205475 Si / 1000 Ang^3
#
#
#
# Elastic Constant Matrix: (Units=GPa)
#
#
# Indices 1 2 3 4 5 6 
#
# 1 167.0347 54.4936 7.3610 0.0000 8.4873 0.0000
# 2 54.4936 81.3186 32.3142 0.0000 6.5981 0.0000
# 3 7.3610 32.3142 58.9011 0.0000 -4.6670 0.0000
# 4 0.0000 0.0000 0.0000 48.5959 0.0000 2.5148
# 5 8.4873 6.5981 -4.6670 0.0000 52.2860 0.0000
# 6 0.0000 0.0000 0.0000 2.5148 0.0000 55.6644
#
#
#
# Elastic Compliance Matrix: (Units=1/GPa)
#
#
# Indices 1 2 3 4 5 6 
#
# 1 0.007935 -0.006256 0.002418 0.000000 -0.000283 0.000000
# 2 -0.006256 0.021067 -0.010984 0.000000 -0.002623 0.000000
# 3 0.002418 -0.010984 0.022942 0.000000 0.003041 0.000000
# 4 0.000000 0.000000 0.000000 0.020626 0.000000 -0.000932
# 5 -0.000283 -0.002623 0.003041 0.000000 0.019774 0.000000
# 6 0.000000 0.000000 0.000000 -0.000932 0.000000 0.018007
#
#
# Mechanical properties :
#
#
# Convention : Reuss Voigt Hill
#
# Bulk Modulus (GPa) = 44.83988 55.06577 49.95282
# Shear Modulus (GPa) = 33.91473 45.51496 39.71485
#
# Velocity S-wave (km/s) = 3.60138 4.17207 3.89719
# Velocity P-wave (km/s) = 5.86867 6.65334 6.27329
#
# Compressibility (1/GPa) = 0.02230158
#
# Stress axis : x y z
#
# Youngs Moduli (GPa) = 126.01729 47.46792 43.58754
#
# Poissons Ratio (x) = 0.29694 -0.10538
# Poissons Ratio (y) = 0.78831 0.47876
# Poissons Ratio (z) = -0.30468 0.52138
#
# Static dielectric constant tensor:
#      x y z
#    x 1.985100 0.000000 0.082130 
#    y 0.000000 2.117450 0.000000 
#    z 0.082130 0.000000 2.230510 
# 
# From -- ./inp_files/12838.got.cif
#   From: 2010.05.17/outbox.cif.g08.bks.cpg/sg4_7_cif.got.tgz:12838.got - 2010.06.03 18:43:04.
