data_PCOD9119445
_publ_section_title
;
Structure prediction by ZEFSAII (Michael W. Deem and Ramdas Pophale) SiO2 
 PCOD9119445
Probable space group: P 21
;
_chemical_formula_sum "Si O2"
_cell_formula_units_Z 16
_cell_length_a 8.803262
_cell_length_b 8.725413
_cell_length_c 9.125289
_cell_angle_alpha 90.000000
_cell_angle_beta 68.631727
_cell_angle_gamma 90.000000
_cell_volume 652.748877
_symmetry_space_group_name_H-M "P 21"
_symmetry_group_IT_number 4
_symmetry_cell_setting 'monoclinic'
loop_
_space_group_symop_operation_xyz
x,y,z
-x,1/2+y,-z
loop_
_atom_site_type_symbol
_atom_site_label
_atom_site_fract_x
_atom_site_fract_y
_atom_site_fract_z
Si Si1 0.889068 0.106380 0.256160
Si Si2 0.129621 0.349741 0.230525
Si Si3 0.288451 0.800143 0.149784
Si Si4 0.066129 0.923207 0.448263
Si Si5 0.278235 0.071746 0.633319
Si Si6 0.433905 0.140934 0.096031
Si Si7 0.956530 0.126397 0.914112
Si Si8 0.552286 0.244141 0.377338
O O1 0.703915 0.133320 0.364551
O O2 0.969247 0.274867 0.216570
O O3 0.994909 0.019464 0.339091
O O4 0.914931 0.049282 0.082969
O O5 0.279654 0.250340 0.129591
O O6 0.088226 0.350056 0.416216
O O7 0.132415 0.520570 0.174830
O O8 0.189762 0.799938 0.336783
O O9 0.150791 0.779043 0.072018
O O10 0.373284 0.967124 0.113805
O O11 0.432545 0.680688 0.072148
O O12 0.169378 0.019991 0.530042
O O13 0.146090 0.129116 0.800853
O O14 0.402743 0.203787 0.537486
O O15 0.382508 0.919507 0.640584
O O16 0.504071 0.191411 0.229928
#
# Coordination Sequence:
#
# PCOD9119445 Si02
#       8
#     2   2   2   2   2   2   2   2
#     4  12  25  48  78 107 157 199 257 324 376 458
#     4  11  26  49  76 112 150 204 264 305 380 464
#     4  12  26  48  76 109 154 200 256 305 393 450
#     4  11  26  48  77 107 148 213 251 303 385 461
#     4  11  27  51  76 112 155 202 256 317 385 457
#     4  12  27  49  74 114 157 199 251 324 378 463
#     4  11  27  48  78 112 152 206 259 315 381 459
#     4  12  26  51  73 117 157 189 262 321 382 446
#
# _framework density 24.511723
#
# number of rings (size 3 to 8) (size 9 to 14) (size 15 to 20)
#    0.000    0.500    6.250    0.750   10.500    0.000 
#    4.500    0.000    0.000    0.000    0.000    0.000 
#    0.000    0.000    0.000    0.000    0.000    0.000 
#
# Total GULP energy -89539.730989 kJ/mol
# GULP energy per Si atom -5596.233187 kJ/mol
# Density = 2.445593 g / cm^3
# Si number density = 24.511723 Si / 1000 Ang^3
#
#
#
# Elastic Constant Matrix: (Units=GPa)
#
#
# Indices 1 2 3 4 5 6 
#
# 1 99.6230 27.5797 29.9402 0.0000 -17.9553 0.0000
# 2 27.5797 67.2737 10.2548 0.0000 0.5929 0.0000
# 3 29.9402 10.2548 100.8435 0.0000 -22.1313 0.0000
# 4 0.0000 0.0000 0.0000 29.4900 0.0000 -1.9136
# 5 -17.9553 0.5929 -22.1313 0.0000 49.8122 0.0000
# 6 0.0000 0.0000 0.0000 -1.9136 0.0000 54.0507
#
#
#
# Elastic Compliance Matrix: (Units=1/GPa)
#
#
# Indices 1 2 3 4 5 6 
#
# 1 0.012789 -0.004890 -0.002521 0.000000 0.003548 0.000000
# 2 -0.004890 0.017009 -0.000786 0.000000 -0.002314 0.000000
# 3 -0.002521 -0.000786 0.011687 0.000000 0.004293 0.000000
# 4 0.000000 0.000000 0.000000 0.033988 0.000000 0.001203
# 5 0.003548 -0.002314 0.004293 0.000000 0.023289 0.000000
# 6 0.000000 0.000000 0.000000 0.001203 0.000000 0.018544
#
#
# Mechanical properties :
#
#
# Convention : Reuss Voigt Hill
#
# Bulk Modulus (GPa) = 39.85380 44.80994 42.33187
# Shear Modulus (GPa) = 35.19564 40.00162 37.59863
#
# Velocity S-wave (km/s) = 3.79340 4.04411 3.92076
# Velocity P-wave (km/s) = 5.95658 6.33460 6.14850
#
# Compressibility (1/GPa) = 0.02509171
#
# Stress axis : x y z
#
# Youngs Moduli (GPa) = 78.19432 58.79079 85.56580
#
# Poissons Ratio (x) = 0.28748 0.21571
# Poissons Ratio (y) = 0.38236 0.06724
# Poissons Ratio (z) = 0.19713 0.04620
#
# Static dielectric constant tensor:
#      x y z
#    x 1.951460 0.000000 -0.009570 
#    y 0.000000 2.035780 0.000000 
#    z -0.009570 0.000000 2.056890 
# 
# From -- ./inp_files/5388.got.cif
#   From: 2010.05.17/outbox.cif.g08.bks.cpg/sg4_3_cif.got.tgz:5388.got - 2010.06.03 18:43:04.
