data_PCOD9119028
_publ_section_title
;
Structure prediction by ZEFSAII (Michael W. Deem and Ramdas Pophale) SiO2 
 PCOD9119028
Probable space group: P 21
;
_chemical_formula_sum "Si O2"
_cell_formula_units_Z 16
_cell_length_a 26.145901
_cell_length_b 5.572860
_cell_length_c 8.824044
_cell_angle_alpha 90.000000
_cell_angle_beta 150.987112
_cell_angle_gamma 90.000000
_cell_volume 623.586679
_symmetry_space_group_name_H-M "P 21"
_symmetry_group_IT_number 4
_symmetry_cell_setting 'monoclinic'
loop_
_space_group_symop_operation_xyz
x,y,z
-x,1/2+y,-z
loop_
_atom_site_type_symbol
_atom_site_label
_atom_site_fract_x
_atom_site_fract_y
_atom_site_fract_z
Si Si1 0.406717 0.277190 0.379370
Si Si2 0.726290 0.427160 0.367843
Si Si3 0.095784 0.762665 0.346327
Si Si4 0.869789 0.998128 0.093014
Si Si5 0.530814 0.269813 0.011660
Si Si6 0.849872 0.858526 0.695907
Si Si7 0.376834 0.776959 0.212768
Si Si8 0.124966 0.994818 0.741002
O O1 0.470895 0.308699 0.698722
O O2 0.343417 0.520342 0.188620
O O3 0.495185 0.261342 0.473918
O O4 0.352604 0.017962 0.242226
O O5 0.849019 0.359294 0.664862
O O6 0.741267 0.710394 0.402202
O O7 0.654180 0.333558 0.313850
O O8 0.672629 0.321605 0.079232
O O9 0.138439 0.494433 0.436061
O O10 0.132583 0.921630 0.582760
O O11 0.970581 0.761106 0.019218
O O12 0.836462 0.753268 0.096052
O O13 0.997589 0.004159 0.435839
O O14 0.835036 0.257565 0.066421
O O15 0.840185 0.967703 0.840263
O O16 0.485180 0.490477 0.991821
#
# Coordination Sequence:
#
# PCOD9119028 Si02
#       8
#     2   2   2   2   2   2   2   2
#     4   9  18  38  65  94 127 164 211 275 348 410
#     4  11  26  42  68 101 138 182 238 297 355 418
#     4  11  24  41  69 102 142 190 249 302 351 426
#     4   9  20  38  62  89 130 182 227 285 349 412
#     4  11  25  46  73 102 139 183 229 288 361 438
#     4  11  24  41  69 102 145 193 244 298 360 421
#     4   9  19  36  64  95 125 165 213 276 346 407
#     4   9  20  38  62  89 126 179 237 283 346 412
#
# _framework density 25.658023
#
# number of rings (size 3 to 8) (size 9 to 14) (size 15 to 20)
#    0.000    2.000    1.250    0.750    7.000    3.000 
#    0.000    3.750    0.000    0.000    0.000    0.000 
#    0.000    0.000    0.000    0.000    0.000    0.000 
#
# Total GULP energy -89242.572593 kJ/mol
# GULP energy per Si atom -5577.660787 kJ/mol
# Density = 2.559962 g / cm^3
# Si number density = 25.658023 Si / 1000 Ang^3
#
#
#
# Elastic Constant Matrix: (Units=GPa)
#
#
# Indices 1 2 3 4 5 6 
#
# 1 76.3108 44.4873 25.7966 0.0000 8.9309 0.0000
# 2 44.4873 164.2144 53.4311 0.0000 -15.7684 0.0000
# 3 25.7966 53.4311 76.2297 0.0000 3.5789 0.0000
# 4 0.0000 0.0000 0.0000 41.0203 0.0000 1.6133
# 5 8.9309 -15.7684 3.5789 0.0000 31.8064 0.0000
# 6 0.0000 0.0000 0.0000 1.6133 0.0000 40.0283
#
#
#
# Elastic Compliance Matrix: (Units=1/GPa)
#
#
# Indices 1 2 3 4 5 6 
#
# 1 0.017392 -0.004619 -0.002323 0.000000 -0.006912 0.000000
# 2 -0.004619 0.009832 -0.005648 0.000000 0.006807 0.000000
# 3 -0.002323 -0.005648 0.018060 0.000000 -0.004180 0.000000
# 4 0.000000 0.000000 0.000000 0.024417 0.000000 -0.000984
# 5 -0.006912 0.006807 -0.004180 0.000000 0.037226 0.000000
# 6 0.000000 0.000000 0.000000 -0.000984 0.000000 0.025022
#
#
# Mechanical properties :
#
#
# Convention : Reuss Voigt Hill
#
# Bulk Modulus (GPa) = 49.74546 62.68722 56.21634
# Shear Modulus (GPa) = 30.51937 35.44032 32.97984
#
# Velocity S-wave (km/s) = 3.45261 3.72056 3.58908
# Velocity P-wave (km/s) = 5.94340 6.55298 6.25562
#
# Compressibility (1/GPa) = 0.02010234
#
# Stress axis : x y z
#
# Youngs Moduli (GPa) = 57.49919 101.70423 55.37249
#
# Poissons Ratio (x) = 0.46981 0.12863
# Poissons Ratio (y) = 0.26561 0.31275
# Poissons Ratio (z) = 0.13357 0.57444
#
# Static dielectric constant tensor:
#      x y z
#    x 2.059490 0.000000 0.064920 
#    y 0.000000 2.734080 0.000000 
#    z 0.064920 0.000000 2.002340 
# 
# From -- ./inp_files/10166.got.cif
#   From: 2010.05.17/outbox.cif.g08.bks.cpg/sg4_6_cif.got.tgz:10166.got - 2010.06.03 18:43:04.
