data_PCOD9119527
_publ_section_title
;
Structure prediction by ZEFSAII (Michael W. Deem and Ramdas Pophale) SiO2 
 PCOD9119527
Probable space group: P 21
;
_chemical_formula_sum "Si O2"
_cell_formula_units_Z 14
_cell_length_a 28.253415
_cell_length_b 4.907791
_cell_length_c 8.450669
_cell_angle_alpha 90.000000
_cell_angle_beta 147.204755
_cell_angle_gamma 90.000000
_cell_volume 634.684052
_symmetry_space_group_name_H-M "P 21"
_symmetry_group_IT_number 4
_symmetry_cell_setting 'monoclinic'
loop_
_space_group_symop_operation_xyz
x,y,z
-x,1/2+y,-z
loop_
_atom_site_type_symbol
_atom_site_label
_atom_site_fract_x
_atom_site_fract_y
_atom_site_fract_z
Si Si1 0.764213 0.788580 0.318854
Si Si2 0.501387 0.337661 0.618760
Si Si3 0.688965 0.284196 0.276082
Si Si4 0.318953 0.508357 0.236944
Si Si5 0.048499 0.921068 0.573511
Si Si6 0.749040 0.510150 0.780616
Si Si7 0.042346 0.096347 0.191105
O O1 0.721748 0.498376 0.236839
O O2 0.866592 0.738959 0.594360
O O3 0.735591 0.998336 0.374154
O O4 0.729074 0.918011 0.058418
O O5 0.524365 0.577595 0.559403
O O6 0.420554 0.445294 0.494591
O O7 0.585229 0.260379 0.958719
O O8 0.715900 0.407812 0.518896
O O9 0.297788 0.817599 0.221028
O O10 0.279290 0.317382 0.262278
O O11 0.041941 0.001056 0.371212
O O12 0.982006 0.113015 0.483589
O O13 0.147123 0.971801 0.908604
O O14 0.971361 0.328512 0.954058
#
# Coordination Sequence:
#
# PCOD9119527 Si02
#       7
#     2   2   2   2   2   2   2
#     4  12  25  46  72 101 139 186 230 287 343 415
#     4  12  23  43  72 108 137 180 238 287 343 403
#     4  12  26  45  72 106 141 182 234 286 344 415
#     4  12  24  46  73  98 143 186 225 286 347 419
#     4  12  28  48  70 100 143 185 229 293 355 416
#     4  12  28  46  68 105 142 186 227 283 361 415
#     4  12  28  46  71 106 137 181 241 292 343 413
#
# _framework density 22.058219999999999
#
# number of rings (size 3 to 8) (size 9 to 14) (size 15 to 20)
#    0.000    0.000    4.286    5.143    8.000    1.143 
#    0.000    0.000    0.000    0.000    0.000    0.000 
#    0.000    0.000    0.000    0.000    0.000    0.000 
#
# Total GULP energy -78478.147090 kJ/mol
# GULP energy per Si atom -5605.581935 kJ/mol
# Density = 2.200801 g / cm^3
# Si number density = 22.058220 Si / 1000 Ang^3
#
#
#
# Elastic Constant Matrix: (Units=GPa)
#
#
# Indices 1 2 3 4 5 6 
#
# 1 48.6710 -19.7327 31.3439 0.0000 -17.4692 0.0000
# 2 -19.7327 78.7063 -0.6694 0.0000 8.5164 0.0000
# 3 31.3439 -0.6694 118.5631 0.0000 15.1495 0.0000
# 4 0.0000 0.0000 0.0000 28.6118 0.0000 1.5370
# 5 -17.4692 8.5164 15.1495 0.0000 46.5149 0.0000
# 6 0.0000 0.0000 0.0000 1.5370 0.0000 64.5101
#
#
#
# Elastic Compliance Matrix: (Units=1/GPa)
#
#
# Indices 1 2 3 4 5 6 
#
# 1 0.037096 0.007421 -0.011865 0.000000 0.016437 0.000000
# 2 0.007421 0.014464 -0.001980 0.000000 0.000784 0.000000
# 3 -0.011865 -0.001980 0.012608 0.000000 -0.008200 0.000000
# 4 0.000000 0.000000 0.000000 0.034995 0.000000 -0.000834
# 5 0.016437 0.000784 -0.008200 0.000000 0.030199 0.000000
# 6 0.000000 0.000000 0.000000 -0.000834 0.000000 0.015521
#
#
# Mechanical properties :
#
#
# Convention : Reuss Voigt Hill
#
# Bulk Modulus (GPa) = 19.48619 29.75822 24.62220
# Shear Modulus (GPa) = 28.59780 43.59393 36.09586
#
# Velocity S-wave (km/s) = 3.60456 4.45040 4.04962
# Velocity P-wave (km/s) = 5.11634 6.31887 5.74913
#
# Compressibility (1/GPa) = 0.05131839
#
# Stress axis : x y z
#
# Youngs Moduli (GPa) = 26.95730 69.13561 79.31714
#
# Poissons Ratio (x) = -0.51305 0.94111
# Poissons Ratio (y) = -0.20005 0.15707
# Poissons Ratio (z) = 0.31985 0.13691
#
# Static dielectric constant tensor:
#      x y z
#    x 1.784940 0.000000 0.000340 
#    y 0.000000 1.762980 0.000000 
#    z 0.000340 0.000000 1.786630 
# 
# From -- ./inp_files/10185.got.cif
#   From: 2010.05.17/outbox.cif.g08.bks.cpg/sg4_6_cif.got.tgz:10185.got - 2010.06.03 18:43:04.
