data_PCOD9119536
_publ_section_title
;
Structure prediction by ZEFSAII (Michael W. Deem and Ramdas Pophale) SiO2 
 PCOD9119536
Probable space group: P 21
;
_chemical_formula_sum "Si O2"
_cell_formula_units_Z 12
_cell_length_a 22.302340
_cell_length_b 4.936415
_cell_length_c 16.501192
_cell_angle_alpha 90.000000
_cell_angle_beta 162.349398
_cell_angle_gamma 90.000000
_cell_volume 550.837160
_symmetry_space_group_name_H-M "P 21"
_symmetry_group_IT_number 4
_symmetry_cell_setting 'monoclinic'
loop_
_space_group_symop_operation_xyz
x,y,z
-x,1/2+y,-z
loop_
_atom_site_type_symbol
_atom_site_label
_atom_site_fract_x
_atom_site_fract_y
_atom_site_fract_z
Si Si1 0.004137 0.108030 0.562961
Si Si2 0.019037 0.576192 0.971072
Si Si3 0.630419 0.928393 0.186753
Si Si4 0.440400 0.817497 0.471872
Si Si5 0.357062 0.241252 0.615212
Si Si6 0.577014 0.757209 0.829363
O O1 0.946162 0.374392 0.437808
O O2 0.824654 0.009854 0.387597
O O3 0.198139 0.173512 0.865258
O O4 0.841296 0.626611 0.680434
O O5 0.225072 0.683978 0.202512
O O6 0.025867 0.267312 0.009005
O O7 0.676498 0.821054 0.335598
O O8 0.489357 0.189243 0.011430
O O9 0.564639 0.604944 0.578656
O O10 0.532044 0.843607 0.679446
O O11 0.436533 0.503860 0.669919
O O12 0.519960 0.006735 0.813922
#
# Coordination Sequence:
#
# PCOD9119536 Si02
#       6
#     2   2   2   2   2   2
#     4  12  26  47  72 101 139 180 223 282 346 408
#     4  12  23  46  70 101 135 185 228 271 338 404
#     4  12  26  46  71 104 136 177 230 284 336 404
#     4  12  26  44  69 101 144 176 226 284 336 404
#     4  12  24  45  73 100 137 181 231 279 332 409
#     4  12  25  46  71 101 137 185 224 278 348 399
#
# _framework density 21.785025000000001
#
# number of rings (size 3 to 8) (size 9 to 14) (size 15 to 20)
#    0.000    0.000    3.333    8.000    2.333    0.000 
#    3.000    0.000    0.000    0.000    0.000    0.000 
#    0.000    0.000    0.000    0.000    0.000    0.000 
#
# Total GULP energy -67298.044086 kJ/mol
# GULP energy per Si atom -5608.170340 kJ/mol
# Density = 2.173544 g / cm^3
# Si number density = 21.785025 Si / 1000 Ang^3
#
#
#
# Elastic Constant Matrix: (Units=GPa)
#
#
# Indices 1 2 3 4 5 6 
#
# 1 99.2818 14.1785 43.9472 0.0000 -1.6280 0.0000
# 2 14.1785 94.0678 -2.9707 0.0000 4.5415 0.0000
# 3 43.9472 -2.9707 111.0677 0.0000 9.1426 0.0000
# 4 0.0000 0.0000 0.0000 15.3034 0.0000 0.8508
# 5 -1.6280 4.5415 9.1426 0.0000 31.8875 0.0000
# 6 0.0000 0.0000 0.0000 0.8508 0.0000 40.2320
#
#
#
# Elastic Compliance Matrix: (Units=1/GPa)
#
#
# Indices 1 2 3 4 5 6 
#
# 1 0.012786 -0.002216 -0.005324 0.000000 0.002495 0.000000
# 2 -0.002216 0.011108 0.001345 0.000000 -0.002081 0.000000
# 3 -0.005324 0.001345 0.011455 0.000000 -0.003748 0.000000
# 4 0.000000 0.000000 0.000000 0.065422 0.000000 -0.001384
# 5 0.002495 -0.002081 -0.003748 0.000000 0.032858 0.000000
# 6 0.000000 0.000000 0.000000 -0.001384 0.000000 0.024885
#
#
# Mechanical properties :
#
#
# Convention : Reuss Voigt Hill
#
# Bulk Modulus (GPa) = 43.55552 46.08081 44.81817
# Shear Modulus (GPa) = 28.00240 34.10206 31.05223
#
# Velocity S-wave (km/s) = 3.58913 3.96079 3.77953
# Velocity P-wave (km/s) = 6.10021 6.48965 6.29794
#
# Compressibility (1/GPa) = 0.02295920
#
# Stress axis : x y z
#
# Youngs Moduli (GPa) = 78.20858 90.02886 87.30169
#
# Poissons Ratio (x) = 0.19949 0.46479
# Poissons Ratio (y) = 0.17330 -0.11743
# Poissons Ratio (z) = 0.41638 -0.12110
#
# Static dielectric constant tensor:
#      x y z
#    x 1.784350 0.000000 0.012020 
#    y 0.000000 1.774370 0.000000 
#    z 0.012020 0.000000 1.769410 
# 
# From -- ./inp_files/14368.got.cif
#   From: 2010.05.17/outbox.cif.g08.bks.cpg/sg4_8_cif.got.tgz:14368.got - 2010.06.03 18:43:04.
