data_PCOD9119175
_publ_section_title
;
Structure prediction by ZEFSAII (Michael W. Deem and Ramdas Pophale) SiO2 
 PCOD9119175
Probable space group: P 21
;
_chemical_formula_sum "Si O2"
_cell_formula_units_Z 14
_cell_length_a 10.858161
_cell_length_b 4.863298
_cell_length_c 9.613018
_cell_angle_alpha 90.000000
_cell_angle_beta 101.973375
_cell_angle_gamma 90.000000
_cell_volume 496.585639
_symmetry_space_group_name_H-M "P 21"
_symmetry_group_IT_number 4
_symmetry_cell_setting 'monoclinic'
loop_
_space_group_symop_operation_xyz
x,y,z
-x,1/2+y,-z
loop_
_atom_site_type_symbol
_atom_site_label
_atom_site_fract_x
_atom_site_fract_y
_atom_site_fract_z
Si Si1 0.484471 0.646370 0.181441
Si Si2 0.734971 0.523669 0.822848
Si Si3 0.559793 0.305157 0.441883
Si Si4 0.186641 0.128524 0.446114
Si Si5 0.306021 0.417621 0.923645
Si Si6 0.911025 0.898754 0.310008
Si Si7 0.968909 0.116281 0.903830
O O1 0.390411 0.850237 0.237204
O O2 0.512516 0.373628 0.274915
O O3 0.619037 0.768782 0.180114
O O4 0.407623 0.612131 0.019934
O O5 0.769313 0.713719 0.698456
O O6 0.838370 0.279867 0.857796
O O7 0.721014 0.696253 0.960775
O O8 0.534601 0.002597 0.491448
O O9 0.704330 0.408900 0.488071
O O10 0.166365 0.331845 0.569662
O O11 0.043669 0.024295 0.387275
O O12 0.182758 0.545494 0.822809
O O13 0.956269 0.641426 0.223763
O O14 0.033585 0.311254 0.036949
#
# Coordination Sequence:
#
# PCOD9119175 Si02
#       7
#     2   2   2   2   2   2   2
#     4  12  25  44  80 115 156 207 277 341 410 479
#     4  11  24  47  73 113 153 211 267 330 410 480
#     4  12  27  52  84 118 166 219 276 338 413 493
#     4  11  26  51  74 116 162 220 271 336 409 498
#     4  12  24  47  75 115 156 207 274 345 406 489
#     4  11  26  49  73 115 163 213 274 335 411 486
#     4  11  24  46  77 112 152 207 265 329 399 479
#
# _framework density 28.192520999999999
#
# number of rings (size 3 to 8) (size 9 to 14) (size 15 to 20)
#    0.000    0.571    5.714    1.714    0.000    3.429 
#    7.714    0.000    0.000    0.000    0.000    0.000 
#    0.000    0.000    0.000    0.000    0.000    0.000 
#
# Total GULP energy -78493.156302 kJ/mol
# GULP energy per Si atom -5606.654022 kJ/mol
# Density = 2.812835 g / cm^3
# Si number density = 28.192521 Si / 1000 Ang^3
#
#
#
# Elastic Constant Matrix: (Units=GPa)
#
#
# Indices 1 2 3 4 5 6 
#
# 1 160.8374 29.7690 60.0222 0.0000 15.0684 0.0000
# 2 29.7690 70.3976 21.8681 0.0000 -0.7504 0.0000
# 3 60.0222 21.8681 162.8736 0.0000 17.4981 0.0000
# 4 0.0000 0.0000 0.0000 40.3678 0.0000 2.0098
# 5 15.0684 -0.7504 17.4981 0.0000 82.0638 0.0000
# 6 0.0000 0.0000 0.0000 2.0098 0.0000 37.0782
#
#
#
# Elastic Compliance Matrix: (Units=1/GPa)
#
#
# Indices 1 2 3 4 5 6 
#
# 1 0.007658 -0.002507 -0.002387 0.000000 -0.000920 0.000000
# 2 -0.002507 0.015670 -0.001274 0.000000 0.000875 0.000000
# 3 -0.002387 -0.001274 0.007312 0.000000 -0.001133 0.000000
# 4 0.000000 0.000000 0.000000 0.024839 0.000000 -0.001346
# 5 -0.000920 0.000875 -0.001133 0.000000 0.012604 0.000000
# 6 0.000000 0.000000 0.000000 -0.001346 0.000000 0.027043
#
#
# Mechanical properties :
#
#
# Convention : Reuss Voigt Hill
#
# Bulk Modulus (GPa) = 54.62994 68.60304 61.61649
# Shear Modulus (GPa) = 44.02790 50.73193 47.37991
#
# Velocity S-wave (km/s) = 3.95611 4.24663 4.10394
# Velocity P-wave (km/s) = 6.34722 6.95929 6.66029
#
# Compressibility (1/GPa) = 0.01830498
#
# Stress axis : x y z
#
# Youngs Moduli (GPa) = 130.57577 63.81527 136.76019
#
# Poissons Ratio (x) = 0.15998 0.32642
# Poissons Ratio (y) = 0.32734 0.17425
# Poissons Ratio (z) = 0.31166 0.08131
#
# Static dielectric constant tensor:
#      x y z
#    x 2.204300 0.000000 0.009810 
#    y 0.000000 2.169410 0.000000 
#    z 0.009810 0.000000 2.222620 
# 
# From -- ./inp_files/7217.got.cif
#   From: 2010.05.17/outbox.cif.g08.bks.cpg/sg4_4_cif.got.tgz:7217.got - 2010.06.03 18:43:04.
