data_PCOD9119044
_publ_section_title
;
Structure prediction by ZEFSAII (Michael W. Deem and Ramdas Pophale) SiO2 
 PCOD9119044
Probable space group: P 21
;
_chemical_formula_sum "Si O2"
_cell_formula_units_Z 16
_cell_length_a 12.469426
_cell_length_b 4.934125
_cell_length_c 29.623393
_cell_angle_alpha 90.000000
_cell_angle_beta 20.069256
_cell_angle_gamma 90.000000
_cell_volume 625.435719
_symmetry_space_group_name_H-M "P 21"
_symmetry_group_IT_number 4
_symmetry_cell_setting 'monoclinic'
loop_
_space_group_symop_operation_xyz
x,y,z
-x,1/2+y,-z
loop_
_atom_site_type_symbol
_atom_site_label
_atom_site_fract_x
_atom_site_fract_y
_atom_site_fract_z
Si Si1 0.745730 0.458830 0.671650
Si Si2 0.821019 0.071025 0.970574
Si Si3 0.623831 0.928673 0.267871
Si Si4 0.150355 0.221114 0.116822
Si Si5 0.688123 0.646749 0.440099
Si Si6 0.827354 0.710782 0.050400
Si Si7 0.860888 0.453212 0.470066
Si Si8 0.286769 0.411830 0.155121
O O1 0.571109 0.560617 0.695581
O O2 0.498698 0.308461 0.801107
O O3 0.892241 0.718175 0.637451
O O4 0.991897 0.218854 0.564362
O O5 0.147016 0.222057 0.848286
O O6 0.825652 0.017350 0.914985
O O7 0.825734 0.801268 0.998826
O O8 0.503999 0.238403 0.103008
O O9 0.377309 0.813038 0.400866
O O10 0.847602 0.104209 0.211416
O O11 0.126761 0.226234 0.179718
O O12 0.461168 0.081007 0.974012
O O13 0.570558 0.952405 0.480773
O O14 0.714214 0.560418 0.481824
O O15 0.022393 0.585464 0.284399
O O16 0.087940 0.905045 0.970861
#
# Coordination Sequence:
#
# PCOD9119044 Si02
#       8
#     2   2   2   2   2   2   2   2
#     4  12  26  47  72 106 145 188 239 295 358 423
#     4  11  25  42  72 102 141 189 233 301 357 423
#     4  11  26  45  70 104 137 194 241 289 360 426
#     4  11  24  42  73 101 143 182 240 301 360 420
#     4  12  29  49  77 106 146 194 238 292 357 432
#     4  12  25  45  70 103 144 183 239 290 359 425
#     4  12  28  47  74 104 146 192 239 296 349 428
#     4  11  25  45  70 110 140 184 241 300 360 423
#
# _framework density 25.582166000000001
#
# number of rings (size 3 to 8) (size 9 to 14) (size 15 to 20)
#    0.000    0.500    2.500    4.500   10.500    0.000 
#    0.000    0.000    0.000    0.000    0.000    0.000 
#    0.000    0.000    0.000    0.000    0.000    0.000 
#
# Total GULP energy -89644.185656 kJ/mol
# GULP energy per Si atom -5602.761603 kJ/mol
# Density = 2.552394 g / cm^3
# Si number density = 25.582166 Si / 1000 Ang^3
#
#
#
# Elastic Constant Matrix: (Units=GPa)
#
#
# Indices 1 2 3 4 5 6 
#
# 1 117.4173 -3.0418 22.3740 0.0004 -2.2258 -0.0001
# 2 -3.0418 62.6497 8.2460 -0.0041 -8.3902 -0.0014
# 3 22.3740 8.2460 87.1424 0.0177 4.4775 -0.0170
# 4 0.0004 -0.0041 0.0177 27.5316 -0.0055 -3.4076
# 5 -2.2258 -8.3902 4.4775 -0.0055 37.2548 0.0050
# 6 -0.0001 -0.0014 -0.0170 -3.4076 0.0050 39.3236
#
#
#
# Elastic Compliance Matrix: (Units=1/GPa)
#
#
# Indices 1 2 3 4 5 6 
#
# 1 0.009028 0.000901 -0.002456 0.000002 0.001037 -0.000001
# 2 0.000901 0.016820 -0.002033 0.000005 0.004086 0.000000
# 3 -0.002456 -0.002033 0.012406 -0.000008 -0.002096 0.000005
# 4 0.000002 0.000005 -0.000008 0.036716 0.000007 0.003182
# 5 0.001037 0.004086 -0.002096 0.000007 0.028076 -0.000004
# 6 -0.000001 0.000000 0.000005 0.003182 -0.000004 0.025706
#
#
# Mechanical properties :
#
#
# Convention : Reuss Voigt Hill
#
# Bulk Modulus (GPa) = 32.17830 35.81844 33.99837
# Shear Modulus (GPa) = 34.17909 36.79740 35.48825
#
# Velocity S-wave (km/s) = 3.65917 3.79674 3.72859
# Velocity P-wave (km/s) = 5.51891 5.76646 5.64404
#
# Compressibility (1/GPa) = 0.03107684
#
# Stress axis : x y z
#
# Youngs Moduli (GPa) = 110.77020 59.45197 80.60491
#
# Poissons Ratio (x) = -0.05354 0.19800
# Poissons Ratio (y) = -0.09976 0.16386
# Poissons Ratio (z) = 0.27210 0.12086
#
# Static dielectric constant tensor:
#      x y z
#    x 2.037780 0.000020 -0.036440 
#    y 0.000020 2.031960 0.000010 
#    z -0.036440 0.000010 2.034300 
# 
# From -- ./inp_files/11577.got.cif
#   From: 2010.05.17/outbox.cif.g08.bks.cpg/sg4_6_cif.got.tgz:11577.got - 2010.06.03 18:43:04.
