data_PCOD9119073
_publ_section_title
;
Structure prediction by ZEFSAII (Michael W. Deem and Ramdas Pophale) SiO2 
 PCOD9119073
Probable space group: P 21
;
_chemical_formula_sum "Si O2"
_cell_formula_units_Z 14
_cell_length_a 12.564013
_cell_length_b 9.345845
_cell_length_c 13.601734
_cell_angle_alpha 90.000000
_cell_angle_beta 21.045468
_cell_angle_gamma 90.000000
_cell_volume 573.544539
_symmetry_space_group_name_H-M "P 21"
_symmetry_group_IT_number 4
_symmetry_cell_setting 'monoclinic'
loop_
_space_group_symop_operation_xyz
x,y,z
-x,1/2+y,-z
loop_
_atom_site_type_symbol
_atom_site_label
_atom_site_fract_x
_atom_site_fract_y
_atom_site_fract_z
Si Si1 0.425137 0.628500 0.441203
Si Si2 0.062298 0.788636 0.047285
Si Si3 0.365647 0.134566 0.446713
Si Si4 0.231197 0.910284 0.712837
Si Si5 0.316083 0.471430 0.197336
Si Si6 0.291135 0.137397 0.278515
Si Si7 0.769892 0.547479 0.973978
O O1 0.358617 0.762519 0.565268
O O2 0.566622 0.514754 0.394590
O O3 0.640163 0.659275 0.164334
O O4 0.114754 0.576896 0.662123
O O5 0.279604 0.652720 0.845058
O O6 0.995446 0.860495 0.999963
O O7 0.254525 0.899608 0.944869
O O8 0.791556 0.754112 0.351025
O O9 0.299596 0.152338 0.389114
O O10 0.212703 0.995332 0.625931
O O11 0.298287 0.298111 0.224603
O O12 0.568845 0.529882 0.053170
O O13 0.006046 0.547813 0.489699
O O14 0.433489 0.538368 0.993635
#
# Coordination Sequence:
#
# PCOD9119073 Si02
#       7
#     2   2   2   2   2   2   2
#     4  11  26  42  72 108 148 195 252 304 387 446
#     4  11  24  43  73 102 143 198 246 291 379 458
#     4  12  26  46  75 107 151 195 256 304 381 459
#     4  11  26  46  71 112 150 195 249 316 370 469
#     4  12  27  51  80 112 158 202 272 326 407 467
#     4  12  28  49  82 117 153 211 259 339 396 482
#     4  11  25  45  75 100 143 198 250 306 376 469
#
# _framework density 24.409613
#
# number of rings (size 3 to 8) (size 9 to 14) (size 15 to 20)
#    0.000    0.571    2.857    4.286    6.000    6.857 
#    0.000    0.000    0.000    0.000    0.000    0.000 
#    0.000    0.000    0.000    0.000    0.000    0.000 
#
# Total GULP energy -78257.815799 kJ/mol
# GULP energy per Si atom -5589.843986 kJ/mol
# Density = 2.435406 g / cm^3
# Si number density = 24.409613 Si / 1000 Ang^3
#
#
#
# Elastic Constant Matrix: (Units=GPa)
#
#
# Indices 1 2 3 4 5 6 
#
# 1 71.7633 34.8077 22.7011 0.0000 14.3591 0.0000
# 2 34.8077 116.5052 32.3281 0.0000 23.0852 0.0000
# 3 22.7011 32.3281 140.3501 0.0000 19.1797 0.0000
# 4 0.0000 0.0000 0.0000 34.7238 0.0000 4.7985
# 5 14.3591 23.0852 19.1797 0.0000 42.9818 0.0000
# 6 0.0000 0.0000 0.0000 4.7985 0.0000 28.5211
#
#
#
# Elastic Compliance Matrix: (Units=1/GPa)
#
#
# Indices 1 2 3 4 5 6 
#
# 1 0.016939 -0.004111 -0.001407 0.000000 -0.002823 0.000000
# 2 -0.004111 0.010955 -0.001323 0.000000 -0.003920 0.000000
# 3 -0.001407 -0.001323 0.007983 0.000000 -0.002382 0.000000
# 4 0.000000 0.000000 0.000000 0.029484 0.000000 -0.004961
# 5 -0.002823 -0.003920 -0.002382 0.000000 0.027377 0.000000
# 6 0.000000 0.000000 0.000000 -0.004961 0.000000 0.035896
#
#
# Mechanical properties :
#
#
# Convention : Reuss Voigt Hill
#
# Bulk Modulus (GPa) = 45.05465 56.47694 50.76580
# Shear Modulus (GPa) = 33.39697 37.16413 35.28055
#
# Velocity S-wave (km/s) = 3.70292 3.90618 3.80591
# Velocity P-wave (km/s) = 6.06465 6.59786 6.33686
#
# Compressibility (1/GPa) = 0.02219527
#
# Stress axis : x y z
#
# Youngs Moduli (GPa) = 59.03694 91.27954 125.26965
#
# Poissons Ratio (x) = 0.37524 0.17626
# Poissons Ratio (y) = 0.24269 0.16570
# Poissons Ratio (z) = 0.08307 0.12074
#
# Static dielectric constant tensor:
#      x y z
#    x 1.923450 0.000000 -0.004260 
#    y 0.000000 2.001390 0.000000 
#    z -0.004260 0.000000 1.985700 
# 
# From -- ./inp_files/14159.got.cif
#   From: 2010.05.17/outbox.cif.g08.bks.cpg/sg4_8_cif.got.tgz:14159.got - 2010.06.03 18:43:04.
