data_PCOD9119168
_publ_section_title
;
Structure prediction by ZEFSAII (Michael W. Deem and Ramdas Pophale) SiO2 
 PCOD9119168
Probable space group: P 21
;
_chemical_formula_sum "Si O2"
_cell_formula_units_Z 16
_cell_length_a 5.238944
_cell_length_b 11.424768
_cell_length_c 12.131148
_cell_angle_alpha 90.000000
_cell_angle_beta 57.929578
_cell_angle_gamma 90.000000
_cell_volume 615.289531
_symmetry_space_group_name_H-M "P 21"
_symmetry_group_IT_number 4
_symmetry_cell_setting 'monoclinic'
loop_
_space_group_symop_operation_xyz
x,y,z
-x,1/2+y,-z
loop_
_atom_site_type_symbol
_atom_site_label
_atom_site_fract_x
_atom_site_fract_y
_atom_site_fract_z
Si Si1 0.453171 0.696540 0.716815
Si Si2 0.296057 0.572188 0.951133
Si Si3 0.975456 0.859290 0.514796
Si Si4 0.765509 0.991347 0.369268
Si Si5 0.581975 0.760633 0.313461
Si Si6 0.350144 0.180494 0.943677
Si Si7 0.154031 0.031920 0.647645
Si Si8 0.027781 0.372479 0.107884
O O1 0.519297 0.606854 0.801163
O O2 0.714001 0.763066 0.591589
O O3 0.239007 0.618113 0.686685
O O4 0.274522 0.798815 0.818422
O O5 0.468913 0.584683 0.028017
O O6 0.990606 0.648817 0.013919
O O7 0.140479 0.446135 0.978816
O O8 0.274396 0.779823 0.452661
O O9 0.005037 0.931429 0.394673
O O10 0.937172 0.967802 0.608744
O O11 0.473557 0.997475 0.518038
O O12 0.722824 0.889601 0.288872
O O13 0.510690 0.717440 0.205557
O O14 0.793943 0.665526 0.326573
O O15 0.301139 0.280145 0.048620
O O16 0.051802 0.963774 0.779227
#
# Coordination Sequence:
#
# PCOD9119168 Si02
#       8
#     2   2   2   2   2   2   2   2
#     4  11  25  52  80 120 161 212 282 340 423 502
#     4  11  26  48  79 112 157 208 273 336 409 497
#     4  11  26  48  82 116 164 223 268 353 425 502
#     4  11  25  46  72 118 155 207 268 334 411 495
#     4  11  26  48  74 118 161 208 274 342 412 507
#     4  11  26  48  77 116 155 209 264 341 410 492
#     4  11  24  46  74 112 155 206 275 329 419 496
#     4  11  24  50  78 112 158 207 268 345 407 503
#
# _framework density 26.004020000000001
#
# number of rings (size 3 to 8) (size 9 to 14) (size 15 to 20)
#    0.000    1.000    2.500    2.250    3.500    8.000 
#   13.500    0.000    0.000    0.000    0.000    0.000 
#    0.000    0.000    0.000    0.000    0.000    0.000 
#
# Total GULP energy -89194.512871 kJ/mol
# GULP energy per Si atom -5574.657054 kJ/mol
# Density = 2.594483 g / cm^3
# Si number density = 26.004020 Si / 1000 Ang^3
#
#
#
# Elastic Constant Matrix: (Units=GPa)
#
#
# Indices 1 2 3 4 5 6 
#
# 1 75.2211 43.8391 35.7960 0.0000 13.0846 0.0000
# 2 43.8391 111.1466 38.7841 0.0000 5.2661 0.0000
# 3 35.7960 38.7841 102.9738 0.0000 18.5874 0.0000
# 4 0.0000 0.0000 0.0000 35.8851 0.0000 -20.9053
# 5 13.0846 5.2661 18.5874 0.0000 27.0340 0.0000
# 6 0.0000 0.0000 0.0000 -20.9053 0.0000 27.1283
#
#
#
# Elastic Compliance Matrix: (Units=1/GPa)
#
#
# Indices 1 2 3 4 5 6 
#
# 1 0.019585 -0.006265 -0.003377 0.000000 -0.005937 0.000000
# 2 -0.006265 0.012376 -0.002963 0.000000 0.002659 0.000000
# 3 -0.003377 -0.002963 0.013246 0.000000 -0.006896 0.000000
# 4 0.000000 0.000000 0.000000 0.050568 0.000000 0.038968
# 5 -0.005937 0.002659 -0.006896 0.000000 0.044087 0.000000
# 6 0.000000 0.000000 0.000000 0.038968 0.000000 0.066891
#
#
# Mechanical properties :
#
#
# Convention : Reuss Voigt Hill
#
# Bulk Modulus (GPa) = 50.00890 58.46443 54.23667
# Shear Modulus (GPa) = 20.95283 29.40428 25.17856
#
# Velocity S-wave (km/s) = 2.84166 3.36632 3.11506
# Velocity P-wave (km/s) = 5.48085 6.13524 5.81725
#
# Compressibility (1/GPa) = 0.01999644
#
# Stress axis : x y z
#
# Youngs Moduli (GPa) = 51.05865 80.79869 75.49474
#
# Poissons Ratio (x) = 0.50623 0.25493
# Poissons Ratio (y) = 0.31990 0.22373
# Poissons Ratio (z) = 0.17242 0.23945
#
# Static dielectric constant tensor:
#      x y z
#    x 2.142250 0.000000 0.029060 
#    y 0.000000 2.239690 0.000000 
#    z 0.029060 0.000000 2.099260 
# 
# From -- ./inp_files/10495.got.cif
#   From: 2010.05.17/outbox.cif.g08.bks.cpg/sg4_6_cif.got.tgz:10495.got - 2010.06.03 18:43:04.
