data_PCOD9119194
_publ_section_title
;
Structure prediction by ZEFSAII (Michael W. Deem and Ramdas Pophale) SiO2 
 PCOD9119194
Probable space group: P 21
;
_chemical_formula_sum "Si O2"
_cell_formula_units_Z 14
_cell_length_a 12.200695
_cell_length_b 5.530284
_cell_length_c 12.032835
_cell_angle_alpha 90.000000
_cell_angle_beta 46.525312
_cell_angle_gamma 90.000000
_cell_volume 589.174800
_symmetry_space_group_name_H-M "P 21"
_symmetry_group_IT_number 4
_symmetry_cell_setting 'monoclinic'
loop_
_space_group_symop_operation_xyz
x,y,z
-x,1/2+y,-z
loop_
_atom_site_type_symbol
_atom_site_label
_atom_site_fract_x
_atom_site_fract_y
_atom_site_fract_z
Si Si1 0.752798 0.779510 0.097169
Si Si2 0.957223 0.615400 0.772143
Si Si3 0.941501 0.966234 0.596103
Si Si4 0.528116 0.102047 0.144460
Si Si5 0.699949 0.307591 0.827219
Si Si6 0.553501 0.393274 0.348295
Si Si7 0.748990 0.037349 0.323192
O O1 0.614419 0.620940 0.238535
O O2 0.678536 0.939071 0.052013
O O3 0.804413 0.923199 0.169169
O O4 0.886342 0.640889 0.943785
O O5 0.978355 0.870683 0.694018
O O6 0.838019 0.452786 0.787824
O O7 0.124502 0.514891 0.672155
O O8 0.973201 0.713526 0.505614
O O9 0.769417 0.063074 0.725830
O O10 0.514650 0.208803 0.276623
O O11 0.380860 0.957042 0.212543
O O12 0.574552 0.276007 0.010864
O O13 0.693572 0.304621 0.326195
O O14 0.407265 0.424899 0.524974
#
# Coordination Sequence:
#
# PCOD9119194 Si02
#       7
#     2   2   2   2   2   2   2
#     4  11  24  47  73 109 149 205 263 326 401 477
#     4  12  27  48  77 118 161 209 272 337 411 479
#     4  12  28  53  75 113 167 210 265 334 410 485
#     4  11  26  44  79 105 154 203 266 326 394 489
#     4  12  26  48  75 118 159 213 269 336 403 487
#     4  11  24  50  71 111 151 205 264 328 404 477
#     4  11  27  46  76 110 153 205 263 335 401 482
#
# _framework density 23.762046999999999
#
# number of rings (size 3 to 8) (size 9 to 14) (size 15 to 20)
#    0.000    0.571    5.714    0.857    2.000    4.571 
#    0.000    0.000    0.000    0.000    0.000    0.000 
#    0.000    0.000    0.000    0.000    0.000    0.000 
#
# Total GULP energy -78210.702156 kJ/mol
# GULP energy per Si atom -5586.478725 kJ/mol
# Density = 2.370796 g / cm^3
# Si number density = 23.762047 Si / 1000 Ang^3
#
#
#
# Elastic Constant Matrix: (Units=GPa)
#
#
# Indices 1 2 3 4 5 6 
#
# 1 108.7562 31.4273 2.1374 0.0000 -5.3014 0.0000
# 2 31.4273 73.6216 22.6035 0.0000 0.5740 0.0000
# 3 2.1374 22.6035 112.9409 0.0000 3.7775 0.0000
# 4 0.0000 0.0000 0.0000 26.5487 0.0000 -4.8588
# 5 -5.3014 0.5740 3.7775 0.0000 14.5680 0.0000
# 6 0.0000 0.0000 0.0000 -4.8588 0.0000 9.7093
#
#
#
# Elastic Compliance Matrix: (Units=1/GPa)
#
#
# Indices 1 2 3 4 5 6 
#
# 1 0.010768 -0.004820 0.000629 0.000000 0.003945 0.000000
# 2 -0.004820 0.016631 -0.003184 0.000000 -0.001584 0.000000
# 3 0.000629 -0.003184 0.009551 0.000000 -0.002122 0.000000
# 4 0.000000 0.000000 0.000000 0.041464 0.000000 0.020750
# 5 0.003945 -0.001584 -0.002122 0.000000 0.070692 0.000000
# 6 0.000000 0.000000 0.000000 0.020750 0.000000 0.113378
#
#
# Mechanical properties :
#
#
# Convention : Reuss Voigt Hill
#
# Bulk Modulus (GPa) = 45.04951 45.29501 45.17226
# Shear Modulus (GPa) = 17.56647 26.10858 21.83752
#
# Velocity S-wave (km/s) = 2.72189 3.31834 3.03480
# Velocity P-wave (km/s) = 5.37383 5.81250 5.59746
#
# Compressibility (1/GPa) = 0.02219780
#
# Stress axis : x y z
#
# Youngs Moduli (GPa) = 92.86970 60.12996 104.70621
#
# Poissons Ratio (x) = 0.28985 -0.06586
# Poissons Ratio (y) = 0.44767 0.33340
# Poissons Ratio (z) = -0.05841 0.19147
#
# Static dielectric constant tensor:
#      x y z
#    x 1.846170 0.000000 0.012650 
#    y 0.000000 2.023950 0.000000 
#    z 0.012650 0.000000 1.900590 
# 
# From -- ./inp_files/7075.got.cif
#   From: 2010.05.17/outbox.cif.g08.bks.cpg/sg4_4_cif.got.tgz:7075.got - 2010.06.03 18:43:04.
