data_PCOD9119130
_publ_section_title
;
Structure prediction by ZEFSAII (Michael W. Deem and Ramdas Pophale) SiO2 
 PCOD9119130
Probable space group: P 21
;
_chemical_formula_sum "Si O2"
_cell_formula_units_Z 16
_cell_length_a 8.796918
_cell_length_b 12.264178
_cell_length_c 9.263744
_cell_angle_alpha 90.000000
_cell_angle_beta 134.719847
_cell_angle_gamma 90.000000
_cell_volume 710.155916
_symmetry_space_group_name_H-M "P 21"
_symmetry_group_IT_number 4
_symmetry_cell_setting 'monoclinic'
loop_
_space_group_symop_operation_xyz
x,y,z
-x,1/2+y,-z
loop_
_atom_site_type_symbol
_atom_site_label
_atom_site_fract_x
_atom_site_fract_y
_atom_site_fract_z
Si Si1 0.776221 0.254250 0.185146
Si Si2 0.291584 0.002004 0.291751
Si Si3 0.263372 0.505678 0.842976
Si Si4 0.602391 0.188068 0.531688
Si Si5 0.503430 0.370947 0.800041
Si Si6 0.168877 0.870817 0.480206
Si Si7 0.203795 0.338601 0.343669
Si Si8 0.181990 0.539377 0.107408
O O1 0.796793 0.128445 0.243378
O O2 0.771180 0.338969 0.315872
O O3 0.977937 0.282877 0.219707
O O4 0.569427 0.271257 0.945667
O O5 0.319616 0.901686 0.200825
O O6 0.292012 0.958314 0.457455
O O7 0.491917 0.079779 0.393146
O O8 0.064324 0.055824 0.105502
O O9 0.466158 0.468131 0.887683
O O10 0.070279 0.419594 0.687558
O O11 0.299377 0.505944 0.038688
O O12 0.780007 0.256023 0.565171
O O13 0.392816 0.262854 0.409250
O O14 0.709817 0.144128 0.749271
O O15 0.291800 0.361273 0.563233
O O16 0.184019 0.443061 0.227458
#
# Coordination Sequence:
#
# PCOD9119130 Si02
#       8
#     2   2   2   2   2   2   2   2
#     4  12  27  48  72 103 149 192 236 309 361 420
#     4  11  24  45  71 108 143 187 247 294 363 440
#     4  11  27  47  71 109 145 190 249 292 369 433
#     4  12  24  43  76 104 140 195 238 291 371 426
#     4  12  24  47  69 105 144 186 242 300 353 437
#     4  11  25  47  74 102 151 184 244 301 358 433
#     4  12  24  45  73 100 146 189 235 299 362 427
#     4  11  25  46  72 105 148 189 239 306 351 442
#
# _framework density 22.530263999999999
#
# number of rings (size 3 to 8) (size 9 to 14) (size 15 to 20)
#    0.000    0.500    5.000    3.000    3.500    2.000 
#    4.500    0.000    0.000    0.000    0.000    0.000 
#    0.000    0.000    0.000    0.000    0.000    0.000 
#
# Total GULP energy -89318.701140 kJ/mol
# GULP energy per Si atom -5582.418821 kJ/mol
# Density = 2.247898 g / cm^3
# Si number density = 22.530264 Si / 1000 Ang^3
#
#
#
# Elastic Constant Matrix: (Units=GPa)
#
#
# Indices 1 2 3 4 5 6 
#
# 1 73.4701 27.1810 21.3984 0.0000 -14.1861 0.0000
# 2 27.1810 100.6675 51.0685 0.0000 -3.8743 0.0000
# 3 21.3984 51.0685 123.5983 0.0000 -11.8313 0.0000
# 4 0.0000 0.0000 0.0000 36.8244 0.0000 -2.8250
# 5 -14.1861 -3.8743 -11.8313 0.0000 25.7918 0.0000
# 6 0.0000 0.0000 0.0000 -2.8250 0.0000 45.0248
#
#
#
# Elastic Compliance Matrix: (Units=1/GPa)
#
#
# Indices 1 2 3 4 5 6 
#
# 1 0.016855 -0.003993 -0.000458 0.000000 0.008461 0.000000
# 2 -0.003993 0.013520 -0.005136 0.000000 -0.002521 0.000000
# 3 -0.000458 -0.005136 0.010663 0.000000 0.003867 0.000000
# 4 0.000000 0.000000 0.000000 0.027287 0.000000 0.001712
# 5 0.008461 -0.002521 0.003867 0.000000 0.044821 0.000000
# 6 0.000000 0.000000 0.000000 0.001712 0.000000 0.022317
#
#
# Mechanical properties :
#
#
# Convention : Reuss Voigt Hill
#
# Bulk Modulus (GPa) = 45.73976 55.22573 50.48274
# Shear Modulus (GPa) = 30.87801 34.73405 32.80603
#
# Velocity S-wave (km/s) = 3.70606 3.93066 3.82001
# Velocity P-wave (km/s) = 6.21761 6.72050 6.47394
#
# Compressibility (1/GPa) = 0.02186282
#
# Stress axis : x y z
#
# Youngs Moduli (GPa) = 59.32821 73.96181 93.78561
#
# Poissons Ratio (x) = 0.29532 0.04300
# Poissons Ratio (y) = 0.23689 0.48173
# Poissons Ratio (z) = 0.02720 0.37990
#
# Static dielectric constant tensor:
#      x y z
#    x 1.835690 0.000000 0.002770 
#    y 0.000000 1.886400 0.000000 
#    z 0.002770 0.000000 1.867360 
# 
# From -- ./inp_files/6476.got.cif
#   From: 2010.05.17/outbox.cif.g08.bks.cpg/sg4_4_cif.got.tgz:6476.got - 2010.06.03 18:43:04.
