data_PCOD9119720
_publ_section_title
;
Structure prediction by ZEFSAII (Michael W. Deem and Ramdas Pophale) SiO2 
 PCOD9119720
Probable space group: P 21
;
_chemical_formula_sum "Si O2"
_cell_formula_units_Z 16
_cell_length_a 11.824443
_cell_length_b 9.170642
_cell_length_c 9.832405
_cell_angle_alpha 90.000000
_cell_angle_beta 36.692497
_cell_angle_gamma 90.000000
_cell_volume 637.078201
_symmetry_space_group_name_H-M "P 21"
_symmetry_group_IT_number 4
_symmetry_cell_setting 'monoclinic'
loop_
_space_group_symop_operation_xyz
x,y,z
-x,1/2+y,-z
loop_
_atom_site_type_symbol
_atom_site_label
_atom_site_fract_x
_atom_site_fract_y
_atom_site_fract_z
Si Si1 0.575618 0.337260 0.448916
Si Si2 0.736970 0.127280 0.523887
Si Si3 0.105171 0.041539 0.800683
Si Si4 0.323673 0.782602 0.960328
Si Si5 0.822910 0.875772 0.259539
Si Si6 0.423982 0.234826 0.033590
Si Si7 0.852035 0.967755 0.804265
Si Si8 0.912345 0.533405 0.682150
O O1 0.667687 0.222398 0.463289
O O2 0.681901 0.489035 0.377070
O O3 0.351305 0.355243 0.676733
O O4 0.617469 0.290828 0.253306
O O5 0.951848 0.145547 0.368883
O O6 0.739224 0.960688 0.469420
O O7 0.592681 0.163210 0.783668
O O8 0.098348 0.214861 0.790262
O O9 0.015572 0.958091 0.759221
O O10 0.977898 0.983273 0.046910
O O11 0.235135 0.626249 0.080522
O O12 0.176003 0.911381 0.135740
O O13 0.490099 0.797480 0.911203
O O14 0.319879 0.354983 0.041128
O O15 0.262123 0.116285 0.218620
O O16 0.955071 0.964038 0.559564
#
# Coordination Sequence:
#
# PCOD9119720 Si02
#       8
#     2   2   2   2   2   2   2   2
#     4  12  28  48  81 114 158 204 261 325 398 465
#     4  12  26  51  79 112 156 210 260 332 391 463
#     4  12  27  49  76 118 156 203 264 325 384 479
#     4  12  27  50  76 118 156 209 262 325 393 472
#     4  12  27  49  79 113 162 205 257 326 397 461
#     4  12  28  50  78 113 160 202 270 326 388 472
#     4  12  26  47  80 113 154 208 262 321 397 465
#     4  12  27  50  79 111 156 209 264 326 396 461
#
# _framework density 25.114657000000001
#
# number of rings (size 3 to 8) (size 9 to 14) (size 15 to 20)
#    0.000    0.000    1.250    8.250    5.250    3.000 
#    0.000    0.000    0.000    0.000    0.000    0.000 
#    0.000    0.000    0.000    0.000    0.000    0.000 
#
# Total GULP energy -89795.236358 kJ/mol
# GULP energy per Si atom -5612.202272 kJ/mol
# Density = 2.505749 g / cm^3
# Si number density = 25.114657 Si / 1000 Ang^3
#
#
#
# Elastic Constant Matrix: (Units=GPa)
#
#
# Indices 1 2 3 4 5 6 
#
# 1 142.5589 18.8735 37.5720 0.0000 -0.8061 0.0000
# 2 18.8735 119.6255 41.5944 0.0000 -8.1826 0.0000
# 3 37.5720 41.5944 69.3021 0.0000 3.6675 0.0000
# 4 0.0000 0.0000 0.0000 36.4025 0.0000 -7.4107
# 5 -0.8061 -8.1826 3.6675 0.0000 51.9667 0.0000
# 6 0.0000 0.0000 0.0000 -7.4107 0.0000 50.2755
#
#
#
# Elastic Compliance Matrix: (Units=1/GPa)
#
#
# Indices 1 2 3 4 5 6 
#
# 1 0.008207 0.000376 -0.004702 0.000000 0.000518 0.000000
# 2 0.000376 0.010819 -0.006813 0.000000 0.002190 0.000000
# 3 -0.004702 -0.006813 0.021208 0.000000 -0.002642 0.000000
# 4 0.000000 0.000000 0.000000 0.028320 0.000000 0.004174
# 5 0.000518 0.002190 -0.002642 0.000000 0.019782 0.000000
# 6 0.000000 0.000000 0.000000 0.004174 0.000000 0.020506
#
#
# Mechanical properties :
#
#
# Convention : Reuss Voigt Hill
#
# Bulk Modulus (GPa) = 55.69624 58.61849 57.15736
# Shear Modulus (GPa) = 36.46794 43.29203 39.87998
#
# Velocity S-wave (km/s) = 3.81472 4.15634 3.98919
# Velocity P-wave (km/s) = 6.45196 6.81356 6.63522
#
# Compressibility (1/GPa) = 0.01795453
#
# Stress axis : x y z
#
# Youngs Moduli (GPa) = 121.84447 92.43126 47.15239
#
# Poissons Ratio (x) = -0.03472 0.22173
# Poissons Ratio (y) = -0.04577 0.32124
# Poissons Ratio (z) = 0.57296 0.62973
#
# Static dielectric constant tensor:
#      x y z
#    x 2.023160 0.000000 -0.025060 
#    y 0.000000 1.969710 0.000000 
#    z -0.025060 0.000000 1.944500 
# 
# From -- ./inp_files/7954.got.cif
#   From: 2010.05.17/outbox.cif.g08.bks.cpg/sg4_4_cif.got.tgz:7954.got - 2010.06.03 18:43:04.
