data_PCOD9119054
_publ_section_title
;
Structure prediction by ZEFSAII (Michael W. Deem and Ramdas Pophale) SiO2 
 PCOD9119054
Probable space group: P 21
;
_chemical_formula_sum "Si O2"
_cell_formula_units_Z 16
_cell_length_a 28.898213
_cell_length_b 5.897386
_cell_length_c 23.493018
_cell_angle_alpha 90.000000
_cell_angle_beta 11.529634
_cell_angle_gamma 90.000000
_cell_volume 800.252898
_symmetry_space_group_name_H-M "P 21"
_symmetry_group_IT_number 4
_symmetry_cell_setting 'monoclinic'
loop_
_space_group_symop_operation_xyz
x,y,z
-x,1/2+y,-z
loop_
_atom_site_type_symbol
_atom_site_label
_atom_site_fract_x
_atom_site_fract_y
_atom_site_fract_z
Si Si1 0.790294 0.426500 0.611446
Si Si2 0.278490 0.773595 0.708068
Si Si3 0.670883 0.720369 0.858770
Si Si4 0.374588 0.000914 0.862492
Si Si5 0.805315 0.929076 0.088617
Si Si6 0.813040 0.018477 0.951093
Si Si7 0.123284 0.611400 0.771052
Si Si8 0.917545 0.556491 0.673363
O O1 0.655191 0.576988 0.819878
O O2 0.963820 0.541286 0.358226
O O3 0.952547 0.271896 0.455896
O O4 0.588114 0.307328 0.819554
O O5 0.225929 0.585126 0.818480
O O6 0.219756 0.713263 0.713938
O O7 0.549781 0.825025 0.386891
O O8 0.100281 0.969587 0.939870
O O9 0.762755 0.600588 0.804598
O O10 0.873431 0.896986 0.598791
O O11 0.652194 0.001116 0.527876
O O12 0.292681 0.258454 0.936824
O O13 0.247529 0.975929 0.076399
O O14 0.321154 0.758515 0.896191
O O15 0.867200 0.025711 0.952585
O O16 0.015211 0.772173 0.854163
#
# Coordination Sequence:
#
# PCOD9119054 Si02
#       8
#     2   2   2   2   2   2   2   2
#     4  11  24  43  68 101 144 182 239 294 358 420
#     4  12  26  46  70 100 146 182 248 294 356 426
#     4  12  22  42  70 104 132 192 234 296 348 432
#     4  11  27  48  73 103 150 191 236 302 363 425
#     4  12  27  45  71 105 140 194 238 298 362 435
#     4  11  27  48  73 103 150 191 236 302 363 425
#     4  12  27  45  71 105 140 194 238 298 362 435
#     4  11  24  43  68 101 144 182 239 294 358 420
#
# _framework density 19.993680999999999
#
# number of rings (size 3 to 8) (size 9 to 14) (size 15 to 20)
#    0.000    0.500    7.500    0.000    8.750    0.000 
#    0.000    2.500    0.000    0.000    0.000    0.000 
#    0.000    0.000    0.000    0.000    0.000    0.000 
#
# Total GULP energy -89105.101560 kJ/mol
# GULP energy per Si atom -5569.068848 kJ/mol
# Density = 1.994817 g / cm^3
# Si number density = 19.993681 Si / 1000 Ang^3
#
#
#
# Elastic Constant Matrix: (Units=GPa)
#
#
# Indices 1 2 3 4 5 6 
#
# 1 144.7476 31.6161 1.7338 0.0000 6.5162 0.0000
# 2 31.6161 63.2268 26.8177 0.0000 -8.5163 0.0000
# 3 1.7338 26.8177 151.9294 0.0000 -24.0449 0.0000
# 4 0.0000 0.0000 0.0000 198.9225 0.0000 54.0015
# 5 6.5162 -8.5163 -24.0449 0.0000 38.2052 0.0000
# 6 0.0000 0.0000 0.0000 54.0015 0.0000 54.6731
#
#
#
# Elastic Compliance Matrix: (Units=1/GPa)
#
#
# Indices 1 2 3 4 5 6 
#
# 1 0.007965 -0.004418 0.000353 0.000000 -0.002121 0.000000
# 2 -0.004418 0.019703 -0.002902 0.000000 0.003319 0.000000
# 3 0.000353 -0.002902 0.007750 0.000000 0.004171 0.000000
# 4 0.000000 0.000000 0.000000 0.006869 0.000000 -0.006784
# 5 -0.002121 0.003319 0.004171 0.000000 0.029901 0.000000
# 6 0.000000 0.000000 0.000000 -0.006784 0.000000 0.024992
#
#
# Mechanical properties :
#
#
# Convention : Reuss Voigt Hill
#
# Bulk Modulus (GPa) = 46.54581 53.35988 49.95284
# Shear Modulus (GPa) = 42.27403 78.34258 60.30831
#
# Velocity S-wave (km/s) = 4.60322 6.26648 5.49811
# Velocity P-wave (km/s) = 7.18217 8.89408 8.08357
#
# Compressibility (1/GPa) = 0.02148421
#
# Stress axis : x y z
#
# Youngs Moduli (GPa) = 125.55105 50.75244 129.02717
#
# Poissons Ratio (x) = 0.22424 -0.04559
# Poissons Ratio (y) = 0.55473 0.37447
# Poissons Ratio (z) = -0.04436 0.14730
#
# Static dielectric constant tensor:
#      x y z
#    x 1.645580 0.000000 0.030430 
#    y 0.000000 1.840000 0.000000 
#    z 0.030430 0.000000 1.627770 
# 
# From -- ./inp_files/4256.got.cif
#   From: 2010.05.17/outbox.cif.g08.bks.cpg/sg4_3_cif.got.tgz:4256.got - 2010.06.03 18:43:04.
