data_PCOD9119791
_publ_section_title
;
Structure prediction by ZEFSAII (Michael W. Deem and Ramdas Pophale) SiO2 
 PCOD9119791
Probable space group: P 21
;
_chemical_formula_sum "Si O2"
_cell_formula_units_Z 10
_cell_length_a 16.011091
_cell_length_b 4.988608
_cell_length_c 18.507320
_cell_angle_alpha 90.000000
_cell_angle_beta 15.187014
_cell_angle_gamma 90.000000
_cell_volume 387.254211
_symmetry_space_group_name_H-M "P 21"
_symmetry_group_IT_number 4
_symmetry_cell_setting 'monoclinic'
loop_
_space_group_symop_operation_xyz
x,y,z
-x,1/2+y,-z
loop_
_atom_site_type_symbol
_atom_site_label
_atom_site_fract_x
_atom_site_fract_y
_atom_site_fract_z
Si Si1 0.691842 0.370440 0.316827
Si Si2 0.923490 0.392524 0.363509
Si Si3 0.569245 0.248051 0.988960
Si Si4 0.477374 0.030840 0.832007
Si Si5 0.685935 0.171368 0.167003
O O1 0.416239 0.579260 0.567395
O O2 0.644041 0.510529 0.547362
O O3 0.727433 0.364687 0.200663
O O4 0.098606 0.636717 0.257373
O O5 0.018845 0.470589 0.078269
O O6 0.742841 0.212397 0.573106
O O7 0.190911 0.219713 0.099879
O O8 0.410353 0.990283 0.084646
O O9 0.399045 0.368160 0.201673
O O10 0.344115 0.829448 0.882673
#
# Coordination Sequence:
#
# PCOD9119791 Si02
#       5
#     2   2   2   2   2
#     4  12  32  54  84 124 174 228 298 364 430 520
#     4  12  30  57  90 129 176 232 292 359 437 526
#     4  12  28  62  90 134 178 230 290 366 436 526
#     4  12  30  57  90 129 176 232 292 359 437 526
#     4  12  32  52  84 128 174 236 292 362 438 512
#
# _framework density 25.822828999999999
#
# number of rings (size 3 to 8) (size 9 to 14) (size 15 to 20)
#    0.000    0.000    2.000    3.600   16.800    0.000 
#   10.800    0.000    0.000    0.000    0.000    0.000 
#    0.000    0.000    0.000    0.000    0.000    0.000 
#
# Total GULP energy -56239.526558 kJ/mol
# GULP energy per Si atom -5623.952656 kJ/mol
# Density = 2.576406 g / cm^3
# Si number density = 25.822829 Si / 1000 Ang^3
#
#
#
# Elastic Constant Matrix: (Units=GPa)
#
#
# Indices 1 2 3 4 5 6 
#
# 1 94.6333 37.3127 24.6090 0.0000 11.9644 0.0000
# 2 37.3127 127.5479 41.0538 0.0000 15.3424 0.0000
# 3 24.6090 41.0538 134.8127 0.0000 7.2534 0.0000
# 4 0.0000 0.0000 0.0000 64.6954 0.0000 1.8681
# 5 11.9644 15.3424 7.2534 0.0000 43.4890 0.0000
# 6 0.0000 0.0000 0.0000 1.8681 0.0000 64.2886
#
#
#
# Elastic Compliance Matrix: (Units=1/GPa)
#
#
# Indices 1 2 3 4 5 6 
#
# 1 0.012322 -0.002949 -0.001236 0.000000 -0.002143 0.000000
# 2 -0.002949 0.009711 -0.002299 0.000000 -0.002231 0.000000
# 3 -0.001236 -0.002299 0.008356 0.000000 -0.000243 0.000000
# 4 0.000000 0.000000 0.000000 0.015470 0.000000 -0.000450
# 5 -0.002143 -0.002231 -0.000243 0.000000 0.024412 0.000000
# 6 0.000000 0.000000 0.000000 -0.000450 0.000000 0.015568
#
#
# Mechanical properties :
#
#
# Convention : Reuss Voigt Hill
#
# Bulk Modulus (GPa) = 57.39848 62.54944 59.97396
# Shear Modulus (GPa) = 47.79432 51.42915 49.61174
#
# Velocity S-wave (km/s) = 4.30682 4.46759 4.38795
# Velocity P-wave (km/s) = 6.85622 7.13356 6.99626
#
# Compressibility (1/GPa) = 0.01742206
#
# Stress axis : x y z
#
# Youngs Moduli (GPa) = 81.15371 102.97315 119.66796
#
# Poissons Ratio (x) = 0.30368 0.14790
# Poissons Ratio (y) = 0.23933 0.27511
# Poissons Ratio (z) = 0.10030 0.23673
#
# Static dielectric constant tensor:
#      x y z
#    x 2.004910 0.000000 0.002190 
#    y 0.000000 2.003920 0.000000 
#    z 0.002190 0.000000 2.001330 
# 
# From -- ./inp_files/14014.got.cif
#   From: 2010.05.17/outbox.cif.g08.bks.cpg/sg4_8_cif.got.tgz:14014.got - 2010.06.03 18:43:04.
