data_PCOD9119446
_publ_section_title
;
Structure prediction by ZEFSAII (Michael W. Deem and Ramdas Pophale) SiO2 
 PCOD9119446
Probable space group: P 21
;
_chemical_formula_sum "Si O2"
_cell_formula_units_Z 16
_cell_length_a 12.969274
_cell_length_b 4.958364
_cell_length_c 12.211580
_cell_angle_alpha 90.000000
_cell_angle_beta 131.203417
_cell_angle_gamma 90.000000
_cell_volume 590.827426
_symmetry_space_group_name_H-M "P 21"
_symmetry_group_IT_number 4
_symmetry_cell_setting 'monoclinic'
loop_
_space_group_symop_operation_xyz
x,y,z
-x,1/2+y,-z
loop_
_atom_site_type_symbol
_atom_site_label
_atom_site_fract_x
_atom_site_fract_y
_atom_site_fract_z
Si Si1 0.982035 0.789790 0.555249
Si Si2 0.934504 0.353669 0.000249
Si Si3 0.222588 0.617854 0.461894
Si Si4 0.362542 0.711125 0.168442
Si Si5 0.955063 0.950309 0.214567
Si Si6 0.418762 0.558071 0.775737
Si Si7 0.582900 0.893253 0.586268
Si Si8 0.675474 0.865417 0.060963
O O1 0.081337 0.636194 0.706244
O O2 0.958644 0.569273 0.446015
O O3 0.846559 0.864771 0.525697
O O4 0.770511 0.365320 0.878432
O O5 0.030368 0.667569 0.871260
O O6 0.001730 0.648847 0.046707
O O7 0.097756 0.807513 0.340042
O O8 0.319780 0.731449 0.627277
O O9 0.300518 0.512113 0.410418
O O10 0.380186 0.457339 0.262196
O O11 0.504588 0.867110 0.258328
O O12 0.332155 0.630231 0.021928
O O13 0.822782 0.753842 0.122094
O O14 0.342071 0.408362 0.821871
O O15 0.541993 0.708826 0.924124
O O16 0.452807 0.085959 0.466030
#
# Coordination Sequence:
#
# PCOD9119446 Si02
#       8
#     2   2   2   2   2   2   2   2
#     4  12  27  51  77 122 162 204 261 343 414 478
#     4  11  28  49  80 119 160 213 270 337 399 480
#     4  12  28  50  85 123 163 216 274 344 413 482
#     4  11  26  48  77 112 157 216 265 327 402 485
#     4  11  28  50  82 121 162 212 273 339 407 486
#     4  12  25  51  77 117 158 212 268 330 404 493
#     4  12  28  49  78 117 164 213 273 337 403 487
#     4  11  26  50  78 113 158 214 264 331 402 491
#
# _framework density 27.080669
#
# number of rings (size 3 to 8) (size 9 to 14) (size 15 to 20)
#    0.000    0.500    3.750    2.250    8.750    2.000 
#    4.500    0.000    0.000    0.000    0.000    0.000 
#    0.000    0.000    0.000    0.000    0.000    0.000 
#
# Total GULP energy -89660.808207 kJ/mol
# GULP energy per Si atom -5603.800513 kJ/mol
# Density = 2.701903 g / cm^3
# Si number density = 27.080669 Si / 1000 Ang^3
#
#
#
# Elastic Constant Matrix: (Units=GPa)
#
#
# Indices 1 2 3 4 5 6 
#
# 1 162.5132 28.9766 34.7320 0.0000 5.4049 0.0000
# 2 28.9766 100.6847 12.0800 0.0000 7.7377 0.0000
# 3 34.7320 12.0800 131.9442 0.0000 0.4908 0.0000
# 4 0.0000 0.0000 0.0000 48.3628 0.0000 1.5407
# 5 5.4049 7.7377 0.4908 0.0000 42.4557 0.0000
# 6 0.0000 0.0000 0.0000 1.5407 0.0000 36.4095
#
#
#
# Elastic Compliance Matrix: (Units=1/GPa)
#
#
# Indices 1 2 3 4 5 6 
#
# 1 0.006829 -0.001728 -0.001637 0.000000 -0.000536 0.000000
# 2 -0.001728 0.010622 -0.000511 0.000000 -0.001710 0.000000
# 3 -0.001637 -0.000511 0.008056 0.000000 0.000209 0.000000
# 4 0.000000 0.000000 0.000000 0.020705 0.000000 -0.000876
# 5 -0.000536 -0.001710 0.000209 0.000000 0.023931 0.000000
# 6 0.000000 0.000000 0.000000 -0.000876 0.000000 0.027502
#
#
# Mechanical properties :
#
#
# Convention : Reuss Voigt Hill
#
# Bulk Modulus (GPa) = 56.32513 60.74658 58.53585
# Shear Modulus (GPa) = 44.91667 46.73583 45.82625
#
# Velocity S-wave (km/s) = 4.07704 4.15878 4.11811
# Velocity P-wave (km/s) = 6.55799 6.74841 6.65388
#
# Compressibility (1/GPa) = 0.01775406
#
# Stress axis : x y z
#
# Youngs Moduli (GPa) = 146.43029 94.14412 124.13047
#
# Poissons Ratio (x) = 0.16266 0.20326
# Poissons Ratio (y) = 0.25300 0.06347
# Poissons Ratio (z) = 0.23978 0.04814
#
# Static dielectric constant tensor:
#      x y z
#    x 2.169130 0.000000 0.012330 
#    y 0.000000 2.100120 0.000000 
#    z 0.012330 0.000000 2.232870 
# 
# From -- ./inp_files/11660.got.cif
#   From: 2010.05.17/outbox.cif.g08.bks.cpg/sg4_6_cif.got.tgz:11660.got - 2010.06.03 18:43:04.
