data_PCOD9119025
_publ_section_title
;
Structure prediction by ZEFSAII (Michael W. Deem and Ramdas Pophale) SiO2 
 PCOD9119025
Probable space group: P 21
;
_chemical_formula_sum "Si O2"
_cell_formula_units_Z 16
_cell_length_a 21.070255
_cell_length_b 5.244507
_cell_length_c 8.140917
_cell_angle_alpha 90.000000
_cell_angle_beta 56.706972
_cell_angle_gamma 90.000000
_cell_volume 751.949525
_symmetry_space_group_name_H-M "P 21"
_symmetry_group_IT_number 4
_symmetry_cell_setting 'monoclinic'
loop_
_space_group_symop_operation_xyz
x,y,z
-x,1/2+y,-z
loop_
_atom_site_type_symbol
_atom_site_label
_atom_site_fract_x
_atom_site_fract_y
_atom_site_fract_z
Si Si1 0.852632 0.245100 0.536082
Si Si2 0.455565 0.829220 0.011653
Si Si3 0.326676 0.366342 0.975687
Si Si4 0.449945 0.998061 0.682803
Si Si5 0.689999 0.154486 0.656890
Si Si6 0.009236 0.128416 0.376964
Si Si7 0.835268 0.739225 0.773623
Si Si8 0.376009 0.638608 0.597265
O O1 0.778652 0.222761 0.527799
O O2 0.938232 0.179428 0.357497
O O3 0.850981 0.530193 0.609952
O O4 0.840400 0.028230 0.696024
O O5 0.448162 0.784617 0.827814
O O6 0.491620 0.573919 0.035731
O O7 0.372330 0.870857 0.208110
O O8 0.326139 0.562056 0.824389
O O9 0.404835 0.218014 0.840037
O O10 0.320300 0.471705 0.169819
O O11 0.251498 0.196599 0.053045
O O12 0.399086 0.933273 0.596654
O O13 0.537938 0.029775 0.519294
O O14 0.662954 0.067160 0.516799
O O15 0.996626 0.344080 0.538588
O O16 0.095469 0.185947 0.199907
#
# Coordination Sequence:
#
# PCOD9119025 Si02
#       8
#     2   2   2   2   2   2   2   2
#     4   9  18  35  56  91 123 153 198 247 298 364
#     4  12  25  40  64  88 117 160 208 254 311 368
#     4  11  24  44  60  89 123 161 208 260 306 375
#     4  12  25  42  61  84 126 161 213 265 314 374
#     4  11  24  41  63  90 120 163 206 257 313 369
#     4   8  14  28  54  88 120 150 192 240 294 359
#     4   9  18  33  60  89 121 157 196 247 299 359
#     4  12  26  41  60  87 118 165 211 260 315 364
#
# _framework density 21.278025
#
# number of rings (size 3 to 8) (size 9 to 14) (size 15 to 20)
#    0.000    1.500    3.750    1.500    3.500    1.000 
#    4.500    0.000    0.000    0.000    3.250    0.000 
#    0.000    0.000    0.000    0.000    0.000    0.000 
#
# Total GULP energy -89100.623212 kJ/mol
# GULP energy per Si atom -5568.788951 kJ/mol
# Density = 2.122960 g / cm^3
# Si number density = 21.278025 Si / 1000 Ang^3
#
#
#
# Elastic Constant Matrix: (Units=GPa)
#
#
# Indices 1 2 3 4 5 6 
#
# 1 170.0719 20.9943 53.3631 0.0000 -16.9199 0.0000
# 2 20.9943 73.7528 15.7077 0.0000 0.8922 0.0000
# 3 53.3631 15.7077 56.1766 0.0000 15.1310 0.0000
# 4 0.0000 0.0000 0.0000 22.2224 0.0000 -6.6952
# 5 -16.9199 0.8922 15.1310 0.0000 26.4886 0.0000
# 6 0.0000 0.0000 0.0000 -6.6952 0.0000 23.1645
#
#
#
# Elastic Compliance Matrix: (Units=1/GPa)
#
#
# Indices 1 2 3 4 5 6 
#
# 1 0.013217 -0.000271 -0.017439 0.000000 0.018413 0.000000
# 2 -0.000271 0.014527 -0.004285 0.000000 0.001786 0.000000
# 3 -0.017439 -0.004285 0.045531 0.000000 -0.037003 0.000000
# 4 0.000000 0.000000 0.000000 0.049292 0.000000 0.014247
# 5 0.018413 0.001786 -0.037003 0.000000 0.070591 0.000000
# 6 0.000000 0.000000 0.000000 0.014247 0.000000 0.047287
#
#
# Mechanical properties :
#
#
# Convention : Reuss Voigt Hill
#
# Bulk Modulus (GPa) = 34.14710 53.34794 43.74752
# Shear Modulus (GPa) = 16.99542 28.37084 22.68313
#
# Velocity S-wave (km/s) = 2.82925 3.65545 3.26856
# Velocity P-wave (km/s) = 5.17260 6.55307 5.90333
#
# Compressibility (1/GPa) = 0.02928507
#
# Stress axis : x y z
#
# Youngs Moduli (GPa) = 75.66109 68.83710 21.96296
#
# Poissons Ratio (x) = 0.01866 0.38300
# Poissons Ratio (y) = 0.02050 0.09412
# Poissons Ratio (z) = 1.31942 0.29500
#
# Static dielectric constant tensor:
#      x y z
#    x 1.875100 0.000000 -0.011230 
#    y 0.000000 1.912760 0.000000 
#    z -0.011230 0.000000 1.812800 
# 
# From -- ./inp_files/9786.got.cif
#   From: 2010.05.17/outbox.cif.g08.bks.cpg/sg4_5_cif.got.tgz:9786.got - 2010.06.03 18:43:04.
