data_PCOD9119511
_publ_section_title
;
Structure prediction by ZEFSAII (Michael W. Deem and Ramdas Pophale) SiO2 
 PCOD9119511
Probable space group: P 21
;
_chemical_formula_sum "Si O2"
_cell_formula_units_Z 16
_cell_length_a 25.563542
_cell_length_b 5.392102
_cell_length_c 10.011608
_cell_angle_alpha 90.000000
_cell_angle_beta 152.615728
_cell_angle_gamma 90.000000
_cell_volume 634.745026
_symmetry_space_group_name_H-M "P 21"
_symmetry_group_IT_number 4
_symmetry_cell_setting 'monoclinic'
loop_
_space_group_symop_operation_xyz
x,y,z
-x,1/2+y,-z
loop_
_atom_site_type_symbol
_atom_site_label
_atom_site_fract_x
_atom_site_fract_y
_atom_site_fract_z
Si Si1 0.710393 0.892220 0.296320
Si Si2 0.618400 0.759470 0.601430
Si Si3 0.149638 0.389145 0.777502
Si Si4 0.008881 0.535485 0.719968
Si Si5 0.441551 0.182749 0.829100
Si Si6 0.059529 0.300357 0.104911
Si Si7 0.230007 0.774140 0.756334
Si Si8 0.553818 0.630660 0.741761
O O1 0.659804 0.819979 0.322874
O O2 0.826843 0.739516 0.553950
O O3 0.758005 0.159535 0.364404
O O4 0.610026 0.837740 0.964362
O O5 0.588436 0.642169 0.392554
O O6 0.546516 0.681896 0.568221
O O7 0.566046 0.039190 0.470592
O O8 0.750811 0.714542 0.935785
O O9 0.049948 0.296659 0.452334
O O10 0.230080 0.560844 0.869156
O O11 0.082830 0.482764 0.755976
O O12 0.891673 0.387571 0.482043
O O13 0.079594 0.446442 0.009828
O O14 0.533902 0.410126 0.051563
O O15 0.994339 0.526054 0.033820
O O16 0.340435 0.940395 0.015377
#
# Coordination Sequence:
#
# PCOD9119511 Si02
#       8
#     2   2   2   2   2   2   2   2
#     4  12  26  50  76 111 157 210 257 329 395 466
#     4  12  26  47  74 119 149 201 269 317 400 472
#     4  12  25  45  73 109 153 197 251 336 393 461
#     4  12  25  46  73 113 152 203 260 323 401 466
#     4  12  29  52  77 111 162 207 258 324 396 474
#     4  12  27  46  77 111 154 205 263 318 387 480
#     4  12  22  46  76 105 151 200 259 321 390 465
#     4  12  26  46  78 111 154 205 263 326 386 472
#
# _framework density 25.206969999999998
#
# number of rings (size 3 to 8) (size 9 to 14) (size 15 to 20)
#    0.000    0.000    6.250    3.750    1.750    1.000 
#    0.000    0.000    0.000    0.000    0.000    0.000 
#    0.000    0.000    0.000    0.000    0.000    0.000 
#
# Total GULP energy -89185.377466 kJ/mol
# GULP energy per Si atom -5574.086092 kJ/mol
# Density = 2.514960 g / cm^3
# Si number density = 25.206970 Si / 1000 Ang^3
#
#
#
# Elastic Constant Matrix: (Units=GPa)
#
#
# Indices 1 2 3 4 5 6 
#
# 1 112.5462 14.4725 21.5227 0.0000 -0.4434 0.0000
# 2 14.4725 53.9755 4.7805 0.0000 6.0568 0.0000
# 3 21.5227 4.7805 102.4681 0.0000 -3.4452 0.0000
# 4 0.0000 0.0000 0.0000 39.3648 0.0000 2.7621
# 5 -0.4434 6.0568 -3.4452 0.0000 50.9081 0.0000
# 6 0.0000 0.0000 0.0000 2.7621 0.0000 30.0886
#
#
#
# Elastic Compliance Matrix: (Units=1/GPa)
#
#
# Indices 1 2 3 4 5 6 
#
# 1 0.009559 -0.002423 -0.001886 0.000000 0.000244 0.000000
# 2 -0.002423 0.019485 -0.000480 0.000000 -0.002372 0.000000
# 3 -0.001886 -0.000480 0.010202 0.000000 0.000731 0.000000
# 4 0.000000 0.000000 0.000000 0.025568 0.000000 -0.002347
# 5 0.000244 -0.002372 0.000731 0.000000 0.019977 0.000000
# 6 0.000000 0.000000 0.000000 -0.002347 0.000000 0.033451
#
#
# Mechanical properties :
#
#
# Convention : Reuss Voigt Hill
#
# Bulk Modulus (GPa) = 33.70727 38.94901 36.32814
# Shear Modulus (GPa) = 36.30818 39.28659 37.79739
#
# Velocity S-wave (km/s) = 3.79938 3.95214 3.87651
# Velocity P-wave (km/s) = 5.71387 6.02587 5.87194
#
# Compressibility (1/GPa) = 0.02966719
#
# Stress axis : x y z
#
# Youngs Moduli (GPa) = 104.61819 51.32070 98.01673
#
# Poissons Ratio (x) = 0.12436 0.18490
# Poissons Ratio (y) = 0.25352 0.04703
# Poissons Ratio (z) = 0.19736 0.02462
#
# Static dielectric constant tensor:
#      x y z
#    x 1.958490 0.000000 -0.029900 
#    y 0.000000 2.208320 0.000000 
#    z -0.029900 0.000000 2.079340 
# 
# From -- ./inp_files/10049.got.cif
#   From: 2010.05.17/outbox.cif.g08.bks.cpg/sg4_6_cif.got.tgz:10049.got - 2010.06.03 18:43:04.
