data_PCOD9119502
_publ_section_title
;
Structure prediction by ZEFSAII (Michael W. Deem and Ramdas Pophale) SiO2 
 PCOD9119502
Probable space group: P 21
;
_chemical_formula_sum "Si O2"
_cell_formula_units_Z 16
_cell_length_a 8.768363
_cell_length_b 17.438964
_cell_length_c 8.768291
_cell_angle_alpha 90.000000
_cell_angle_beta 148.859673
_cell_angle_gamma 90.000000
_cell_volume 693.360064
_symmetry_space_group_name_H-M "P 21"
_symmetry_group_IT_number 4
_symmetry_cell_setting 'monoclinic'
loop_
_space_group_symop_operation_xyz
x,y,z
-x,1/2+y,-z
loop_
_atom_site_type_symbol
_atom_site_label
_atom_site_fract_x
_atom_site_fract_y
_atom_site_fract_z
Si Si1 0.390357 0.048980 0.292534
Si Si2 0.207101 0.876972 0.792045
Si Si3 0.207470 0.352602 0.109650
Si Si4 0.012264 0.613918 0.291769
Si Si5 0.108639 0.518918 0.910890
Si Si6 0.410885 0.382665 0.608640
Si Si7 0.292048 0.024613 0.707101
Si Si8 0.791769 0.287666 0.512266
O O1 0.731200 0.073115 0.589668
O O2 0.397482 0.957283 0.272706
O O3 0.280449 0.097272 0.054615
O O4 0.144630 0.063317 0.211453
O O5 0.124982 0.822784 0.580557
O O6 0.896289 0.910136 0.582331
O O7 0.388406 0.950793 0.888407
O O8 0.392628 0.842157 0.092246
O O9 0.227294 0.444298 0.102523
O O10 0.288549 0.338263 0.355376
O O11 0.445387 0.304313 0.219553
O O12 0.910332 0.328467 0.768807
O O13 0.107928 0.700792 0.392078
O O14 0.919434 0.578801 0.375014
O O15 0.407751 0.559425 0.107375
O O16 0.917670 0.491447 0.603714
#
# Coordination Sequence:
#
# PCOD9119502 Si02
#       8
#     2   2   2   2   2   2   2   2
#     4  12  23  43  67 104 139 177 233 293 352 419
#     4  12  22  42  68 104 137 176 232 297 347 404
#     4  12  23  43  67 104 139 177 233 293 352 419
#     4  12  26  44  68  99 142 192 231 280 359 438
#     4  12  23  40  71 104 134 170 233 300 346 392
#     4  12  23  40  71 104 134 170 233 300 346 392
#     4  12  22  42  68 104 137 176 232 297 347 404
#     4  12  26  44  68  99 142 192 231 280 359 438
#
# _framework density 23.076035000000001
#
# number of rings (size 3 to 8) (size 9 to 14) (size 15 to 20)
#    0.000    0.000    5.000    7.500    0.000    0.000 
#    0.000    5.000    0.000    0.000    0.000    0.000 
#    0.000    0.000    0.000    0.000    0.000    0.000 
#
# Total GULP energy -89320.044008 kJ/mol
# GULP energy per Si atom -5582.502750 kJ/mol
# Density = 2.302351 g / cm^3
# Si number density = 23.076035 Si / 1000 Ang^3
#
#
#
# Elastic Constant Matrix: (Units=GPa)
#
#
# Indices 1 2 3 4 5 6 
#
# 1 113.1029 30.3100 33.8095 0.0000 11.0076 0.0000
# 2 30.3100 68.2482 -2.7008 0.0000 -9.5270 0.0000
# 3 33.8095 -2.7008 121.5172 0.0000 -8.5906 0.0000
# 4 0.0000 0.0000 0.0000 20.0861 0.0000 1.4481
# 5 11.0076 -9.5270 -8.5906 0.0000 53.0661 0.0000
# 6 0.0000 0.0000 0.0000 1.4481 0.0000 15.0740
#
#
#
# Elastic Compliance Matrix: (Units=1/GPa)
#
#
# Indices 1 2 3 4 5 6 
#
# 1 0.012001 -0.006064 -0.003770 0.000000 -0.004188 0.000000
# 2 -0.006064 0.018127 0.002437 0.000000 0.004907 0.000000
# 3 -0.003770 0.002437 0.009528 0.000000 0.002762 0.000000
# 4 0.000000 0.000000 0.000000 0.050133 0.000000 -0.004816
# 5 -0.004188 0.004907 0.002762 0.000000 0.021041 0.000000
# 6 0.000000 0.000000 0.000000 -0.004816 0.000000 0.066802
#
#
# Mechanical properties :
#
#
# Convention : Reuss Voigt Hill
#
# Bulk Modulus (GPa) = 40.22218 47.30062 43.76140
# Shear Modulus (GPa) = 24.91126 33.74186 29.32656
#
# Velocity S-wave (km/s) = 3.28918 3.82803 3.56879
# Velocity P-wave (km/s) = 5.64740 6.33092 5.99890
#
# Compressibility (1/GPa) = 0.02486190
#
# Stress axis : x y z
#
# Youngs Moduli (GPa) = 83.32619 55.16714 104.95835
#
# Poissons Ratio (x) = 0.33452 0.39568
# Poissons Ratio (y) = 0.50526 -0.25577
# Poissons Ratio (z) = 0.31413 -0.13443
#
# Static dielectric constant tensor:
#      x y z
#    x 1.985170 0.000000 -0.035010 
#    y 0.000000 1.796630 0.000000 
#    z -0.035010 0.000000 1.863870 
# 
# From -- ./inp_files/6896.got.cif
#   From: 2010.05.17/outbox.cif.g08.bks.cpg/sg4_4_cif.got.tgz:6896.got - 2010.06.03 18:43:04.
