data_PCOD9119061
_publ_section_title
;
Structure prediction by ZEFSAII (Michael W. Deem and Ramdas Pophale) SiO2 
 PCOD9119061
Probable space group: P 21
;
_chemical_formula_sum "Si O2"
_cell_formula_units_Z 16
_cell_length_a 17.743354
_cell_length_b 7.200284
_cell_length_c 5.482295
_cell_angle_alpha 90.000000
_cell_angle_beta 113.086523
_cell_angle_gamma 90.000000
_cell_volume 644.309980
_symmetry_space_group_name_H-M "P 21"
_symmetry_group_IT_number 4
_symmetry_cell_setting 'monoclinic'
loop_
_space_group_symop_operation_xyz
x,y,z
-x,1/2+y,-z
loop_
_atom_site_type_symbol
_atom_site_label
_atom_site_fract_x
_atom_site_fract_y
_atom_site_fract_z
Si Si1 0.095497 0.452150 0.231077
Si Si2 0.258181 0.945241 0.564950
Si Si3 0.581088 0.584622 0.394016
Si Si4 0.691003 0.150470 0.020202
Si Si5 0.153680 0.797167 0.058386
Si Si6 0.210598 0.301092 0.744630
Si Si7 0.533680 0.385415 0.821789
Si Si8 0.055219 0.145861 0.813251
O O1 0.112841 0.600005 0.041323
O O2 0.182102 0.391915 0.453272
O O3 0.038171 0.576718 0.338027
O O4 0.054992 0.267332 0.064681
O O5 0.322753 0.044153 0.470703
O O6 0.171645 0.901498 0.336192
O O7 0.249273 0.099049 0.762424
O O8 0.292128 0.749046 0.698260
O O9 0.545278 0.523028 0.609340
O O10 0.555594 0.794660 0.305429
O O11 0.551218 0.472445 0.111028
O O12 0.757079 0.255599 0.935895
O O13 0.598444 0.215507 0.853821
O O14 0.722371 0.939524 0.057167
O O15 0.099286 0.945800 0.854873
O O16 0.119783 0.267511 0.741300
#
# Coordination Sequence:
#
# PCOD9119061 Si02
#       8
#     2   2   2   2   2   2   2   2
#     4  12  26  42  67  97 133 175 229 286 355 418
#     4  11  24  43  70 101 137 179 231 290 347 415
#     4  11  25  47  72 107 148 192 236 294 360 425
#     4  11  24  43  70 101 137 179 231 290 347 415
#     4  12  22  44  68  92 132 178 226 284 340 426
#     4  12  26  42  70 104 126 184 232 286 346 422
#     4  11  25  47  72 107 148 192 236 294 360 425
#     4  12  26  42  67  97 133 175 229 286 355 418
#
# _framework density 24.832771000000001
#
# number of rings (size 3 to 8) (size 9 to 14) (size 15 to 20)
#    0.000    0.500    7.500    0.750    1.750    3.000 
#    4.500    0.000    0.000    0.000    0.000    0.000 
#    0.000    0.000    0.000    0.000    0.000    0.000 
#
# Total GULP energy -89244.594396 kJ/mol
# GULP energy per Si atom -5577.787150 kJ/mol
# Density = 2.477625 g / cm^3
# Si number density = 24.832771 Si / 1000 Ang^3
#
#
#
# Elastic Constant Matrix: (Units=GPa)
#
#
# Indices 1 2 3 4 5 6 
#
# 1 37.0479 -2.8311 -15.8698 0.0000 -6.6730 0.0000
# 2 -2.8311 89.8108 1.3886 0.0000 -4.3149 0.0000
# 3 -15.8698 1.3886 35.4705 0.0000 -7.0745 0.0000
# 4 0.0000 0.0000 0.0000 28.3355 0.0000 4.4798
# 5 -6.6730 -4.3149 -7.0745 0.0000 23.5327 0.0000
# 6 0.0000 0.0000 0.0000 4.4798 0.0000 39.1304
#
#
#
# Elastic Compliance Matrix: (Units=1/GPa)
#
#
# Indices 1 2 3 4 5 6 
#
# 1 0.039382 0.001772 0.021108 0.000000 0.017838 0.000000
# 2 0.001772 0.011313 0.000919 0.000000 0.002853 0.000000
# 3 0.021108 0.000919 0.041305 0.000000 0.018571 0.000000
# 4 0.000000 0.000000 0.000000 0.035942 0.000000 -0.004115
# 5 0.017838 0.002853 0.018571 0.000000 0.053659 0.000000
# 6 0.000000 0.000000 0.000000 -0.004115 0.000000 0.026027
#
#
# Mechanical properties :
#
#
# Convention : Reuss Voigt Hill
#
# Bulk Modulus (GPa) = 7.16335 14.18941 10.67638
# Shear Modulus (GPa) = 24.20586 30.17582 27.19084
#
# Velocity S-wave (km/s) = 3.12549 3.48970 3.31260
# Velocity P-wave (km/s) = 3.98947 4.68655 4.35199
#
# Compressibility (1/GPa) = 0.13959953
#
# Stress axis : x y z
#
# Youngs Moduli (GPa) = 25.39200 88.39197 24.21038
#
# Poissons Ratio (x) = -0.15664 -0.51104
# Poissons Ratio (y) = -0.04500 -0.02225
# Poissons Ratio (z) = -0.53599 -0.08123
#
# Static dielectric constant tensor:
#      x y z
#    x 2.070340 0.000000 -0.100670 
#    y 0.000000 1.912280 0.000000 
#    z -0.100670 0.000000 2.042630 
# 
# From -- ./inp_files/3948.got.cif
#   From: 2010.05.17/outbox.cif.g08.bks.cpg/sg4_2_cif.got.tgz:3948.got - 2010.06.03 18:43:04.
