data_PCOD9119080
_publ_section_title
;
Structure prediction by ZEFSAII (Michael W. Deem and Ramdas Pophale) SiO2 
 PCOD9119080
Probable space group: P 21
;
_chemical_formula_sum "Si O2"
_cell_formula_units_Z 16
_cell_length_a 23.657307
_cell_length_b 5.009332
_cell_length_c 14.667920
_cell_angle_alpha 90.000000
_cell_angle_beta 159.955170
_cell_angle_gamma 90.000000
_cell_volume 595.796314
_symmetry_space_group_name_H-M "P 21"
_symmetry_group_IT_number 4
_symmetry_cell_setting 'monoclinic'
loop_
_space_group_symop_operation_xyz
x,y,z
-x,1/2+y,-z
loop_
_atom_site_type_symbol
_atom_site_label
_atom_site_fract_x
_atom_site_fract_y
_atom_site_fract_z
Si Si1 0.692349 0.282800 0.183877
Si Si2 0.747821 0.763561 0.379311
Si Si3 0.015513 0.508478 0.580651
Si Si4 0.909672 0.482870 0.076187
Si Si5 0.635828 0.102178 0.590638
Si Si6 0.309136 0.344815 0.134055
Si Si7 0.928280 0.290611 0.839094
Si Si8 0.632233 0.945779 0.398911
O O1 0.672543 0.483401 0.238304
O O2 0.872098 0.357876 0.418786
O O3 0.681308 0.988166 0.208488
O O4 0.558067 0.379093 0.907471
O O5 0.711447 0.811434 0.430050
O O6 0.944909 0.791269 0.669658
O O7 0.953802 0.794611 0.453740
O O8 0.187682 0.532628 0.894066
O O9 0.000011 0.710153 0.151772
O O10 0.782311 0.313233 0.823322
O O11 0.807947 0.612358 0.003953
O O12 0.461945 0.242386 0.307218
O O13 0.620602 0.975667 0.667525
O O14 0.665173 0.887692 0.555344
O O15 0.731318 0.231105 0.543309
O O16 0.014531 0.074173 0.037235
#
# Coordination Sequence:
#
# PCOD9119080 Si02
#       8
#     2   2   2   2   2   2   2   2
#     4  12  25  50  75 109 152 193 256 308 374 435
#     4  11  26  48  78 106 149 203 245 312 371 446
#     4  12  28  50  79 110 148 200 256 306 370 444
#     4  11  24  44  72  99 145 194 241 295 378 442
#     4  12  25  47  69 113 148 196 246 314 376 453
#     4  12  26  46  76 104 153 196 249 307 384 443
#     4  11  24  44  68 102 145 183 236 293 359 440
#     4  11  26  45  75 111 150 191 255 307 374 443
#
# _framework density 26.854817000000001
#
# number of rings (size 3 to 8) (size 9 to 14) (size 15 to 20)
#    0.000    0.500    3.750    3.750    1.750    5.000 
#    6.750    0.000    0.000    0.000    0.000    0.000 
#    0.000    0.000    0.000    0.000    0.000    0.000 
#
# Total GULP energy -89709.453042 kJ/mol
# GULP energy per Si atom -5606.840815 kJ/mol
# Density = 2.679369 g / cm^3
# Si number density = 26.854817 Si / 1000 Ang^3
#
#
#
# Elastic Constant Matrix: (Units=GPa)
#
#
# Indices 1 2 3 4 5 6 
#
# 1 80.0524 19.2314 18.0703 0.0000 -4.3829 0.0000
# 2 19.2314 78.7919 14.9625 0.0000 -10.5965 0.0000
# 3 18.0703 14.9625 154.3405 0.0000 1.3502 0.0000
# 4 0.0000 0.0000 0.0000 31.1530 0.0000 -13.2349
# 5 -4.3829 -10.5965 1.3502 0.0000 51.3870 0.0000
# 6 0.0000 0.0000 0.0000 -13.2349 0.0000 38.4807
#
#
#
# Elastic Compliance Matrix: (Units=1/GPa)
#
#
# Indices 1 2 3 4 5 6 
#
# 1 0.013532 -0.002979 -0.001301 0.000000 0.000574 0.000000
# 2 -0.002979 0.013971 -0.001029 0.000000 0.002654 0.000000
# 3 -0.001301 -0.001029 0.006736 0.000000 -0.000500 0.000000
# 4 0.000000 0.000000 0.000000 0.037592 0.000000 0.012929
# 5 0.000574 0.002654 -0.000500 0.000000 0.020070 0.000000
# 6 0.000000 0.000000 0.000000 0.012929 0.000000 0.030434
#
#
# Mechanical properties :
#
#
# Convention : Reuss Voigt Hill
#
# Bulk Modulus (GPa) = 42.33257 46.41258 44.37258
# Shear Modulus (GPa) = 35.50489 41.59886 38.55188
#
# Velocity S-wave (km/s) = 3.64002 3.94004 3.79300
# Velocity P-wave (km/s) = 5.78481 6.16594 5.97841
#
# Compressibility (1/GPa) = 0.02362247
#
# Stress axis : x y z
#
# Youngs Moduli (GPa) = 73.89647 71.57679 148.46530
#
# Poissons Ratio (x) = 0.21321 0.19310
# Poissons Ratio (y) = 0.22012 0.15275
# Poissons Ratio (z) = 0.09611 0.07364
#
# Static dielectric constant tensor:
#      x y z
#    x 2.147400 0.000000 0.012120 
#    y 0.000000 2.081690 0.000000 
#    z 0.012120 0.000000 2.101610 
# 
# From -- ./inp_files/14545.got.cif
#   From: 2010.05.17/outbox.cif.g08.bks.cpg/sg4_8_cif.got.tgz:14545.got - 2010.06.03 18:43:04.
