data_PCOD9119182
_publ_section_title
;
Structure prediction by ZEFSAII (Michael W. Deem and Ramdas Pophale) SiO2 
 PCOD9119182
Probable space group: P 21
;
_chemical_formula_sum "Si O2"
_cell_formula_units_Z 12
_cell_length_a 7.444157
_cell_length_b 5.735236
_cell_length_c 12.568027
_cell_angle_alpha 90.000000
_cell_angle_beta 91.920523
_cell_angle_gamma 90.000000
_cell_volume 536.277900
_symmetry_space_group_name_H-M "P 21"
_symmetry_group_IT_number 4
_symmetry_cell_setting 'monoclinic'
loop_
_space_group_symop_operation_xyz
x,y,z
-x,1/2+y,-z
loop_
_atom_site_type_symbol
_atom_site_label
_atom_site_fract_x
_atom_site_fract_y
_atom_site_fract_z
Si Si1 0.067098 0.294140 0.208224
Si Si2 0.952333 0.388515 0.443389
Si Si3 0.462725 0.772526 0.552334
Si Si4 0.679791 0.283434 0.093449
Si Si5 0.614072 0.123136 0.858678
Si Si6 0.393667 0.042297 0.238539
O O1 0.222844 0.447008 0.156646
O O2 0.179830 0.055121 0.213667
O O3 0.030988 0.384691 0.326074
O O4 0.879682 0.272679 0.143448
O O5 0.740851 0.344191 0.430084
O O6 0.979508 0.647211 0.496465
O O7 0.458264 0.513079 0.496278
O O8 0.564272 0.706565 0.662700
O O9 0.580517 0.522738 0.117747
O O10 0.540047 0.108554 0.150650
O O11 0.674286 0.252418 0.967383
O O12 0.582066 0.268189 0.750447
#
# Coordination Sequence:
#
# PCOD9119182 Si02
#       6
#     2   2   2   2   2   2
#     4  11  27  44  71 106 142 186 242 298 367 433
#     4  12  27  49  74 111 149 192 248 306 368 442
#     4  12  27  48  76 108 150 196 245 305 369 439
#     4  11  24  47  68 105 138 190 237 297 367 431
#     4  11  26  43  73 101 146 184 242 301 359 443
#     4  11  25  47  70 101 143 186 242 293 364 436
#
# _framework density 22.376456000000001
#
# number of rings (size 3 to 8) (size 9 to 14) (size 15 to 20)
#    0.000    0.667    3.333    3.000   11.667    2.667 
#    0.000    0.000    0.000    0.000    0.000    0.000 
#    0.000    0.000    0.000    0.000    0.000    0.000 
#
# Total GULP energy -66873.637415 kJ/mol
# GULP energy per Si atom -5572.803118 kJ/mol
# Density = 2.232553 g / cm^3
# Si number density = 22.376456 Si / 1000 Ang^3
#
#
#
# Elastic Constant Matrix: (Units=GPa)
#
#
# Indices 1 2 3 4 5 6 
#
# 1 147.9342 -3.6415 24.7895 0.0000 18.6053 0.0000
# 2 -3.6415 65.2548 22.9348 0.0000 6.7965 0.0000
# 3 24.7895 22.9348 56.7764 0.0000 3.5364 0.0000
# 4 0.0000 0.0000 0.0000 35.5851 0.0000 0.7136
# 5 18.6053 6.7965 3.5364 0.0000 36.1095 0.0000
# 6 0.0000 0.0000 0.0000 0.7136 0.0000 20.1977
#
#
#
# Elastic Compliance Matrix: (Units=1/GPa)
#
#
# Indices 1 2 3 4 5 6 
#
# 1 0.008049 0.002364 -0.004209 0.000000 -0.004180 0.000000
# 2 0.002364 0.018814 -0.008387 0.000000 -0.003938 0.000000
# 3 -0.004209 -0.008387 0.022744 0.000000 0.001520 0.000000
# 4 0.000000 0.000000 0.000000 0.028122 0.000000 -0.000994
# 5 -0.004180 -0.003938 0.001520 0.000000 0.030440 0.000000
# 6 0.000000 0.000000 0.000000 -0.000994 0.000000 0.049546
#
#
# Mechanical properties :
#
#
# Convention : Reuss Voigt Hill
#
# Bulk Modulus (GPa) = 34.31321 39.79233 37.05277
# Shear Modulus (GPa) = 26.61105 33.43729 30.02417
#
# Velocity S-wave (km/s) = 3.45228 3.86982 3.66700
# Velocity P-wave (km/s) = 5.59096 6.14728 5.87571
#
# Compressibility (1/GPa) = 0.02914330
#
# Stress axis : x y z
#
# Youngs Moduli (GPa) = 124.24038 53.15118 43.96806
#
# Poissons Ratio (x) = -0.12564 0.18505
# Poissons Ratio (y) = -0.29367 0.36875
# Poissons Ratio (z) = 0.52290 0.44577
#
# Static dielectric constant tensor:
#      x y z
#    x 1.772990 0.000000 0.022630 
#    y 0.000000 1.987920 0.000000 
#    z 0.022630 0.000000 1.837410 
# 
# From -- ./inp_files/10692.got.cif
#   From: 2010.05.17/outbox.cif.g08.bks.cpg/sg4_6_cif.got.tgz:10692.got - 2010.06.03 18:43:04.
