data_PCOD9119113
_publ_section_title
;
Structure prediction by ZEFSAII (Michael W. Deem and Ramdas Pophale) SiO2 
 PCOD9119113
Probable space group: P 21
;
_chemical_formula_sum "Si O2"
_cell_formula_units_Z 14
_cell_length_a 9.867602
_cell_length_b 4.924961
_cell_length_c 15.526178
_cell_angle_alpha 90.000000
_cell_angle_beta 137.282861
_cell_angle_gamma 90.000000
_cell_volume 511.860576
_symmetry_space_group_name_H-M "P 21"
_symmetry_group_IT_number 4
_symmetry_cell_setting 'monoclinic'
loop_
_space_group_symop_operation_xyz
x,y,z
-x,1/2+y,-z
loop_
_atom_site_type_symbol
_atom_site_label
_atom_site_fract_x
_atom_site_fract_y
_atom_site_fract_z
Si Si1 0.516485 0.368110 0.221998
Si Si2 0.759890 0.744784 0.457900
Si Si3 0.629195 0.149492 0.539729
Si Si4 0.394865 0.648175 0.995436
Si Si5 0.118477 0.069242 0.022621
Si Si6 0.136416 0.462574 0.672588
Si Si7 0.935931 0.759115 0.192275
O O1 0.603861 0.539133 0.341696
O O2 0.439046 0.585347 0.115371
O O3 0.329640 0.175793 0.156810
O O4 0.684061 0.176686 0.254995
O O5 0.494966 0.925073 0.525102
O O6 0.879615 0.840280 0.429489
O O7 0.676706 0.999490 0.471692
O O8 0.829512 0.213002 0.686642
O O9 0.848745 0.725629 0.248852
O O10 0.526596 0.430891 0.002695
O O11 0.126753 0.097784 0.922825
O O12 0.834288 0.055830 0.128470
O O13 0.949675 0.279369 0.975851
O O14 0.925267 0.602674 0.594283
#
# Coordination Sequence:
#
# PCOD9119113 Si02
#       7
#     2   2   2   2   2   2   2
#     4  11  27  46  80 113 163 210 265 335 413 489
#     4  12  27  47  79 117 167 210 263 343 411 498
#     4  12  31  53  80 121 161 230 279 330 403 492
#     4  11  24  44  76 114 155 200 252 327 406 480
#     4  11  30  56  81 115 160 225 279 341 396 482
#     4  12  24  47  76 125 158 207 258 341 431 490
#     4  11  27  51  82 117 164 206 278 343 406 495
#
# _framework density 27.351196999999999
#
# number of rings (size 3 to 8) (size 9 to 14) (size 15 to 20)
#    0.000    0.571    2.857    2.571    8.000    6.857 
#    0.000    0.000    0.000    0.000    0.000    0.000 
#    0.000    0.000    0.000    0.000    0.000    0.000 
#
# Total GULP energy -78548.331927 kJ/mol
# GULP energy per Si atom -5610.595138 kJ/mol
# Density = 2.728894 g / cm^3
# Si number density = 27.351197 Si / 1000 Ang^3
#
#
#
# Elastic Constant Matrix: (Units=GPa)
#
#
# Indices 1 2 3 4 5 6 
#
# 1 117.8334 38.6990 55.2873 0.0000 15.0911 0.0000
# 2 38.6990 110.5204 55.5791 0.0000 13.2479 0.0000
# 3 55.2873 55.5791 165.7498 0.0000 25.9678 0.0000
# 4 0.0000 0.0000 0.0000 39.9188 0.0000 0.4140
# 5 15.0911 13.2479 25.9678 0.0000 61.1089 0.0000
# 6 0.0000 0.0000 0.0000 0.4140 0.0000 73.6592
#
#
#
# Elastic Compliance Matrix: (Units=1/GPa)
#
#
# Indices 1 2 3 4 5 6 
#
# 1 0.010588 -0.002273 -0.002611 0.000000 -0.001012 0.000000
# 2 -0.002273 0.011414 -0.002967 0.000000 -0.000652 0.000000
# 3 -0.002611 -0.002967 0.008246 0.000000 -0.002216 0.000000
# 4 0.000000 0.000000 0.000000 0.025052 0.000000 -0.000141
# 5 -0.001012 -0.000652 -0.002216 0.000000 0.017697 0.000000
# 6 0.000000 0.000000 0.000000 -0.000141 0.000000 0.013577
#
#
# Mechanical properties :
#
#
# Convention : Reuss Voigt Hill
#
# Bulk Modulus (GPa) = 68.74541 77.02603 72.88572
# Shear Modulus (GPa) = 46.67432 51.23993 48.95712
#
# Velocity S-wave (km/s) = 4.13544 4.33298 4.23536
# Velocity P-wave (km/s) = 6.92758 7.29767 7.11503
#
# Compressibility (1/GPa) = 0.01454642
#
# Stress axis : x y z
#
# Youngs Moduli (GPa) = 94.44894 87.60955 121.26851
#
# Poissons Ratio (x) = 0.19914 0.31661
# Poissons Ratio (y) = 0.21468 0.35981
# Poissons Ratio (z) = 0.24659 0.25994
#
# Static dielectric constant tensor:
#      x y z
#    x 2.172610 0.000000 0.007470 
#    y 0.000000 2.160460 0.000000 
#    z 0.007470 0.000000 2.140400 
# 
# From -- ./inp_files/13558.got.cif
#   From: 2010.05.17/outbox.cif.g08.bks.cpg/sg4_7_cif.got.tgz:13558.got - 2010.06.03 18:43:04.
