data_PCOD9119737
_publ_section_title
;
Structure prediction by ZEFSAII (Michael W. Deem and Ramdas Pophale) SiO2 
 PCOD9119737
Probable space group: P 21
;
_chemical_formula_sum "Si O2"
_cell_formula_units_Z 16
_cell_length_a 8.568316
_cell_length_b 6.195806
_cell_length_c 12.480873
_cell_angle_alpha 90.000000
_cell_angle_beta 74.927928
_cell_angle_gamma 90.000000
_cell_volume 639.786806
_symmetry_space_group_name_H-M "P 21"
_symmetry_group_IT_number 4
_symmetry_cell_setting 'monoclinic'
loop_
_space_group_symop_operation_xyz
x,y,z
-x,1/2+y,-z
loop_
_atom_site_type_symbol
_atom_site_label
_atom_site_fract_x
_atom_site_fract_y
_atom_site_fract_z
Si Si1 0.148257 0.787800 0.217587
Si Si2 0.777868 0.432794 0.478858
Si Si3 0.698573 0.522379 0.275658
Si Si4 0.950772 0.149039 0.160565
Si Si5 0.859123 0.027240 0.560710
Si Si6 0.423375 0.204614 0.346222
Si Si7 0.525672 0.886195 0.155526
Si Si8 0.806435 0.958352 0.975566
O O1 0.138492 0.663746 0.330219
O O2 0.338690 0.834778 0.172984
O O3 0.125715 0.637256 0.117451
O O4 0.022427 0.985958 0.235676
O O5 0.778877 0.587993 0.374044
O O6 0.780112 0.170283 0.479548
O O7 0.621807 0.498552 0.575180
O O8 0.956834 0.467885 0.496085
O O9 0.831192 0.348781 0.208507
O O10 0.551086 0.385550 0.352533
O O11 0.622786 0.699584 0.207868
O O12 0.113264 0.241574 0.079221
O O13 0.863279 0.013796 0.084599
O O14 0.748082 0.826437 0.616759
O O15 0.506063 0.107768 0.225527
O O16 0.616338 0.927117 0.027203
#
# Coordination Sequence:
#
# PCOD9119737 Si02
#       8
#     2   2   2   2   2   2   2   2
#     4  12  29  47  78 113 153 204 265 326 402 473
#     4  12  28  46  78 111 154 203 258 323 402 474
#     4  12  29  48  79 113 157 207 264 324 403 476
#     4  12  27  49  77 111 155 204 265 324 392 483
#     4  12  27  50  75 114 153 203 265 322 399 478
#     4  12  26  49  74 106 162 198 257 326 390 480
#     4  12  29  49  74 114 157 205 263 324 398 482
#     4  12  27  48  75 108 155 202 255 323 398 468
#
# _framework density 25.008331999999999
#
# number of rings (size 3 to 8) (size 9 to 14) (size 15 to 20)
#    0.000    0.000    6.250    1.500   12.250    0.000 
#    0.000    0.000    0.000    0.000    0.000    0.000 
#    0.000    0.000    0.000    0.000    0.000    0.000 
#
# Total GULP energy -89303.206768 kJ/mol
# GULP energy per Si atom -5581.450423 kJ/mol
# Density = 2.495141 g / cm^3
# Si number density = 25.008332 Si / 1000 Ang^3
#
#
#
# Elastic Constant Matrix: (Units=GPa)
#
#
# Indices 1 2 3 4 5 6 
#
# 1 78.7482 49.1932 16.4739 0.0000 -6.6329 0.0000
# 2 49.1932 69.9049 12.5296 0.0000 -12.3419 0.0000
# 3 16.4739 12.5296 59.4514 0.0000 -16.4044 0.0000
# 4 0.0000 0.0000 0.0000 38.7153 0.0000 -22.3618
# 5 -6.6329 -12.3419 -16.4044 0.0000 37.6181 0.0000
# 6 0.0000 0.0000 0.0000 -22.3618 0.0000 22.8995
#
#
#
# Elastic Compliance Matrix: (Units=1/GPa)
#
#
# Indices 1 2 3 4 5 6 
#
# 1 0.023465 -0.016334 -0.003862 0.000000 -0.002905 0.000000
# 2 -0.016334 0.026783 0.000581 0.000000 0.006161 0.000000
# 3 -0.003862 0.000581 0.020045 0.000000 0.008251 0.000000
# 4 0.000000 0.000000 0.000000 0.059246 0.000000 0.057855
# 5 -0.002905 0.006161 0.008251 0.000000 0.031690 0.000000
# 6 0.000000 0.000000 0.000000 0.057855 0.000000 0.100165
#
#
# Mechanical properties :
#
#
# Convention : Reuss Voigt Hill
#
# Bulk Modulus (GPa) = 32.19041 40.49978 36.34509
# Shear Modulus (GPa) = 16.07834 28.50710 22.29272
#
# Velocity S-wave (km/s) = 2.53834 3.37991 2.98889
# Velocity P-wave (km/s) = 4.63580 5.60905 5.14549
#
# Compressibility (1/GPa) = 0.03106515
#
# Stress axis : x y z
#
# Youngs Moduli (GPa) = 42.61601 37.33721 49.88865
#
# Poissons Ratio (x) = 0.60986 0.19265
# Poissons Ratio (y) = 0.69608 -0.02900
# Poissons Ratio (z) = 0.16456 -0.02171
#
# Static dielectric constant tensor:
#      x y z
#    x 2.133760 0.000000 0.117110 
#    y 0.000000 2.088540 0.000000 
#    z 0.117110 0.000000 2.019580 
# 
# From -- ./inp_files/9472.got.cif
#   From: 2010.05.17/outbox.cif.g08.bks.cpg/sg4_5_cif.got.tgz:9472.got - 2010.06.03 18:43:04.
