data_PCOD9119796
_publ_section_title
;
Structure prediction by ZEFSAII (Michael W. Deem and Ramdas Pophale) SiO2 
 PCOD9119796
Probable space group: P 21
;
_chemical_formula_sum "Si O2"
_cell_formula_units_Z 10
_cell_length_a 9.394921
_cell_length_b 9.009848
_cell_length_c 7.924867
_cell_angle_alpha 90.000000
_cell_angle_beta 32.484811
_cell_angle_gamma 90.000000
_cell_volume 360.278488
_symmetry_space_group_name_H-M "P 21"
_symmetry_group_IT_number 4
_symmetry_cell_setting 'monoclinic'
loop_
_space_group_symop_operation_xyz
x,y,z
-x,1/2+y,-z
loop_
_atom_site_type_symbol
_atom_site_label
_atom_site_fract_x
_atom_site_fract_y
_atom_site_fract_z
Si Si1 0.376068 0.217490 0.410430
Si Si2 0.001511 0.089313 0.551444
Si Si3 0.749991 0.982301 0.220567
Si Si4 0.123935 0.747116 0.662570
Si Si5 0.501493 0.375294 0.945545
O O1 0.076200 0.176465 0.649396
O O2 0.382383 0.358217 0.526483
O O3 0.531580 0.079653 0.337017
O O4 0.498364 0.268745 0.109860
O O5 0.250003 0.982297 0.280575
O O6 0.750007 0.982307 0.799612
O O7 0.117621 0.606390 0.791257
O O8 0.423803 0.788147 0.301805
O O9 0.968404 0.884950 0.900193
O O10 0.001631 0.695857 0.606604
#
# Coordination Sequence:
#
# PCOD9119796 Si02
#       5
#     2   2   2   2   2
#     4  12  32  60  97 140 194 246 324 381 489 553
#     4  12  30  57 100 135 184 256 320 383 458 588
#     4  12  34  58  96 146 194 246 304 414 476 556
#     4  12  32  60  97 140 194 246 324 381 489 553
#     4  12  30  57 100 135 184 256 320 383 458 588
#
# _framework density 27.756308000000001
#
# number of rings (size 3 to 8) (size 9 to 14) (size 15 to 20)
#    0.000    0.000    2.000    2.400   19.600    0.000 
#    0.000    0.000    0.000    0.000    0.000    0.000 
#    0.000    0.000    0.000    0.000    0.000    0.000 
#
# Total GULP energy -56180.892230 kJ/mol
# GULP energy per Si atom -5618.089223 kJ/mol
# Density = 2.769313 g / cm^3
# Si number density = 27.756308 Si / 1000 Ang^3
#
#
#
# Elastic Constant Matrix: (Units=GPa)
#
#
# Indices 1 2 3 4 5 6 
#
# 1 225.0006 132.8508 75.1416 0.0000 7.8579 0.0000
# 2 132.8508 252.0062 94.9390 0.0000 12.2868 0.0000
# 3 75.1416 94.9390 180.6918 0.0000 6.4969 0.0000
# 4 0.0000 0.0000 0.0000 69.6337 0.0000 7.8357
# 5 7.8579 12.2868 6.4969 0.0000 63.2421 0.0000
# 6 0.0000 0.0000 0.0000 7.8357 0.0000 93.8047
#
#
#
# Elastic Compliance Matrix: (Units=1/GPa)
#
#
# Indices 1 2 3 4 5 6 
#
# 1 0.006640 -0.003062 -0.001148 0.000000 -0.000112 0.000000
# 2 -0.003062 0.006391 -0.002061 0.000000 -0.000649 0.000000
# 3 -0.001148 -0.002061 0.007101 0.000000 -0.000186 0.000000
# 4 0.000000 0.000000 0.000000 0.014497 0.000000 -0.001211
# 5 -0.000112 -0.000649 -0.000186 0.000000 0.015971 0.000000
# 6 0.000000 0.000000 0.000000 -0.001211 0.000000 0.010762
#
#
# Mechanical properties :
#
#
# Convention : Reuss Voigt Hill
#
# Bulk Modulus (GPa) = 131.77068 140.39571 136.08319
# Shear Modulus (GPa) = 65.41525 68.98725 67.20125
#
# Velocity S-wave (km/s) = 4.85992 4.99085 4.92582
# Velocity P-wave (km/s) = 8.89208 9.15985 9.02695
#
# Compressibility (1/GPa) = 0.00758894
#
# Stress axis : x y z
#
# Youngs Moduli (GPa) = 150.60292 156.47901 140.81899
#
# Poissons Ratio (x) = 0.47920 0.16169
# Poissons Ratio (y) = 0.46120 0.29021
# Poissons Ratio (z) = 0.17292 0.32249
#
# Static dielectric constant tensor:
#      x y z
#    x 2.219750 0.000000 -0.016150 
#    y 0.000000 2.142310 0.000000 
#    z -0.016150 0.000000 2.269650 
# 
# From -- ./inp_files/12233.got.cif
#   From: 2010.05.17/outbox.cif.g08.bks.cpg/sg4_7_cif.got.tgz:12233.got - 2010.06.03 18:43:04.
