data_PCOD9119548
_publ_section_title
;
Structure prediction by ZEFSAII (Michael W. Deem and Ramdas Pophale) SiO2 
 PCOD9119548
Probable space group: P 21
;
_chemical_formula_sum "Si O2"
_cell_formula_units_Z 14
_cell_length_a 11.044117
_cell_length_b 5.970428
_cell_length_c 12.386074
_cell_angle_alpha 90.000000
_cell_angle_beta 134.911092
_cell_angle_gamma 90.000000
_cell_volume 578.399625
_symmetry_space_group_name_H-M "P 21"
_symmetry_group_IT_number 4
_symmetry_cell_setting 'monoclinic'
loop_
_space_group_symop_operation_xyz
x,y,z
-x,1/2+y,-z
loop_
_atom_site_type_symbol
_atom_site_label
_atom_site_fract_x
_atom_site_fract_y
_atom_site_fract_z
Si Si1 0.473439 0.669270 0.925665
Si Si2 0.069506 0.783608 0.915677
Si Si3 0.753906 0.780445 0.471985
Si Si4 0.415335 0.937194 0.203982
Si Si5 0.101125 0.557427 0.702332
Si Si6 0.737090 0.558486 0.687237
Si Si7 0.064730 0.672214 0.308279
O O1 0.585309 0.623753 0.889406
O O2 0.274659 0.650168 0.764057
O O3 0.499623 0.424036 0.008197
O O4 0.105502 0.653227 0.827126
O O5 0.899428 0.667155 0.853280
O O6 0.017770 0.024119 0.837184
O O7 0.242266 0.793271 0.090409
O O8 0.700370 0.705633 0.559041
O O9 0.918228 0.635355 0.539954
O O10 0.584509 0.787794 0.294987
O O11 0.831990 0.023961 0.541739
O O12 0.413414 0.037987 0.322577
O O13 0.081027 0.295978 0.713724
O O14 0.807367 0.335640 0.674398
#
# Coordination Sequence:
#
# PCOD9119548 Si02
#       7
#     2   2   2   2   2   2   2
#     4  12  27  51  75 109 145 188 250 319 347 423
#     4   9  19  40  63  99 131 175 236 292 356 428
#     4   9  22  43  63 103 139 183 230 297 360 446
#     4  12  24  42  69 109 132 188 248 289 369 434
#     4   9  19  44  70  91 137 188 227 302 366 404
#     4   9  22  40  64  97 141 182 223 294 360 431
#     4   8  17  40  68  86 137 182 222 287 366 416
#
# _framework density 24.204716999999999
#
# number of rings (size 3 to 8) (size 9 to 14) (size 15 to 20)
#    0.000    2.857    1.429    0.857    6.000    0.000 
#   12.857    0.000    0.000    0.000    0.000    0.000 
#    0.000    0.000    0.000    0.000    0.000    0.000 
#
# Total GULP energy -78065.396928 kJ/mol
# GULP energy per Si atom -5576.099781 kJ/mol
# Density = 2.414963 g / cm^3
# Si number density = 24.204717 Si / 1000 Ang^3
#
#
#
# Elastic Constant Matrix: (Units=GPa)
#
#
# Indices 1 2 3 4 5 6 
#
# 1 66.6560 -0.8061 -2.9897 0.0000 -0.8220 0.0000
# 2 -0.8061 84.0927 25.2604 0.0000 4.7023 0.0000
# 3 -2.9897 25.2604 95.4938 0.0000 19.6248 0.0000
# 4 0.0000 0.0000 0.0000 12.9232 0.0000 8.5505
# 5 -0.8220 4.7023 19.6248 0.0000 37.2513 0.0000
# 6 0.0000 0.0000 0.0000 8.5505 0.0000 17.9741
#
#
#
# Elastic Compliance Matrix: (Units=1/GPa)
#
#
# Indices 1 2 3 4 5 6 
#
# 1 0.015024 0.000004 0.000450 0.000000 0.000094 0.000000
# 2 0.000004 0.012919 -0.003456 0.000000 0.000190 0.000000
# 3 0.000450 -0.003456 0.012682 0.000000 -0.006235 0.000000
# 4 0.000000 0.000000 0.000000 0.112923 0.000000 -0.053719
# 5 0.000094 0.000190 -0.006235 0.000000 0.030107 0.000000
# 6 0.000000 0.000000 0.000000 -0.053719 0.000000 0.081190
#
#
# Mechanical properties :
#
#
# Convention : Reuss Voigt Hill
#
# Bulk Modulus (GPa) = 28.88578 32.13021 30.50799
# Shear Modulus (GPa) = 17.70598 28.61492 23.16045
#
# Velocity S-wave (km/s) = 2.70758 3.44205 3.09667
# Velocity P-wave (km/s) = 4.66203 5.39445 5.04156
#
# Compressibility (1/GPa) = 0.03461911
#
# Stress axis : x y z
#
# Youngs Moduli (GPa) = 66.56111 77.40351 78.85460
#
# Poissons Ratio (x) = -0.00027 -0.03549
# Poissons Ratio (y) = -0.00024 0.27256
# Poissons Ratio (z) = -0.02996 0.26754
#
# Static dielectric constant tensor:
#      x y z
#    x 1.944920 0.000000 0.014260 
#    y 0.000000 2.021710 0.000000 
#    z 0.014260 0.000000 1.972390 
# 
# From -- ./inp_files/13859.got.cif
#   From: 2010.05.17/outbox.cif.g08.bks.cpg/sg4_7_cif.got.tgz:13859.got - 2010.06.03 18:43:04.
