data_PCOD9119062
_publ_section_title
;
Structure prediction by ZEFSAII (Michael W. Deem and Ramdas Pophale) SiO2 
 PCOD9119062
Probable space group: P 21
;
_chemical_formula_sum "Si O2"
_cell_formula_units_Z 14
_cell_length_a 16.310694
_cell_length_b 4.930905
_cell_length_c 8.087948
_cell_angle_alpha 90.000000
_cell_angle_beta 128.125862
_cell_angle_gamma 90.000000
_cell_volume 511.708370
_symmetry_space_group_name_H-M "P 21"
_symmetry_group_IT_number 4
_symmetry_cell_setting 'monoclinic'
loop_
_space_group_symop_operation_xyz
x,y,z
-x,1/2+y,-z
loop_
_atom_site_type_symbol
_atom_site_label
_atom_site_fract_x
_atom_site_fract_y
_atom_site_fract_z
Si Si1 0.767263 0.430600 0.914302
Si Si2 0.876705 0.825284 0.817809
Si Si3 0.456908 0.173499 0.372415
Si Si4 0.976223 0.511600 0.698220
Si Si5 0.237756 0.692527 0.552511
Si Si6 0.534586 0.426132 0.136663
Si Si7 0.819153 0.927061 0.193495
O O1 0.804514 0.622752 0.112689
O O2 0.779300 0.128852 0.998335
O O3 0.829654 0.546416 0.833550
O O4 0.649393 0.512247 0.739033
O O5 0.942649 0.801271 0.729821
O O6 0.784276 0.021365 0.641762
O O7 0.956875 0.909021 0.060042
O O8 0.538677 0.930207 0.500191
O O9 0.472720 0.313377 0.216566
O O10 0.056979 0.488358 0.650312
O O11 0.865853 0.368407 0.540461
O O12 0.343071 0.867566 0.681877
O O13 0.241587 0.492511 0.715706
O O14 0.495105 0.234567 0.937818
#
# Coordination Sequence:
#
# PCOD9119062 Si02
#       7
#     2   2   2   2   2   2   2
#     4  11  25  47  71  99 147 190 243 296 370 425
#     4  11  24  43  70 103 144 189 236 298 356 445
#     4  12  25  44  75 108 143 187 252 310 366 431
#     4  11  25  42  70 100 147 184 235 293 361 436
#     4  12  28  44  75 107 146 195 245 297 370 430
#     4  12  28  51  75 107 151 195 248 309 367 433
#     4  11  27  45  70 102 144 194 239 293 358 448
#
# _framework density 27.359335000000002
#
# number of rings (size 3 to 8) (size 9 to 14) (size 15 to 20)
#    0.000    0.571    1.429    5.143   12.000    0.000 
#    0.000    0.000    0.000    0.000    0.000    0.000 
#    0.000    0.000    0.000    0.000    0.000    0.000 
#
# Total GULP energy -78517.287431 kJ/mol
# GULP energy per Si atom -5608.377674 kJ/mol
# Density = 2.729706 g / cm^3
# Si number density = 27.359335 Si / 1000 Ang^3
#
#
#
# Elastic Constant Matrix: (Units=GPa)
#
#
# Indices 1 2 3 4 5 6 
#
# 1 79.6068 1.7248 32.4396 0.0000 7.3919 0.0000
# 2 1.7248 72.3826 26.2120 0.0000 -8.3389 0.0000
# 3 32.4396 26.2120 100.4336 0.0000 -0.5059 0.0000
# 4 0.0000 0.0000 0.0000 56.1768 0.0000 3.6401
# 5 7.3919 -8.3389 -0.5059 0.0000 48.4033 0.0000
# 6 0.0000 0.0000 0.0000 3.6401 0.0000 31.9290
#
#
#
# Elastic Compliance Matrix: (Units=1/GPa)
#
#
# Indices 1 2 3 4 5 6 
#
# 1 0.014818 0.001261 -0.005126 0.000000 -0.002099 0.000000
# 2 0.001261 0.015696 -0.004491 0.000000 0.002465 0.000000
# 3 -0.005126 -0.004491 0.012785 0.000000 0.000143 0.000000
# 4 0.000000 0.000000 0.000000 0.017933 0.000000 -0.002045
# 5 -0.002099 0.002465 0.000143 0.000000 0.021406 0.000000
# 6 0.000000 0.000000 0.000000 -0.002045 0.000000 0.031553
#
#
# Mechanical properties :
#
#
# Convention : Reuss Voigt Hill
#
# Bulk Modulus (GPa) = 37.61196 41.46398 39.53797
# Shear Modulus (GPa) = 35.77398 40.10491 37.93945
#
# Velocity S-wave (km/s) = 3.61994 3.83281 3.72789
# Velocity P-wave (km/s) = 5.59010 5.89707 5.74564
#
# Compressibility (1/GPa) = 0.02658729
#
# Stress axis : x y z
#
# Youngs Moduli (GPa) = 67.48477 63.71117 78.21412
#
# Poissons Ratio (x) = -0.08036 0.40092
# Poissons Ratio (y) = -0.08512 0.35129
# Poissons Ratio (z) = 0.34592 0.28615
#
# Static dielectric constant tensor:
#      x y z
#    x 2.113580 0.000000 -0.006350 
#    y 0.000000 2.172580 0.000000 
#    z -0.006350 0.000000 2.187940 
# 
# From -- ./inp_files/9538.got.cif
#   From: 2010.05.17/outbox.cif.g08.bks.cpg/sg4_5_cif.got.tgz:9538.got - 2010.06.03 18:43:04.
