data_PCOD9119933
_publ_section_title
;
Structure prediction by ZEFSAII (Michael W. Deem and Ramdas Pophale) SiO2 
 PCOD9119933
Probable space group: C 2
;
_chemical_formula_sum "Si O2"
_cell_formula_units_Z 28
_cell_length_a 16.332874
_cell_length_b 9.515577
_cell_length_c 9.588416
_cell_angle_alpha 90.000000
_cell_angle_beta 118.431694
_cell_angle_gamma 90.000000
_cell_volume 1310.460180
_symmetry_space_group_name_H-M "C 2"
_symmetry_group_IT_number 5
_symmetry_cell_setting 'monoclinic'
loop_
_space_group_symop_operation_xyz
x,y,z
-x,y,-z
1/2+x,1/2+y,z
1/2-x,1/2+y,-z
loop_
_atom_site_type_symbol
_atom_site_label
_atom_site_fract_x
_atom_site_fract_y
_atom_site_fract_z
Si Si1 0.997810 0.777650 0.226098
Si Si2 0.777260 0.786492 0.390127
Si Si3 0.914045 0.537168 0.564110
Si Si4 0.144989 0.700947 0.099190
Si Si5 0.916738 0.014635 0.526424
Si Si6 0.900886 0.396636 0.860043
Si Si7 0.685205 0.792454 0.594023
O O1 0.004934 0.653624 0.348345
O O2 0.074444 0.738832 0.169515
O O3 0.032435 0.924994 0.313335
O O4 0.898488 0.772213 0.071938
O O5 0.827475 0.640588 0.460894
O O6 0.852061 0.899628 0.395781
O O7 0.684043 0.787976 0.223253
O O8 0.750951 0.848477 0.522155
O O9 0.915310 0.457389 0.714810
O O10 0.894399 0.407895 0.443286
O O11 0.134418 0.532279 0.081408
O O12 0.247578 0.749685 0.225482
O O13 0.000000 0.068974 0.500000
O O14 0.856036 0.150668 0.506985
O O15 0.000000 0.347993 0.000000
#
# Coordination Sequence:
#
# PCOD9119933 Si02
#       7
#     4   4   4   4   4   4   4
#     4   9  18  32  54  83 111 145 187 233 278 338
#     4  10  18  32  54  83 110 146 191 233 273 339
#     4   9  17  28  49  75 107 137 182 229 271 324
#     4  10  15  29  56  82 110 143 190 231 283 328
#     4  11  22  36  57  86 118 152 188 232 290 345
#     4  10  15  27  49  85 110 139 180 238 288 320
#     4  11  18  32  56  81 111 147 188 236 277 329
#
# _framework density 21.366540000000001
#
# number of rings (size 3 to 8) (size 9 to 14) (size 15 to 20)
#    0.000    2.000    8.571    0.857    0.000    0.000 
#    0.000    5.714    0.000    8.571    0.000    0.000 
#    0.000    0.000    0.000    0.000    0.000    0.000 
#
# Total GULP energy -77947.121183 kJ/mol
# GULP energy per Si atom -5567.651513 kJ/mol
# Density = 2.131791 g / cm^3
# Si number density = 21.366540 Si / 1000 Ang^3
#
#
#
# Elastic Constant Matrix: (Units=GPa)
#
#
# Indices 1 2 3 4 5 6 
#
# 1 31.3784 1.7483 15.5787 0.0000 15.1768 0.0000
# 2 1.7483 80.1736 43.1697 0.0000 12.2633 0.0000
# 3 15.5787 43.1697 157.0092 0.0000 46.2734 0.0000
# 4 0.0000 0.0000 0.0000 28.2357 0.0000 8.7759
# 5 15.1768 12.2633 46.2734 0.0000 26.2026 0.0000
# 6 0.0000 0.0000 0.0000 8.7759 0.0000 10.3124
#
#
#
# Elastic Compliance Matrix: (Units=1/GPa)
#
#
# Indices 1 2 3 4 5 6 
#
# 1 0.047968 0.001509 0.006719 0.000000 -0.040355 0.000000
# 2 0.001509 0.014691 -0.003973 0.000000 -0.000734 0.000000
# 3 0.006719 -0.003973 0.015419 0.000000 -0.029261 0.000000
# 4 0.000000 0.000000 0.000000 0.048153 0.000000 -0.040978
# 5 -0.040355 -0.000734 -0.029261 0.000000 0.113557 0.000000
# 6 0.000000 0.000000 0.000000 -0.040978 0.000000 0.131844
#
#
# Mechanical properties :
#
#
# Convention : Reuss Voigt Hill
#
# Bulk Modulus (GPa) = 11.54895 43.28383 27.41639
# Shear Modulus (GPa) = 12.75563 26.82109 19.78836
#
# Velocity S-wave (km/s) = 2.44599 3.54684 3.04655
# Velocity P-wave (km/s) = 3.65979 6.08894 5.02341
#
# Compressibility (1/GPa) = 0.08658797
#
# Stress axis : x y z
#
# Youngs Moduli (GPa) = 20.84735 68.06671 64.85678
#
# Poissons Ratio (x) = -0.10270 -0.43579
# Poissons Ratio (y) = -0.03145 0.25767
# Poissons Ratio (z) = -0.14008 0.27042
#
# Static dielectric constant tensor:
#      x y z
#    x 1.863750 0.000000 -0.021700 
#    y 0.000000 1.779980 0.000000 
#    z -0.021700 0.000000 1.803340 
# 
# From -- ./inp_files/46051.got.cif
#   From: 2010.05.17/outbox.cif.g08.bks.cpg/sg5_24_cif.got.tgz:46051.got - 2010.06.03 18:56:24.
