data_PCOD9119662
_publ_section_title
;
Structure prediction by ZEFSAII (Michael W. Deem and Ramdas Pophale) SiO2 
 PCOD9119662
Probable space group: P 21
;
_chemical_formula_sum "Si O2"
_cell_formula_units_Z 14
_cell_length_a 21.101440
_cell_length_b 7.253258
_cell_length_c 5.230315
_cell_angle_alpha 90.000000
_cell_angle_beta 130.243272
_cell_angle_gamma 90.000000
_cell_volume 611.044824
_symmetry_space_group_name_H-M "P 21"
_symmetry_group_IT_number 4
_symmetry_cell_setting 'monoclinic'
loop_
_space_group_symop_operation_xyz
x,y,z
-x,1/2+y,-z
loop_
_atom_site_type_symbol
_atom_site_label
_atom_site_fract_x
_atom_site_fract_y
_atom_site_fract_z
Si Si1 0.370996 0.864700 0.216375
Si Si2 0.935111 0.363970 0.598252
Si Si3 0.398931 0.543989 0.625318
Si Si4 0.908251 0.119552 0.029209
Si Si5 0.753714 0.864944 0.574477
Si Si6 0.483942 0.193330 0.710301
Si Si7 0.780123 0.626211 0.151893
O O1 0.349860 0.710126 0.370129
O O2 0.425848 0.749334 0.160352
O O3 0.435631 0.019475 0.478225
O O4 0.288217 0.974995 0.938637
O O5 0.928612 0.222063 0.346653
O O6 0.868247 0.525195 0.374979
O O7 0.025233 0.456983 0.841508
O O8 0.915375 0.261108 0.812012
O O9 0.339107 0.446839 0.673843
O O10 0.425369 0.368682 0.526273
O O11 0.487960 0.632286 0.933352
O O12 0.818244 0.026581 0.805203
O O13 0.777960 0.779273 0.366589
O O14 0.759049 0.715589 0.820487
#
# Coordination Sequence:
#
# PCOD9119662 Si02
#       7
#     2   2   2   2   2   2   2
#     4  12  27  44  69  99 141 189 245 303 368 427
#     4  12  25  47  77 109 147 188 237 291 361 428
#     4  12  27  44  69  99 141 189 245 303 368 427
#     4  12  25  47  77 109 147 188 237 291 361 428
#     4  12  28  47  72 105 146 188 241 297 360 429
#     4  12  26  44  68  98 138 188 246 302 366 430
#     4  12  28  47  72 105 146 188 241 297 360 429
#
# _framework density 22.911579
#
# number of rings (size 3 to 8) (size 9 to 14) (size 15 to 20)
#    0.000    0.000    4.286    5.143   10.000    0.000 
#    0.000    0.000    0.000    0.000    0.000    0.000 
#    0.000    0.000    0.000    0.000    0.000    0.000 
#
# Total GULP energy -78315.609024 kJ/mol
# GULP energy per Si atom -5593.972073 kJ/mol
# Density = 2.285943 g / cm^3
# Si number density = 22.911579 Si / 1000 Ang^3
#
#
#
# Elastic Constant Matrix: (Units=GPa)
#
#
# Indices 1 2 3 4 5 6 
#
# 1 65.5605 4.0478 2.4742 0.0000 13.0535 0.0000
# 2 4.0478 87.1336 14.3966 0.0000 -1.6237 0.0000
# 3 2.4742 14.3966 51.7651 0.0000 1.8359 0.0000
# 4 0.0000 0.0000 0.0000 54.1956 0.0000 2.8635
# 5 13.0535 -1.6237 1.8359 0.0000 34.5460 0.0000
# 6 0.0000 0.0000 0.0000 2.8635 0.0000 55.4893
#
#
#
# Elastic Compliance Matrix: (Units=1/GPa)
#
#
# Indices 1 2 3 4 5 6 
#
# 1 0.016568 -0.000831 -0.000338 0.000000 -0.006281 0.000000
# 2 -0.000831 0.012090 -0.003360 0.000000 0.001061 0.000000
# 3 -0.000338 -0.003360 0.020308 0.000000 -0.001109 0.000000
# 4 0.000000 0.000000 0.000000 0.018502 0.000000 -0.000955
# 5 -0.006281 0.001061 -0.001109 0.000000 0.031429 0.000000
# 6 0.000000 0.000000 0.000000 -0.000955 0.000000 0.018071
#
#
# Mechanical properties :
#
#
# Convention : Reuss Voigt Hill
#
# Bulk Modulus (GPa) = 25.05787 27.36626 26.21207
# Shear Modulus (GPa) = 35.88620 41.08221 38.48421
#
# Velocity S-wave (km/s) = 3.96193 4.23907 4.10284
# Velocity P-wave (km/s) = 5.64710 5.99415 5.82321
#
# Compressibility (1/GPa) = 0.03990762
#
# Stress axis : x y z
#
# Youngs Moduli (GPa) = 60.35801 82.71152 49.24138
#
# Poissons Ratio (x) = 0.06872 0.01664
# Poissons Ratio (y) = 0.05015 0.16547
# Poissons Ratio (z) = 0.02040 0.27794
#
# Static dielectric constant tensor:
#      x y z
#    x 1.848980 0.000000 -0.044700 
#    y 0.000000 1.818280 0.000000 
#    z -0.044700 0.000000 1.868550 
# 
# From -- ./inp_files/3327.got.cif
#   From: 2010.05.17/outbox.cif.g08.bks.cpg/sg4_2_cif.got.tgz:3327.got - 2010.06.03 18:43:04.
