data_PCOD9119360
_publ_section_title
;
Structure prediction by ZEFSAII (Michael W. Deem and Ramdas Pophale) SiO2 
 PCOD9119360
Probable space group: P 21
;
_chemical_formula_sum "Si O2"
_cell_formula_units_Z 16
_cell_length_a 17.952874
_cell_length_b 8.979175
_cell_length_c 8.610787
_cell_angle_alpha 90.000000
_cell_angle_beta 149.622581
_cell_angle_gamma 90.000000
_cell_volume 701.941455
_symmetry_space_group_name_H-M "P 21"
_symmetry_group_IT_number 4
_symmetry_cell_setting 'monoclinic'
loop_
_space_group_symop_operation_xyz
x,y,z
-x,1/2+y,-z
loop_
_atom_site_type_symbol
_atom_site_label
_atom_site_fract_x
_atom_site_fract_y
_atom_site_fract_z
Si Si1 0.194459 0.093730 0.229409
Si Si2 0.350341 0.394050 0.581752
Si Si3 0.336400 0.568984 0.244980
Si Si4 0.439321 0.276806 0.255057
Si Si5 0.845067 0.101369 0.583377
Si Si6 0.626182 0.354425 0.287115
Si Si7 0.806624 0.557912 0.127477
Si Si8 0.898051 0.225183 0.345794
O O1 0.260706 0.257874 0.348302
O O2 0.288179 0.007146 0.526514
O O3 0.018019 0.090557 0.938200
O O4 0.224897 0.028362 0.112031
O O5 0.359516 0.514038 0.461370
O O6 0.247807 0.457394 0.535540
O O7 0.511304 0.356847 0.938221
O O8 0.366279 0.425505 0.192457
O O9 0.448528 0.705449 0.416980
O O10 0.178845 0.643521 0.936414
O O11 0.527294 0.319025 0.259487
O O12 0.327453 0.139447 0.029998
O O13 0.756018 0.235400 0.501991
O O14 0.839490 0.139257 0.391844
O O15 0.861755 0.399802 0.291151
O O16 0.931641 0.684862 0.354114
#
# Coordination Sequence:
#
# PCOD9119360 Si02
#       8
#     2   2   2   2   2   2   2   2
#     4  11  25  49  73 105 149 193 253 307 371 456
#     4  12  26  46  69 108 148 191 251 301 381 450
#     4  12  25  44  71 104 143 194 243 313 368 449
#     4  12  25  44  72 105 146 191 246 309 379 443
#     4  11  26  47  73 105 144 196 243 315 379 443
#     4  12  26  46  71 109 145 193 246 307 380 449
#     4  11  25  47  75 112 140 200 250 313 378 446
#     4  11  26  47  76 104 149 190 258 311 374 458
#
# _framework density 22.793924000000001
#
# number of rings (size 3 to 8) (size 9 to 14) (size 15 to 20)
#    0.000    0.500    2.500    5.250    5.250    1.000 
#    2.250    0.000    0.000    0.000    0.000    0.000 
#    0.000    0.000    0.000    0.000    0.000    0.000 
#
# Total GULP energy -89520.580078 kJ/mol
# GULP energy per Si atom -5595.036255 kJ/mol
# Density = 2.274204 g / cm^3
# Si number density = 22.793924 Si / 1000 Ang^3
#
#
#
# Elastic Constant Matrix: (Units=GPa)
#
#
# Indices 1 2 3 4 5 6 
#
# 1 77.1929 8.0317 24.8083 0.0000 14.4652 0.0000
# 2 8.0317 63.1516 28.2760 0.0000 -1.3518 0.0000
# 3 24.8083 28.2760 79.3720 0.0000 8.6232 0.0000
# 4 0.0000 0.0000 0.0000 46.2543 0.0000 1.9045
# 5 14.4652 -1.3518 8.6232 0.0000 23.1589 0.0000
# 6 0.0000 0.0000 0.0000 1.9045 0.0000 30.5711
#
#
#
# Elastic Compliance Matrix: (Units=1/GPa)
#
#
# Indices 1 2 3 4 5 6 
#
# 1 0.015833 -0.000466 -0.003861 0.000000 -0.008479 0.000000
# 2 -0.000466 0.019172 -0.007126 0.000000 0.004063 0.000000
# 3 -0.003861 -0.007126 0.016807 0.000000 -0.004262 0.000000
# 4 0.000000 0.000000 0.000000 0.021675 0.000000 -0.001350
# 5 -0.008479 0.004063 -0.004262 0.000000 0.050300 0.000000
# 6 0.000000 0.000000 0.000000 -0.001350 0.000000 0.032795
#
#
# Mechanical properties :
#
#
# Convention : Reuss Voigt Hill
#
# Bulk Modulus (GPa) = 34.59556 37.99427 36.29491
# Shear Modulus (GPa) = 26.43778 30.57025 28.50402
#
# Velocity S-wave (km/s) = 3.40937 3.66616 3.54009
# Velocity P-wave (km/s) = 5.54156 5.88436 5.71553
#
# Compressibility (1/GPa) = 0.02890545
#
# Stress axis : x y z
#
# Youngs Moduli (GPa) = 63.15974 52.16043 59.49778
#
# Poissons Ratio (x) = 0.02432 0.22975
# Poissons Ratio (y) = 0.02944 0.42396
# Poissons Ratio (z) = 0.24389 0.37167
#
# Static dielectric constant tensor:
#      x y z
#    x 1.856770 0.000000 0.017720 
#    y 0.000000 1.856330 0.000000 
#    z 0.017720 0.000000 1.869410 
# 
# From -- ./inp_files/5606.got.cif
#   From: 2010.05.17/outbox.cif.g08.bks.cpg/sg4_3_cif.got.tgz:5606.got - 2010.06.03 18:43:04.
