data_PCOD9119490
_publ_section_title
;
Structure prediction by ZEFSAII (Michael W. Deem and Ramdas Pophale) SiO2 
 PCOD9119490
Probable space group: P 21
;
_chemical_formula_sum "Si O2"
_cell_formula_units_Z 14
_cell_length_a 13.094587
_cell_length_b 5.928383
_cell_length_c 9.588726
_cell_angle_alpha 90.000000
_cell_angle_beta 131.204935
_cell_angle_gamma 90.000000
_cell_volume 560.032989
_symmetry_space_group_name_H-M "P 21"
_symmetry_group_IT_number 4
_symmetry_cell_setting 'monoclinic'
loop_
_space_group_symop_operation_xyz
x,y,z
-x,1/2+y,-z
loop_
_atom_site_type_symbol
_atom_site_label
_atom_site_fract_x
_atom_site_fract_y
_atom_site_fract_z
Si Si1 0.437738 0.594390 0.930964
Si Si2 0.082118 0.672966 0.423674
Si Si3 0.230580 0.150663 0.221110
Si Si4 0.274112 0.841464 0.018873
Si Si5 0.704467 0.868269 0.448793
Si Si6 0.057332 0.508803 0.906912
Si Si7 0.180062 0.033883 0.678346
O O1 0.401759 0.510060 0.737767
O O2 0.504571 0.351348 0.037363
O O3 0.353705 0.652641 0.001341
O O4 0.168660 0.527139 0.395345
O O5 0.977829 0.544911 0.426962
O O6 0.193278 0.788533 0.622612
O O7 0.995046 0.856753 0.266398
O O8 0.320163 0.221837 0.435960
O O9 0.082541 0.051980 0.135457
O O10 0.306136 0.965708 0.192810
O O11 0.178117 0.372356 0.091475
O O12 0.124620 0.736466 0.911126
O O13 0.258641 0.043105 0.892777
O O14 0.768911 0.709400 0.387008
#
# Coordination Sequence:
#
# PCOD9119490 Si02
#       7
#     2   2   2   2   2   2   2
#     4  12  30  56  86 112 148 206 293 369 412 453
#     4  12  21  34  63 107 159 203 252 303 376 490
#     4  12  25  41  72 117 167 209 245 300 407 507
#     4  12  26  46  76 109 154 215 257 323 401 481
#     4  12  26  43  73 112 150 199 263 342 399 475
#     4  12  23  40  65 111 172 206 236 291 390 512
#     4  12  21  38  65 108 154 202 256 304 381 490
#
# _framework density 24.998529999999999
#
# number of rings (size 3 to 8) (size 9 to 14) (size 15 to 20)
#    0.000    0.000    7.143    4.286    2.000    0.000 
#    0.000    0.000    3.143    0.000    0.000    0.000 
#    0.000    0.000    0.000    0.000    0.000    0.000 
#
# Total GULP energy -78025.512990 kJ/mol
# GULP energy per Si atom -5573.250928 kJ/mol
# Density = 2.494163 g / cm^3
# Si number density = 24.998530 Si / 1000 Ang^3
#
#
#
# Elastic Constant Matrix: (Units=GPa)
#
#
# Indices 1 2 3 4 5 6 
#
# 1 79.6857 44.0874 36.7744 0.0000 -21.6214 0.0000
# 2 44.0874 101.2160 59.2641 0.0000 -14.1408 0.0000
# 3 36.7744 59.2641 148.3745 0.0000 -30.3771 0.0000
# 4 0.0000 0.0000 0.0000 48.9014 0.0000 -4.9831
# 5 -21.6214 -14.1408 -30.3771 0.0000 26.5175 0.0000
# 6 0.0000 0.0000 0.0000 -4.9831 0.0000 55.5047
#
#
#
# Elastic Compliance Matrix: (Units=1/GPa)
#
#
# Indices 1 2 3 4 5 6 
#
# 1 0.019744 -0.007149 0.000624 0.000000 0.013001 0.000000
# 2 -0.007149 0.015517 -0.005128 0.000000 -0.003429 0.000000
# 3 0.000624 -0.005128 0.010683 0.000000 0.010012 0.000000
# 4 0.000000 0.000000 0.000000 0.020638 0.000000 0.001853
# 5 0.013001 -0.003429 0.010012 0.000000 0.057952 0.000000
# 6 0.000000 0.000000 0.000000 0.001853 0.000000 0.018183
#
#
# Mechanical properties :
#
#
# Convention : Reuss Voigt Hill
#
# Bulk Modulus (GPa) = 44.17357 67.72533 55.94945
# Shear Modulus (GPa) = 28.80663 38.79472 33.80068
#
# Velocity S-wave (km/s) = 3.39829 3.94366 3.68109
# Velocity P-wave (km/s) = 5.75384 6.92006 6.36372
#
# Compressibility (1/GPa) = 0.02263797
#
# Stress axis : x y z
#
# Youngs Moduli (GPa) = 50.64733 64.44393 93.60493
#
# Poissons Ratio (x) = 0.46071 -0.05837
# Poissons Ratio (y) = 0.36208 0.48001
# Poissons Ratio (z) = -0.03158 0.33047
#
# Static dielectric constant tensor:
#      x y z
#    x 2.122430 0.000000 0.103760 
#    y 0.000000 2.033140 0.000000 
#    z 0.103760 0.000000 2.052920 
# 
# From -- ./inp_files/8904.got.cif
#   From: 2010.05.17/outbox.cif.g08.bks.cpg/sg4_5_cif.got.tgz:8904.got - 2010.06.03 18:43:04.
