data_PCOD9119291
_publ_section_title
;
Structure prediction by ZEFSAII (Michael W. Deem and Ramdas Pophale) SiO2 
 PCOD9119291
Probable space group: P 21
;
_chemical_formula_sum "Si O2"
_cell_formula_units_Z 14
_cell_length_a 9.443503
_cell_length_b 12.406199
_cell_length_c 4.825987
_cell_angle_alpha 90.000000
_cell_angle_beta 78.953749
_cell_angle_gamma 90.000000
_cell_volume 554.927565
_symmetry_space_group_name_H-M "P 21"
_symmetry_group_IT_number 4
_symmetry_cell_setting 'monoclinic'
loop_
_space_group_symop_operation_xyz
x,y,z
-x,1/2+y,-z
loop_
_atom_site_type_symbol
_atom_site_label
_atom_site_fract_x
_atom_site_fract_y
_atom_site_fract_z
Si Si1 0.002057 0.924940 0.124625
Si Si2 0.818071 0.982682 0.699359
Si Si3 0.362207 0.138066 0.739678
Si Si4 0.831581 0.631030 0.727214
Si Si5 0.120006 0.727228 0.383348
Si Si6 0.497888 0.932962 0.994306
Si Si7 0.594141 0.309835 0.464494
O O1 0.861969 0.949614 0.371655
O O2 0.068916 0.810262 0.169851
O O3 0.949848 0.939440 0.833654
O O4 0.116021 0.017911 0.162358
O O5 0.665829 0.938444 0.856563
O O6 0.818014 0.112004 0.737538
O O7 0.261038 0.112748 0.515228
O O8 0.491361 0.211358 0.584739
O O9 0.426616 0.039366 0.891712
O O10 0.259913 0.193658 0.007147
O O11 0.975600 0.694687 0.599183
O O12 0.243193 0.783787 0.516901
O O13 0.426093 0.835869 0.848750
O O14 0.463997 0.909993 0.327082
#
# Coordination Sequence:
#
# PCOD9119291 Si02
#       7
#     2   2   2   2   2   2   2
#     4  11  25  44  73 102 145 190 243 292 372 424
#     4  11  26  47  69 111 144 190 237 313 358 434
#     4  12  25  49  71 109 144 189 243 307 357 440
#     4  11  26  45  75 107 148 189 244 303 359 435
#     4  11  26  50  74 109 148 195 244 303 373 438
#     4  12  26  48  75 106 150 187 254 299 368 436
#     4  12  28  45  77 106 143 200 239 299 377 431
#
# _framework density 25.228517
#
# number of rings (size 3 to 8) (size 9 to 14) (size 15 to 20)
#    0.000    0.571    1.429    6.000    6.000    6.857 
#    0.000    0.000    0.000    0.000    0.000    0.000 
#    0.000    0.000    0.000    0.000    0.000    0.000 
#
# Total GULP energy -78613.549897 kJ/mol
# GULP energy per Si atom -5615.253564 kJ/mol
# Density = 2.517110 g / cm^3
# Si number density = 25.228517 Si / 1000 Ang^3
#
#
#
# Elastic Constant Matrix: (Units=GPa)
#
#
# Indices 1 2 3 4 5 6 
#
# 1 124.4502 14.2773 5.4101 0.0000 -1.1867 0.0000
# 2 14.2773 89.4376 -10.1542 0.0000 0.9728 0.0000
# 3 5.4101 -10.1542 70.1867 0.0000 3.8167 0.0000
# 4 0.0000 0.0000 0.0000 19.8236 0.0000 1.5982
# 5 -1.1867 0.9728 3.8167 0.0000 41.8371 0.0000
# 6 0.0000 0.0000 0.0000 1.5982 0.0000 27.3220
#
#
#
# Elastic Compliance Matrix: (Units=1/GPa)
#
#
# Indices 1 2 3 4 5 6 
#
# 1 0.008238 -0.001416 -0.000859 0.000000 0.000345 0.000000
# 2 -0.001416 0.011618 0.001816 0.000000 -0.000476 0.000000
# 3 -0.000859 0.001816 0.014653 0.000000 -0.001403 0.000000
# 4 0.000000 0.000000 0.000000 0.050684 0.000000 -0.002965
# 5 0.000345 -0.000476 -0.001403 0.000000 0.024051 0.000000
# 6 0.000000 0.000000 0.000000 -0.002965 0.000000 0.036774
#
#
# Mechanical properties :
#
#
# Convention : Reuss Voigt Hill
#
# Bulk Modulus (GPa) = 29.76941 33.68233 31.72587
# Shear Modulus (GPa) = 31.61869 36.09929 33.85899
#
# Velocity S-wave (km/s) = 3.54403 3.78682 3.66743
# Velocity P-wave (km/s) = 5.34531 5.70087 5.52595
#
# Compressibility (1/GPa) = 0.03359153
#
# Stress axis : x y z
#
# Youngs Moduli (GPa) = 121.38205 86.07019 68.24567
#
# Poissons Ratio (x) = 0.12191 0.05860
# Poissons Ratio (y) = 0.17192 -0.12393
# Poissons Ratio (z) = 0.10423 -0.15630
#
# Static dielectric constant tensor:
#      x y z
#    x 1.933910 0.000000 -0.047140 
#    y 0.000000 2.022390 0.000000 
#    z -0.047140 0.000000 1.935700 
# 
# From -- ./inp_files/1382.got.cif
#   From: 2010.05.17/outbox.cif.g08.bks.cpg/sg4_1_cif.got.tgz:1382.got - 2010.06.03 18:43:04.
