data_PCOD9119947
_publ_section_title
;
Structure prediction by ZEFSAII (Michael W. Deem and Ramdas Pophale) SiO2 
 PCOD9119947
Probable space group: C 2
;
_chemical_formula_sum "Si O2"
_cell_formula_units_Z 24
_cell_length_a 11.664958
_cell_length_b 25.288180
_cell_length_c 8.129848
_cell_angle_alpha 90.000000
_cell_angle_beta 158.211312
_cell_angle_gamma 90.000000
_cell_volume 890.170157
_symmetry_space_group_name_H-M "C 2"
_symmetry_group_IT_number 5
_symmetry_cell_setting 'monoclinic'
loop_
_space_group_symop_operation_xyz
x,y,z
-x,y,-z
1/2+x,1/2+y,z
1/2-x,1/2+y,-z
loop_
_atom_site_type_symbol
_atom_site_label
_atom_site_fract_x
_atom_site_fract_y
_atom_site_fract_z
Si Si1 0.773047 0.665060 0.039236
Si Si2 0.228453 0.546911 0.962871
Si Si3 0.848899 0.371733 0.623773
Si Si4 0.359504 0.317374 0.126032
Si Si5 0.770709 0.990261 0.539742
Si Si6 0.737231 0.721945 0.469720
O O1 0.642852 0.606241 0.861842
O O2 0.000000 0.669693 0.500000
O O3 0.021163 0.674268 0.227073
O O4 0.502295 0.708621 0.702922
O O5 0.000000 0.545218 0.500000
O O6 0.993311 0.533750 0.794147
O O7 0.497545 0.504079 0.298626
O O8 0.489867 0.365877 0.190736
O O9 0.897408 0.433801 0.669123
O O10 0.000000 0.356423 0.000000
O O11 0.007714 0.332843 0.702951
O O12 0.500000 0.312315 0.500000
O O13 0.522319 0.270257 0.239065
O O14 0.000000 0.992725 0.000000
O O15 0.500000 0.725519 0.000000
#
# Coordination Sequence:
#
# PCOD9119947 Si02
#       6
#     4   4   4   4   4   4
#     4   9  16  24  38  61  90 121 150 182 225 281
#     4   9  17  29  44  65  93 124 154 189 235 279
#     4  10  20  32  47  67  94 126 159 196 235 275
#     4  10  18  29  43  63  93 127 156 188 235 281
#     4  10  19  32  49  67  92 126 160 194 233 277
#     4  10  16  24  39  61  90 124 153 179 223 285
#
# _framework density 26.961138999999999
#
# number of rings (size 3 to 8) (size 9 to 14) (size 15 to 20)
#    0.000    2.333    0.000    6.000    0.000    4.000 
#    0.000    0.000    0.000    0.000    0.000    0.000 
#    0.000   20.000    0.000   13.667    0.000    0.000 
#
# Total GULP energy -66953.496328 kJ/mol
# GULP energy per Si atom -5579.458027 kJ/mol
# Density = 2.689977 g / cm^3
# Si number density = 26.961139 Si / 1000 Ang^3
#
#
#
# Elastic Constant Matrix: (Units=GPa)
#
#
# Indices 1 2 3 4 5 6 
#
# 1 99.3024 20.0760 78.4421 -0.0001 37.4830 0.0001
# 2 20.0760 137.4350 37.0867 0.0000 44.7188 0.0001
# 3 78.4421 37.0867 128.9780 -0.0015 22.1840 0.0005
# 4 -0.0001 0.0000 -0.0015 41.0376 -0.0003 28.1986
# 5 37.4830 44.7188 22.1840 -0.0003 81.8566 0.0002
# 6 0.0001 0.0001 0.0005 28.1986 0.0002 -5.2558
#
#
#
# Elastic Compliance Matrix: (Units=1/GPa)
#
#
# Indices 1 2 3 4 5 6 
#
# 1 0.023621 0.003122 -0.013751 0.000000 -0.008795 -0.000001
# 2 0.003122 0.009677 -0.003699 0.000000 -0.005714 0.000000
# 3 -0.013751 -0.003699 0.016519 0.000000 0.003840 0.000001
# 4 0.000000 0.000000 0.000000 0.005199 0.000000 0.027896
# 5 -0.008795 -0.005714 0.003840 0.000000 0.018325 0.000000
# 6 -0.000001 0.000000 0.000001 0.027896 0.000000 -0.040597
#
#
# Mechanical properties :
#
#
# Convention : Reuss Voigt Hill
#
# Bulk Modulus (GPa) = 47.25242 70.76944 59.01093
# Shear Modulus (GPa) = 73.04114 38.86839 55.95477
#
# Velocity S-wave (km/s) = 5.21057 3.80102 4.56058
# Velocity P-wave (km/s) = 7.33241 6.75051 7.04747
#
# Compressibility (1/GPa) = 0.02116294
#
# Stress axis : x y z
#
# Youngs Moduli (GPa) = 42.33465 103.33302 60.53517
#
# Poissons Ratio (x) = -0.32261 0.83242
# Poissons Ratio (y) = -0.13217 0.22390
# Poissons Ratio (z) = 0.58214 0.38219
#
# Static dielectric constant tensor:
#      x y z
#    x 2.119430 0.000000 -0.117610 
#    y 0.000000 2.100490 0.000000 
#    z -0.117610 0.000000 2.130420 
# 
# From -- ./inp_files/5750.got.cif
#   From: 2010.05.17/outbox.cif.g08.bks.cpg/sg5_3_cif.got.tgz:5750.got - 2010.06.03 18:56:24.
