data_PCOD9119422
_publ_section_title
;
Structure prediction by ZEFSAII (Michael W. Deem and Ramdas Pophale) SiO2 
 PCOD9119422
Probable space group: P 21
;
_chemical_formula_sum "Si O2"
_cell_formula_units_Z 16
_cell_length_a 12.972688
_cell_length_b 9.397291
_cell_length_c 5.539318
_cell_angle_alpha 90.000000
_cell_angle_beta 112.173138
_cell_angle_gamma 90.000000
_cell_volume 625.348726
_symmetry_space_group_name_H-M "P 21"
_symmetry_group_IT_number 4
_symmetry_cell_setting 'monoclinic'
loop_
_space_group_symop_operation_xyz
x,y,z
-x,1/2+y,-z
loop_
_atom_site_type_symbol
_atom_site_label
_atom_site_fract_x
_atom_site_fract_y
_atom_site_fract_z
Si Si1 0.700093 0.419350 0.658983
Si Si2 0.260531 0.508617 0.077357
Si Si3 0.780028 0.159733 0.451710
Si Si4 0.031391 0.085222 0.753772
Si Si5 0.410489 0.030133 0.034462
Si Si6 0.525360 0.827036 0.775984
Si Si7 0.774570 0.666010 0.435890
Si Si8 0.080902 0.339227 0.135860
O O1 0.763203 0.322146 0.521176
O O2 0.686240 0.432130 0.932295
O O3 0.570427 0.388440 0.483084
O O4 0.750381 0.573233 0.649588
O O5 0.264684 0.592676 0.334136
O O6 0.353327 0.386939 0.172650
O O7 0.140105 0.432354 0.981191
O O8 0.273081 0.603498 0.845858
O O9 0.910326 0.124995 0.542802
O O10 0.127715 0.109896 0.648622
O O11 0.044524 0.192035 0.990105
O O12 0.020596 0.925077 0.840628
O O13 0.476129 0.155048 0.235517
O O14 0.342344 0.139720 0.800139
O O15 0.490460 0.913703 0.986737
O O16 0.823692 0.813688 0.576809
#
# Coordination Sequence:
#
# PCOD9119422 Si02
#       8
#     2   2   2   2   2   2   2   2
#     4  11  27  45  73 115 155 205 257 339 387 482
#     4  11  27  50  77 112 153 206 259 328 389 482
#     4  11  29  47  78 114 159 196 265 326 397 466
#     4  11  28  44  81 104 156 202 263 321 403 468
#     4  11  27  47  76 112 157 206 270 329 401 480
#     4  11  26  45  78 105 156 205 265 320 407 462
#     4  11  26  46  74 109 152 205 260 326 400 480
#     4  11  28  48  73 115 148 209 265 329 396 482
#
# _framework density 25.585723000000002
#
# number of rings (size 3 to 8) (size 9 to 14) (size 15 to 20)
#    0.000    1.000    0.000    3.000   24.500    1.000 
#    0.000    0.000    0.000    0.000    0.000    0.000 
#    0.000    0.000    0.000    0.000    0.000    0.000 
#
# Total GULP energy -89330.821660 kJ/mol
# GULP energy per Si atom -5583.176354 kJ/mol
# Density = 2.552749 g / cm^3
# Si number density = 25.585723 Si / 1000 Ang^3
#
#
#
# Elastic Constant Matrix: (Units=GPa)
#
#
# Indices 1 2 3 4 5 6 
#
# 1 94.2870 15.7261 18.2834 0.0000 -17.3105 0.0000
# 2 15.7261 88.0215 39.4315 0.0000 -8.0490 0.0000
# 3 18.2834 39.4315 61.7787 0.0000 -12.0255 0.0000
# 4 0.0000 0.0000 0.0000 32.4883 0.0000 -0.2642
# 5 -17.3105 -8.0490 -12.0255 0.0000 29.2354 0.0000
# 6 0.0000 0.0000 0.0000 -0.2642 0.0000 43.5867
#
#
#
# Elastic Compliance Matrix: (Units=1/GPa)
#
#
# Indices 1 2 3 4 5 6 
#
# 1 0.012254 -0.000754 -0.001928 0.000000 0.006255 0.000000
# 2 -0.000754 0.015958 -0.009994 0.000000 -0.000164 0.000000
# 3 -0.001928 -0.009994 0.024326 0.000000 0.006113 0.000000
# 4 0.000000 0.000000 0.000000 0.030782 0.000000 0.000187
# 5 0.006255 -0.000164 0.006113 0.000000 0.040378 0.000000
# 6 0.000000 0.000000 0.000000 0.000187 0.000000 0.022944
#
#
# Mechanical properties :
#
#
# Convention : Reuss Voigt Hill
#
# Bulk Modulus (GPa) = 36.78305 43.44101 40.11203
# Shear Modulus (GPa) = 27.61588 32.43851 30.02719
#
# Velocity S-wave (km/s) = 3.28891 3.56453 3.42949
# Velocity P-wave (km/s) = 5.36937 5.82723 5.60298
#
# Compressibility (1/GPa) = 0.02718643
#
# Stress axis : x y z
#
# Youngs Moduli (GPa) = 81.60695 62.66584 41.10782
#
# Poissons Ratio (x) = 0.04723 0.07925
# Poissons Ratio (y) = 0.06150 0.41084
# Poissons Ratio (z) = 0.15733 0.62629
#
# Static dielectric constant tensor:
#      x y z
#    x 1.998180 0.000000 0.030070 
#    y 0.000000 2.080300 0.000000 
#    z 0.030070 0.000000 2.149870 
# 
# From -- ./inp_files/3726.got.cif
#   From: 2010.05.17/outbox.cif.g08.bks.cpg/sg4_2_cif.got.tgz:3726.got - 2010.06.03 18:43:04.
