data_PCOD9119240
_publ_section_title
;
Structure prediction by ZEFSAII (Michael W. Deem and Ramdas Pophale) SiO2 
 PCOD9119240
Probable space group: P 21
;
_chemical_formula_sum "Si O2"
_cell_formula_units_Z 14
_cell_length_a 9.210561
_cell_length_b 8.866145
_cell_length_c 8.551014
_cell_angle_alpha 90.000000
_cell_angle_beta 129.178545
_cell_angle_gamma 90.000000
_cell_volume 541.304588
_symmetry_space_group_name_H-M "P 21"
_symmetry_group_IT_number 4
_symmetry_cell_setting 'monoclinic'
loop_
_space_group_symop_operation_xyz
x,y,z
-x,1/2+y,-z
loop_
_atom_site_type_symbol
_atom_site_label
_atom_site_fract_x
_atom_site_fract_y
_atom_site_fract_z
Si Si1 0.229459 0.917860 0.495899
Si Si2 0.719504 0.617388 0.780212
Si Si3 0.328948 0.604539 0.627713
Si Si4 0.366150 0.192262 0.768050
Si Si5 0.143712 0.311308 0.881251
Si Si6 0.848370 0.853100 0.651102
Si Si7 0.785629 0.145268 0.088116
O O1 0.360533 0.776304 0.598641
O O2 0.026578 0.839382 0.354042
O O3 0.241840 0.008245 0.341078
O O4 0.278520 0.027735 0.672685
O O5 0.540637 0.546047 0.745422
O O6 0.714079 0.780518 0.689695
O O7 0.875465 0.671324 0.012187
O O8 0.186318 0.527373 0.408130
O O9 0.252125 0.607067 0.752841
O O10 0.326228 0.259897 0.910014
O O11 0.244882 0.292296 0.570681
O O12 0.585781 0.193812 0.885359
O O13 0.167629 0.483220 0.959018
O O14 0.051398 0.772373 0.810828
#
# Coordination Sequence:
#
# PCOD9119240 Si02
#       7
#     2   2   2   2   2   2   2
#     4  11  27  48  77 113 159 207 259 326 399 476
#     4  11  25  51  73 113 156 205 259 320 399 462
#     4  12  25  47  78 113 157 208 261 323 394 473
#     4  11  24  48  79 110 155 198 266 325 394 467
#     4  12  24  48  76 114 157 200 267 326 389 470
#     4  11  26  51  77 114 157 205 262 323 398 467
#     4  12  25  47  80 119 155 205 268 331 387 475
#
# _framework density 25.863441000000002
#
# number of rings (size 3 to 8) (size 9 to 14) (size 15 to 20)
#    0.000    0.571    5.714    2.571    0.000    2.286 
#   10.286    1.429    0.000    0.000    0.000    0.000 
#    0.000    0.000    0.000    0.000    0.000    0.000 
#
# Total GULP energy -78104.172427 kJ/mol
# GULP energy per Si atom -5578.869459 kJ/mol
# Density = 2.580457 g / cm^3
# Si number density = 25.863441 Si / 1000 Ang^3
#
#
#
# Elastic Constant Matrix: (Units=GPa)
#
#
# Indices 1 2 3 4 5 6 
#
# 1 90.9777 17.0289 12.6078 0.0000 13.7848 0.0000
# 2 17.0289 128.8856 35.4752 0.0000 1.5316 0.0000
# 3 12.6078 35.4752 91.1694 0.0000 21.2382 0.0000
# 4 0.0000 0.0000 0.0000 33.6049 0.0000 2.9826
# 5 13.7848 1.5316 21.2382 0.0000 19.3501 0.0000
# 6 0.0000 0.0000 0.0000 2.9826 0.0000 22.1610
#
#
#
# Elastic Compliance Matrix: (Units=1/GPa)
#
#
# Indices 1 2 3 4 5 6 
#
# 1 0.012751 -0.001959 0.001449 0.000000 -0.010520 0.000000
# 2 -0.001959 0.009235 -0.004672 0.000000 0.005792 0.000000
# 3 0.001449 -0.004672 0.017117 0.000000 -0.019450 0.000000
# 4 0.000000 0.000000 0.000000 0.030117 0.000000 -0.004053
# 5 -0.010520 0.005792 -0.019450 0.000000 0.080063 0.000000
# 6 0.000000 0.000000 0.000000 -0.004053 0.000000 0.045670
#
#
# Mechanical properties :
#
#
# Convention : Reuss Voigt Hill
#
# Bulk Modulus (GPa) = 34.79366 49.02851 41.91108
# Shear Modulus (GPa) = 23.26713 31.41791 27.34252
#
# Velocity S-wave (km/s) = 3.00261 3.48912 3.25497
# Velocity P-wave (km/s) = 5.05004 5.93547 5.51057
#
# Compressibility (1/GPa) = 0.02874087
#
# Stress axis : x y z
#
# Youngs Moduli (GPa) = 78.42279 108.28769 58.42168
#
# Poissons Ratio (x) = 0.21210 -0.08467
# Poissons Ratio (y) = 0.15361 0.27293
# Poissons Ratio (z) = -0.11366 0.50589
#
# Static dielectric constant tensor:
#      x y z
#    x 2.072970 0.000000 -0.022610 
#    y 0.000000 2.232570 0.000000 
#    z -0.022610 0.000000 2.134420 
# 
# From -- ./inp_files/5839.got.cif
#   From: 2010.05.17/outbox.cif.g08.bks.cpg/sg4_3_cif.got.tgz:5839.got - 2010.06.03 18:43:04.
