data_PCOD9119224
_publ_section_title
;
Structure prediction by ZEFSAII (Michael W. Deem and Ramdas Pophale) SiO2 
 PCOD9119224
Probable space group: P 21
;
_chemical_formula_sum "Si O2"
_cell_formula_units_Z 16
_cell_length_a 11.410945
_cell_length_b 8.633512
_cell_length_c 9.063138
_cell_angle_alpha 90.000000
_cell_angle_beta 137.268486
_cell_angle_gamma 90.000000
_cell_volume 605.868510
_symmetry_space_group_name_H-M "P 21"
_symmetry_group_IT_number 4
_symmetry_cell_setting 'monoclinic'
loop_
_space_group_symop_operation_xyz
x,y,z
-x,1/2+y,-z
loop_
_atom_site_type_symbol
_atom_site_label
_atom_site_fract_x
_atom_site_fract_y
_atom_site_fract_z
Si Si1 0.784314 0.320900 0.532614
Si Si2 0.872950 0.591157 0.394232
Si Si3 0.799760 0.129034 0.123429
Si Si4 0.319295 0.055183 0.063944
Si Si5 0.738838 0.986372 0.609386
Si Si6 0.559948 0.810359 0.207006
Si Si7 0.395186 0.395771 0.216270
Si Si8 0.903179 0.344789 0.966860
O O1 0.858851 0.429699 0.472473
O O2 0.596715 0.401009 0.371946
O O3 0.897183 0.333184 0.786178
O O4 0.746039 0.135858 0.509586
O O5 0.845048 0.560785 0.196403
O O6 0.718855 0.716800 0.280747
O O7 0.061406 0.647619 0.619299
O O8 0.617293 0.216093 0.976421
O O9 0.894127 0.193976 0.063145
O O10 0.730311 0.958282 0.027817
O O11 0.354060 0.214061 0.179298
O O12 0.474460 0.983636 0.106609
O O13 0.268957 0.934594 0.143657
O O14 0.643745 0.842952 0.443620
O O15 0.640797 0.001323 0.674255
O O16 0.928647 0.936182 0.830255
#
# Coordination Sequence:
#
# PCOD9119224 Si02
#       8
#     2   2   2   2   2   2   2   2
#     4  12  27  47  78 112 148 203 258 322 392 463
#     4  12  28  51  77 111 157 206 256 317 395 471
#     4  11  24  48  72 110 149 203 253 317 379 460
#     4  11  29  48  75 114 156 206 259 316 389 467
#     4  12  26  46  78 114 150 201 258 327 390 454
#     4  11  25  48  75 108 155 199 259 313 380 462
#     4  12  25  44  74 113 153 198 256 319 386 457
#     4  11  26  48  73 114 154 196 257 327 387 460
#
# _framework density 26.408370000000001
#
# number of rings (size 3 to 8) (size 9 to 14) (size 15 to 20)
#    0.000    0.500    5.000    2.250    7.000    2.000 
#    2.250    0.000    0.000    0.000    0.000    0.000 
#    0.000    0.000    0.000    0.000    0.000    0.000 
#
# Total GULP energy -89386.660076 kJ/mol
# GULP energy per Si atom -5586.666255 kJ/mol
# Density = 2.634826 g / cm^3
# Si number density = 26.408370 Si / 1000 Ang^3
#
#
#
# Elastic Constant Matrix: (Units=GPa)
#
#
# Indices 1 2 3 4 5 6 
#
# 1 69.2927 32.0728 49.6454 0.0000 19.4159 0.0000
# 2 32.0728 107.3273 25.9562 0.0000 11.1587 0.0000
# 3 49.6454 25.9562 141.0953 0.0000 21.5999 0.0000
# 4 0.0000 0.0000 0.0000 53.5736 0.0000 -3.2956
# 5 19.4159 11.1587 21.5999 0.0000 44.8942 0.0000
# 6 0.0000 0.0000 0.0000 -3.2956 0.0000 28.4761
#
#
#
# Elastic Compliance Matrix: (Units=1/GPa)
#
#
# Indices 1 2 3 4 5 6 
#
# 1 0.022647 -0.004672 -0.006248 0.000000 -0.005627 0.000000
# 2 -0.004672 0.010834 -0.000266 0.000000 -0.000545 0.000000
# 3 -0.006248 -0.000266 0.009619 0.000000 -0.001860 0.000000
# 4 0.000000 0.000000 0.000000 0.018800 0.000000 0.002176
# 5 -0.005627 -0.000545 -0.001860 0.000000 0.025739 0.000000
# 6 0.000000 0.000000 0.000000 0.002176 0.000000 0.035369
#
#
# Mechanical properties :
#
#
# Convention : Reuss Voigt Hill
#
# Bulk Modulus (GPa) = 48.23912 59.22931 53.73422
# Shear Modulus (GPa) = 32.83256 39.39150 36.11203
#
# Velocity S-wave (km/s) = 3.52982 3.86635 3.70191
# Velocity P-wave (km/s) = 5.90924 6.51218 6.21802
#
# Compressibility (1/GPa) = 0.02073006
#
# Stress axis : x y z
#
# Youngs Moduli (GPa) = 44.15654 92.29981 103.95727
#
# Poissons Ratio (x) = 0.43119 0.64948
# Poissons Ratio (y) = 0.20628 0.02765
# Poissons Ratio (z) = 0.27587 0.02455
#
# Static dielectric constant tensor:
#      x y z
#    x 2.121260 0.000000 -0.018060 
#    y 0.000000 2.150170 0.000000 
#    z -0.018060 0.000000 2.037890 
# 
# From -- ./inp_files/8095.got.cif
#   From: 2010.05.17/outbox.cif.g08.bks.cpg/sg4_5_cif.got.tgz:8095.got - 2010.06.03 18:43:04.
