data_PCOD9119692
_publ_section_title
;
Structure prediction by ZEFSAII (Michael W. Deem and Ramdas Pophale) SiO2 
 PCOD9119692
Probable space group: P 21
;
_chemical_formula_sum "Si O2"
_cell_formula_units_Z 12
_cell_length_a 5.146642
_cell_length_b 12.612953
_cell_length_c 7.571655
_cell_angle_alpha 90.000000
_cell_angle_beta 109.869206
_cell_angle_gamma 90.000000
_cell_volume 462.250012
_symmetry_space_group_name_H-M "P 21"
_symmetry_group_IT_number 4
_symmetry_cell_setting 'monoclinic'
loop_
_space_group_symop_operation_xyz
x,y,z
-x,1/2+y,-z
loop_
_atom_site_type_symbol
_atom_site_label
_atom_site_fract_x
_atom_site_fract_y
_atom_site_fract_z
Si Si1 0.773417 0.703950 0.201120
Si Si2 0.572297 0.625181 0.798870
Si Si3 0.479076 0.414564 0.958131
Si Si4 0.846629 0.297767 0.441889
Si Si5 0.111552 0.414564 0.223092
Si Si6 0.595264 0.531361 0.441883
O O1 0.573087 0.806716 0.159900
O O2 0.264651 0.509797 0.361487
O O3 0.663230 0.609461 0.297706
O O4 0.777637 0.664567 0.999994
O O5 0.413201 0.522411 0.840096
O O6 0.365508 0.719665 0.702283
O O7 0.697179 0.582560 0.646211
O O8 0.797956 0.424154 0.086912
O O9 0.288978 0.404975 0.086916
O O10 0.096844 0.319331 0.361488
O O11 0.726015 0.414564 0.452027
O O12 0.949048 0.246573 0.646220
#
# Coordination Sequence:
#
# PCOD9119692 Si02
#       6
#     2   2   2   2   2   2
#     4  12  29  55  85 131 173 242 292 379 443 536
#     4  12  29  55  85 131 173 242 292 379 443 536
#     4  12  29  54  89 130 180 232 307 364 453 526
#     4  12  30  57  87 131 179 240 303 371 450 535
#     4  12  25  58  87 126 176 236 293 366 441 534
#     4  12  30  57  87 131 179 240 303 371 450 535
#
# _framework density 25.959978
#
# number of rings (size 3 to 8) (size 9 to 14) (size 15 to 20)
#    0.000    0.000    5.000    1.000   16.333    0.000 
#    6.000    0.000    0.000    0.000    0.000    0.000 
#    0.000    0.000    0.000    0.000    0.000    0.000 
#
# Total GULP energy -67313.971158 kJ/mol
# GULP energy per Si atom -5609.497596 kJ/mol
# Density = 2.590089 g / cm^3
# Si number density = 25.959978 Si / 1000 Ang^3
#
#
#
# Elastic Constant Matrix: (Units=GPa)
#
#
# Indices 1 2 3 4 5 6 
#
# 1 124.3992 51.7684 61.3831 0.0000 0.2030 0.0000
# 2 51.7684 225.3635 92.2542 0.0000 7.2408 0.0000
# 3 61.3831 92.2542 214.3032 0.0000 15.8727 0.0000
# 4 0.0000 0.0000 0.0000 55.6048 0.0000 2.6064
# 5 0.2030 7.2408 15.8727 0.0000 34.8750 0.0000
# 6 0.0000 0.0000 0.0000 2.6064 0.0000 41.0426
#
#
#
# Elastic Compliance Matrix: (Units=1/GPa)
#
#
# Indices 1 2 3 4 5 6 
#
# 1 0.009729 -0.001331 -0.002308 0.000000 0.001270 0.000000
# 2 -0.001331 0.005569 -0.001998 0.000000 -0.000239 0.000000
# 3 -0.002308 -0.001998 0.006371 0.000000 -0.002471 0.000000
# 4 0.000000 0.000000 0.000000 0.018038 0.000000 -0.001146
# 5 0.001270 -0.000239 -0.002471 0.000000 0.029841 0.000000
# 6 0.000000 0.000000 0.000000 -0.001146 0.000000 0.024438
#
#
# Mechanical properties :
#
#
# Convention : Reuss Voigt Hill
#
# Bulk Modulus (GPa) = 96.20709 108.31969 102.26339
# Shear Modulus (GPa) = 45.98809 50.21515 48.10162
#
# Velocity S-wave (km/s) = 4.21348 4.40287 4.30922
# Velocity P-wave (km/s) = 7.79817 8.22577 8.01482
#
# Compressibility (1/GPa) = 0.01039424
#
# Stress axis : x y z
#
# Youngs Moduli (GPa) = 102.78315 179.57453 156.97107
#
# Poissons Ratio (x) = 0.23901 0.36227
# Poissons Ratio (y) = 0.13680 0.31368
# Poissons Ratio (z) = 0.23721 0.35885
#
# Static dielectric constant tensor:
#      x y z
#    x 2.060000 0.000000 -0.002990 
#    y 0.000000 2.059730 0.000000 
#    z -0.002990 0.000000 2.043380 
# 
# From -- ./inp_files/4543.got.cif
#   From: 2010.05.17/outbox.cif.g08.bks.cpg/sg4_3_cif.got.tgz:4543.got - 2010.06.03 18:43:04.
