data_PCOD9119133
_publ_section_title
;
Structure prediction by ZEFSAII (Michael W. Deem and Ramdas Pophale) SiO2 
 PCOD9119133
Probable space group: P 21
;
_chemical_formula_sum "Si O2"
_cell_formula_units_Z 14
_cell_length_a 26.382238
_cell_length_b 4.752234
_cell_length_c 20.556491
_cell_angle_alpha 90.000000
_cell_angle_beta 11.558111
_cell_angle_gamma 90.000000
_cell_volume 516.384430
_symmetry_space_group_name_H-M "P 21"
_symmetry_group_IT_number 4
_symmetry_cell_setting 'monoclinic'
loop_
_space_group_symop_operation_xyz
x,y,z
-x,1/2+y,-z
loop_
_atom_site_type_symbol
_atom_site_label
_atom_site_fract_x
_atom_site_fract_y
_atom_site_fract_z
Si Si1 0.036696 0.958830 0.242364
Si Si2 0.116870 0.989223 0.650756
Si Si3 0.179286 0.021300 0.268202
Si Si4 0.649566 0.158986 0.828885
Si Si5 0.008624 0.604557 0.948851
Si Si6 0.653324 0.246448 0.313535
Si Si7 0.480203 0.367846 0.278297
O O1 0.883514 0.684543 0.412720
O O2 0.909274 0.097492 0.465498
O O3 0.965265 0.180500 0.273325
O O4 0.313293 0.854326 0.921751
O O5 0.350499 0.094392 0.404334
O O6 0.868300 0.099880 0.001105
O O7 0.317503 0.849441 0.150140
O O8 0.935265 0.817003 0.565462
O O9 0.368038 0.024981 0.969991
O O10 0.510490 0.867841 0.015350
O O11 0.242522 0.534595 0.608131
O O12 0.968209 0.929685 0.013331
O O13 0.763545 0.452469 0.229178
O O14 0.512326 0.492179 0.450376
#
# Coordination Sequence:
#
# PCOD9119133 Si02
#       7
#     2   2   2   2   2   2   2
#     4  12  26  47  78 112 151 212 258 317 404 464
#     4  11  28  48  73 115 152 203 264 322 392 477
#     4  12  26  46  71 107 148 196 252 307 385 468
#     4  12  25  46  72 105 147 193 257 317 374 467
#     4  11  27  47  74 111 144 195 256 316 387 469
#     4  11  24  45  72 104 147 192 245 319 393 459
#     4  11  28  51  78 112 163 203 260 334 393 474
#
# _framework density 27.111585000000002
#
# number of rings (size 3 to 8) (size 9 to 14) (size 15 to 20)
#    0.000    0.571    1.429    5.143    8.000    6.857 
#    0.000    0.000    0.000    0.000    0.000    0.000 
#    0.000    0.000    0.000    0.000    0.000    0.000 
#
# Total GULP energy -78294.043443 kJ/mol
# GULP energy per Si atom -5592.431675 kJ/mol
# Density = 2.704988 g / cm^3
# Si number density = 27.111585 Si / 1000 Ang^3
#
#
#
# Elastic Constant Matrix: (Units=GPa)
#
#
# Indices 1 2 3 4 5 6 
#
# 1 123.0421 27.2878 52.7636 0.0000 -18.3537 0.0000
# 2 27.2878 157.7942 52.2883 0.0000 -14.1269 0.0000
# 3 52.7636 52.2883 116.3805 0.0000 -6.2921 0.0000
# 4 0.0000 0.0000 0.0000 34.2215 0.0000 -9.6136
# 5 -18.3537 -14.1269 -6.2921 0.0000 71.2731 0.0000
# 6 0.0000 0.0000 0.0000 -9.6136 0.0000 21.5967
#
#
#
# Elastic Compliance Matrix: (Units=1/GPa)
#
#
# Indices 1 2 3 4 5 6 
#
# 1 0.010447 -0.000088 -0.004574 0.000000 0.002269 0.000000
# 2 -0.000088 0.007548 -0.003287 0.000000 0.001183 0.000000
# 3 -0.004574 -0.003287 0.012102 0.000000 -0.000761 0.000000
# 4 0.000000 0.000000 0.000000 0.033398 0.000000 0.014867
# 5 0.002269 0.001183 -0.000761 0.000000 0.014782 0.000000
# 6 0.000000 0.000000 0.000000 0.014867 0.000000 0.052921
#
#
# Mechanical properties :
#
#
# Convention : Reuss Voigt Hill
#
# Bulk Modulus (GPa) = 70.43183 73.54402 71.98792
# Shear Modulus (GPa) = 32.93178 43.07674 38.00426
#
# Velocity S-wave (km/s) = 3.48900 3.99039 3.74809
# Velocity P-wave (km/s) = 6.50121 6.95818 6.73357
#
# Compressibility (1/GPa) = 0.01419813
#
# Stress axis : x y z
#
# Youngs Moduli (GPa) = 95.72382 132.48868 82.63003
#
# Poissons Ratio (x) = 0.01162 0.37796
# Poissons Ratio (y) = 0.00840 0.27164
# Poissons Ratio (z) = 0.43786 0.43554
#
# Static dielectric constant tensor:
#      x y z
#    x 2.346510 0.000000 -0.194940 
#    y 0.000000 2.029270 0.000000 
#    z -0.194940 0.000000 2.261280 
# 
# From -- ./inp_files/15966.got.cif
#   From: 2010.05.17/outbox.cif.g08.bks.cpg/sg4_8_cif.got.tgz:15966.got - 2010.06.03 18:43:04.
