data_PCOD9119643
_publ_section_title
;
Structure prediction by ZEFSAII (Michael W. Deem and Ramdas Pophale) SiO2 
 PCOD9119643
Probable space group: P 21
;
_chemical_formula_sum "Si O2"
_cell_formula_units_Z 16
_cell_length_a 11.667104
_cell_length_b 9.828912
_cell_length_c 8.313860
_cell_angle_alpha 90.000000
_cell_angle_beta 136.290105
_cell_angle_gamma 90.000000
_cell_volume 658.800366
_symmetry_space_group_name_H-M "P 21"
_symmetry_group_IT_number 4
_symmetry_cell_setting 'monoclinic'
loop_
_space_group_symop_operation_xyz
x,y,z
-x,1/2+y,-z
loop_
_atom_site_type_symbol
_atom_site_label
_atom_site_fract_x
_atom_site_fract_y
_atom_site_fract_z
Si Si1 0.153985 0.451080 0.552651
Si Si2 0.861816 0.065050 0.959286
Si Si3 0.133940 0.992063 0.503363
Si Si4 0.665399 0.322834 0.883501
Si Si5 0.840022 0.601283 0.959361
Si Si6 0.303001 0.218321 0.880828
Si Si7 0.293201 0.328609 0.382184
Si Si8 0.676362 0.239774 0.270250
O O1 0.280318 0.370686 0.796675
O O2 0.169879 0.370201 0.402092
O O3 0.211125 0.606458 0.602788
O O4 0.975777 0.441733 0.455356
O O5 0.995619 0.036464 0.235225
O O6 0.975209 0.097433 0.920029
O O7 0.748230 0.191067 0.888996
O O8 0.750550 0.935135 0.802875
O O9 0.250785 0.113534 0.686502
O O10 0.244699 0.866503 0.555274
O O11 0.767030 0.454995 0.930408
O O12 0.477570 0.343007 0.634973
O O13 0.663856 0.293579 0.073287
O O14 0.736464 0.678833 0.716713
O O15 0.822301 0.688768 0.102371
O O16 0.490248 0.198120 0.129701
#
# Coordination Sequence:
#
# PCOD9119643 Si02
#       8
#     2   2   2   2   2   2   2   2
#     4  12  25  45  79 111 156 201 265 324 388 467
#     4  12  28  50  81 119 158 205 259 328 408 470
#     4  12  26  48  80 117 153 206 267 330 388 474
#     4  12  26  53  77 114 157 210 267 322 394 477
#     4  12  27  47  78 114 161 204 259 326 398 474
#     4  12  25  48  77 112 154 205 267 322 391 465
#     4  12  27  50  76 117 158 210 253 332 401 477
#     4  12  26  49  80 116 149 209 269 330 386 468
#
# _framework density 24.286569
#
# number of rings (size 3 to 8) (size 9 to 14) (size 15 to 20)
#    0.000    0.000    3.750    6.000    1.750    3.000 
#    0.000    0.000    0.000    0.000    0.000    0.000 
#    0.000    0.000    0.000    0.000    0.000    0.000 
#
# Total GULP energy -89755.859935 kJ/mol
# GULP energy per Si atom -5609.741246 kJ/mol
# Density = 2.423129 g / cm^3
# Si number density = 24.286569 Si / 1000 Ang^3
#
#
#
# Elastic Constant Matrix: (Units=GPa)
#
#
# Indices 1 2 3 4 5 6 
#
# 1 84.8268 25.7580 25.5552 0.0000 0.2959 0.0000
# 2 25.7580 119.8686 34.2662 0.0000 -5.0812 0.0000
# 3 25.5552 34.2662 105.8039 0.0000 4.9383 0.0000
# 4 0.0000 0.0000 0.0000 52.3291 0.0000 3.3671
# 5 0.2959 -5.0812 4.9383 0.0000 35.0264 0.0000
# 6 0.0000 0.0000 0.0000 3.3671 0.0000 27.0363
#
#
#
# Elastic Compliance Matrix: (Units=1/GPa)
#
#
# Indices 1 2 3 4 5 6 
#
# 1 0.013185 -0.002123 -0.002494 0.000000 -0.000068 0.000000
# 2 -0.002123 0.009645 -0.002695 0.000000 0.001797 0.000000
# 3 -0.002494 -0.002695 0.011016 0.000000 -0.001923 0.000000
# 4 0.000000 0.000000 0.000000 0.019264 0.000000 -0.002399
# 5 -0.000068 0.001797 -0.001923 0.000000 0.029082 0.000000
# 6 0.000000 0.000000 0.000000 -0.002399 0.000000 0.037286
#
#
# Mechanical properties :
#
#
# Convention : Reuss Voigt Hill
#
# Bulk Modulus (GPa) = 52.02149 53.51757 52.76953
# Shear Modulus (GPa) = 35.58452 37.87300 36.72876
#
# Velocity S-wave (km/s) = 3.83194 3.95324 3.89306
# Velocity P-wave (km/s) = 6.40661 6.55142 6.47942
#
# Compressibility (1/GPa) = 0.01922282
#
# Stress axis : x y z
#
# Youngs Moduli (GPa) = 75.84380 103.67799 90.77464
#
# Poissons Ratio (x) = 0.22013 0.22637
# Poissons Ratio (y) = 0.16103 0.24462
# Poissons Ratio (z) = 0.18914 0.27939
#
# Static dielectric constant tensor:
#      x y z
#    x 1.929300 0.000000 -0.060470 
#    y 0.000000 1.905290 0.000000 
#    z -0.060470 0.000000 1.940700 
# 
# From -- ./inp_files/8093.got.cif
#   From: 2010.05.17/outbox.cif.g08.bks.cpg/sg4_5_cif.got.tgz:8093.got - 2010.06.03 18:43:04.
