data_PCOD9119009
_publ_section_title
;
Structure prediction by ZEFSAII (Michael W. Deem and Ramdas Pophale) SiO2 
 PCOD9119009
Probable space group: P 21
;
_chemical_formula_sum "Si O2"
_cell_formula_units_Z 14
_cell_length_a 8.695624
_cell_length_b 8.584505
_cell_length_c 8.670021
_cell_angle_alpha 90.000000
_cell_angle_beta 62.805368
_cell_angle_gamma 90.000000
_cell_volume 575.654877
_symmetry_space_group_name_H-M "P 21"
_symmetry_group_IT_number 4
_symmetry_cell_setting 'monoclinic'
loop_
_space_group_symop_operation_xyz
x,y,z
-x,1/2+y,-z
loop_
_atom_site_type_symbol
_atom_site_label
_atom_site_fract_x
_atom_site_fract_y
_atom_site_fract_z
Si Si1 0.113319 0.488710 0.208002
Si Si2 0.830610 0.333804 0.799252
Si Si3 0.157079 0.422671 0.835875
Si Si4 0.442998 0.623379 0.527161
Si Si5 0.259091 0.935990 0.498543
Si Si6 0.391202 0.182747 0.846039
Si Si7 0.507148 0.911946 0.972946
O O1 0.116645 0.661225 0.273864
O O2 0.928023 0.421631 0.334908
O O3 0.126940 0.496880 0.016691
O O4 0.295135 0.408167 0.176506
O O5 0.788404 0.418766 0.659249
O O6 0.663749 0.312620 0.989622
O O7 0.981192 0.416778 0.822035
O O8 0.297590 0.516839 0.671411
O O9 0.217057 0.242977 0.846276
O O10 0.372865 0.798234 0.528297
O O11 0.623915 0.591026 0.531999
O O12 0.498628 0.584779 0.325685
O O13 0.463919 0.350203 0.865738
O O14 0.418785 0.080390 0.985856
#
# Coordination Sequence:
#
# PCOD9119009 Si02
#       7
#     2   2   2   2   2   2   2
#     4  11  27  50  76 119 156 205 269 334 394 480
#     4  12  27  50  74 116 158 204 267 329 399 488
#     4  11  28  47  80 115 161 208 263 327 405 475
#     4  12  25  53  78 115 164 207 271 324 412 477
#     4  12  28  51  84 114 161 213 269 335 403 475
#     4  11  24  51  74 122 151 214 260 333 397 484
#     4  11  23  48  82 105 167 195 273 324 398 471
#
# _framework density 24.320128
#
# number of rings (size 3 to 8) (size 9 to 14) (size 15 to 20)
#    0.000    0.571    4.286    1.714   10.000    1.143 
#    2.571    0.000    0.000    0.000    0.000    0.000 
#    0.000    0.000    0.000    0.000    0.000    0.000 
#
# Total GULP energy -77965.596288 kJ/mol
# GULP energy per Si atom -5568.971163 kJ/mol
# Density = 2.426477 g / cm^3
# Si number density = 24.320128 Si / 1000 Ang^3
#
#
#
# Elastic Constant Matrix: (Units=GPa)
#
#
# Indices 1 2 3 4 5 6 
#
# 1 182.1076 45.4094 70.8712 0.0000 -15.4700 0.0000
# 2 45.4094 53.7754 25.0617 0.0000 8.8888 0.0000
# 3 70.8712 25.0617 100.5339 0.0000 -1.9509 0.0000
# 4 0.0000 0.0000 0.0000 35.9111 0.0000 1.6855
# 5 -15.4700 8.8888 -1.9509 0.0000 39.3600 0.0000
# 6 0.0000 0.0000 0.0000 1.6855 0.0000 52.4445
#
#
#
# Elastic Compliance Matrix: (Units=1/GPa)
#
#
# Indices 1 2 3 4 5 6 
#
# 1 0.009457 -0.006494 -0.004952 0.000000 0.004938 0.000000
# 2 -0.006494 0.026538 -0.002205 0.000000 -0.008655 0.000000
# 3 -0.004952 -0.002205 0.013973 0.000000 -0.000756 0.000000
# 4 0.000000 0.000000 0.000000 0.027889 0.000000 -0.000896
# 5 0.004938 -0.008655 -0.000756 0.000000 0.029265 0.000000
# 6 0.000000 0.000000 0.000000 -0.000896 0.000000 0.019097
#
#
# Mechanical properties :
#
#
# Convention : Reuss Voigt Hill
#
# Bulk Modulus (GPa) = 44.12115 68.78905 56.45510
# Shear Modulus (GPa) = 31.04090 38.54808 34.79449
#
# Velocity S-wave (km/s) = 3.57647 3.98556 3.78655
# Velocity P-wave (km/s) = 5.93600 7.03746 6.51007
#
# Compressibility (1/GPa) = 0.02266487
#
# Stress axis : x y z
#
# Youngs Moduli (GPa) = 105.73666 37.68120 71.56641
#
# Poissons Ratio (x) = 0.24472 0.35441
# Poissons Ratio (y) = 0.68670 0.15783
# Poissons Ratio (z) = 0.52363 0.08310
#
# Static dielectric constant tensor:
#      x y z
#    x 2.023920 0.000000 -0.073120 
#    y 0.000000 2.055030 0.000000 
#    z -0.073120 0.000000 1.975870 
# 
# From -- ./inp_files/5227.got.cif
#   From: 2010.05.17/outbox.cif.g08.bks.cpg/sg4_3_cif.got.tgz:5227.got - 2010.06.03 18:43:04.
