data_PCOD9119242
_publ_section_title
;
Structure prediction by ZEFSAII (Michael W. Deem and Ramdas Pophale) SiO2 
 PCOD9119242
Probable space group: P 21
;
_chemical_formula_sum "Si O2"
_cell_formula_units_Z 12
_cell_length_a 17.329526
_cell_length_b 4.938112
_cell_length_c 5.275993
_cell_angle_alpha 90.000000
_cell_angle_beta 88.311217
_cell_angle_gamma 90.000000
_cell_volume 451.297734
_symmetry_space_group_name_H-M "P 21"
_symmetry_group_IT_number 4
_symmetry_cell_setting 'monoclinic'
loop_
_space_group_symop_operation_xyz
x,y,z
-x,1/2+y,-z
loop_
_atom_site_type_symbol
_atom_site_label
_atom_site_fract_x
_atom_site_fract_y
_atom_site_fract_z
Si Si1 0.548760 0.252220 0.469207
Si Si2 0.903773 0.678520 0.779404
Si Si3 0.311482 0.477004 0.239140
Si Si4 0.200408 0.839098 0.528496
Si Si5 0.075472 0.504638 0.743647
Si Si6 0.323378 0.962502 0.894491
O O1 0.504933 0.500843 0.610866
O O2 0.611894 0.097005 0.634724
O O3 0.593681 0.407488 0.240046
O O4 0.834228 0.484396 0.713204
O O5 0.985433 0.531723 0.815809
O O6 0.919396 0.859162 0.528245
O O7 0.886113 0.850791 0.027576
O O8 0.242650 0.563561 0.434823
O O9 0.322944 0.182581 0.117639
O O10 0.298117 0.672574 0.002309
O O11 0.262969 0.015170 0.673803
O O12 0.124325 0.776926 0.700434
#
# Coordination Sequence:
#
# PCOD9119242 Si02
#       6
#     2   2   2   2   2   2
#     4  11  24  48  80 117 162 208 272 339 406 494
#     4  12  28  50  78 114 161 214 286 357 428 498
#     4  11  27  49  78 117 164 213 270 335 417 499
#     4  11  30  48  74 115 158 216 274 349 414 508
#     4  12  28  50  78 114 161 214 286 357 428 498
#     4  11  27  49  78 117 164 213 270 335 417 499
#
# _framework density 26.589988000000002
#
# number of rings (size 3 to 8) (size 9 to 14) (size 15 to 20)
#    0.000    0.667    1.667    3.000    9.333    5.333 
#    0.000    0.000    0.000    0.000    0.000    0.000 
#    0.000    0.000    0.000    0.000    0.000    0.000 
#
# Total GULP energy -67327.312391 kJ/mol
# GULP energy per Si atom -5610.609366 kJ/mol
# Density = 2.652947 g / cm^3
# Si number density = 26.589988 Si / 1000 Ang^3
#
#
#
# Elastic Constant Matrix: (Units=GPa)
#
#
# Indices 1 2 3 4 5 6 
#
# 1 143.7658 42.9490 23.5716 0.0000 -7.6801 0.0000
# 2 42.9490 108.9906 28.7280 0.0000 1.8308 0.0000
# 3 23.5716 28.7280 112.2460 0.0000 10.6050 0.0000
# 4 0.0000 0.0000 0.0000 63.9610 0.0000 5.6188
# 5 -7.6801 1.8308 10.6050 0.0000 35.4426 0.0000
# 6 0.0000 0.0000 0.0000 5.6188 0.0000 32.9912
#
#
#
# Elastic Compliance Matrix: (Units=1/GPa)
#
#
# Indices 1 2 3 4 5 6 
#
# 1 0.008147 -0.002940 -0.001173 0.000000 0.002268 0.000000
# 2 -0.002940 0.010902 -0.002119 0.000000 -0.000566 0.000000
# 3 -0.001173 -0.002119 0.009994 0.000000 -0.003135 0.000000
# 4 0.000000 0.000000 0.000000 0.015872 0.000000 -0.002703
# 5 0.002268 -0.000566 -0.003135 0.000000 0.029673 0.000000
# 6 0.000000 0.000000 0.000000 -0.002703 0.000000 0.030772
#
#
# Mechanical properties :
#
#
# Convention : Reuss Voigt Hill
#
# Bulk Modulus (GPa) = 60.31608 61.72218 61.01913
# Shear Modulus (GPa) = 40.53508 44.46253 42.49881
#
# Velocity S-wave (km/s) = 3.90866 4.09363 4.00221
# Velocity P-wave (km/s) = 6.56530 6.75328 6.65995
#
# Compressibility (1/GPa) = 0.01657933
#
# Stress axis : x y z
#
# Youngs Moduli (GPa) = 122.73856 91.72983 100.06062
#
# Poissons Ratio (x) = 0.26964 0.11736
# Poissons Ratio (y) = 0.36079 0.21206
# Poissons Ratio (z) = 0.14396 0.19441
#
# Static dielectric constant tensor:
#      x y z
#    x 2.104470 0.000000 -0.006590 
#    y 0.000000 2.094020 0.000000 
#    z -0.006590 0.000000 2.059590 
# 
# From -- ./inp_files/3974.got.cif
#   From: 2010.05.17/outbox.cif.g08.bks.cpg/sg4_2_cif.got.tgz:3974.got - 2010.06.03 18:43:04.
