data_PCOD9119651
_publ_section_title
;
Structure prediction by ZEFSAII (Michael W. Deem and Ramdas Pophale) SiO2 
 PCOD9119651
Probable space group: P 21
;
_chemical_formula_sum "Si O2"
_cell_formula_units_Z 16
_cell_length_a 9.696002
_cell_length_b 9.345416
_cell_length_c 11.864294
_cell_angle_alpha 90.000000
_cell_angle_beta 141.148020
_cell_angle_gamma 90.000000
_cell_volume 674.397344
_symmetry_space_group_name_H-M "P 21"
_symmetry_group_IT_number 4
_symmetry_cell_setting 'monoclinic'
loop_
_space_group_symop_operation_xyz
x,y,z
-x,1/2+y,-z
loop_
_atom_site_type_symbol
_atom_site_label
_atom_site_fract_x
_atom_site_fract_y
_atom_site_fract_z
Si Si1 0.070224 0.873700 0.841375
Si Si2 0.415396 0.065599 0.346436
Si Si3 0.083268 0.206714 0.799312
Si Si4 0.019802 0.417879 0.965857
Si Si5 0.270214 0.739055 0.615912
Si Si6 0.515133 0.030469 0.796621
Si Si7 0.589584 0.193528 0.060351
Si Si8 0.369833 0.253537 0.531856
O O1 0.301204 0.823395 0.938905
O O2 0.883313 0.788906 0.654532
O O3 0.040845 0.042654 0.806542
O O4 0.044195 0.845069 0.957176
O O5 0.535403 0.159421 0.328664
O O6 0.451987 0.145465 0.487246
O O7 0.510857 0.905611 0.403357
O O8 0.157235 0.043213 0.163657
O O9 0.009954 0.311532 0.853096
O O10 0.944580 0.232349 0.597655
O O11 0.342323 0.223684 0.942868
O O12 0.265606 0.479240 0.127758
O O13 0.265833 0.667943 0.736036
O O14 0.340874 0.902945 0.679383
O O15 0.416721 0.172656 0.677593
O O16 0.582857 0.065162 0.967210
#
# Coordination Sequence:
#
# PCOD9119651 Si02
#       8
#     2   2   2   2   2   2   2   2
#     4  12  28  52  80 121 159 214 278 342 411 489
#     4  12  25  46  80 119 162 216 268 347 402 491
#     4  12  28  55  84 117 168 222 267 346 413 486
#     4  12  27  50  82 118 166 209 279 341 412 479
#     4  12  27  55  80 117 167 218 279 330 420 499
#     4  12  28  51  79 121 162 217 277 341 413 489
#     4  12  29  53  80 118 163 214 272 338 408 501
#     4  12  26  46  79 119 163 210 280 333 417 484
#
# _framework density 23.724888
#
# number of rings (size 3 to 8) (size 9 to 14) (size 15 to 20)
#    0.000    0.000    2.500    6.750    7.000    1.000 
#    2.250    0.000    0.000    0.000    0.000    0.000 
#    0.000    0.000    0.000    0.000    0.000    0.000 
#
# Total GULP energy -89772.816725 kJ/mol
# GULP energy per Si atom -5610.801045 kJ/mol
# Density = 2.367089 g / cm^3
# Si number density = 23.724888 Si / 1000 Ang^3
#
#
#
# Elastic Constant Matrix: (Units=GPa)
#
#
# Indices 1 2 3 4 5 6 
#
# 1 95.0004 -2.2966 55.8894 0.0000 -13.5490 0.0000
# 2 -2.2966 106.6291 50.5389 0.0000 -8.4467 0.0000
# 3 55.8894 50.5389 125.9775 0.0000 -31.8130 0.0000
# 4 0.0000 0.0000 0.0000 45.7463 0.0000 -6.3161
# 5 -13.5490 -8.4467 -31.8130 0.0000 30.2520 0.0000
# 6 0.0000 0.0000 0.0000 -6.3161 0.0000 29.0746
#
#
#
# Elastic Compliance Matrix: (Units=1/GPa)
#
#
# Indices 1 2 3 4 5 6 
#
# 1 0.015877 0.004610 -0.009221 0.000000 -0.001299 0.000000
# 2 0.004610 0.013032 -0.007942 0.000000 -0.002649 0.000000
# 3 -0.009221 -0.007942 0.018534 0.000000 0.013143 0.000000
# 4 0.000000 0.000000 0.000000 0.022536 0.000000 0.004896
# 5 -0.001299 -0.002649 0.013143 0.000000 0.045555 0.000000
# 6 0.000000 0.000000 0.000000 0.004896 0.000000 0.035458
#
#
# Mechanical properties :
#
#
# Convention : Reuss Voigt Hill
#
# Bulk Modulus (GPa) = 44.77038 59.54115 52.15577
# Shear Modulus (GPa) = 27.24133 35.91294 31.57713
#
# Velocity S-wave (km/s) = 3.39221 3.89488 3.65221
# Velocity P-wave (km/s) = 5.85273 6.73630 6.31000
#
# Compressibility (1/GPa) = 0.02233619
#
# Stress axis : x y z
#
# Youngs Moduli (GPa) = 62.98283 76.73401 53.95503
#
# Poissons Ratio (x) = -0.35372 0.49753
# Poissons Ratio (y) = -0.29033 0.42851
# Poissons Ratio (z) = 0.58078 0.60942
#
# Static dielectric constant tensor:
#      x y z
#    x 1.876890 0.000000 -0.004720 
#    y 0.000000 1.872330 0.000000 
#    z -0.004720 0.000000 1.907800 
# 
# From -- ./inp_files/11110.got.cif
#   From: 2010.05.17/outbox.cif.g08.bks.cpg/sg4_6_cif.got.tgz:11110.got - 2010.06.03 18:43:04.
