data_PCOD9119180
_publ_section_title
;
Structure prediction by ZEFSAII (Michael W. Deem and Ramdas Pophale) SiO2 
 PCOD9119180
Probable space group: P 21
;
_chemical_formula_sum "Si O2"
_cell_formula_units_Z 16
_cell_length_a 25.322117
_cell_length_b 5.245295
_cell_length_c 8.302239
_cell_angle_alpha 90.000000
_cell_angle_beta 148.038964
_cell_angle_gamma 90.000000
_cell_volume 583.716359
_symmetry_space_group_name_H-M "P 21"
_symmetry_group_IT_number 4
_symmetry_cell_setting 'monoclinic'
loop_
_space_group_symop_operation_xyz
x,y,z
-x,1/2+y,-z
loop_
_atom_site_type_symbol
_atom_site_label
_atom_site_fract_x
_atom_site_fract_y
_atom_site_fract_z
Si Si1 0.394688 0.378160 0.674360
Si Si2 0.850594 0.272751 0.421026
Si Si3 0.810787 0.088305 0.785526
Si Si4 0.945325 0.977599 0.413660
Si Si5 0.513899 0.253927 0.299734
Si Si6 0.841801 0.597022 0.680053
Si Si7 0.291551 0.053031 0.170032
Si Si8 0.311276 0.381045 0.921384
O O1 0.309645 0.569812 0.521362
O O2 0.456990 0.466808 0.678128
O O3 0.323773 0.146872 0.430498
O O4 0.473238 0.344478 0.019640
O O5 0.924887 0.060136 0.544274
O O6 0.895380 0.474152 0.662765
O O7 0.757162 0.132878 0.269069
O O8 0.806947 0.412903 0.149401
O O9 0.864933 0.870664 0.817431
O O10 0.840697 0.370653 0.807555
O O11 0.844979 0.003005 0.050473
O O12 0.012370 0.198617 0.506596
O O13 0.616520 0.366815 0.630302
O O14 0.427915 0.358817 0.192236
O O15 0.734746 0.673119 0.321962
O O16 0.292418 0.289513 0.052264
#
# Coordination Sequence:
#
# PCOD9119180 Si02
#       8
#     2   2   2   2   2   2   2   2
#     4  12  26  42  68 103 153 205 262 323 371 451
#     4  11  26  52  79 111 156 204 261 317 407 469
#     4  12  26  49  80 114 155 201 257 307 411 448
#     4  12  30  52  87 121 154 193 258 332 401 493
#     4  12  25  41  63 104 147 202 266 314 364 429
#     4  11  24  46  82 108 147 210 244 309 371 488
#     4  11  26  41  71 100 149 204 252 318 373 443
#     4  11  25  45  72 103 149 203 262 302 376 457
#
# _framework density 27.410572999999999
#
# number of rings (size 3 to 8) (size 9 to 14) (size 15 to 20)
#    0.000    0.500    3.750    3.000   14.000    1.000 
#    0.000    2.500    0.000    0.000    0.000    0.000 
#    0.000    0.000    0.000    0.000    0.000    0.000 
#
# Total GULP energy -89471.248166 kJ/mol
# GULP energy per Si atom -5591.953010 kJ/mol
# Density = 2.734819 g / cm^3
# Si number density = 27.410573 Si / 1000 Ang^3
#
#
#
# Elastic Constant Matrix: (Units=GPa)
#
#
# Indices 1 2 3 4 5 6 
#
# 1 107.4075 44.3053 20.3907 0.0000 14.6922 0.0000
# 2 44.3053 134.3939 9.2566 0.0000 10.4240 0.0000
# 3 20.3907 9.2566 41.4839 0.0000 -7.5105 0.0000
# 4 0.0000 0.0000 0.0000 50.0992 0.0000 -6.9383
# 5 14.6922 10.4240 -7.5105 0.0000 37.9708 0.0000
# 6 0.0000 0.0000 0.0000 -6.9383 0.0000 51.2794
#
#
#
# Elastic Compliance Matrix: (Units=1/GPa)
#
#
# Indices 1 2 3 4 5 6 
#
# 1 0.012608 -0.003309 -0.006407 0.000000 -0.005237 0.000000
# 2 -0.003309 0.008661 -0.000524 0.000000 -0.001201 0.000000
# 3 -0.006407 -0.000524 0.028881 0.000000 0.008335 0.000000
# 4 0.000000 0.000000 0.000000 0.020342 0.000000 0.002752
# 5 -0.005237 -0.001201 0.008335 0.000000 0.030341 0.000000
# 6 0.000000 0.000000 0.000000 0.002752 0.000000 0.019873
#
#
# Mechanical properties :
#
#
# Convention : Reuss Voigt Hill
#
# Bulk Modulus (GPa) = 33.70327 47.91007 40.80667
# Shear Modulus (GPa) = 33.09609 41.82540 37.46075
#
# Velocity S-wave (km/s) = 3.47857 3.91050 3.70084
# Velocity P-wave (km/s) = 5.33444 6.15678 5.76031
#
# Compressibility (1/GPa) = 0.02967071
#
# Stress axis : x y z
#
# Youngs Moduli (GPa) = 79.31445 115.46195 34.62485
#
# Poissons Ratio (x) = 0.38206 0.22185
# Poissons Ratio (y) = 0.26245 0.01813
# Poissons Ratio (z) = 0.50818 0.06045
#
# Static dielectric constant tensor:
#      x y z
#    x 2.191150 0.000000 0.014360 
#    y 0.000000 2.223280 0.000000 
#    z 0.014360 0.000000 2.117570 
# 
# From -- ./inp_files/10145.got.cif
#   From: 2010.05.17/outbox.cif.g08.bks.cpg/sg4_6_cif.got.tgz:10145.got - 2010.06.03 18:43:04.
