data_PCOD9119163
_publ_section_title
;
Structure prediction by ZEFSAII (Michael W. Deem and Ramdas Pophale) SiO2 
 PCOD9119163
Probable space group: P 21
;
_chemical_formula_sum "Si O2"
_cell_formula_units_Z 16
_cell_length_a 5.647125
_cell_length_b 14.888081
_cell_length_c 9.012245
_cell_angle_alpha 90.000000
_cell_angle_beta 120.886792
_cell_angle_gamma 90.000000
_cell_volume 650.248195
_symmetry_space_group_name_H-M "P 21"
_symmetry_group_IT_number 4
_symmetry_cell_setting 'monoclinic'
loop_
_space_group_symop_operation_xyz
x,y,z
-x,1/2+y,-z
loop_
_atom_site_type_symbol
_atom_site_label
_atom_site_fract_x
_atom_site_fract_y
_atom_site_fract_z
Si Si1 0.803280 0.365420 0.890342
Si Si2 0.747671 0.413557 0.408759
Si Si3 0.907099 0.296205 0.222513
Si Si4 0.028573 0.552881 0.038315
Si Si5 0.600655 0.055055 0.571992
Si Si6 0.581886 0.125670 0.082577
Si Si7 0.502588 0.763535 0.479645
Si Si8 0.710936 0.964521 0.297895
O O1 0.975865 0.458904 0.932150
O O2 0.675543 0.304526 0.716255
O O3 0.517416 0.407920 0.861086
O O4 0.961548 0.309062 0.065620
O O5 0.810847 0.389663 0.261511
O O6 0.642548 0.513080 0.406288
O O7 0.556243 0.335120 0.409550
O O8 0.024057 0.405701 0.593077
O O9 0.659167 0.225878 0.148520
O O10 0.162731 0.263677 0.406255
O O11 0.732152 0.601782 0.970182
O O12 0.277515 0.605704 0.033396
O O13 0.139186 0.538387 0.239521
O O14 0.579111 0.159704 0.526519
O O15 0.603129 0.992990 0.426772
O O16 0.765252 0.058653 0.240161
#
# Coordination Sequence:
#
# PCOD9119163 Si02
#       8
#     2   2   2   2   2   2   2   2
#     4  11  24  49  72 110 157 200 264 324 398 477
#     4  12  24  46  76 107 156 202 262 331 397 472
#     4  12  27  47  73 113 154 206 264 327 400 473
#     4  11  27  50  77 115 154 212 258 333 401 475
#     4  12  27  47  78 113 159 203 276 324 406 476
#     4  11  27  48  76 110 155 201 265 326 394 472
#     4  12  26  49  76 113 148 211 263 335 391 483
#     4  11  24  46  72 107 147 209 252 328 397 472
#
# _framework density 24.605989000000001
#
# number of rings (size 3 to 8) (size 9 to 14) (size 15 to 20)
#    0.000    0.500    2.500    4.500   12.250    1.000 
#    6.750    0.000    0.000    0.000    0.000    0.000 
#    0.000    0.000    0.000    0.000    0.000    0.000 
#
# Total GULP energy -89291.941013 kJ/mol
# GULP energy per Si atom -5580.746313 kJ/mol
# Density = 2.454998 g / cm^3
# Si number density = 24.605989 Si / 1000 Ang^3
#
#
#
# Elastic Constant Matrix: (Units=GPa)
#
#
# Indices 1 2 3 4 5 6 
#
# 1 48.3037 20.1342 17.8422 0.0000 -7.6429 0.0000
# 2 20.1342 83.0832 15.2490 0.0000 -6.0518 0.0000
# 3 17.8422 15.2490 122.0879 0.0000 7.0118 0.0000
# 4 0.0000 0.0000 0.0000 31.2816 0.0000 -2.0591
# 5 -7.6429 -6.0518 7.0118 0.0000 25.5312 0.0000
# 6 0.0000 0.0000 0.0000 -2.0591 0.0000 35.9421
#
#
#
# Elastic Compliance Matrix: (Units=1/GPa)
#
#
# Indices 1 2 3 4 5 6 
#
# 1 0.025208 -0.004934 -0.003489 0.000000 0.007335 0.000000
# 2 -0.004934 0.013581 -0.001092 0.000000 0.002042 0.000000
# 3 -0.003489 -0.001092 0.009055 0.000000 -0.003790 0.000000
# 4 0.000000 0.000000 0.000000 0.032089 0.000000 0.001838
# 5 0.007335 0.002042 -0.003790 0.000000 0.042888 0.000000
# 6 0.000000 0.000000 0.000000 0.001838 0.000000 0.027928
#
#
# Mechanical properties :
#
#
# Convention : Reuss Voigt Hill
#
# Bulk Modulus (GPa) = 34.70670 39.99171 37.34921
# Shear Modulus (GPa) = 27.87299 31.90095 29.88697
#
# Velocity S-wave (km/s) = 3.36932 3.60456 3.48892
# Velocity P-wave (km/s) = 5.41036 5.79758 5.60731
#
# Compressibility (1/GPa) = 0.02881288
#
# Stress axis : x y z
#
# Youngs Moduli (GPa) = 39.66931 73.63139 110.43819
#
# Poissons Ratio (x) = 0.36332 0.38532
# Poissons Ratio (y) = 0.19574 0.12065
# Poissons Ratio (z) = 0.13840 0.08044
#
# Static dielectric constant tensor:
#      x y z
#    x 2.041660 0.000000 -0.048570 
#    y 0.000000 1.944300 0.000000 
#    z -0.048570 0.000000 1.981340 
# 
# From -- ./inp_files/4746.got.cif
#   From: 2010.05.17/outbox.cif.g08.bks.cpg/sg4_3_cif.got.tgz:4746.got - 2010.06.03 18:43:04.
