data_PCOD9119771
_publ_section_title
;
Structure prediction by ZEFSAII (Michael W. Deem and Ramdas Pophale) SiO2 
 PCOD9119771
Probable space group: P 21
;
_chemical_formula_sum "Si O2"
_cell_formula_units_Z 16
_cell_length_a 10.054974
_cell_length_b 5.385587
_cell_length_c 14.422839
_cell_angle_alpha 90.000000
_cell_angle_beta 50.579642
_cell_angle_gamma 90.000000
_cell_volume 603.347805
_symmetry_space_group_name_H-M "P 21"
_symmetry_group_IT_number 4
_symmetry_cell_setting 'monoclinic'
loop_
_space_group_symop_operation_xyz
x,y,z
-x,1/2+y,-z
loop_
_atom_site_type_symbol
_atom_site_label
_atom_site_fract_x
_atom_site_fract_y
_atom_site_fract_z
Si Si1 0.559759 0.443070 0.596426
Si Si2 0.043456 0.340735 0.200702
Si Si3 0.432451 0.482205 0.986364
Si Si4 0.077366 0.707199 0.930814
Si Si5 0.967913 0.983492 0.392196
Si Si6 0.254693 0.193447 0.644081
Si Si7 0.466791 0.768730 0.793436
Si Si8 0.769482 0.130906 0.650943
O O1 0.382673 0.296278 0.663545
O O2 0.642493 0.485537 0.460056
O O3 0.516574 0.697530 0.667032
O O4 0.689736 0.309860 0.607695
O O5 0.237636 0.396133 0.088149
O O6 0.956272 0.160002 0.163478
O O7 0.921616 0.577727 0.243508
O O8 0.030568 0.227391 0.309720
O O9 0.541427 0.254696 0.979750
O O10 0.478965 0.536854 0.858640
O O11 0.263449 0.817875 0.877835
O O12 0.048225 0.437348 0.988553
O O13 0.124845 0.787974 0.321210
O O14 0.803890 0.892791 0.406247
O O15 0.908107 0.986004 0.525545
O O16 0.610672 0.967860 0.758472
#
# Coordination Sequence:
#
# PCOD9119771 Si02
#       8
#     2   2   2   2   2   2   2   2
#     4  12  27  48  79 123 167 220 275 348 430 511
#     4  12  30  53  83 119 164 220 284 350 429 509
#     4  12  34  56  82 120 170 228 288 354 422 504
#     4  12  30  56  84 120 164 220 286 358 424 500
#     4  12  28  50  80 123 170 221 278 349 433 516
#     4  12  27  48  79 123 167 220 275 348 430 511
#     4  12  30  53  83 119 164 220 284 350 429 509
#     4  12  28  50  80 123 170 221 278 349 433 516
#
# _framework density 26.518702000000001
#
# number of rings (size 3 to 8) (size 9 to 14) (size 15 to 20)
#    0.000    0.000    3.750    3.000   15.750    0.000 
#    0.000    0.000    0.000    0.000    0.000    0.000 
#    0.000    0.000    0.000    0.000    0.000    0.000 
#
# Total GULP energy -89738.889350 kJ/mol
# GULP energy per Si atom -5608.680584 kJ/mol
# Density = 2.645834 g / cm^3
# Si number density = 26.518702 Si / 1000 Ang^3
#
#
#
# Elastic Constant Matrix: (Units=GPa)
#
#
# Indices 1 2 3 4 5 6 
#
# 1 127.0695 24.3713 27.8583 0.0000 -13.4280 0.0000
# 2 24.3713 87.0832 20.2875 0.0000 -9.2024 0.0000
# 3 27.8583 20.2875 86.1056 0.0000 -4.6117 0.0000
# 4 0.0000 0.0000 0.0000 41.4921 0.0000 2.7917
# 5 -13.4280 -9.2024 -4.6117 0.0000 53.9731 0.0000
# 6 0.0000 0.0000 0.0000 2.7917 0.0000 59.0377
#
#
#
# Elastic Compliance Matrix: (Units=1/GPa)
#
#
# Indices 1 2 3 4 5 6 
#
# 1 0.008909 -0.001759 -0.002376 0.000000 0.001714 0.000000
# 2 -0.001759 0.012681 -0.002337 0.000000 0.001525 0.000000
# 3 -0.002376 -0.002337 0.012939 0.000000 0.000116 0.000000
# 4 0.000000 0.000000 0.000000 0.024178 0.000000 -0.001143
# 5 0.001714 0.001525 0.000116 0.000000 0.019224 0.000000
# 6 0.000000 0.000000 0.000000 -0.001143 0.000000 0.016992
#
#
# Mechanical properties :
#
#
# Convention : Reuss Voigt Hill
#
# Bulk Modulus (GPa) = 46.32777 49.47696 47.90237
# Shear Modulus (GPa) = 43.45449 46.08334 44.76891
#
# Velocity S-wave (km/s) = 4.05240 4.17318 4.11323
# Velocity P-wave (km/s) = 6.27724 6.47444 6.37660
#
# Compressibility (1/GPa) = 0.02158532
#
# Stress axis : x y z
#
# Youngs Moduli (GPa) = 112.24535 78.85773 77.28379
#
# Poissons Ratio (x) = 0.13868 0.18365
# Poissons Ratio (y) = 0.19740 0.18062
# Poissons Ratio (z) = 0.26673 0.18430
#
# Static dielectric constant tensor:
#      x y z
#    x 2.050030 0.000000 0.041000 
#    y 0.000000 2.124460 0.000000 
#    z 0.041000 0.000000 2.114280 
# 
# From -- ./inp_files/13581.got.cif
#   From: 2010.05.17/outbox.cif.g08.bks.cpg/sg4_7_cif.got.tgz:13581.got - 2010.06.03 18:43:04.
