data_PCOD9119741
_publ_section_title
;
Structure prediction by ZEFSAII (Michael W. Deem and Ramdas Pophale) SiO2 
 PCOD9119741
Probable space group: P 21
;
_chemical_formula_sum "Si O2"
_cell_formula_units_Z 16
_cell_length_a 9.936843
_cell_length_b 5.366034
_cell_length_c 18.720479
_cell_angle_alpha 90.000000
_cell_angle_beta 40.966329
_cell_angle_gamma 90.000000
_cell_volume 654.437156
_symmetry_space_group_name_H-M "P 21"
_symmetry_group_IT_number 4
_symmetry_cell_setting 'monoclinic'
loop_
_space_group_symop_operation_xyz
x,y,z
-x,1/2+y,-z
loop_
_atom_site_type_symbol
_atom_site_label
_atom_site_fract_x
_atom_site_fract_y
_atom_site_fract_z
Si Si1 0.112517 0.815480 0.766105
Si Si2 0.931599 0.587650 0.448847
Si Si3 0.941761 0.181130 0.939320
Si Si4 0.263476 0.221897 0.322244
Si Si5 0.631212 0.301840 0.951446
Si Si6 0.369376 0.963842 0.543980
Si Si7 0.283393 0.552889 0.826173
Si Si8 0.936072 0.441163 0.721647
O O1 0.273014 0.704349 0.757100
O O2 0.038594 0.598468 0.743462
O O3 0.214036 0.012705 0.672216
O O4 0.949882 0.939238 0.884948
O O5 0.854249 0.623465 0.559874
O O6 0.766874 0.414625 0.472653
O O7 0.170098 0.502544 0.358132
O O8 0.927800 0.815863 0.394526
O O9 0.773905 0.344655 0.964270
O O10 0.172894 0.291193 0.850688
O O11 0.863223 0.142844 0.050593
O O12 0.489870 0.111644 0.238503
O O13 0.194239 0.130724 0.272963
O O14 0.783185 0.255248 0.823575
O O15 0.509285 0.557589 0.985193
O O16 0.511985 0.208041 0.483844
#
# Coordination Sequence:
#
# PCOD9119741 Si02
#       8
#     2   2   2   2   2   2   2   2
#     4  12  26  49  79 110 158 214 267 339 408 472
#     4  12  27  50  77 113 169 206 275 341 403 490
#     4  12  27  50  77 113 169 206 275 341 403 490
#     4  12  28  48  78 115 159 218 265 328 416 489
#     4  12  28  48  82 120 160 214 280 339 412 485
#     4  12  28  48  82 120 160 214 280 339 412 485
#     4  12  28  48  78 115 159 218 265 328 416 489
#     4  12  26  49  79 110 158 214 267 339 408 472
#
# _framework density 24.448491000000001
#
# number of rings (size 3 to 8) (size 9 to 14) (size 15 to 20)
#    0.000    0.000    5.000    3.750    7.000    3.000 
#    0.000    0.000    0.000    0.000    0.000    0.000 
#    0.000    0.000    0.000    0.000    0.000    0.000 
#
# Total GULP energy -89365.502226 kJ/mol
# GULP energy per Si atom -5585.343889 kJ/mol
# Density = 2.439284 g / cm^3
# Si number density = 24.448491 Si / 1000 Ang^3
#
#
#
# Elastic Constant Matrix: (Units=GPa)
#
#
# Indices 1 2 3 4 5 6 
#
# 1 76.9603 30.2585 14.4075 0.0000 8.0285 0.0000
# 2 30.2585 84.9762 26.7904 0.0000 -14.0291 0.0000
# 3 14.4075 26.7904 86.6339 0.0000 6.0057 0.0000
# 4 0.0000 0.0000 0.0000 47.8274 0.0000 4.0438
# 5 8.0285 -14.0291 6.0057 0.0000 54.2284 0.0000
# 6 0.0000 0.0000 0.0000 4.0438 0.0000 40.1397
#
#
#
# Elastic Compliance Matrix: (Units=1/GPa)
#
#
# Indices 1 2 3 4 5 6 
#
# 1 0.015910 -0.006160 -0.000471 0.000000 -0.003897 0.000000
# 2 -0.006160 0.016274 -0.004397 0.000000 0.005609 0.000000
# 3 -0.000471 -0.004397 0.013156 0.000000 -0.002525 0.000000
# 4 0.000000 0.000000 0.000000 0.021088 0.000000 -0.002124
# 5 -0.003897 0.005609 -0.002525 0.000000 0.020748 0.000000
# 6 0.000000 0.000000 0.000000 -0.002124 0.000000 0.025127
#
#
# Mechanical properties :
#
#
# Convention : Reuss Voigt Hill
#
# Bulk Modulus (GPa) = 42.94775 43.49814 43.22295
# Shear Modulus (GPa) = 35.18137 40.24673 37.71405
#
# Velocity S-wave (km/s) = 3.79753 4.06172 3.93185
# Velocity P-wave (km/s) = 6.06903 6.31088 6.19113
#
# Compressibility (1/GPa) = 0.02328411
#
# Stress axis : x y z
#
# Youngs Moduli (GPa) = 62.85168 61.44846 76.01218
#
# Poissons Ratio (x) = 0.37855 0.03579
# Poissons Ratio (y) = 0.38719 0.33421
# Poissons Ratio (z) = 0.02959 0.27018
#
# Static dielectric constant tensor:
#      x y z
#    x 1.961630 0.000000 -0.109140 
#    y 0.000000 2.086360 0.000000 
#    z -0.109140 0.000000 1.968600 
# 
# From -- ./inp_files/14820.got.cif
#   From: 2010.05.17/outbox.cif.g08.bks.cpg/sg4_8_cif.got.tgz:14820.got - 2010.06.03 18:43:04.
