data_PCOD9119064
_publ_section_title
;
Structure prediction by ZEFSAII (Michael W. Deem and Ramdas Pophale) SiO2 
 PCOD9119064
Probable space group: P 21
;
_chemical_formula_sum "Si O2"
_cell_formula_units_Z 14
_cell_length_a 14.183377
_cell_length_b 9.413042
_cell_length_c 4.954730
_cell_angle_alpha 90.000000
_cell_angle_beta 56.418080
_cell_angle_gamma 90.000000
_cell_volume 551.092619
_symmetry_space_group_name_H-M "P 21"
_symmetry_group_IT_number 4
_symmetry_cell_setting 'monoclinic'
loop_
_space_group_symop_operation_xyz
x,y,z
-x,1/2+y,-z
loop_
_atom_site_type_symbol
_atom_site_label
_atom_site_fract_x
_atom_site_fract_y
_atom_site_fract_z
Si Si1 0.109134 0.882000 0.577146
Si Si2 0.084504 0.172837 0.283404
Si Si3 0.247889 0.829823 0.875895
Si Si4 0.515999 0.461810 0.653682
Si Si5 0.222281 0.266901 0.543888
Si Si6 0.662501 0.037665 0.437170
Si Si7 0.470469 0.210390 0.063520
O O1 0.150740 0.886621 0.822086
O O2 0.025136 0.750436 0.663749
O O3 0.067369 0.023380 0.477173
O O4 0.220849 0.848561 0.230737
O O5 0.129602 0.266058 0.459780
O O6 0.175455 0.191146 0.891246
O O7 0.364943 0.910865 0.642301
O O8 0.262668 0.662542 0.804498
O O9 0.403828 0.433443 0.662055
O O10 0.513756 0.632552 0.677553
O O11 0.500008 0.371673 0.953477
O O12 0.257888 0.429135 0.533868
O O13 0.335436 0.191133 0.243699
O O14 0.564240 0.123882 0.748088
#
# Coordination Sequence:
#
# PCOD9119064 Si02
#       7
#     2   2   2   2   2   2   2
#     4  12  28  54  77 116 141 204 249 331 374 449
#     4  12  29  50  84 107 152 193 264 317 387 439
#     4  11  29  46  81 107 160 190 259 305 387 444
#     4  11  25  43  71 110 153 202 245 302 371 457
#     4  12  27  47  77 113 150 203 250 314 375 457
#     4  11  28  43  76 111 155 206 243 307 376 467
#     4  11  24  43  70 108 153 190 252 296 370 453
#
# _framework density 25.404081000000001
#
# number of rings (size 3 to 8) (size 9 to 14) (size 15 to 20)
#    0.000    0.571    1.429    4.286   18.000    0.000 
#    0.000    0.000    0.000    0.000    0.000    0.000 
#    0.000    0.000    0.000    0.000    0.000    0.000 
#
# Total GULP energy -78176.999405 kJ/mol
# GULP energy per Si atom -5584.071386 kJ/mol
# Density = 2.534626 g / cm^3
# Si number density = 25.404081 Si / 1000 Ang^3
#
#
#
# Elastic Constant Matrix: (Units=GPa)
#
#
# Indices 1 2 3 4 5 6 
#
# 1 82.7173 7.0085 -10.4244 0.0000 10.6850 0.0000
# 2 7.0085 124.2989 2.8074 0.0000 -4.4518 0.0000
# 3 -10.4244 2.8074 43.1514 0.0000 -8.6505 0.0000
# 4 0.0000 0.0000 0.0000 30.2095 0.0000 -2.5127
# 5 10.6850 -4.4518 -8.6505 0.0000 29.2065 0.0000
# 6 0.0000 0.0000 0.0000 -2.5127 0.0000 42.5614
#
#
#
# Elastic Compliance Matrix: (Units=1/GPa)
#
#
# Indices 1 2 3 4 5 6 
#
# 1 0.013009 -0.000937 0.002361 0.000000 -0.004203 0.000000
# 2 -0.000937 0.008160 -0.000467 0.000000 0.001448 0.000000
# 3 0.002361 -0.000467 0.025076 0.000000 0.006492 0.000000
# 4 0.000000 0.000000 0.000000 0.033266 0.000000 0.001964
# 5 -0.004203 0.001448 0.006492 0.000000 0.037920 0.000000
# 6 0.000000 0.000000 0.000000 0.001964 0.000000 0.023611
#
#
# Mechanical properties :
#
#
# Convention : Reuss Voigt Hill
#
# Bulk Modulus (GPa) = 20.76420 27.66117 24.21268
# Shear Modulus (GPa) = 32.22005 37.11389 34.66697
#
# Velocity S-wave (km/s) = 3.56519 3.82637 3.69809
# Velocity P-wave (km/s) = 5.01385 5.51667 5.27126
#
# Compressibility (1/GPa) = 0.04815982
#
# Stress axis : x y z
#
# Youngs Moduli (GPa) = 76.86822 122.54303 39.87800
#
# Poissons Ratio (x) = 0.11487 -0.09416
# Poissons Ratio (y) = 0.07205 0.01862
# Poissons Ratio (z) = -0.18150 0.05723
#
# Static dielectric constant tensor:
#      x y z
#    x 1.980550 0.000000 0.022990 
#    y 0.000000 2.038270 0.000000 
#    z 0.022990 0.000000 2.055520 
# 
# From -- ./inp_files/3646.got.cif
#   From: 2010.05.17/outbox.cif.g08.bks.cpg/sg4_2_cif.got.tgz:3646.got - 2010.06.03 18:43:04.
