data_PCOD9119338
_publ_section_title
;
Structure prediction by ZEFSAII (Michael W. Deem and Ramdas Pophale) SiO2 
 PCOD9119338
Probable space group: P 21
;
_chemical_formula_sum "Si O2"
_cell_formula_units_Z 16
_cell_length_a 9.142451
_cell_length_b 13.489338
_cell_length_c 4.894454
_cell_angle_alpha 90.000000
_cell_angle_beta 97.171462
_cell_angle_gamma 90.000000
_cell_volume 598.889483
_symmetry_space_group_name_H-M "P 21"
_symmetry_group_IT_number 4
_symmetry_cell_setting 'monoclinic'
loop_
_space_group_symop_operation_xyz
x,y,z
-x,1/2+y,-z
loop_
_atom_site_type_symbol
_atom_site_label
_atom_site_fract_x
_atom_site_fract_y
_atom_site_fract_z
Si Si1 0.377181 0.442440 0.760582
Si Si2 0.117770 0.137096 0.165381
Si Si3 0.363997 0.040672 0.846525
Si Si4 0.046988 0.450205 0.839737
Si Si5 0.379284 0.232773 0.488458
Si Si6 0.658553 0.153688 0.346238
Si Si7 0.124290 0.899940 0.682775
Si Si8 0.830125 0.221866 0.898909
O O1 0.409968 0.339874 0.618388
O O2 0.360407 0.539583 0.565186
O O3 0.217895 0.428587 0.859875
O O4 0.505270 0.477849 0.993265
O O5 0.210097 0.218342 0.354413
O O6 0.001004 0.190153 0.941866
O O7 0.013863 0.056186 0.290145
O O8 0.246772 0.075783 0.048669
O O9 0.404070 0.141007 0.700265
O O10 0.263887 0.967886 0.641058
O O11 0.959224 0.375532 0.617314
O O12 0.996818 0.449401 0.142592
O O13 0.501929 0.208879 0.289021
O O14 0.736120 0.147495 0.071361
O O15 0.754518 0.213135 0.589295
O O16 0.182567 0.817639 0.908444
#
# Coordination Sequence:
#
# PCOD9119338 Si02
#       8
#     2   2   2   2   2   2   2   2
#     4  12  27  50  75 115 152 210 258 319 388 467
#     4  11  25  47  74 108 152 201 249 322 384 453
#     4  11  26  49  72 109 158 197 257 320 381 456
#     4  11  25  46  76 113 153 198 253 315 384 457
#     4  12  27  50  79 109 159 207 258 319 395 459
#     4  12  28  50  74 113 154 201 256 319 379 460
#     4  11  25  48  78 113 151 201 252 315 388 461
#     4  12  27  48  80 110 155 199 255 317 389 459
#
# _framework density 26.716116
#
# number of rings (size 3 to 8) (size 9 to 14) (size 15 to 20)
#    0.000    0.500    3.750    3.000    7.000    2.000 
#    4.500    0.000    0.000    0.000    0.000    0.000 
#    0.000    0.000    0.000    0.000    0.000    0.000 
#
# Total GULP energy -89616.578672 kJ/mol
# GULP energy per Si atom -5601.036167 kJ/mol
# Density = 2.665531 g / cm^3
# Si number density = 26.716116 Si / 1000 Ang^3
#
#
#
# Elastic Constant Matrix: (Units=GPa)
#
#
# Indices 1 2 3 4 5 6 
#
# 1 138.7722 21.7719 47.5371 0.0000 30.4968 0.0000
# 2 21.7719 87.9670 -10.7323 0.0000 4.6331 0.0000
# 3 47.5371 -10.7323 111.2548 0.0000 6.7757 0.0000
# 4 0.0000 0.0000 0.0000 42.7834 0.0000 8.2422
# 5 30.4968 4.6331 6.7757 0.0000 40.8192 0.0000
# 6 0.0000 0.0000 0.0000 8.2422 0.0000 38.0594
#
#
#
# Elastic Compliance Matrix: (Units=1/GPa)
#
#
# Indices 1 2 3 4 5 6 
#
# 1 0.010683 -0.002818 -0.004414 0.000000 -0.006929 0.000000
# 2 -0.002818 0.012339 0.002375 0.000000 0.000310 0.000000
# 3 -0.004414 0.002375 0.011031 0.000000 0.001197 0.000000
# 4 0.000000 0.000000 0.000000 0.024391 0.000000 -0.005282
# 5 -0.006929 0.000310 0.001197 0.000000 0.029441 0.000000
# 6 0.000000 0.000000 0.000000 -0.005282 0.000000 0.027419
#
#
# Mechanical properties :
#
#
# Convention : Reuss Voigt Hill
#
# Bulk Modulus (GPa) = 41.08659 50.57193 45.82926
# Shear Modulus (GPa) = 37.55729 42.96024 40.25876
#
# Velocity S-wave (km/s) = 3.75346 4.01437 3.88610
# Velocity P-wave (km/s) = 5.84781 6.36061 6.10959
#
# Compressibility (1/GPa) = 0.02433884
#
# Stress axis : x y z
#
# Youngs Moduli (GPa) = 93.60642 81.04558 90.65514
#
# Poissons Ratio (x) = 0.22836 0.40020
# Poissons Ratio (y) = 0.26376 -0.21534
# Poissons Ratio (z) = 0.41322 -0.19251
#
# Static dielectric constant tensor:
#      x y z
#    x 2.096800 0.000000 -0.002940 
#    y 0.000000 2.260630 0.000000 
#    z -0.002940 0.000000 2.068510 
# 
# From -- ./inp_files/1948.got.cif
#   From: 2010.05.17/outbox.cif.g08.bks.cpg/sg4_1_cif.got.tgz:1948.got - 2010.06.03 18:43:04.
