data_PCOD9119631
_publ_section_title
;
Structure prediction by ZEFSAII (Michael W. Deem and Ramdas Pophale) SiO2 
 PCOD9119631
Probable space group: P 21
;
_chemical_formula_sum "Si O2"
_cell_formula_units_Z 14
_cell_length_a 17.668313
_cell_length_b 5.268070
_cell_length_c 8.356101
_cell_angle_alpha 90.000000
_cell_angle_beta 50.037636
_cell_angle_gamma 90.000000
_cell_volume 596.133440
_symmetry_space_group_name_H-M "P 21"
_symmetry_group_IT_number 4
_symmetry_cell_setting 'monoclinic'
loop_
_space_group_symop_operation_xyz
x,y,z
-x,1/2+y,-z
loop_
_atom_site_type_symbol
_atom_site_label
_atom_site_fract_x
_atom_site_fract_y
_atom_site_fract_z
Si Si1 0.985820 0.460650 0.918430
Si Si2 0.394688 0.796942 0.553360
Si Si3 0.254013 0.002284 0.529530
Si Si4 0.322183 0.300626 0.733141
Si Si5 0.127733 0.266501 0.158958
Si Si6 0.545353 0.448045 0.866428
Si Si7 0.930076 0.607076 0.419706
O O1 0.889387 0.567213 0.962438
O O2 0.054658 0.388596 0.674191
O O3 0.978493 0.192636 0.020072
O O4 0.764401 0.872815 0.026547
O O5 0.403298 0.519765 0.611143
O O6 0.462268 0.877153 0.311895
O O7 0.287706 0.779429 0.602938
O O8 0.374694 0.030776 0.699021
O O9 0.277237 0.238273 0.616449
O O10 0.147967 0.986813 0.596647
O O11 0.337458 0.004394 0.278625
O O12 0.116460 0.126826 0.342739
O O13 0.035673 0.464277 0.280603
O O14 0.487936 0.702130 0.990506
#
# Coordination Sequence:
#
# PCOD9119631 Si02
#       7
#     2   2   2   2   2   2   2
#     4  12  26  41  64  86 114 169 226 265 308 367
#     4   8  19  34  56  90 113 150 197 247 299 368
#     4   8  22  34  59  86 124 150 207 253 309 371
#     4   9  20  36  56  81 116 158 208 243 307 352
#     4  12  26  40  63  82 132 173 220 264 321 349
#     4   9  16  33  59  90 123 146 186 255 327 374
#     4  12  25  44  55  95 126 170 222 273 305 371
#
# _framework density 23.484672
#
# number of rings (size 3 to 8) (size 9 to 14) (size 15 to 20)
#    1.714    0.000    2.857    2.571    2.000    2.286 
#    0.000    0.000    0.000    0.000    0.000   12.000 
#    0.000    0.000    0.000    0.000    0.000    0.000 
#
# Total GULP energy -77997.997042 kJ/mol
# GULP energy per Si atom -5571.285503 kJ/mol
# Density = 2.343122 g / cm^3
# Si number density = 23.484672 Si / 1000 Ang^3
#
#
#
# Elastic Constant Matrix: (Units=GPa)
#
#
# Indices 1 2 3 4 5 6 
#
# 1 73.6966 11.1301 19.8148 0.0000 0.6113 0.0000
# 2 11.1301 129.8177 51.0751 0.0000 3.0760 0.0000
# 3 19.8148 51.0751 137.8562 0.0000 -23.7097 0.0000
# 4 0.0000 0.0000 0.0000 37.5622 0.0000 2.9827
# 5 0.6113 3.0760 -23.7097 0.0000 31.0750 0.0000
# 6 0.0000 0.0000 0.0000 2.9827 0.0000 4.9901
#
#
#
# Elastic Compliance Matrix: (Units=1/GPa)
#
#
# Indices 1 2 3 4 5 6 
#
# 1 0.014243 -0.000273 -0.002290 0.000000 -0.002001 0.000000
# 2 -0.000273 0.009467 -0.004177 0.000000 -0.004119 0.000000
# 3 -0.002290 -0.004177 0.010601 0.000000 0.008547 0.000000
# 4 0.000000 0.000000 0.000000 0.027949 0.000000 -0.016706
# 5 -0.002001 -0.004119 0.008547 0.000000 0.039148 0.000000
# 6 0.000000 0.000000 0.000000 -0.016706 0.000000 0.210380
#
#
# Mechanical properties :
#
#
# Convention : Reuss Voigt Hill
#
# Bulk Modulus (GPa) = 48.00483 56.15671 52.08077
# Shear Modulus (GPa) = 15.05066 32.01549 23.53307
#
# Velocity S-wave (km/s) = 2.53429 3.69623 3.16897
# Velocity P-wave (km/s) = 5.38969 6.49462 5.96778
#
# Compressibility (1/GPa) = 0.02083124
#
# Stress axis : x y z
#
# Youngs Moduli (GPa) = 70.21136 105.62585 94.33504
#
# Poissons Ratio (x) = 0.02880 0.21605
# Poissons Ratio (y) = 0.01914 0.39402
# Poissons Ratio (z) = 0.16080 0.44118
#
# Static dielectric constant tensor:
#      x y z
#    x 1.930560 0.000000 -0.026160 
#    y 0.000000 1.920550 0.000000 
#    z -0.026160 0.000000 1.941770 
# 
# From -- ./inp_files/9480.got.cif
#   From: 2010.05.17/outbox.cif.g08.bks.cpg/sg4_5_cif.got.tgz:9480.got - 2010.06.03 18:43:04.
