data_PCOD9119861
_publ_section_title
;
Structure prediction by ZEFSAII (Michael W. Deem and Ramdas Pophale) SiO2 
 PCOD9119861
Probable space group: P 21
;
_chemical_formula_sum "Si O2"
_cell_formula_units_Z 14
_cell_length_a 9.000000
_cell_length_b 12.000000
_cell_length_c 9.000000
_cell_angle_alpha 90.000000
_cell_angle_beta 140.000000
_cell_angle_gamma 90.000000
_cell_volume 624.789557
_symmetry_space_group_name_H-M "P 21"
_symmetry_group_IT_number 4
_symmetry_cell_setting 'monoclinic'
loop_
_space_group_symop_operation_xyz
x,y,z
-x,1/2+y,-z
loop_
_atom_site_type_symbol
_atom_site_label
_atom_site_fract_x
_atom_site_fract_y
_atom_site_fract_z
Si Si1 0.682675 0.542230 0.412162
Si Si2 0.866599 0.029167 0.429063
Si Si3 0.601136 0.754914 0.490276
Si Si4 0.063700 0.857153 0.809708
Si Si5 0.467752 0.368762 0.015490
Si Si6 0.277936 0.958485 0.225209
Si Si7 0.543760 0.675856 0.780525
O O1 0.526231 0.650703 0.330261
O O2 0.555393 0.450009 0.214792
O O3 0.746819 0.494618 0.624429
O O4 0.914443 0.567470 0.498452
O O5 0.704549 0.130026 0.356715
O O6 0.963074 0.961671 0.642927
O O7 0.716159 0.939685 0.219130
O O8 0.873495 0.761186 0.664315
O O9 0.494253 0.875056 0.376796
O O10 0.539414 0.731697 0.614526
O O11 0.311853 0.837186 0.920703
O O12 0.079258 0.887950 0.995704
O O13 0.372789 0.259066 0.026707
O O14 0.311798 0.064501 0.143973
#
# Coordination Sequence:
#
# PCOD9119861 Si02
#       7
#     2   2   2   2   2   2   2
#     4  10  25  42  69 103 132 179 232 275 348 399
#     4  11  24  46  67 101 142 176 228 282 333 414
#     4  11  23  44  70  99 138 175 229 286 339 406
#     4  11  23  44  67 100 138 177 226 276 347 402
#     4  11  23  44  71 100 135 182 224 280 341 404
#     4  11  23  47  66 105 134 178 225 285 336 407
#     4  11  23  45  70  98 139 175 222 284 338 394
#
# _framework density 22.407544999999999
#
# number of rings (size 3 to 8) (size 9 to 14) (size 15 to 20)
#    0.000    1.143    4.286    0.857    2.000    3.429 
#   10.286    0.000    0.000    0.000    0.000    0.000 
#    0.000    0.000    0.000    0.000    0.000    0.000 
#
# Total GULP energy -78213.371059 kJ/mol
# GULP energy per Si atom -5586.669361 kJ/mol
# Density = 2.235654 g / cm^3
# Si number density = 22.407545 Si / 1000 Ang^3
#
#
#
# Elastic Constant Matrix: (Units=GPa)
#
#
# Indices 1 2 3 4 5 6 
#
# 1 84.8847 20.7087 15.3769 0.0000 -18.6796 0.0000
# 2 20.7087 69.9994 7.5906 0.0000 -6.3116 0.0000
# 3 15.3769 7.5906 64.3702 0.0000 -18.7404 0.0000
# 4 0.0000 0.0000 0.0000 -0.9361 0.0000 -6.3046
# 5 -18.6796 -6.3116 -18.7404 0.0000 22.0243 0.0000
# 6 0.0000 0.0000 0.0000 -6.3046 0.0000 44.8173
#
#
#
# Elastic Compliance Matrix: (Units=1/GPa)
#
#
# Indices 1 2 3 4 5 6 
#
# 1 0.015253 -0.003445 0.000321 0.000000 0.012222 0.000000
# 2 -0.003445 0.015465 -0.000746 0.000000 0.000875 0.000000
# 3 0.000321 -0.000746 0.020688 0.000000 0.017662 0.000000
# 4 0.000000 0.000000 0.000000 -0.548561 0.000000 -0.077168
# 5 0.012222 0.000875 0.017662 0.000000 0.071050 0.000000
# 6 0.000000 0.000000 0.000000 -0.077168 0.000000 0.011457
#
#
# Mechanical properties :
#
#
# Convention : Reuss Voigt Hill
#
# Bulk Modulus (GPa) = 22.90119 34.06743 28.48431
# Shear Modulus (GPa) = -12.74363 24.88631 6.07134
#
# Velocity S-wave (km/s) = -2.38737 3.33621 1.64784
# Velocity P-wave (km/s) = 1.62576 5.48425 4.04476
#
# Compressibility (1/GPa) = 0.04366586
#
# Stress axis : x y z
#
# Youngs Moduli (GPa) = 65.56256 64.66279 48.33607
#
# Poissons Ratio (x) = 0.22277 -0.01551
# Poissons Ratio (y) = 0.22587 0.03605
# Poissons Ratio (z) = -0.02104 0.04823
#
# Static dielectric constant tensor:
#      x y z
#    x 1.783110 0.000000 0.013480 
#    y 0.000000 1.854090 0.000000 
#    z 0.013480 0.000000 1.855760 
# 
# From -- ./inp_files/1107.got.cif
#   From: 2010.05.17/outbox.ucp.g08.bks.cvg/sg4_1_cif.got.tgz:1107.got - 2010.06.11 12:51:24.
