data_PCOD9119854
_publ_section_title
;
Structure prediction by ZEFSAII (Michael W. Deem and Ramdas Pophale) SiO2 
 PCOD9119854
Probable space group: P 21
;
_chemical_formula_sum "Si O2"
_cell_formula_units_Z 14
_cell_length_a 9.000000
_cell_length_b 6.000000
_cell_length_c 18.000000
_cell_angle_alpha 90.000000
_cell_angle_beta 140.000000
_cell_angle_gamma 90.000000
_cell_volume 624.789557
_symmetry_space_group_name_H-M "P 21"
_symmetry_group_IT_number 4
_symmetry_cell_setting 'monoclinic'
loop_
_space_group_symop_operation_xyz
x,y,z
-x,1/2+y,-z
loop_
_atom_site_type_symbol
_atom_site_label
_atom_site_fract_x
_atom_site_fract_y
_atom_site_fract_z
Si Si1 0.431935 0.276920 0.874531
Si Si2 0.221376 0.199894 0.251119
Si Si3 0.881525 0.745960 0.954161
Si Si4 0.033730 0.911610 0.712204
Si Si5 0.838944 0.012994 0.347649
Si Si6 0.250525 0.667164 0.517750
Si Si7 0.215950 0.451434 0.939238
O O1 0.374459 0.378600 0.771670
O O2 0.358352 0.419102 0.918304
O O3 0.685085 0.177410 0.984914
O O4 0.248943 0.073683 0.806711
O O5 0.247839 0.264757 0.174590
O O6 0.074473 0.356752 0.249556
O O7 0.475004 0.188810 0.382637
O O8 0.054350 0.981333 0.185168
O O9 0.752873 0.766150 0.984833
O O10 0.015930 0.990612 0.007204
O O11 0.124519 0.705481 0.698587
O O12 0.841518 0.013223 0.583761
O O13 0.791410 0.080456 0.414123
O O14 0.081377 0.879116 0.443756
#
# Coordination Sequence:
#
# PCOD9119854 Si02
#       7
#     2   2   2   2   2   2   2
#     4  11  25  42  74  97 143 185 236 290 355 439
#     4  11  25  44  70 107 141 185 233 304 362 431
#     4  10  24  46  69 101 151 189 241 298 367 437
#     4  11  24  46  67 100 137 181 236 290 353 430
#     4  11  24  47  68 102 135 183 239 284 361 430
#     4  11  26  43  73 100 138 182 233 296 360 428
#     4  11  24  44  69 109 139 191 238 298 366 441
#
# _framework density 22.407544999999999
#
# number of rings (size 3 to 8) (size 9 to 14) (size 15 to 20)
#    0.000    1.143    2.857    1.714    4.000    5.714 
#    5.143    0.000    0.000    0.000    0.000    0.000 
#    0.000    0.000    0.000    0.000    0.000    0.000 
#
# Total GULP energy -78144.686092 kJ/mol
# GULP energy per Si atom -5581.763292 kJ/mol
# Density = 2.235654 g / cm^3
# Si number density = 22.407545 Si / 1000 Ang^3
#
#
#
# Elastic Constant Matrix: (Units=GPa)
#
#
# Indices 1 2 3 4 5 6 
#
# 1 57.7190 5.8661 12.2331 0.0000 -18.3350 0.0000
# 2 5.8661 64.2478 30.9727 0.0000 -4.2439 0.0000
# 3 12.2331 30.9727 123.0087 0.0000 -7.0300 0.0000
# 4 0.0000 0.0000 0.0000 35.5075 0.0000 -13.3718
# 5 -18.3350 -4.2439 -7.0300 0.0000 46.8154 0.0000
# 6 0.0000 0.0000 0.0000 -13.3718 0.0000 35.6303
#
#
#
# Elastic Compliance Matrix: (Units=1/GPa)
#
#
# Indices 1 2 3 4 5 6 
#
# 1 0.020104 -0.000659 -0.001399 0.000000 0.007604 0.000000
# 2 -0.000659 0.017778 -0.004371 0.000000 0.000697 0.000000
# 3 -0.001399 -0.004371 0.009396 0.000000 0.000467 0.000000
# 4 0.000000 0.000000 0.000000 0.032799 0.000000 0.012309
# 5 0.007604 0.000697 0.000467 0.000000 0.024472 0.000000
# 6 0.000000 0.000000 0.000000 0.012309 0.000000 0.032686
#
#
# Mechanical properties :
#
#
# Convention : Reuss Voigt Hill
#
# Bulk Modulus (GPa) = 29.05236 38.12434 33.58835
# Shear Modulus (GPa) = 30.94721 36.65086 33.79904
#
# Velocity S-wave (km/s) = 3.72036 4.04870 3.88800
# Velocity P-wave (km/s) = 5.60788 6.23755 5.93108
#
# Compressibility (1/GPa) = 0.03442061
#
# Stress axis : x y z
#
# Youngs Moduli (GPa) = 49.74078 56.24879 106.42947
#
# Poissons Ratio (x) = 0.03707 0.14888
# Poissons Ratio (y) = 0.03278 0.46521
# Poissons Ratio (z) = 0.06958 0.24587
#
# Static dielectric constant tensor:
#      x y z
#    x 1.839980 0.000000 0.019710 
#    y 0.000000 1.905510 0.000000 
#    z 0.019710 0.000000 1.788650 
# 
# From -- ./inp_files/7074.got.cif
#   From: 2010.05.17/outbox.ucp.g08.bks.cvg/sg4_4_cif.got.tgz:7074.got - 2010.06.11 12:51:24.
