data_PCOD9119409
_publ_section_title
;
Structure prediction by ZEFSAII (Michael W. Deem and Ramdas Pophale) SiO2 
 PCOD9119409
Probable space group: P 21
;
_chemical_formula_sum "Si O2"
_cell_formula_units_Z 12
_cell_length_a 8.867928
_cell_length_b 11.790762
_cell_length_c 5.481591
_cell_angle_alpha 90.000000
_cell_angle_beta 62.529331
_cell_angle_gamma 90.000000
_cell_volume 508.528440
_symmetry_space_group_name_H-M "P 21"
_symmetry_group_IT_number 4
_symmetry_cell_setting 'monoclinic'
loop_
_space_group_symop_operation_xyz
x,y,z
-x,1/2+y,-z
loop_
_atom_site_type_symbol
_atom_site_label
_atom_site_fract_x
_atom_site_fract_y
_atom_site_fract_z
Si Si1 0.198084 0.652600 0.141669
Si Si2 0.874404 0.356502 0.539134
Si Si3 0.730822 0.463827 0.149314
Si Si4 0.231968 0.387097 0.100654
Si Si5 0.179404 0.203199 0.766255
Si Si6 0.483816 0.290070 0.238453
O O1 0.188210 0.725742 0.400370
O O2 0.241261 0.521339 0.107670
O O3 0.009493 0.669360 0.174780
O O4 0.348694 0.714513 0.885608
O O5 0.822285 0.420257 0.329750
O O6 0.078264 0.357409 0.399700
O O7 0.803587 0.415508 0.838058
O O8 0.754327 0.598382 0.118983
O O9 0.542381 0.409354 0.314935
O O10 0.411125 0.330512 0.033107
O O11 0.171659 0.324488 0.903432
O O12 0.330051 0.218907 0.461790
#
# Coordination Sequence:
#
# PCOD9119409 Si02
#       6
#     2   2   2   2   2   2
#     4  11  27  52  78 113 164 209 266 334 396 482
#     4  11  25  53  77 117 150 219 258 331 394 474
#     4  11  28  50  83 110 166 202 273 327 395 471
#     4  12  27  48  79 115 160 209 272 325 407 470
#     4  12  28  50  78 117 159 217 263 326 403 480
#     4  11  29  47  75 120 149 210 264 333 391 477
#
# _framework density 23.597498999999999
#
# number of rings (size 3 to 8) (size 9 to 14) (size 15 to 20)
#    0.000    0.667    3.333    2.000   14.000    0.000 
#    3.000    0.000    0.000    0.000    0.000    0.000 
#    0.000    0.000    0.000    0.000    0.000    0.000 
#
# Total GULP energy -67004.463331 kJ/mol
# GULP energy per Si atom -5583.705278 kJ/mol
# Density = 2.354379 g / cm^3
# Si number density = 23.597499 Si / 1000 Ang^3
#
#
#
# Elastic Constant Matrix: (Units=GPa)
#
#
# Indices 1 2 3 4 5 6 
#
# 1 115.1285 14.6555 30.4348 0.0000 -16.7471 0.0000
# 2 14.6555 104.0340 25.4891 0.0000 -9.3483 0.0000
# 3 30.4348 25.4891 72.5852 0.0000 1.0044 0.0000
# 4 0.0000 0.0000 0.0000 30.4616 0.0000 -1.3735
# 5 -16.7471 -9.3483 1.0044 0.0000 35.3293 0.0000
# 6 0.0000 0.0000 0.0000 -1.3735 0.0000 26.5077
#
#
#
# Elastic Compliance Matrix: (Units=1/GPa)
#
#
# Indices 1 2 3 4 5 6 
#
# 1 0.010637 0.000086 -0.004562 0.000000 0.005195 0.000000
# 2 0.000086 0.010821 -0.003878 0.000000 0.003014 0.000000
# 3 -0.004562 -0.003878 0.017102 0.000000 -0.003675 0.000000
# 4 0.000000 0.000000 0.000000 0.032905 0.000000 0.001705
# 5 0.005195 0.003014 -0.003675 0.000000 0.031670 0.000000
# 6 0.000000 0.000000 0.000000 0.001705 0.000000 0.037813
#
#
# Mechanical properties :
#
#
# Convention : Reuss Voigt Hill
#
# Bulk Modulus (GPa) = 45.76105 48.10072 46.93088
# Shear Modulus (GPa) = 30.31417 33.20430 31.75924
#
# Velocity S-wave (km/s) = 3.58807 3.75522 3.67259
# Velocity P-wave (km/s) = 6.04980 6.26341 6.15753
#
# Compressibility (1/GPa) = 0.02185265
#
# Stress axis : x y z
#
# Youngs Moduli (GPa) = 94.01506 92.41243 58.47159
#
# Poissons Ratio (x) = -0.00796 0.26675
# Poissons Ratio (y) = -0.00810 0.22674
# Poissons Ratio (z) = 0.42890 0.35835
#
# Static dielectric constant tensor:
#      x y z
#    x 1.948000 0.000000 0.013870 
#    y 0.000000 1.920660 0.000000 
#    z 0.013870 0.000000 2.001930 
# 
# From -- ./inp_files/1074.got.cif
#   From: 2010.05.17/outbox.cif.g08.bks.cpg/sg4_1_cif.got.tgz:1074.got - 2010.06.03 18:43:04.
