data_PCOD9119556
_publ_section_title
;
Structure prediction by ZEFSAII (Michael W. Deem and Ramdas Pophale) SiO2 
 PCOD9119556
Probable space group: P 21
;
_chemical_formula_sum "Si O2"
_cell_formula_units_Z 16
_cell_length_a 13.369567
_cell_length_b 4.894405
_cell_length_c 16.596028
_cell_angle_alpha 90.000000
_cell_angle_beta 37.643696
_cell_angle_gamma 90.000000
_cell_volume 663.260789
_symmetry_space_group_name_H-M "P 21"
_symmetry_group_IT_number 4
_symmetry_cell_setting 'monoclinic'
loop_
_space_group_symop_operation_xyz
x,y,z
-x,1/2+y,-z
loop_
_atom_site_type_symbol
_atom_site_label
_atom_site_fract_x
_atom_site_fract_y
_atom_site_fract_z
Si Si1 0.926406 0.977190 0.261413
Si Si2 0.598597 0.275011 0.918686
Si Si3 0.606958 0.395782 0.728769
Si Si4 0.960163 0.236652 0.475005
Si Si5 0.445465 0.462244 0.485314
Si Si6 0.088221 0.475796 0.232219
Si Si7 0.430102 0.902876 0.775970
Si Si8 0.948477 0.250558 0.984815
O O1 0.741117 0.066224 0.396069
O O2 0.967456 0.731639 0.296824
O O3 0.956038 0.848479 0.155174
O O4 0.044883 0.236483 0.197853
O O5 0.646292 0.343406 0.797073
O O6 0.735832 0.118198 0.881918
O O7 0.548481 0.557755 0.990945
O O8 0.771970 0.309514 0.577510
O O9 0.551711 0.701885 0.746583
O O10 0.461134 0.202374 0.791636
O O11 0.017718 0.425617 0.512892
O O12 0.066721 0.328824 0.331618
O O13 0.551065 0.687273 0.464550
O O14 0.516553 0.406049 0.351612
O O15 0.244372 0.803623 0.902716
O O16 0.011566 0.441158 0.017520
#
# Coordination Sequence:
#
# PCOD9119556 Si02
#       8
#     2   2   2   2   2   2   2   2
#     4  12  26  44  73 104 139 182 234 294 345 428
#     4  12  28  46  70 100 148 198 234 288 346 418
#     4  12  26  46  69 104 140 185 237 288 348 410
#     4  12  24  44  68  98 138 188 234 286 346 402
#     4  12  24  46  74 104 140 184 230 294 366 428
#     4  12  26  46  69 104 140 185 237 288 348 410
#     4  12  26  44  73 104 139 182 234 294 345 428
#     4  12  26  48  70 102 138 180 228 290 366 426
#
# _framework density 24.123244
#
# number of rings (size 3 to 8) (size 9 to 14) (size 15 to 20)
#    0.000    0.000    1.250    9.000    7.000    0.000 
#    0.000    0.000    0.000    0.000    0.000    0.000 
#    0.000    0.000    0.000    0.000    0.000    0.000 
#
# Total GULP energy -89767.469944 kJ/mol
# GULP energy per Si atom -5610.466872 kJ/mol
# Density = 2.406834 g / cm^3
# Si number density = 24.123244 Si / 1000 Ang^3
#
#
#
# Elastic Constant Matrix: (Units=GPa)
#
#
# Indices 1 2 3 4 5 6 
#
# 1 36.3034 5.7631 10.6940 0.0000 4.6999 0.0000
# 2 5.7631 92.0648 -4.9021 0.0000 15.1637 0.0000
# 3 10.6940 -4.9021 66.2235 0.0000 -5.1453 0.0000
# 4 0.0000 0.0000 0.0000 31.4923 0.0000 -8.3927
# 5 4.6999 15.1637 -5.1453 0.0000 36.3468 0.0000
# 6 0.0000 0.0000 0.0000 -8.3927 0.0000 -14.9851
#
#
#
# Elastic Compliance Matrix: (Units=1/GPa)
#
#
# Indices 1 2 3 4 5 6 
#
# 1 0.029840 -0.001492 -0.005238 0.000000 -0.003978 0.000000
# 2 -0.001492 0.011754 0.000753 0.000000 -0.004604 0.000000
# 3 -0.005238 0.000753 0.016208 0.000000 0.002658 0.000000
# 4 0.000000 0.000000 0.000000 0.027630 0.000000 -0.015475
# 5 -0.003978 -0.004604 0.002658 0.000000 0.030324 0.000000
# 6 0.000000 0.000000 0.000000 -0.015475 0.000000 -0.058066
#
#
# Mechanical properties :
#
#
# Convention : Reuss Voigt Hill
#
# Bulk Modulus (GPa) = 21.81058 24.18906 22.99982
# Shear Modulus (GPa) = 58.87405 22.77325 40.82365
#
# Velocity S-wave (km/s) = 4.94555 3.07585 4.11821
# Velocity P-wave (km/s) = 6.45541 4.76062 5.67168
#
# Compressibility (1/GPa) = 0.04584931
#
# Stress axis : x y z
#
# Youngs Moduli (GPa) = 33.51154 85.07947 61.69606
#
# Poissons Ratio (x) = 0.12691 0.32318
# Poissons Ratio (y) = 0.04999 -0.04647
# Poissons Ratio (z) = 0.17554 -0.06408
#
# Static dielectric constant tensor:
#      x y z
#    x 1.936900 0.000000 -0.028260 
#    y 0.000000 1.854210 0.000000 
#    z -0.028260 0.000000 1.962210 
# 
# From -- ./inp_files/10715.got.cif
#   From: 2010.05.17/outbox.cif.g08.bks.cpg/sg4_6_cif.got.tgz:10715.got - 2010.06.03 18:43:04.
