data_PCOD9119566
_publ_section_title
;
Structure prediction by ZEFSAII (Michael W. Deem and Ramdas Pophale) SiO2 
 PCOD9119566
Probable space group: P 21
;
_chemical_formula_sum "Si O2"
_cell_formula_units_Z 14
_cell_length_a 8.704100
_cell_length_b 6.903558
_cell_length_c 17.041987
_cell_angle_alpha 90.000000
_cell_angle_beta 141.239814
_cell_angle_gamma 90.000000
_cell_volume 641.112877
_symmetry_space_group_name_H-M "P 21"
_symmetry_group_IT_number 4
_symmetry_cell_setting 'monoclinic'
loop_
_space_group_symop_operation_xyz
x,y,z
-x,1/2+y,-z
loop_
_atom_site_type_symbol
_atom_site_label
_atom_site_fract_x
_atom_site_fract_y
_atom_site_fract_z
Si Si1 0.716679 0.136370 0.915634
Si Si2 0.294526 0.309021 0.367683
Si Si3 0.019737 0.971979 0.892615
Si Si4 0.604153 0.802446 0.992154
Si Si5 0.846715 0.067704 0.213762
Si Si6 0.234289 0.355315 0.664448
Si Si7 0.236363 0.575251 0.499041
O O1 0.485677 0.254658 0.791563
O O2 0.875894 0.070443 0.906112
O O3 0.637219 0.954011 0.935616
O O4 0.884213 0.268016 0.037731
O O5 0.166439 0.446013 0.252726
O O6 0.264918 0.422874 0.438196
O O7 0.556359 0.236815 0.439709
O O8 0.125906 0.116294 0.306199
O O9 0.251359 0.105733 0.966604
O O10 0.319108 0.748361 0.880202
O O11 0.731393 0.889759 0.119825
O O12 0.816707 0.026352 0.293399
O O13 0.262303 0.450294 0.589598
O O14 0.016981 0.196578 0.590006
#
# Coordination Sequence:
#
# PCOD9119566 Si02
#       7
#     2   2   2   2   2   2   2
#     4  12  26  45  76 114 151 191 242 313 387 448
#     4  12  28  49  77 107 150 199 255 311 370 446
#     4  12  26  45  76 114 151 191 242 313 387 448
#     4  12  24  44  72 114 156 188 238 298 394 464
#     4  12  24  45  76 108 151 194 242 308 380 454
#     4  12  28  49  77 107 150 199 255 311 370 446
#     4  12  30  51  76 106 149 206 262 306 368 440
#
# _framework density 21.837029999999999
#
# number of rings (size 3 to 8) (size 9 to 14) (size 15 to 20)
#    0.000    0.000    4.286    5.143   10.000    0.000 
#    0.000    0.000    0.000    0.000    0.000    0.000 
#    0.000    0.000    0.000    0.000    0.000    0.000 
#
# Total GULP energy -78361.859495 kJ/mol
# GULP energy per Si atom -5597.275678 kJ/mol
# Density = 2.178733 g / cm^3
# Si number density = 21.837030 Si / 1000 Ang^3
#
#
#
# Elastic Constant Matrix: (Units=GPa)
#
#
# Indices 1 2 3 4 5 6 
#
# 1 103.9237 14.9917 36.3188 0.0000 -18.0003 0.0000
# 2 14.9917 47.6841 3.1322 0.0000 -18.0797 0.0000
# 3 36.3188 3.1322 80.3410 0.0000 -30.6501 0.0000
# 4 0.0000 0.0000 0.0000 46.4007 0.0000 -4.9193
# 5 -18.0003 -18.0797 -30.6501 0.0000 49.4294 0.0000
# 6 0.0000 0.0000 0.0000 -4.9193 0.0000 50.5109
#
#
#
# Elastic Compliance Matrix: (Units=1/GPa)
#
#
# Indices 1 2 3 4 5 6 
#
# 1 0.011959 -0.003504 -0.005367 0.000000 -0.000254 0.000000
# 2 -0.003504 0.026022 0.004865 0.000000 0.011258 0.000000
# 3 -0.005367 0.004865 0.019146 0.000000 0.011697 0.000000
# 4 0.000000 0.000000 0.000000 0.021776 0.000000 0.002121
# 5 -0.000254 0.011258 0.011697 0.000000 0.031509 0.000000
# 6 0.000000 0.000000 0.000000 0.002121 0.000000 0.020004
#
#
# Mechanical properties :
#
#
# Convention : Reuss Voigt Hill
#
# Bulk Modulus (GPa) = 20.36032 37.87047 29.11539
# Shear Modulus (GPa) = 32.29960 41.10195 36.70078
#
# Velocity S-wave (km/s) = 3.85011 4.34316 4.10404
# Velocity P-wave (km/s) = 5.39522 6.52155 5.98494
#
# Compressibility (1/GPa) = 0.04911514
#
# Stress axis : x y z
#
# Youngs Moduli (GPa) = 83.61615 38.42882 52.23110
#
# Poissons Ratio (x) = 0.13465 0.28031
# Poissons Ratio (y) = 0.29298 -0.25408
# Poissons Ratio (z) = 0.44875 -0.18694
#
# Static dielectric constant tensor:
#      x y z
#    x 1.798490 0.000000 -0.011730 
#    y 0.000000 1.794840 0.000000 
#    z -0.011730 0.000000 1.764730 
# 
# From -- ./inp_files/8984.got.cif
#   From: 2010.05.17/outbox.cif.g08.bks.cpg/sg4_5_cif.got.tgz:8984.got - 2010.06.03 18:43:04.
