data_PCOD9119374
_publ_section_title
;
Structure prediction by ZEFSAII (Michael W. Deem and Ramdas Pophale) SiO2 
 PCOD9119374
Probable space group: P 21
;
_chemical_formula_sum "Si O2"
_cell_formula_units_Z 12
_cell_length_a 5.050208
_cell_length_b 9.312463
_cell_length_c 10.385001
_cell_angle_alpha 90.000000
_cell_angle_beta 62.449248
_cell_angle_gamma 90.000000
_cell_volume 433.020859
_symmetry_space_group_name_H-M "P 21"
_symmetry_group_IT_number 4
_symmetry_cell_setting 'monoclinic'
loop_
_space_group_symop_operation_xyz
x,y,z
-x,1/2+y,-z
loop_
_atom_site_type_symbol
_atom_site_label
_atom_site_fract_x
_atom_site_fract_y
_atom_site_fract_z
Si Si1 0.641500 0.668790 0.349429
Si Si2 0.903409 0.946764 0.847864
Si Si3 0.740055 0.884529 0.563263
Si Si4 0.341025 0.921429 0.299341
Si Si5 0.258618 0.707299 0.781918
Si Si6 0.202427 0.988801 0.043794
O O1 0.675118 0.769435 0.465189
O O2 0.404394 0.541470 0.423052
O O3 0.944001 0.588542 0.243445
O O4 0.525734 0.774755 0.264520
O O5 0.055878 0.812429 0.737866
O O6 0.557986 0.981785 0.943602
O O7 0.049512 0.912818 0.956330
O O8 0.549356 0.813391 0.722531
O O9 0.090714 0.913101 0.465963
O O10 0.558367 0.056586 0.273447
O O11 0.180201 0.936883 0.196864
O O12 0.974437 0.637972 0.921856
#
# Coordination Sequence:
#
# PCOD9119374 Si02
#       6
#     2   2   2   2   2   2
#     4  11  26  48  73 119 155 214 265 340 394 485
#     4  11  30  48  81 114 160 208 275 324 407 477
#     4  11  25  48  77 113 160 211 272 327 408 473
#     4  12  25  43  80 108 162 204 267 328 407 459
#     4  11  27  50  76 119 156 215 266 339 390 485
#     4  12  27  49  77 115 157 210 261 336 396 475
#
# _framework density 27.712292999999999
#
# number of rings (size 3 to 8) (size 9 to 14) (size 15 to 20)
#    0.000    0.667    1.667    4.000    7.000    1.333 
#    6.000    0.000    0.000    0.000    0.000    0.000 
#    0.000    0.000    0.000    0.000    0.000    0.000 
#
# Total GULP energy -66966.362298 kJ/mol
# GULP energy per Si atom -5580.530192 kJ/mol
# Density = 2.764922 g / cm^3
# Si number density = 27.712293 Si / 1000 Ang^3
#
#
#
# Elastic Constant Matrix: (Units=GPa)
#
#
# Indices 1 2 3 4 5 6 
#
# 1 154.0208 44.4008 78.9040 0.0000 -37.4341 0.0000
# 2 44.4008 166.3515 44.0897 0.0000 -17.3864 0.0000
# 3 78.9040 44.0897 164.5579 0.0000 -30.2658 0.0000
# 4 0.0000 0.0000 0.0000 37.4173 0.0000 3.3638
# 5 -37.4341 -17.3864 -30.2658 0.0000 80.1674 0.0000
# 6 0.0000 0.0000 0.0000 3.3638 0.0000 -18.3520
#
#
#
# Elastic Compliance Matrix: (Units=1/GPa)
#
#
# Indices 1 2 3 4 5 6 
#
# 1 0.009396 -0.001250 -0.003668 0.000000 0.002732 0.000000
# 2 -0.001250 0.006686 -0.001110 0.000000 0.000447 0.000000
# 3 -0.003668 -0.001110 0.008354 0.000000 0.001200 0.000000
# 4 0.000000 0.000000 0.000000 0.026292 0.000000 0.004819
# 5 0.002732 0.000447 0.001200 0.000000 0.014300 0.000000
# 6 0.000000 0.000000 0.000000 0.004819 0.000000 -0.053607
#
#
# Mechanical properties :
#
#
# Convention : Reuss Voigt Hill
#
# Bulk Modulus (GPa) = 80.77497 91.07990 85.92743
# Shear Modulus (GPa) = 181.13867 41.01559 111.07713
#
# Velocity S-wave (km/s) = 8.09357 3.85132 6.33792
# Velocity P-wave (km/s) = 10.79593 7.26047 9.19964
#
# Compressibility (1/GPa) = 0.01238007
#
# Stress axis : x y z
#
# Youngs Moduli (GPa) = 106.42828 149.56832 119.70739
#
# Poissons Ratio (x) = 0.18700 0.43908
# Poissons Ratio (y) = 0.13306 0.13283
# Poissons Ratio (z) = 0.39037 0.16596
#
# Static dielectric constant tensor:
#      x y z
#    x 2.200870 0.000000 0.056450 
#    y 0.000000 2.432530 0.000000 
#    z 0.056450 0.000000 2.324550 
# 
# From -- ./inp_files/13317.got.cif
#   From: 2010.05.17/outbox.cif.g08.bks.cpg/sg4_7_cif.got.tgz:13317.got - 2010.06.03 18:43:04.
