data_PCOD9119542
_publ_section_title
;
Structure prediction by ZEFSAII (Michael W. Deem and Ramdas Pophale) SiO2 
 PCOD9119542
Probable space group: P 21
;
_chemical_formula_sum "Si O2"
_cell_formula_units_Z 16
_cell_length_a 14.199920
_cell_length_b 5.584904
_cell_length_c 9.469774
_cell_angle_alpha 90.000000
_cell_angle_beta 116.680012
_cell_angle_gamma 90.000000
_cell_volume 671.041579
_symmetry_space_group_name_H-M "P 21"
_symmetry_group_IT_number 4
_symmetry_cell_setting 'monoclinic'
loop_
_space_group_symop_operation_xyz
x,y,z
-x,1/2+y,-z
loop_
_atom_site_type_symbol
_atom_site_label
_atom_site_fract_x
_atom_site_fract_y
_atom_site_fract_z
Si Si1 0.840762 0.463570 0.923025
Si Si2 0.852792 0.423105 0.441704
Si Si3 0.236820 0.697644 0.369092
Si Si4 0.929989 0.055433 0.305340
Si Si5 0.467411 0.186012 0.058426
Si Si6 0.530959 0.094850 0.435797
Si Si7 0.062967 0.354376 0.176350
Si Si8 0.224263 0.202404 0.862127
O O1 0.761741 0.294200 0.788135
O O2 0.844986 0.712539 0.841724
O O3 0.803527 0.481982 0.056247
O O4 0.965272 0.403020 0.005925
O O5 0.784473 0.409908 0.535368
O O6 0.843229 0.180639 0.345010
O O7 0.809783 0.636082 0.318118
O O8 0.978882 0.422506 0.546530
O O9 0.342208 0.565387 0.480459
O O10 0.124020 0.567305 0.293068
O O11 0.004556 0.220396 0.262157
O O12 0.862095 0.897049 0.153212
O O13 0.495801 0.137634 0.245715
O O14 0.519900 0.428589 0.020327
O O15 0.344515 0.256533 0.965209
O O16 0.509881 0.347335 0.512007
#
# Coordination Sequence:
#
# PCOD9119542 Si02
#       8
#     2   2   2   2   2   2   2   2
#     4  12  24  44  66 110 146 194 239 301 375 467
#     4  12  24  44  66 110 146 194 239 301 375 467
#     4  12  28  43  78 102 151 198 246 314 387 450
#     4  12  24  41  68 106 154 188 243 295 374 464
#     4  12  30  56  84 118 157 209 279 344 400 470
#     4  12  30  56  84 118 157 209 279 344 400 470
#     4  12  24  41  68 106 154 188 243 295 374 464
#     4  12  28  43  78 102 151 198 246 314 387 450
#
# _framework density 23.843533000000001
#
# number of rings (size 3 to 8) (size 9 to 14) (size 15 to 20)
#    0.000    0.000    5.000    4.500    7.000    0.000 
#    0.000    0.000    0.000    0.000    0.000    0.000 
#    0.000    0.000    0.000    0.000    0.000    0.000 
#
# Total GULP energy -89224.234692 kJ/mol
# GULP energy per Si atom -5576.514668 kJ/mol
# Density = 2.378926 g / cm^3
# Si number density = 23.843533 Si / 1000 Ang^3
#
#
#
# Elastic Constant Matrix: (Units=GPa)
#
#
# Indices 1 2 3 4 5 6 
#
# 1 59.2617 4.8470 37.4130 0.0000 14.2294 0.0000
# 2 4.8470 67.7824 30.4369 0.0000 -19.2925 0.0000
# 3 37.4130 30.4369 126.8562 0.0000 -1.0659 0.0000
# 4 0.0000 0.0000 0.0000 28.6438 0.0000 -8.8627
# 5 14.2294 -19.2925 -1.0659 0.0000 39.8709 0.0000
# 6 0.0000 0.0000 0.0000 -8.8627 0.0000 33.5789
#
#
#
# Elastic Compliance Matrix: (Units=1/GPa)
#
#
# Indices 1 2 3 4 5 6 
#
# 1 0.023382 -0.001281 -0.006665 0.000000 -0.009143 0.000000
# 2 -0.001281 0.019530 -0.004226 0.000000 0.009794 0.000000
# 3 -0.006665 -0.004226 0.010868 0.000000 0.000625 0.000000
# 4 0.000000 0.000000 0.000000 0.038016 0.000000 0.010034
# 5 -0.009143 0.009794 0.000625 0.000000 0.033100 0.000000
# 6 0.000000 0.000000 0.000000 0.010034 0.000000 0.032429
#
#
# Mechanical properties :
#
#
# Convention : Reuss Voigt Hill
#
# Bulk Modulus (GPa) = 33.97276 44.36601 39.16938
# Shear Modulus (GPa) = 26.11214 32.49895 29.30555
#
# Velocity S-wave (km/s) = 3.31289 3.69590 3.50962
# Velocity P-wave (km/s) = 5.37706 6.07128 5.73469
#
# Compressibility (1/GPa) = 0.02943535
#
# Stress axis : x y z
#
# Youngs Moduli (GPa) = 42.76706 51.20355 92.01437
#
# Poissons Ratio (x) = 0.06561 0.61332
# Poissons Ratio (y) = 0.05480 0.38882
# Poissons Ratio (z) = 0.28506 0.21637
#
# Static dielectric constant tensor:
#      x y z
#    x 1.859730 0.000000 -0.012240 
#    y 0.000000 2.146810 0.000000 
#    z -0.012240 0.000000 2.055870 
# 
# From -- ./inp_files/7373.got.cif
#   From: 2010.05.17/outbox.cif.g08.bks.cpg/sg4_4_cif.got.tgz:7373.got - 2010.06.03 18:43:04.
