data_PCOD9119862
_publ_section_title
;
Structure prediction by ZEFSAII (Michael W. Deem and Ramdas Pophale) SiO2 
 PCOD9119862
Probable space group: P 21
;
_chemical_formula_sum "Si O2"
_cell_formula_units_Z 16
_cell_length_a 15.000000
_cell_length_b 9.000000
_cell_length_c 6.000000
_cell_angle_alpha 90.000000
_cell_angle_beta 70.000000
_cell_angle_gamma 90.000000
_cell_volume 761.151023
_symmetry_space_group_name_H-M "P 21"
_symmetry_group_IT_number 4
_symmetry_cell_setting 'monoclinic'
loop_
_space_group_symop_operation_xyz
x,y,z
-x,1/2+y,-z
loop_
_atom_site_type_symbol
_atom_site_label
_atom_site_fract_x
_atom_site_fract_y
_atom_site_fract_z
Si Si1 0.209730 0.771270 0.148458
Si Si2 0.602912 0.752299 0.125205
Si Si3 0.888809 0.838469 0.051882
Si Si4 0.708534 0.025913 0.235640
Si Si5 0.622854 0.259621 0.634884
Si Si6 0.013855 0.622195 0.265277
Si Si7 0.159455 0.099273 0.285973
Si Si8 0.336346 0.109796 0.428443
O O1 0.294626 0.744987 0.250194
O O2 0.105961 0.704804 0.289045
O O3 0.197212 0.948873 0.134716
O O4 0.241975 0.670944 0.914557
O O5 0.488839 0.755785 0.215193
O O6 0.633913 0.682306 0.351346
O O7 0.649566 0.917784 0.116627
O O8 0.626486 0.676284 0.854859
O O9 0.846964 0.734059 0.886430
O O10 0.950810 0.974257 0.894734
O O11 0.955517 0.736177 0.152898
O O12 0.796836 0.921642 0.240522
O O13 0.640775 0.111881 0.467288
O O14 0.638726 0.434807 0.554731
O O15 0.944732 0.576692 0.524843
O O16 0.225627 0.121004 0.450320
#
# Coordination Sequence:
#
# PCOD9119862 Si02
#       8
#     2   2   2   2   2   2   2   2
#     4  10  26  44  68 106 147 194 251 318 377 463
#     4  12  27  49  80 111 153 202 261 320 395 460
#     4  11  24  43  70 107 146 199 249 319 383 465
#     4  11  26  46  72 108 149 200 258 323 386 464
#     4  11  28  45  76 104 154 197 259 321 390 464
#     4  11  24  41  71 104 145 194 251 309 386 459
#     4  11  23  44  72 101 150 196 248 312 387 464
#     4  11  28  48  77 113 150 204 251 324 386 467
#
# _framework density 21.020796000000001
#
# number of rings (size 3 to 8) (size 9 to 14) (size 15 to 20)
#    0.000    1.000    1.250    3.000    8.750   10.000 
#    0.000    0.000    0.000    0.000    0.000    0.000 
#    0.000    0.000    0.000    0.000    0.000    0.000 
#
# Total GULP energy -89134.365188 kJ/mol
# GULP energy per Si atom -5570.897824 kJ/mol
# Density = 2.097295 g / cm^3
# Si number density = 21.020796 Si / 1000 Ang^3
#
#
#
# Elastic Constant Matrix: (Units=GPa)
#
#
# Indices 1 2 3 4 5 6 
#
# 1 132.7220 28.1309 17.6302 0.0000 -13.2323 0.0000
# 2 28.1309 147.1618 29.4899 0.0000 -1.1770 0.0000
# 3 17.6302 29.4899 29.6292 0.0000 2.4201 0.0000
# 4 0.0000 0.0000 0.0000 42.6415 0.0000 4.3084
# 5 -13.2323 -1.1770 2.4201 0.0000 40.6807 0.0000
# 6 0.0000 0.0000 0.0000 4.3084 0.0000 41.8299
#
#
#
# Elastic Compliance Matrix: (Units=1/GPa)
#
#
# Indices 1 2 3 4 5 6 
#
# 1 0.008607 -0.000680 -0.004695 0.000000 0.003059 0.000000
# 2 -0.000680 0.008565 -0.008162 0.000000 0.000512 0.000000
# 3 -0.004695 -0.008162 0.045030 0.000000 -0.004442 0.000000
# 4 0.000000 0.000000 0.000000 0.023698 0.000000 -0.002441
# 5 0.003059 0.000512 -0.004442 0.000000 0.025856 0.000000
# 6 0.000000 0.000000 0.000000 -0.002441 0.000000 0.024158
#
#
# Mechanical properties :
#
#
# Convention : Reuss Voigt Hill
#
# Bulk Modulus (GPa) = 28.46620 51.11280 39.78950
# Shear Modulus (GPa) = 28.62106 40.64788 34.63447
#
# Velocity S-wave (km/s) = 3.69393 4.40215 4.06350
# Velocity P-wave (km/s) = 5.63603 7.08567 6.40202
#
# Compressibility (1/GPa) = 0.03512938
#
# Stress axis : x y z
#
# Youngs Moduli (GPa) = 116.18019 116.75571 22.20739
#
# Poissons Ratio (x) = 0.07941 0.10425
# Poissons Ratio (y) = 0.07902 0.18125
# Poissons Ratio (z) = 0.54542 0.95293
#
# Static dielectric constant tensor:
#      x y z
#    x 1.768820 0.000000 -0.022310 
#    y 0.000000 1.776230 0.000000 
#    z -0.022310 0.000000 1.832940 
# 
# From -- ./inp_files/3570.got.cif
#   From: 2010.05.17/outbox.ucp.g08.bks.cvg/sg4_2_cif.got.tgz:3570.got - 2010.06.11 12:51:24.
