data_PCOD9119438
_publ_section_title
;
Structure prediction by ZEFSAII (Michael W. Deem and Ramdas Pophale) SiO2 
 PCOD9119438
Probable space group: P 21
;
_chemical_formula_sum "Si O2"
_cell_formula_units_Z 14
_cell_length_a 7.370995
_cell_length_b 15.269396
_cell_length_c 7.944757
_cell_angle_alpha 90.000000
_cell_angle_beta 142.424960
_cell_angle_gamma 90.000000
_cell_volume 545.275498
_symmetry_space_group_name_H-M "P 21"
_symmetry_group_IT_number 4
_symmetry_cell_setting 'monoclinic'
loop_
_space_group_symop_operation_xyz
x,y,z
-x,1/2+y,-z
loop_
_atom_site_type_symbol
_atom_site_label
_atom_site_fract_x
_atom_site_fract_y
_atom_site_fract_z
Si Si1 0.190970 0.826570 0.534131
Si Si2 0.634686 0.739545 0.063959
Si Si3 0.713600 0.548314 0.083491
Si Si4 0.346357 0.463664 0.519436
Si Si5 0.536292 0.764915 0.474779
Si Si6 0.751963 0.519094 0.505734
Si Si7 0.139487 0.672181 0.936211
O O1 0.500137 0.821315 0.863221
O O2 0.297023 0.779141 0.443633
O O3 0.107431 0.924741 0.430997
O O4 0.896526 0.774982 0.373373
O O5 0.327752 0.707285 0.918177
O O6 0.754040 0.650844 0.065038
O O7 0.664009 0.549282 0.250417
O O8 0.000276 0.488218 0.258672
O O9 0.467307 0.510832 0.776358
O O10 0.424747 0.360420 0.581670
O O11 0.499122 0.499417 0.459861
O O12 0.862003 0.735566 0.773064
O O13 0.391408 0.686176 0.261943
O O14 0.987685 0.582189 0.769994
#
# Coordination Sequence:
#
# PCOD9119438 Si02
#       7
#     2   2   2   2   2   2   2
#     4  11  27  49  77 106 158 198 256 315 391 455
#     4  12  27  47  72 117 144 202 258 311 389 465
#     4  12  27  49  79 112 152 200 261 318 393 460
#     4  11  28  49  80 112 151 204 258 319 393 466
#     4  11  26  47  74 114 143 204 255 311 395 458
#     4  11  29  52  76 117 157 205 257 325 388 460
#     4  12  26  47  76 110 155 193 259 319 385 456
#
# _framework density 25.675093
#
# number of rings (size 3 to 8) (size 9 to 14) (size 15 to 20)
#    0.000    0.571    0.000    6.000   12.000    8.000 
#    0.000    0.000    0.000    0.000    0.000    0.000 
#    0.000    0.000    0.000    0.000    0.000    0.000 
#
# Total GULP energy -78306.233370 kJ/mol
# GULP energy per Si atom -5593.302384 kJ/mol
# Density = 2.561666 g / cm^3
# Si number density = 25.675093 Si / 1000 Ang^3
#
#
#
# Elastic Constant Matrix: (Units=GPa)
#
#
# Indices 1 2 3 4 5 6 
#
# 1 78.6927 42.0574 7.9762 0.0000 -3.9192 0.0000
# 2 42.0574 92.5570 36.8009 0.0000 15.8925 0.0000
# 3 7.9762 36.8009 114.4895 0.0000 2.4833 0.0000
# 4 0.0000 0.0000 0.0000 40.2734 0.0000 -4.2738
# 5 -3.9192 15.8925 2.4833 0.0000 18.8138 0.0000
# 6 0.0000 0.0000 0.0000 -4.2738 0.0000 32.1836
#
#
#
# Elastic Compliance Matrix: (Units=1/GPa)
#
#
# Indices 1 2 3 4 5 6 
#
# 1 0.019782 -0.012341 0.002280 0.000000 0.014245 0.000000
# 2 -0.012341 0.022280 -0.005855 0.000000 -0.020619 0.000000
# 3 0.002280 -0.005855 0.010370 0.000000 0.004052 0.000000
# 4 0.000000 0.000000 0.000000 0.025185 0.000000 0.003344
# 5 0.014245 -0.020619 0.004052 0.000000 0.073002 0.000000
# 6 0.000000 0.000000 0.000000 0.003344 0.000000 0.031516
#
#
# Mechanical properties :
#
#
# Convention : Reuss Voigt Hill
#
# Bulk Modulus (GPa) = 48.54481 51.04535 49.79508
# Shear Modulus (GPa) = 22.64158 31.51447 27.07803
#
# Velocity S-wave (km/s) = 2.97282 3.50728 3.25105
# Velocity P-wave (km/s) = 5.54364 6.02708 5.79041
#
# Compressibility (1/GPa) = 0.02059952
#
# Stress axis : x y z
#
# Youngs Moduli (GPa) = 50.55178 44.88342 96.43594
#
# Poissons Ratio (x) = 0.55391 -0.21985
# Poissons Ratio (y) = 0.62386 0.56459
# Poissons Ratio (z) = -0.11524 0.26277
#
# Static dielectric constant tensor:
#      x y z
#    x 1.997510 0.000000 -0.053200 
#    y 0.000000 2.064760 0.000000 
#    z -0.053200 0.000000 1.943640 
# 
# From -- ./inp_files/6701.got.cif
#   From: 2010.05.17/outbox.cif.g08.bks.cpg/sg4_4_cif.got.tgz:6701.got - 2010.06.03 18:43:04.
