data_PCOD9119024
_publ_section_title
;
Structure prediction by ZEFSAII (Michael W. Deem and Ramdas Pophale) SiO2 
 PCOD9119024
Probable space group: P 21
;
_chemical_formula_sum "Si O2"
_cell_formula_units_Z 14
_cell_length_a 14.944022
_cell_length_b 7.433223
_cell_length_c 7.006187
_cell_angle_alpha 90.000000
_cell_angle_beta 132.054801
_cell_angle_gamma 90.000000
_cell_volume 577.863774
_symmetry_space_group_name_H-M "P 21"
_symmetry_group_IT_number 4
_symmetry_cell_setting 'monoclinic'
loop_
_space_group_symop_operation_xyz
x,y,z
-x,1/2+y,-z
loop_
_atom_site_type_symbol
_atom_site_label
_atom_site_fract_x
_atom_site_fract_y
_atom_site_fract_z
Si Si1 0.702671 0.710610 0.217807
Si Si2 0.955242 0.799648 0.718845
Si Si3 0.600189 0.553485 0.441144
Si Si4 0.269581 0.318145 0.130831
Si Si5 0.999937 0.876002 0.222720
Si Si6 0.638325 0.181018 0.681796
Si Si7 0.830524 0.359272 0.234485
O O1 0.611298 0.634597 0.245177
O O2 0.757483 0.532144 0.198243
O O3 0.813505 0.818146 0.472852
O O4 0.658481 0.817512 0.967869
O O5 0.979816 0.587957 0.721652
O O6 0.050826 0.901047 0.722037
O O7 0.989779 0.839113 0.985134
O O8 0.710730 0.641330 0.717020
O O9 0.616716 0.340254 0.498958
O O10 0.485687 0.637079 0.386389
O O11 0.312766 0.488293 0.316790
O O12 0.130157 0.331407 0.879023
O O13 0.109396 0.778260 0.487379
O O14 0.739663 0.243212 0.978551
#
# Coordination Sequence:
#
# PCOD9119024 Si02
#       7
#     2   2   2   2   2   2   2
#     4  11  26  44  73 107 156 194 245 315 376 450
#     4  11  24  40  68 108 144 195 238 299 374 452
#     4  12  27  53  73 109 145 199 255 315 373 443
#     4  12  24  48  72 110 148 195 250 307 372 448
#     4  11  25  40  71 106 146 191 242 301 375 449
#     4  12  27  50  80 102 151 197 253 316 372 445
#     4  11  25  43  67 110 148 189 239 311 370 445
#
# _framework density 24.227163999999998
#
# number of rings (size 3 to 8) (size 9 to 14) (size 15 to 20)
#    0.000    0.571    7.143    0.000    6.000    2.286 
#    2.571    0.000    0.000    0.000    0.000    0.000 
#    0.000    0.000    0.000    0.000    0.000    0.000 
#
# Total GULP energy -78313.126044 kJ/mol
# GULP energy per Si atom -5593.794717 kJ/mol
# Density = 2.417202 g / cm^3
# Si number density = 24.227164 Si / 1000 Ang^3
#
#
#
# Elastic Constant Matrix: (Units=GPa)
#
#
# Indices 1 2 3 4 5 6 
#
# 1 56.6207 17.1934 2.2035 0.0000 -11.4915 0.0000
# 2 17.1934 91.8122 4.2805 0.0000 3.0434 0.0000
# 3 2.2035 4.2805 65.3597 0.0000 -11.1310 0.0000
# 4 0.0000 0.0000 0.0000 27.7695 0.0000 -0.2149
# 5 -11.4915 3.0434 -11.1310 0.0000 43.8472 0.0000
# 6 0.0000 0.0000 0.0000 -0.2149 0.0000 33.0254
#
#
#
# Elastic Compliance Matrix: (Units=1/GPa)
#
#
# Indices 1 2 3 4 5 6 
#
# 1 0.019989 -0.003956 0.000548 0.000000 0.005652 0.000000
# 2 -0.003956 0.011749 -0.000995 0.000000 -0.002105 0.000000
# 3 0.000548 -0.000995 0.016078 0.000000 0.004294 0.000000
# 4 0.000000 0.000000 0.000000 0.036012 0.000000 0.000234
# 5 0.005652 -0.002105 0.004294 0.000000 0.025524 0.000000
# 6 0.000000 0.000000 0.000000 0.000234 0.000000 0.030281
#
#
# Mechanical properties :
#
#
# Convention : Reuss Voigt Hill
#
# Bulk Modulus (GPa) = 25.63471 29.01639 27.32555
# Shear Modulus (GPa) = 30.97091 33.60277 32.28684
#
# Velocity S-wave (km/s) = 3.57929 3.72827 3.65454
# Velocity P-wave (km/s) = 5.26172 5.52595 5.39545
#
# Compressibility (1/GPa) = 0.03900961
#
# Stress axis : x y z
#
# Youngs Moduli (GPa) = 50.02867 85.11515 62.19711
#
# Poissons Ratio (x) = 0.33672 -0.03407
# Poissons Ratio (y) = 0.19792 0.06186
# Poissons Ratio (z) = -0.02741 0.08465
#
# Static dielectric constant tensor:
#      x y z
#    x 1.953290 0.000000 -0.019060 
#    y 0.000000 1.965410 0.000000 
#    z -0.019060 0.000000 1.944400 
# 
# From -- ./inp_files/3736.got.cif
#   From: 2010.05.17/outbox.cif.g08.bks.cpg/sg4_2_cif.got.tgz:3736.got - 2010.06.03 18:43:04.
