data_PCOD9119495
_publ_section_title
;
Structure prediction by ZEFSAII (Michael W. Deem and Ramdas Pophale) SiO2 
 PCOD9119495
Probable space group: P 21
;
_chemical_formula_sum "Si O2"
_cell_formula_units_Z 14
_cell_length_a 10.726585
_cell_length_b 5.350782
_cell_length_c 16.321851
_cell_angle_alpha 90.000000
_cell_angle_beta 40.390736
_cell_angle_gamma 90.000000
_cell_volume 607.045131
_symmetry_space_group_name_H-M "P 21"
_symmetry_group_IT_number 4
_symmetry_cell_setting 'monoclinic'
loop_
_space_group_symop_operation_xyz
x,y,z
-x,1/2+y,-z
loop_
_atom_site_type_symbol
_atom_site_label
_atom_site_fract_x
_atom_site_fract_y
_atom_site_fract_z
Si Si1 0.797318 0.564910 0.663727
Si Si2 0.499687 0.190118 0.055132
Si Si3 0.814496 0.338438 0.012798
Si Si4 0.512420 0.703707 0.229747
Si Si5 0.791534 0.062488 0.188365
Si Si6 0.396259 0.555419 0.555074
Si Si7 0.224094 0.396545 0.478793
O O1 0.679694 0.722868 0.790937
O O2 0.667493 0.316804 0.728867
O O3 0.794274 0.655403 0.570450
O O4 0.020044 0.534477 0.571804
O O5 0.691129 0.159022 0.016050
O O6 0.522525 0.439604 0.988390
O O7 0.668837 0.569674 0.095235
O O8 0.853106 0.253010 0.086904
O O9 0.023739 0.404574 0.876390
O O10 0.628936 0.906655 0.222819
O O11 0.411680 0.517925 0.343317
O O12 0.706237 0.167808 0.313777
O O13 0.480085 0.814259 0.475578
O O14 0.267800 0.409116 0.552635
#
# Coordination Sequence:
#
# PCOD9119495 Si02
#       7
#     2   2   2   2   2   2   2
#     4  12  26  46  78 108 149 203 252 310 384 456
#     4  12  29  50  73 112 156 202 256 319 374 447
#     4  12  26  46  78 108 149 203 252 310 384 456
#     4  12  21  48  73 106 150 194 252 307 370 461
#     4  12  26  47  76 111 149 198 255 310 383 458
#     4  12  28  50  76 112 154 196 248 322 378 446
#     4  12  26  47  76 111 149 198 255 310 383 458
#
# _framework density 23.062538
#
# number of rings (size 3 to 8) (size 9 to 14) (size 15 to 20)
#    0.000    0.000    7.143    2.571    2.000    0.000 
#    2.571    0.000    0.000    0.000    0.000    0.000 
#    0.000    0.000    0.000    0.000    0.000    0.000 
#
# Total GULP energy -78153.346673 kJ/mol
# GULP energy per Si atom -5582.381905 kJ/mol
# Density = 2.301005 g / cm^3
# Si number density = 23.062538 Si / 1000 Ang^3
#
#
#
# Elastic Constant Matrix: (Units=GPa)
#
#
# Indices 1 2 3 4 5 6 
#
# 1 78.6402 4.7106 23.9034 0.0000 -0.4507 0.0000
# 2 4.7106 56.8884 6.6021 0.0000 3.9272 0.0000
# 3 23.9034 6.6021 59.1959 0.0000 -4.1566 0.0000
# 4 0.0000 0.0000 0.0000 30.8769 0.0000 4.6510
# 5 -0.4507 3.9272 -4.1566 0.0000 39.5212 0.0000
# 6 0.0000 0.0000 0.0000 4.6510 0.0000 38.5107
#
#
#
# Elastic Compliance Matrix: (Units=1/GPa)
#
#
# Indices 1 2 3 4 5 6 
#
# 1 0.014517 -0.000497 -0.005835 0.000000 -0.000399 0.000000
# 2 -0.000497 0.017983 -0.001945 0.000000 -0.001997 0.000000
# 3 -0.005835 -0.001945 0.019620 0.000000 0.002190 0.000000
# 4 0.000000 0.000000 0.000000 0.032987 0.000000 -0.003984
# 5 -0.000399 -0.001997 0.002190 0.000000 0.025727 0.000000
# 6 0.000000 0.000000 0.000000 -0.003984 0.000000 0.026448
#
#
# Mechanical properties :
#
#
# Convention : Reuss Voigt Hill
#
# Bulk Modulus (GPa) = 28.11679 29.46186 28.78932
# Shear Modulus (GPa) = 30.17664 32.41566 31.29615
#
# Velocity S-wave (km/s) = 3.62120 3.75314 3.68776
# Velocity P-wave (km/s) = 5.44997 5.61996 5.53561
#
# Compressibility (1/GPa) = 0.03556594
#
# Stress axis : x y z
#
# Youngs Moduli (GPa) = 68.88419 55.60790 50.96902
#
# Poissons Ratio (x) = 0.02766 0.29738
# Poissons Ratio (y) = 0.03427 0.09914
# Poissons Ratio (z) = 0.40191 0.10816
#
# Static dielectric constant tensor:
#      x y z
#    x 1.894980 0.000000 0.014470 
#    y 0.000000 1.942050 0.000000 
#    z 0.014470 0.000000 1.854150 
# 
# From -- ./inp_files/8569.got.cif
#   From: 2010.05.17/outbox.cif.g08.bks.cpg/sg4_5_cif.got.tgz:8569.got - 2010.06.03 18:43:04.
