data_PCOD9119900
_publ_section_title
;
Structure prediction by ZEFSAII (Michael W. Deem and Ramdas Pophale) SiO2 
 PCOD9119900
Probable space group: P 21
;
_chemical_formula_sum "Si O2"
_cell_formula_units_Z 16
_cell_length_a 9.000000
_cell_length_b 9.000000
_cell_length_c 18.000000
_cell_angle_alpha 90.000000
_cell_angle_beta 150.000000
_cell_angle_gamma 90.000000
_cell_volume 729.000000
_symmetry_space_group_name_H-M "P 21"
_symmetry_group_IT_number 4
_symmetry_cell_setting 'monoclinic'
loop_
_space_group_symop_operation_xyz
x,y,z
-x,1/2+y,-z
loop_
_atom_site_type_symbol
_atom_site_label
_atom_site_fract_x
_atom_site_fract_y
_atom_site_fract_z
Si Si1 0.881838 0.570630 0.245343
Si Si2 0.842676 0.922027 0.492330
Si Si3 0.135393 0.446268 0.201254
Si Si4 0.605515 0.616980 0.905164
Si Si5 0.276150 0.118640 0.212005
Si Si6 0.761391 0.937659 0.038377
Si Si7 0.042587 0.423840 0.712200
Si Si8 0.748060 0.567233 0.455533
O O1 0.921202 0.745583 0.282035
O O2 0.982245 0.474456 0.359171
O O3 0.061838 0.512339 0.251246
O O4 0.537588 0.532583 0.080927
O O5 0.805207 0.743683 0.477435
O O6 0.532927 0.012919 0.356480
O O7 0.028572 0.977489 0.501279
O O8 0.203316 0.269815 0.225800
O O9 0.413501 0.533261 0.287244
O O10 0.852308 0.493673 0.030570
O O11 0.613234 0.661274 0.822328
O O12 0.305089 0.531253 0.795984
O O13 0.672603 0.768670 0.979544
O O14 0.978387 0.020067 0.075426
O O15 0.948199 0.940815 0.195526
O O16 0.773104 0.490996 0.548044
#
# Coordination Sequence:
#
# PCOD9119900 Si02
#       8
#     2   2   2   2   2   2   2   2
#     4  12  28  45  74 107 149 196 244 303 370 440
#     4  12  28  49  73 109 146 197 245 305 374 440
#     4  12  27  47  73 109 147 196 247 304 372 441
#     4  12  25  49  74 110 149 195 248 306 373 440
#     4  12  28  47  76 108 150 195 248 308 370 445
#     4  12  26  46  75 110 147 195 247 302 376 436
#     4  12  24  49  75 104 150 192 247 306 368 442
#     4  12  28  48  76 103 150 192 248 306 371 444
#
# _framework density 21.947873999999999
#
# number of rings (size 3 to 8) (size 9 to 14) (size 15 to 20)
#    0.000    0.000    3.750    5.250    8.750    0.000 
#    0.000    0.000    0.000    0.000    0.000    0.000 
#    0.000    0.000    0.000    0.000    0.000    0.000 
#
# Total GULP energy -89559.423112 kJ/mol
# GULP energy per Si atom -5597.463944 kJ/mol
# Density = 2.189792 g / cm^3
# Si number density = 21.947874 Si / 1000 Ang^3
#
#
#
# Elastic Constant Matrix: (Units=GPa)
#
#
# Indices 1 2 3 4 5 6 
#
# 1 80.0141 19.9492 6.0510 0.0000 -0.7502 0.0000
# 2 19.9492 134.6575 -14.1419 0.0000 -9.1359 0.0000
# 3 6.0510 -14.1419 44.6311 0.0000 0.4157 0.0000
# 4 0.0000 0.0000 0.0000 44.2850 0.0000 -2.6360
# 5 -0.7502 -9.1359 0.4157 0.0000 42.2388 0.0000
# 6 0.0000 0.0000 0.0000 -2.6360 0.0000 34.2392
#
#
#
# Elastic Compliance Matrix: (Units=1/GPa)
#
#
# Indices 1 2 3 4 5 6 
#
# 1 0.013244 -0.002240 -0.002503 0.000000 -0.000225 0.000000
# 2 -0.002240 0.008176 0.002878 0.000000 0.001700 0.000000
# 3 -0.002503 0.002878 0.023654 0.000000 0.000345 0.000000
# 4 0.000000 0.000000 0.000000 0.022685 0.000000 0.001746
# 5 -0.000225 0.001700 0.000345 0.000000 0.024035 0.000000
# 6 0.000000 0.000000 0.000000 0.001746 0.000000 0.029341
#
#
# Mechanical properties :
#
#
# Convention : Reuss Voigt Hill
#
# Bulk Modulus (GPa) = 24.18755 31.44661 27.81708
# Shear Modulus (GPa) = 36.06320 40.64889 38.35604
#
# Velocity S-wave (km/s) = 4.05795 4.30823 4.18496
# Velocity P-wave (km/s) = 5.74459 6.25354 6.00446
#
# Compressibility (1/GPa) = 0.04134359
#
# Stress axis : x y z
#
# Youngs Moduli (GPa) = 75.50869 122.31259 42.27587
#
# Poissons Ratio (x) = 0.27400 0.10583
# Poissons Ratio (y) = 0.16915 -0.12169
# Poissons Ratio (z) = 0.18902 -0.35207
#
# Static dielectric constant tensor:
#      x y z
#    x 1.825570 0.000000 0.001690 
#    y 0.000000 1.747170 0.000000 
#    z 0.001690 0.000000 1.811210 
# 
# From -- ./inp_files/5393.got.cif
#   From: 2010.05.17/outbox.ucp.g08.bks.cvg/sg4_3_cif.got.tgz:5393.got - 2010.06.11 12:51:24.
