data_PCOD9119598
_publ_section_title
;
Structure prediction by ZEFSAII (Michael W. Deem and Ramdas Pophale) SiO2 
 PCOD9119598
Probable space group: P 21
;
_chemical_formula_sum "Si O2"
_cell_formula_units_Z 12
_cell_length_a 8.191174
_cell_length_b 4.976683
_cell_length_c 12.080982
_cell_angle_alpha 90.000000
_cell_angle_beta 81.707538
_cell_angle_gamma 90.000000
_cell_volume 487.330750
_symmetry_space_group_name_H-M "P 21"
_symmetry_group_IT_number 4
_symmetry_cell_setting 'monoclinic'
loop_
_space_group_symop_operation_xyz
x,y,z
-x,1/2+y,-z
loop_
_atom_site_type_symbol
_atom_site_label
_atom_site_fract_x
_atom_site_fract_y
_atom_site_fract_z
Si Si1 0.048160 0.829330 0.563121
Si Si2 0.861289 0.020244 0.800296
Si Si3 0.641209 0.902312 0.198322
Si Si4 0.820731 0.408230 0.112436
Si Si5 0.317222 0.016436 0.117669
Si Si6 0.420660 0.631783 0.561063
O O1 0.231007 0.718163 0.565706
O O2 0.947828 0.589172 0.515635
O O3 0.959380 0.922585 0.683722
O O4 0.794080 0.319267 0.796241
O O5 0.711830 0.820394 0.842299
O O6 0.990804 0.990201 0.888379
O O7 0.712713 0.605168 0.201090
O O8 0.788678 0.103898 0.151655
O O9 0.504820 0.929618 0.116251
O O10 0.560464 0.006587 0.318939
O O11 0.750742 0.465455 0.998115
O O12 0.469647 0.394122 0.472089
#
# Coordination Sequence:
#
# PCOD9119598 Si02
#       6
#     2   2   2   2   2   2
#     4  12  28  48  73 104 141 187 235 296 356 416
#     4  12  26  46  69 107 142 184 233 291 351 416
#     4  12  26  46  71 104 142 184 236 292 350 414
#     4  12  24  48  72 101 144 187 234 286 357 412
#     4  12  26  44  74 106 140 186 234 288 347 429
#     4  12  28  48  73 104 139 188 238 293 353 419
#
# _framework density 24.623937000000002
#
# number of rings (size 3 to 8) (size 9 to 14) (size 15 to 20)
#    0.000    0.000    1.667    8.000    9.333    0.000 
#    0.000    0.000    0.000    0.000    0.000    0.000 
#    0.000    0.000    0.000    0.000    0.000    0.000 
#
# Total GULP energy -67374.749458 kJ/mol
# GULP energy per Si atom -5614.562455 kJ/mol
# Density = 2.456789 g / cm^3
# Si number density = 24.623937 Si / 1000 Ang^3
#
#
#
# Elastic Constant Matrix: (Units=GPa)
#
#
# Indices 1 2 3 4 5 6 
#
# 1 69.2618 13.4318 -11.3115 0.0000 3.3086 0.0000
# 2 13.4318 94.6950 33.5645 0.0000 1.4863 0.0000
# 3 -11.3115 33.5645 83.3237 0.0000 -9.7013 0.0000
# 4 0.0000 0.0000 0.0000 32.8998 0.0000 -5.0027
# 5 3.3086 1.4863 -9.7013 0.0000 30.6876 0.0000
# 6 0.0000 0.0000 0.0000 -5.0027 0.0000 41.4599
#
#
#
# Elastic Compliance Matrix: (Units=1/GPa)
#
#
# Indices 1 2 3 4 5 6 
#
# 1 0.015694 -0.003449 0.003470 0.000000 -0.000428 0.000000
# 2 -0.003449 0.013229 -0.006051 0.000000 -0.002182 0.000000
# 3 0.003470 -0.006051 0.015470 0.000000 0.004809 0.000000
# 4 0.000000 0.000000 0.000000 0.030963 0.000000 0.003736
# 5 -0.000428 -0.002182 0.004809 0.000000 0.034259 0.000000
# 6 0.000000 0.000000 0.000000 0.003736 0.000000 0.024571
#
#
# Mechanical properties :
#
#
# Convention : Reuss Voigt Hill
#
# Bulk Modulus (GPa) = 30.92904 35.40559 33.16731
# Shear Modulus (GPa) = 31.84250 35.11583 33.47916
#
# Velocity S-wave (km/s) = 3.59994 3.78045 3.69130
# Velocity P-wave (km/s) = 5.46510 5.78494 5.62729
#
# Compressibility (1/GPa) = 0.03233207
#
# Stress axis : x y z
#
# Youngs Moduli (GPa) = 63.71833 75.59435 64.64170
#
# Poissons Ratio (x) = 0.26075 -0.22432
# Poissons Ratio (y) = 0.21979 0.39115
# Poissons Ratio (z) = -0.22111 0.45742
#
# Static dielectric constant tensor:
#      x y z
#    x 1.905370 0.000000 0.016090 
#    y 0.000000 1.880910 0.000000 
#    z 0.016090 0.000000 1.977680 
# 
# From -- ./inp_files/10722.got.cif
#   From: 2010.05.17/outbox.cif.g08.bks.cpg/sg4_6_cif.got.tgz:10722.got - 2010.06.03 18:43:04.
