data_PCOD9119212
_publ_section_title
;
Structure prediction by ZEFSAII (Michael W. Deem and Ramdas Pophale) SiO2 
 PCOD9119212
Probable space group: P 21
;
_chemical_formula_sum "Si O2"
_cell_formula_units_Z 16
_cell_length_a 5.661643
_cell_length_b 12.591820
_cell_length_c 9.783703
_cell_angle_alpha 90.000000
_cell_angle_beta 71.810226
_cell_angle_gamma 90.000000
_cell_volume 662.629175
_symmetry_space_group_name_H-M "P 21"
_symmetry_group_IT_number 4
_symmetry_cell_setting 'monoclinic'
loop_
_space_group_symop_operation_xyz
x,y,z
-x,1/2+y,-z
loop_
_atom_site_type_symbol
_atom_site_label
_atom_site_fract_x
_atom_site_fract_y
_atom_site_fract_z
Si Si1 0.483929 0.090690 0.147739
Si Si2 0.684597 0.058630 0.623328
Si Si3 0.221954 0.768455 0.776133
Si Si4 0.768955 0.883046 0.183091
Si Si5 0.826268 0.667143 0.012422
Si Si6 0.054086 0.973853 0.352183
Si Si7 0.898446 0.505633 0.227380
Si Si8 0.658693 0.294923 0.558912
O O1 0.577312 0.208808 0.167167
O O2 0.400278 0.099983 0.006079
O O3 0.661647 0.989067 0.134432
O O4 0.269845 0.059472 0.295230
O O5 0.390795 0.029232 0.674349
O O6 0.698964 0.185522 0.631339
O O7 0.878086 0.011666 0.701602
O O8 0.807655 0.026661 0.456278
O O9 0.323132 0.772602 0.604530
O O10 0.991776 0.690856 0.849037
O O11 0.131458 0.887000 0.826336
O O12 0.022082 0.918851 0.210140
O O13 0.596431 0.844824 0.340852
O O14 0.772405 0.781471 0.085981
O O15 0.951332 0.596055 0.105907
O O16 0.136043 0.880977 0.438722
#
# Coordination Sequence:
#
# PCOD9119212 Si02
#       8
#     2   2   2   2   2   2   2   2
#     4  11  28  46  75 112 152 211 264 330 401 472
#     4  12  26  49  80 119 160 205 263 332 391 478
#     4  12  29  47  79 112 160 208 266 332 398 481
#     4  11  25  49  77 108 157 204 270 326 403 473
#     4  12  29  48  74 113 155 217 256 334 389 491
#     4  11  25  47  78 113 157 203 267 333 400 471
#     4  12  30  51  79 119 162 207 268 323 405 475
#     4  11  24  47  78 114 153 209 260 330 395 475
#
# _framework density 24.146235000000001
#
# number of rings (size 3 to 8) (size 9 to 14) (size 15 to 20)
#    0.000    0.500    2.500    3.750   12.250    3.000 
#    0.000    0.000    0.000    0.000    0.000    0.000 
#    0.000    0.000    0.000    0.000    0.000    0.000 
#
# Total GULP energy -89459.400036 kJ/mol
# GULP energy per Si atom -5591.212502 kJ/mol
# Density = 2.409128 g / cm^3
# Si number density = 24.146235 Si / 1000 Ang^3
#
#
#
# Elastic Constant Matrix: (Units=GPa)
#
#
# Indices 1 2 3 4 5 6 
#
# 1 66.6648 13.3613 15.6693 0.0000 -4.6352 0.0000
# 2 13.3613 135.0310 16.6860 0.0000 -3.2558 0.0000
# 3 15.6693 16.6860 68.7987 0.0000 3.7356 0.0000
# 4 0.0000 0.0000 0.0000 48.6222 0.0000 5.5712
# 5 -4.6352 -3.2558 3.7356 0.0000 43.4888 0.0000
# 6 0.0000 0.0000 0.0000 5.5712 0.0000 32.8635
#
#
#
# Elastic Compliance Matrix: (Units=1/GPa)
#
#
# Indices 1 2 3 4 5 6 
#
# 1 0.016188 -0.001120 -0.003521 0.000000 0.001944 0.000000
# 2 -0.001120 0.007735 -0.001654 0.000000 0.000602 0.000000
# 3 -0.003521 -0.001654 0.015839 0.000000 -0.001860 0.000000
# 4 0.000000 0.000000 0.000000 0.020974 0.000000 -0.003556
# 5 0.001944 0.000602 -0.001860 0.000000 0.023406 0.000000
# 6 0.000000 0.000000 0.000000 -0.003556 0.000000 0.031032
#
#
# Mechanical properties :
#
#
# Convention : Reuss Voigt Hill
#
# Bulk Modulus (GPa) = 36.80071 40.21422 38.50746
# Shear Modulus (GPa) = 36.54418 39.98010 38.26214
#
# Velocity S-wave (km/s) = 3.89453 4.07350 3.98502
# Velocity P-wave (km/s) = 5.95794 6.23018 6.09558
#
# Compressibility (1/GPa) = 0.02717339
#
# Stress axis : x y z
#
# Youngs Moduli (GPa) = 61.77582 129.27622 63.13493
#
# Poissons Ratio (x) = 0.14477 0.22228
# Poissons Ratio (y) = 0.06918 0.10441
# Poissons Ratio (z) = 0.21750 0.21379
#
# Static dielectric constant tensor:
#      x y z
#    x 2.035210 0.000000 -0.041620 
#    y 0.000000 1.853110 0.000000 
#    z -0.041620 0.000000 1.957560 
# 
# From -- ./inp_files/1445.got.cif
#   From: 2010.05.17/outbox.cif.g08.bks.cpg/sg4_1_cif.got.tgz:1445.got - 2010.06.03 18:43:04.
