data_PCOD9119321
_publ_section_title
;
Structure prediction by ZEFSAII (Michael W. Deem and Ramdas Pophale) SiO2 
 PCOD9119321
Probable space group: P 21
;
_chemical_formula_sum "Si O2"
_cell_formula_units_Z 12
_cell_length_a 11.429632
_cell_length_b 10.336645
_cell_length_c 10.667870
_cell_angle_alpha 90.000000
_cell_angle_beta 25.109125
_cell_angle_gamma 90.000000
_cell_volume 534.819533
_symmetry_space_group_name_H-M "P 21"
_symmetry_group_IT_number 4
_symmetry_cell_setting 'monoclinic'
loop_
_space_group_symop_operation_xyz
x,y,z
-x,1/2+y,-z
loop_
_atom_site_type_symbol
_atom_site_label
_atom_site_fract_x
_atom_site_fract_y
_atom_site_fract_z
Si Si1 0.238561 0.786130 0.382713
Si Si2 0.263383 0.197203 0.964314
Si Si3 0.966125 0.424562 0.904330
Si Si4 0.993690 0.214350 0.661091
Si Si5 0.501015 0.051607 0.208301
Si Si6 0.497163 0.403969 0.544629
O O1 0.482862 0.686975 0.183793
O O2 0.110036 0.760852 0.372588
O O3 0.385991 0.925125 0.250022
O O4 0.991436 0.770478 0.722256
O O5 0.384794 0.282815 0.733289
O O6 0.154619 0.060715 0.023064
O O7 0.782765 0.376759 0.199098
O O8 0.950856 0.322860 0.807114
O O9 0.275349 0.438767 0.654341
O O10 0.310414 0.171445 0.355173
O O11 0.812258 0.089062 0.874587
O O12 0.473965 0.018350 0.381644
#
# Coordination Sequence:
#
# PCOD9119321 Si02
#       6
#     2   2   2   2   2   2
#     4  11  25  47  72  99 138 185 225 287 344 406
#     4  11  25  48  70 100 137 184 229 279 353 400
#     4  12  27  43  72 106 134 179 229 287 337 411
#     4  12  27  42  75 103 138 176 235 284 339 408
#     4  11  25  48  68 104 136 185 226 281 350 405
#     4  11  25  46  71  98 141 179 226 282 347 406
#
# _framework density 22.437474000000002
#
# number of rings (size 3 to 8) (size 9 to 14) (size 15 to 20)
#    0.000    0.667    0.000    8.000   11.667    0.000 
#    0.000    0.000    0.000    0.000    0.000    0.000 
#    0.000    0.000    0.000    0.000    0.000    0.000 
#
# Total GULP energy -67254.902383 kJ/mol
# GULP energy per Si atom -5604.575199 kJ/mol
# Density = 2.238640 g / cm^3
# Si number density = 22.437474 Si / 1000 Ang^3
#
#
#
# Elastic Constant Matrix: (Units=GPa)
#
#
# Indices 1 2 3 4 5 6 
#
# 1 118.6821 32.6455 -8.6113 0.0000 -12.0644 0.0000
# 2 32.6455 70.0511 -8.5801 0.0000 1.9808 0.0000
# 3 -8.6113 -8.5801 59.7534 0.0000 -9.5251 0.0000
# 4 0.0000 0.0000 0.0000 28.2979 0.0000 -0.7650
# 5 -12.0644 1.9808 -9.5251 0.0000 38.7257 0.0000
# 6 0.0000 0.0000 0.0000 -0.7650 0.0000 22.3208
#
#
#
# Elastic Compliance Matrix: (Units=1/GPa)
#
#
# Indices 1 2 3 4 5 6 
#
# 1 0.010199 -0.004688 0.001396 0.000000 0.003761 0.000000
# 2 -0.004688 0.016688 0.001407 0.000000 -0.001968 0.000000
# 3 0.001396 0.001407 0.017898 0.000000 0.004765 0.000000
# 4 0.000000 0.000000 0.000000 0.035371 0.000000 0.001212
# 5 0.003761 -0.001968 0.004765 0.000000 0.028267 0.000000
# 6 0.000000 0.000000 0.000000 0.001212 0.000000 0.044843
#
#
# Mechanical properties :
#
#
# Convention : Reuss Voigt Hill
#
# Bulk Modulus (GPa) = 24.38145 31.04384 27.71264
# Shear Modulus (GPa) = 29.28966 33.40437 31.34701
#
# Velocity S-wave (km/s) = 3.61694 3.86265 3.74181
# Velocity P-wave (km/s) = 5.32287 5.81027 5.57190
#
# Compressibility (1/GPa) = 0.04101479
#
# Stress axis : x y z
#
# Youngs Moduli (GPa) = 98.04838 59.92274 55.87124
#
# Poissons Ratio (x) = 0.28094 -0.07800
# Poissons Ratio (y) = 0.45968 -0.07861
# Poissons Ratio (z) = -0.13688 -0.08431
#
# Static dielectric constant tensor:
#      x y z
#    x 1.805530 0.000000 -0.000060 
#    y 0.000000 1.812510 0.000000 
#    z -0.000060 0.000000 1.795120 
# 
# From -- ./inp_files/12085.got.cif
#   From: 2010.05.17/outbox.cif.g08.bks.cpg/sg4_7_cif.got.tgz:12085.got - 2010.06.03 18:43:04.
