data_PCOD9119515
_publ_section_title
;
Structure prediction by ZEFSAII (Michael W. Deem and Ramdas Pophale) SiO2 
 PCOD9119515
Probable space group: P 21
;
_chemical_formula_sum "Si O2"
_cell_formula_units_Z 14
_cell_length_a 14.807751
_cell_length_b 9.286268
_cell_length_c 6.707870
_cell_angle_alpha 90.000000
_cell_angle_beta 47.196541
_cell_angle_gamma 90.000000
_cell_volume 676.747826
_symmetry_space_group_name_H-M "P 21"
_symmetry_group_IT_number 4
_symmetry_cell_setting 'monoclinic'
loop_
_space_group_symop_operation_xyz
x,y,z
-x,1/2+y,-z
loop_
_atom_site_type_symbol
_atom_site_label
_atom_site_fract_x
_atom_site_fract_y
_atom_site_fract_z
Si Si1 0.741597 0.848010 0.387607
Si Si2 0.889007 0.711256 0.811319
Si Si3 0.889007 0.984776 0.521666
Si Si4 0.451419 0.229867 0.999807
Si Si5 0.326548 0.000965 0.959930
Si Si6 0.451418 0.466162 0.645940
Si Si7 0.673455 0.195070 0.939584
O O1 0.833871 0.936515 0.391586
O O2 0.648079 0.768240 0.680178
O O3 0.648078 0.927777 0.375588
O O4 0.833875 0.759510 0.106805
O O5 0.915724 0.848017 0.626421
O O6 0.999999 0.598015 0.662764
O O7 0.776001 0.621470 0.891284
O O8 0.776006 0.074568 0.780708
O O9 0.423109 0.067767 0.970633
O O10 0.439937 0.348018 0.840099
O O11 0.590318 0.223927 0.871173
O O12 0.409682 0.972107 0.642112
O O13 0.269882 0.848019 0.095168
O O14 0.423100 0.628264 0.760039
#
# Coordination Sequence:
#
# PCOD9119515 Si02
#       7
#     2   2   2   2   2   2   2
#     4  12  22  50  74 100 150 188 240 304 374 430
#     4  12  27  51  75 101 146 197 247 304 355 434
#     4  12  27  51  75 101 146 197 247 304 355 434
#     4  12  23  46  71 108 152 191 238 305 369 436
#     4  12  23  41  72 108 142 190 241 295 368 429
#     4  12  23  46  71 108 152 191 238 305 369 436
#     4  12  23  41  72 108 142 190 241 295 368 429
#
# _framework density 20.687173000000001
#
# number of rings (size 3 to 8) (size 9 to 14) (size 15 to 20)
#    0.000    0.000    7.143    4.286    0.000    1.143 
#    7.714    0.000    0.000    0.000    0.000    0.000 
#    0.000    0.000    0.000    0.000    0.000    0.000 
#
# Total GULP energy -78178.217331 kJ/mol
# GULP energy per Si atom -5584.158381 kJ/mol
# Density = 2.064009 g / cm^3
# Si number density = 20.687173 Si / 1000 Ang^3
#
#
#
# Elastic Constant Matrix: (Units=GPa)
#
#
# Indices 1 2 3 4 5 6 
#
# 1 66.5843 28.0099 45.8549 0.0000 -11.6250 0.0000
# 2 28.0099 119.4695 29.6289 0.0000 3.3511 0.0000
# 3 45.8549 29.6289 61.7413 0.0000 1.4664 0.0000
# 4 0.0000 0.0000 0.0000 30.2914 0.0000 -3.6118
# 5 -11.6250 3.3511 1.4664 0.0000 34.9232 0.0000
# 6 0.0000 0.0000 0.0000 -3.6118 0.0000 32.0179
#
#
#
# Elastic Compliance Matrix: (Units=1/GPa)
#
#
# Indices 1 2 3 4 5 6 
#
# 1 0.036453 -0.002418 -0.026233 0.000000 0.013468 0.000000
# 2 -0.002418 0.009680 -0.002811 0.000000 -0.001616 0.000000
# 3 -0.026233 -0.002811 0.037267 0.000000 -0.010027 0.000000
# 4 0.000000 0.000000 0.000000 0.033463 0.000000 0.003775
# 5 0.013468 -0.001616 -0.010027 0.000000 0.033693 0.000000
# 6 0.000000 0.000000 0.000000 0.003775 0.000000 0.031658
#
#
# Mechanical properties :
#
#
# Convention : Reuss Voigt Hill
#
# Bulk Modulus (GPa) = 48.83869 50.53140 49.68504
# Shear Modulus (GPa) = 19.84416 29.06660 24.45538
#
# Velocity S-wave (km/s) = 3.10054 3.75247 3.44197
# Velocity P-wave (km/s) = 6.03964 6.57679 6.31393
#
# Compressibility (1/GPa) = 0.02047557
#
# Stress axis : x y z
#
# Youngs Moduli (GPa) = 27.43240 103.30881 26.83369
#
# Poissons Ratio (x) = 0.24985 0.70393
# Poissons Ratio (y) = 0.06634 0.07542
# Poissons Ratio (z) = 0.71963 0.29036
#
# Static dielectric constant tensor:
#      x y z
#    x 1.770030 0.000000 0.017560 
#    y 0.000000 1.771090 0.000000 
#    z 0.017560 0.000000 1.778440 
# 
# From -- ./inp_files/2433.got.cif
#   From: 2010.05.17/outbox.cif.g08.bks.cpg/sg4_2_cif.got.tgz:2433.got - 2010.06.03 18:43:04.
