data_PCOD9119423
_publ_section_title
;
Structure prediction by ZEFSAII (Michael W. Deem and Ramdas Pophale) SiO2 
 PCOD9119423
Probable space group: P 21
;
_chemical_formula_sum "Si O2"
_cell_formula_units_Z 14
_cell_length_a 14.208047
_cell_length_b 5.421845
_cell_length_c 19.932886
_cell_angle_alpha 90.000000
_cell_angle_beta 19.942919
_cell_angle_gamma 90.000000
_cell_volume 523.736406
_symmetry_space_group_name_H-M "P 21"
_symmetry_group_IT_number 4
_symmetry_cell_setting 'monoclinic'
loop_
_space_group_symop_operation_xyz
x,y,z
-x,1/2+y,-z
loop_
_atom_site_type_symbol
_atom_site_label
_atom_site_fract_x
_atom_site_fract_y
_atom_site_fract_z
Si Si1 0.283925 0.174070 0.729562
Si Si2 0.402525 0.492486 0.100618
Si Si3 0.655744 0.761850 0.047659
Si Si4 0.774338 0.503471 0.377123
Si Si5 0.109432 0.024090 0.393071
Si Si6 0.857760 0.751837 0.449428
Si Si7 0.712112 0.426130 0.132585
O O1 0.540464 0.351538 0.572998
O O2 0.344007 0.058481 0.617082
O O3 0.244876 0.995760 0.818567
O O4 0.990733 0.308386 0.918145
O O5 0.494628 0.235581 0.008364
O O6 0.538075 0.536556 0.082111
O O7 0.072497 0.532725 0.321256
O O8 0.433474 0.976157 0.183956
O O9 0.662266 0.664767 0.119280
O O10 0.947572 0.852447 0.824012
O O11 0.832294 0.739369 0.385899
O O12 0.984390 0.780247 0.513150
O O13 0.001541 0.984148 0.389347
O O14 0.555913 0.751865 0.684721
#
# Coordination Sequence:
#
# PCOD9119423 Si02
#       7
#     2   2   2   2   2   2   2
#     4  12  28  48  72 106 152 192 280 310 396 442
#     4  11  26  49  76 123 158 205 258 319 384 497
#     4  11  26  45  80 110 158 201 258 311 406 454
#     4  12  26  48  74 110 146 212 248 340 374 474
#     4  11  26  49  76 123 158 205 258 319 384 497
#     4  11  26  45  80 110 158 201 258 311 406 454
#     4  12  26  48  74 110 146 212 248 340 374 474
#
# _framework density 26.731003999999999
#
# number of rings (size 3 to 8) (size 9 to 14) (size 15 to 20)
#    0.000    0.571    2.857    3.429    8.000    4.571 
#    0.000    0.000    0.000    0.000    0.000    0.000 
#    0.000    0.000    0.000    0.000    0.000    0.000 
#
# Total GULP energy -78529.388086 kJ/mol
# GULP energy per Si atom -5609.242006 kJ/mol
# Density = 2.667016 g / cm^3
# Si number density = 26.731004 Si / 1000 Ang^3
#
#
#
# Elastic Constant Matrix: (Units=GPa)
#
#
# Indices 1 2 3 4 5 6 
#
# 1 115.2482 17.6871 -2.4291 0.0000 7.6297 0.0000
# 2 17.6871 129.5826 60.0759 0.0000 9.2681 0.0000
# 3 -2.4291 60.0759 192.7705 0.0000 -23.3856 0.0000
# 4 0.0000 0.0000 0.0000 45.2687 0.0000 27.1989
# 5 7.6297 9.2681 -23.3856 0.0000 46.7918 0.0000
# 6 0.0000 0.0000 0.0000 27.1989 0.0000 18.7595
#
#
#
# Elastic Compliance Matrix: (Units=1/GPa)
#
#
# Indices 1 2 3 4 5 6 
#
# 1 0.008957 -0.001343 0.000411 0.000000 -0.000989 0.000000
# 2 -0.001343 0.009759 -0.003477 0.000000 -0.003452 0.000000
# 3 0.000411 -0.003477 0.006762 0.000000 0.004001 0.000000
# 4 0.000000 0.000000 0.000000 0.171416 0.000000 -0.248532
# 5 -0.000989 -0.003452 0.004001 0.000000 0.024216 0.000000
# 6 0.000000 0.000000 0.000000 -0.248532 0.000000 0.413646
#
#
# Mechanical properties :
#
#
# Convention : Reuss Voigt Hill
#
# Bulk Modulus (GPa) = 60.01909 65.36323 62.69116
# Shear Modulus (GPa) = 7.70265 46.31516 27.00891
#
# Velocity S-wave (km/s) = 1.69935 4.16701 3.18212
# Velocity P-wave (km/s) = 5.13343 6.90343 6.08315
#
# Compressibility (1/GPa) = 0.01666137
#
# Stress axis : x y z
#
# Youngs Moduli (GPa) = 111.64318 102.46702 147.89195
#
# Poissons Ratio (x) = 0.13756 -0.06082
# Poissons Ratio (y) = 0.14988 0.51423
# Poissons Ratio (z) = -0.04592 0.35629
#
# Static dielectric constant tensor:
#      x y z
#    x 2.159200 0.000000 0.022230 
#    y 0.000000 2.081980 0.000000 
#    z 0.022230 0.000000 2.089450 
# 
# From -- ./inp_files/15784.got.cif
#   From: 2010.05.17/outbox.cif.g08.bks.cpg/sg4_8_cif.got.tgz:15784.got - 2010.06.03 18:43:04.
