data_PCOD9119819
_publ_section_title
;
Structure prediction by ZEFSAII (Michael W. Deem and Ramdas Pophale) SiO2 
 PCOD9119819
Probable space group: P 21
;
_chemical_formula_sum "Si O2"
_cell_formula_units_Z 16
_cell_length_a 9.000000
_cell_length_b 9.000000
_cell_length_c 9.000000
_cell_angle_alpha 90.000000
_cell_angle_beta 90.000000
_cell_angle_gamma 90.000000
_cell_volume 729.000000
_symmetry_space_group_name_H-M "P 21"
_symmetry_group_IT_number 4
_symmetry_cell_setting 'monoclinic'
loop_
_space_group_symop_operation_xyz
x,y,z
-x,1/2+y,-z
loop_
_atom_site_type_symbol
_atom_site_label
_atom_site_fract_x
_atom_site_fract_y
_atom_site_fract_z
Si Si1 0.456092 0.517050 0.798965
Si Si2 0.115118 0.487562 0.867559
Si Si3 0.011050 0.730368 0.649104
Si Si4 0.397675 0.459262 0.476545
Si Si5 0.170642 0.232819 0.645205
Si Si6 0.209492 0.462291 0.196389
Si Si7 0.306248 0.911151 0.703638
Si Si8 0.505560 0.810772 0.956150
O O1 0.281908 0.534795 0.827129
O O2 0.469876 0.540110 0.622217
O O3 0.527396 0.640969 0.906067
O O4 0.501599 0.357669 0.870704
O O5 0.013624 0.590495 0.761937
O O6 0.108654 0.322829 0.789965
O O7 0.111818 0.512163 0.047882
O O8 0.173939 0.805121 0.647905
O O9 0.953131 0.698848 0.481887
O O10 0.898752 0.847144 0.723278
O O11 0.291781 0.337744 0.559386
O O12 0.294501 0.534435 0.344737
O O13 0.542632 0.397368 0.392253
O O14 0.247220 0.079662 0.693516
O O15 0.350790 0.392827 0.111309
O O16 0.359670 0.867733 0.869226
#
# Coordination Sequence:
#
# PCOD9119819 Si02
#       8
#     2   2   2   2   2   2   2   2
#     4  10  21  40  66  93 124 160 204 270 316 371
#     4  10  21  42  64  91 131 169 205 267 318 371
#     4  11  22  42  64  89 132 169 216 256 313 383
#     4   9  22  40  65  93 124 161 211 261 321 367
#     4  10  23  40  65  93 127 166 208 265 320 371
#     4   9  22  41  61  91 128 167 206 264 315 370
#     4  11  23  39  65  92 125 168 214 256 313 386
#     4  10  22  40  66  94 123 162 210 265 316 373
#
# _framework density 21.947873999999999
#
# number of rings (size 3 to 8) (size 9 to 14) (size 15 to 20)
#    0.000    2.000    1.250    0.750   10.500    1.000 
#    0.000    0.000    0.000    0.000    0.000    0.000 
#    0.000    0.000    0.000    0.000    0.000    0.000 
#
# Total GULP energy -89137.536180 kJ/mol
# GULP energy per Si atom -5571.096011 kJ/mol
# Density = 2.189792 g / cm^3
# Si number density = 21.947874 Si / 1000 Ang^3
#
#
#
# Elastic Constant Matrix: (Units=GPa)
#
#
# Indices 1 2 3 4 5 6 
#
# 1 67.9448 8.7059 13.7838 0.0000 22.7030 0.0000
# 2 8.7059 72.0192 32.5816 0.0000 15.2721 0.0000
# 3 13.7838 32.5816 150.7065 0.0000 28.3620 0.0000
# 4 0.0000 0.0000 0.0000 32.0264 0.0000 14.6846
# 5 22.7030 15.2721 28.3620 0.0000 34.0719 0.0000
# 6 0.0000 0.0000 0.0000 14.6846 0.0000 24.3957
#
#
#
# Elastic Compliance Matrix: (Units=1/GPa)
#
#
# Indices 1 2 3 4 5 6 
#
# 1 0.019010 0.000205 0.000733 0.000000 -0.013369 0.000000
# 2 0.000205 0.016114 -0.002511 0.000000 -0.005270 0.000000
# 3 0.000733 -0.002511 0.008290 0.000000 -0.006264 0.000000
# 4 0.000000 0.000000 0.000000 0.043127 0.000000 -0.025960
# 5 -0.013369 -0.005270 -0.006264 0.000000 0.045834 0.000000
# 6 0.000000 0.000000 0.000000 -0.025960 0.000000 0.056617
#
#
# Mechanical properties :
#
#
# Convention : Reuss Voigt Hill
#
# Bulk Modulus (GPa) = 24.83320 44.53479 34.68400
# Shear Modulus (GPa) = 24.32393 33.80540 29.06466
#
# Velocity S-wave (km/s) = 3.33266 3.92887 3.64298
# Velocity P-wave (km/s) = 5.11352 6.39661 5.79071
#
# Compressibility (1/GPa) = 0.04026867
#
# Stress axis : x y z
#
# Youngs Moduli (GPa) = 52.60418 62.05913 120.62776
#
# Poissons Ratio (x) = -0.01275 -0.08840
# Poissons Ratio (y) = -0.01081 0.30286
# Poissons Ratio (z) = -0.03855 0.15581
#
# Static dielectric constant tensor:
#      x y z
#    x 1.796200 0.000000 0.052240 
#    y 0.000000 1.910580 0.000000 
#    z 0.052240 0.000000 1.877650 
# 
# From -- ./inp_files/5659.got.cif
#   From: 2010.05.17/outbox.ucp.g08.bks.cvg/sg4_3_cif.got.tgz:5659.got - 2010.06.11 12:51:24.
