data_PCOD9119381
_publ_section_title
;
Structure prediction by ZEFSAII (Michael W. Deem and Ramdas Pophale) SiO2 
 PCOD9119381
Probable space group: P 21
;
_chemical_formula_sum "Si O2"
_cell_formula_units_Z 16
_cell_length_a 11.168878
_cell_length_b 11.030740
_cell_length_c 5.248934
_cell_angle_alpha 90.000000
_cell_angle_beta 121.053200
_cell_angle_gamma 90.000000
_cell_volume 553.998197
_symmetry_space_group_name_H-M "P 21"
_symmetry_group_IT_number 4
_symmetry_cell_setting 'monoclinic'
loop_
_space_group_symop_operation_xyz
x,y,z
-x,1/2+y,-z
loop_
_atom_site_type_symbol
_atom_site_label
_atom_site_fract_x
_atom_site_fract_y
_atom_site_fract_z
Si Si1 0.880812 0.277820 0.540372
Si Si2 0.907238 0.482146 0.904648
Si Si3 0.262154 0.185804 0.468868
Si Si4 0.220792 0.551092 0.352970
Si Si5 0.318785 0.943776 0.973912
Si Si6 0.817904 0.822691 0.113831
Si Si7 0.416939 0.425512 0.964632
Si Si8 0.547301 0.252239 0.508042
O O1 0.859738 0.136099 0.519040
O O2 0.756030 0.337032 0.256792
O O3 0.027603 0.329921 0.602810
O O4 0.882053 0.340418 0.820957
O O5 0.809656 0.513833 0.038314
O O6 0.072381 0.505452 0.071271
O O7 0.822219 0.560017 0.602799
O O8 0.255309 0.247132 0.737288
O O9 0.416158 0.191798 0.511787
O O10 0.176614 0.256362 0.150700
O O11 0.329480 0.653575 0.370123
O O12 0.318871 0.455521 0.610283
O O13 0.444138 0.004415 0.949050
O O14 0.406084 0.872509 0.287945
O O15 0.709476 0.936099 0.965361
O O16 0.494864 0.308545 0.181502
#
# Coordination Sequence:
#
# PCOD9119381 Si02
#       8
#     2   2   2   2   2   2   2   2
#     4  12  28  49  76 115 170 208 271 345 406 506
#     4  12  28  48  81 117 163 217 274 341 416 500
#     4  11  26  49  83 115 161 214 276 339 418 483
#     4  12  26  51  80 120 156 223 272 335 430 491
#     4  12  24  51  75 113 162 208 266 352 402 488
#     4  11  26  48  80 121 161 213 278 340 409 502
#     4  11  25  48  80 111 160 209 278 335 421 486
#     4  11  25  54  77 118 161 212 277 351 402 508
#
# _framework density 28.880958
#
# number of rings (size 3 to 8) (size 9 to 14) (size 15 to 20)
#    0.000    0.500    5.000    1.500    7.000    1.000 
#   11.250    0.000    0.000    0.000    0.000    0.000 
#    0.000    0.000    0.000    0.000    0.000    0.000 
#
# Total GULP energy -89268.242383 kJ/mol
# GULP energy per Si atom -5579.265149 kJ/mol
# Density = 2.881522 g / cm^3
# Si number density = 28.880958 Si / 1000 Ang^3
#
#
#
# Elastic Constant Matrix: (Units=GPa)
#
#
# Indices 1 2 3 4 5 6 
#
# 1 231.7887 22.4759 53.9405 0.0000 62.8580 0.0000
# 2 22.4759 93.3362 24.7965 0.0000 10.3237 0.0000
# 3 53.9405 24.7965 132.4237 0.0000 25.1235 0.0000
# 4 0.0000 0.0000 0.0000 47.0805 0.0000 5.0458
# 5 62.8580 10.3237 25.1235 0.0000 61.0208 0.0000
# 6 0.0000 0.0000 0.0000 5.0458 0.0000 37.9973
#
#
#
# Elastic Compliance Matrix: (Units=1/GPa)
#
#
# Indices 1 2 3 4 5 6 
#
# 1 0.006249 -0.000505 -0.001352 0.000000 -0.005796 0.000000
# 2 -0.000505 0.011387 -0.001800 0.000000 -0.000665 0.000000
# 3 -0.001352 -0.001800 0.008805 0.000000 -0.001928 0.000000
# 4 0.000000 0.000000 0.000000 0.021547 0.000000 -0.002861
# 5 -0.005796 -0.000665 -0.001928 0.000000 0.023265 0.000000
# 6 0.000000 0.000000 0.000000 -0.002861 0.000000 0.026698
#
#
# Mechanical properties :
#
#
# Convention : Reuss Voigt Hill
#
# Bulk Modulus (GPa) = 52.27834 73.33048 62.80441
# Shear Modulus (GPa) = 44.78651 52.97544 48.88097
#
# Velocity S-wave (km/s) = 3.94220 4.28748 4.11846
# Velocity P-wave (km/s) = 6.23393 7.06794 6.66399
#
# Compressibility (1/GPa) = 0.01912838
#
# Stress axis : x y z
#
# Youngs Moduli (GPa) = 160.01339 87.81613 113.57141
#
# Poissons Ratio (x) = 0.04433 0.15349
# Poissons Ratio (y) = 0.08077 0.20448
# Poissons Ratio (z) = 0.21626 0.15811
#
# Static dielectric constant tensor:
#      x y z
#    x 2.364150 0.000000 -0.092780 
#    y 0.000000 2.442310 0.000000 
#    z -0.092780 0.000000 2.251480 
# 
# From -- ./inp_files/3124.got.cif
#   From: 2010.05.17/outbox.cif.g08.bks.cpg/sg4_2_cif.got.tgz:3124.got - 2010.06.03 18:43:04.
