data_PCOD9119331
_publ_section_title
;
Structure prediction by ZEFSAII (Michael W. Deem and Ramdas Pophale) SiO2 
 PCOD9119331
Probable space group: P 21
;
_chemical_formula_sum "Si O2"
_cell_formula_units_Z 16
_cell_length_a 19.009391
_cell_length_b 5.174599
_cell_length_c 9.844789
_cell_angle_alpha 90.000000
_cell_angle_beta 142.091144
_cell_angle_gamma 90.000000
_cell_volume 594.987146
_symmetry_space_group_name_H-M "P 21"
_symmetry_group_IT_number 4
_symmetry_cell_setting 'monoclinic'
loop_
_space_group_symop_operation_xyz
x,y,z
-x,1/2+y,-z
loop_
_atom_site_type_symbol
_atom_site_label
_atom_site_fract_x
_atom_site_fract_y
_atom_site_fract_z
Si Si1 0.934929 0.820590 0.218823
Si Si2 0.146293 0.475154 0.606793
Si Si3 0.308979 0.129694 0.163266
Si Si4 0.941555 0.063702 0.960437
Si Si5 0.613862 0.276496 0.278186
Si Si6 0.634259 0.339013 0.006744
Si Si7 0.244260 0.271237 0.498405
Si Si8 0.497507 0.958211 0.640316
O O1 0.051864 0.660244 0.392769
O O2 0.909453 0.891230 0.336038
O O3 0.821522 0.668335 0.996849
O O4 0.938246 0.057575 0.118587
O O5 0.262791 0.629937 0.817327
O O6 0.179236 0.260865 0.544721
O O7 0.382702 0.953775 0.377079
O O8 0.393780 0.376100 0.284070
O O9 0.307252 0.042329 0.003880
O O10 0.833891 0.917472 0.730335
O O11 0.038384 0.851187 0.064609
O O12 0.589838 0.384504 0.090897
O O13 0.707351 0.493007 0.467201
O O14 0.519334 0.286127 0.250879
O O15 0.658830 0.987701 0.333378
O O16 0.531373 0.226742 0.759696
#
# Coordination Sequence:
#
# PCOD9119331 Si02
#       8
#     2   2   2   2   2   2   2   2
#     4  12  26  46  77 113 150 204 249 316 389 458
#     4  11  25  46  74 117 150 197 253 313 383 464
#     4  12  26  49  72 109 150 201 257 313 380 456
#     4  12  27  47  75 110 152 204 254 310 379 458
#     4  11  28  45  81 110 151 202 255 319 387 448
#     4  11  26  46  76 108 153 196 255 315 383 452
#     4  11  25  51  72 115 155 198 258 315 383 454
#     4  12  27  48  75 110 151 204 259 317 378 456
#
# _framework density 26.891338000000001
#
# number of rings (size 3 to 8) (size 9 to 14) (size 15 to 20)
#    0.000    0.500    3.750    3.000    8.750    3.000 
#    0.000    0.000    0.000    0.000    0.000    0.000 
#    0.000    0.000    0.000    0.000    0.000    0.000 
#
# Total GULP energy -89624.243772 kJ/mol
# GULP energy per Si atom -5601.515236 kJ/mol
# Density = 2.683013 g / cm^3
# Si number density = 26.891338 Si / 1000 Ang^3
#
#
#
# Elastic Constant Matrix: (Units=GPa)
#
#
# Indices 1 2 3 4 5 6 
#
# 1 119.3261 26.3795 19.0863 0.0000 -19.0069 0.0000
# 2 26.3795 72.2142 2.8933 0.0000 6.0909 0.0000
# 3 19.0863 2.8933 123.3586 0.0000 6.8620 0.0000
# 4 0.0000 0.0000 0.0000 39.1255 0.0000 3.4485
# 5 -19.0069 6.0909 6.8620 0.0000 40.2298 0.0000
# 6 0.0000 0.0000 0.0000 3.4485 0.0000 39.2838
#
#
#
# Elastic Compliance Matrix: (Units=1/GPa)
#
#
# Indices 1 2 3 4 5 6 
#
# 1 0.010579 -0.004293 -0.001868 0.000000 0.005966 0.000000
# 2 -0.004293 0.015774 0.000545 0.000000 -0.004509 0.000000
# 3 -0.001868 0.000545 0.008517 0.000000 -0.002418 0.000000
# 4 0.000000 0.000000 0.000000 0.025758 0.000000 -0.002261
# 5 0.005966 -0.004509 -0.002418 0.000000 0.028771 0.000000
# 6 0.000000 0.000000 0.000000 -0.002261 0.000000 0.025654
#
#
# Mechanical properties :
#
#
# Convention : Reuss Voigt Hill
#
# Bulk Modulus (GPa) = 42.30332 45.73525 44.01929
# Shear Modulus (GPa) = 37.26771 41.49714 39.38242
#
# Velocity S-wave (km/s) = 3.72676 3.93255 3.83103
# Velocity P-wave (km/s) = 5.85522 6.13712 5.99783
#
# Compressibility (1/GPa) = 0.02363881
#
# Stress axis : x y z
#
# Youngs Moduli (GPa) = 94.53107 63.39422 117.40982
#
# Poissons Ratio (x) = 0.27213 0.21932
# Poissons Ratio (y) = 0.40579 -0.06399
# Poissons Ratio (z) = 0.17658 -0.03455
#
# Static dielectric constant tensor:
#      x y z
#    x 2.151440 0.000000 0.035500 
#    y 0.000000 2.140950 0.000000 
#    z 0.035500 0.000000 2.130800 
# 
# From -- ./inp_files/9463.got.cif
#   From: 2010.05.17/outbox.cif.g08.bks.cpg/sg4_5_cif.got.tgz:9463.got - 2010.06.03 18:43:04.
