data_PCOD9119383
_publ_section_title
;
Structure prediction by ZEFSAII (Michael W. Deem and Ramdas Pophale) SiO2 
 PCOD9119383
Probable space group: P 21
;
_chemical_formula_sum "Si O2"
_cell_formula_units_Z 12
_cell_length_a 7.003822
_cell_length_b 5.143685
_cell_length_c 13.376569
_cell_angle_alpha 90.000000
_cell_angle_beta 102.151376
_cell_angle_gamma 90.000000
_cell_volume 471.100015
_symmetry_space_group_name_H-M "P 21"
_symmetry_group_IT_number 4
_symmetry_cell_setting 'monoclinic'
loop_
_space_group_symop_operation_xyz
x,y,z
-x,1/2+y,-z
loop_
_atom_site_type_symbol
_atom_site_label
_atom_site_fract_x
_atom_site_fract_y
_atom_site_fract_z
Si Si1 0.725398 0.196080 0.680456
Si Si2 0.865286 0.152295 0.484582
Si Si3 0.523519 0.424719 0.855274
Si Si4 0.570535 0.301386 0.298270
Si Si5 0.109615 0.788248 0.974594
Si Si6 0.155986 0.110694 0.791718
O O1 0.741711 0.260599 0.565935
O O2 0.605274 0.340489 0.754250
O O3 0.946996 0.221739 0.742080
O O4 0.622726 0.912183 0.671997
O O5 0.704920 0.113305 0.379456
O O6 0.026736 0.378067 0.481838
O O7 0.491536 0.723437 0.822060
O O8 0.314395 0.303084 0.857271
O O9 0.680200 0.341411 0.953138
O O10 0.733069 0.520803 0.295089
O O11 0.110833 0.870616 0.859797
O O12 0.968380 0.002996 0.010567
#
# Coordination Sequence:
#
# PCOD9119383 Si02
#       6
#     2   2   2   2   2   2
#     4  11  25  49  72 105 149 188 243 301 361 434
#     4  12  28  47  77 110 148 194 244 299 369 432
#     4  11  27  45  76 106 144 196 243 299 367 431
#     4  11  27  45  76 106 144 196 243 299 367 431
#     4  12  28  47  77 110 148 194 244 299 369 432
#     4  11  25  49  72 105 149 188 243 301 361 434
#
# _framework density 25.472297999999999
#
# number of rings (size 3 to 8) (size 9 to 14) (size 15 to 20)
#    0.000    0.667    3.333    2.000   14.000    2.667 
#    0.000    0.000    0.000    0.000    0.000    0.000 
#    0.000    0.000    0.000    0.000    0.000    0.000 
#
# Total GULP energy -67057.059048 kJ/mol
# GULP energy per Si atom -5588.088254 kJ/mol
# Density = 2.541432 g / cm^3
# Si number density = 25.472298 Si / 1000 Ang^3
#
#
#
# Elastic Constant Matrix: (Units=GPa)
#
#
# Indices 1 2 3 4 5 6 
#
# 1 130.1266 14.9595 10.8287 0.0000 17.8939 0.0000
# 2 14.9595 47.4052 -7.2082 0.0000 3.8892 0.0000
# 3 10.8287 -7.2082 65.3765 0.0000 27.8894 0.0000
# 4 0.0000 0.0000 0.0000 29.0005 0.0000 0.0684
# 5 17.8939 3.8892 27.8894 0.0000 62.7167 0.0000
# 6 0.0000 0.0000 0.0000 0.0684 0.0000 45.1071
#
#
#
# Elastic Compliance Matrix: (Units=1/GPa)
#
#
# Indices 1 2 3 4 5 6 
#
# 1 0.008308 -0.002608 -0.000890 0.000000 -0.001813 0.000000
# 2 -0.002608 0.022722 0.003975 0.000000 -0.002432 0.000000
# 3 -0.000890 0.003975 0.019596 0.000000 -0.008707 0.000000
# 4 0.000000 0.000000 0.000000 0.034482 0.000000 -0.000052
# 5 -0.001813 -0.002432 -0.008707 0.000000 0.020484 0.000000
# 6 0.000000 0.000000 0.000000 -0.000052 0.000000 0.022170
#
#
# Mechanical properties :
#
#
# Convention : Reuss Voigt Hill
#
# Bulk Modulus (GPa) = 19.38810 31.11870 25.25340
# Shear Modulus (GPa) = 34.72162 42.32010 38.52086
#
# Velocity S-wave (km/s) = 3.69604 4.08047 3.89300
# Velocity P-wave (km/s) = 5.08353 5.86886 5.49025
#
# Compressibility (1/GPa) = 0.05157804
#
# Stress axis : x y z
#
# Youngs Moduli (GPa) = 120.36511 44.01056 51.03093
#
# Poissons Ratio (x) = 0.11480 0.04544
# Poissons Ratio (y) = 0.31396 -0.20285
# Poissons Ratio (z) = 0.10718 -0.17494
#
# Static dielectric constant tensor:
#      x y z
#    x 1.959230 0.000000 -0.023810 
#    y 0.000000 2.285960 0.000000 
#    z -0.023810 0.000000 1.991010 
# 
# From -- ./inp_files/3278.got.cif
#   From: 2010.05.17/outbox.cif.g08.bks.cpg/sg4_2_cif.got.tgz:3278.got - 2010.06.03 18:43:04.
