data_PCOD9119040
_publ_section_title
;
Structure prediction by ZEFSAII (Michael W. Deem and Ramdas Pophale) SiO2 
 PCOD9119040
Probable space group: P 21
;
_chemical_formula_sum "Si O2"
_cell_formula_units_Z 16
_cell_length_a 9.162308
_cell_length_b 5.264879
_cell_length_c 21.213307
_cell_angle_alpha 90.000000
_cell_angle_beta 140.549550
_cell_angle_gamma 90.000000
_cell_volume 650.213772
_symmetry_space_group_name_H-M "P 21"
_symmetry_group_IT_number 4
_symmetry_cell_setting 'monoclinic'
loop_
_space_group_symop_operation_xyz
x,y,z
-x,1/2+y,-z
loop_
_atom_site_type_symbol
_atom_site_label
_atom_site_fract_x
_atom_site_fract_y
_atom_site_fract_z
Si Si1 0.360817 0.407090 0.685740
Si Si2 0.614820 0.408505 0.386820
Si Si3 0.887562 0.953434 0.814221
Si Si4 0.203955 0.327580 0.975592
Si Si5 0.143595 0.288506 0.746641
Si Si6 0.286251 0.783237 0.866052
Si Si7 0.194994 0.115747 0.104583
Si Si8 0.352925 0.823560 0.461540
O O1 0.315757 0.673893 0.635151
O O2 0.217298 0.340844 0.699560
O O3 0.620705 0.437317 0.799322
O O4 0.333856 0.177042 0.628196
O O5 0.719154 0.376384 0.490344
O O6 0.335955 0.414844 0.302712
O O7 0.099913 0.786190 0.859774
O O8 0.790894 0.874281 0.850456
O O9 0.018807 0.218468 0.864984
O O10 0.453525 0.358614 0.029163
O O11 0.246486 0.132403 0.048271
O O12 0.066586 0.536513 0.969523
O O13 0.263257 0.510245 0.826420
O O14 0.869074 0.316440 0.656866
O O15 0.211986 0.008341 0.793123
O O16 0.482004 0.554364 0.502984
#
# Coordination Sequence:
#
# PCOD9119040 Si02
#       8
#     2   2   2   2   2   2   2   2
#     4  11  24  44  70 104 142 182 234 290 357 412
#     4  11  24  44  73 104 138 183 235 294 351 422
#     4  11  26  43  65 100 141 182 241 296 348 423
#     4  12  25  42  70  97 143 195 241 290 352 420
#     4  12  27  49  72 104 145 185 233 300 358 424
#     4  12  30  44  72 103 149 190 238 294 361 415
#     4  11  24  42  68  98 139 193 242 290 349 421
#     4  12  26  48  78 106 141 186 236 288 366 435
#
# _framework density 24.607289999999999
#
# number of rings (size 3 to 8) (size 9 to 14) (size 15 to 20)
#    0.000    0.500    3.750    3.750    8.750    2.000 
#    0.000    0.000    0.000    0.000    0.000    0.000 
#    0.000    0.000    0.000    0.000    0.000    0.000 
#
# Total GULP energy -89545.113987 kJ/mol
# GULP energy per Si atom -5596.569624 kJ/mol
# Density = 2.455128 g / cm^3
# Si number density = 24.607290 Si / 1000 Ang^3
#
#
#
# Elastic Constant Matrix: (Units=GPa)
#
#
# Indices 1 2 3 4 5 6 
#
# 1 88.0846 3.4116 8.8656 0.0000 -1.8136 0.0000
# 2 3.4116 104.9302 14.2623 0.0000 -2.5929 0.0000
# 3 8.8656 14.2623 91.2063 0.0000 10.2968 0.0000
# 4 0.0000 0.0000 0.0000 23.9714 0.0000 -17.3299
# 5 -1.8136 -2.5929 10.2968 0.0000 48.8295 0.0000
# 6 0.0000 0.0000 0.0000 -17.3299 0.0000 31.8363
#
#
#
# Elastic Compliance Matrix: (Units=1/GPa)
#
#
# Indices 1 2 3 4 5 6 
#
# 1 0.011491 -0.000200 -0.001160 0.000000 0.000661 0.000000
# 2 -0.000200 0.009776 -0.001605 0.000000 0.000850 0.000000
# 3 -0.001160 -0.001605 0.011619 0.000000 -0.002578 0.000000
# 4 0.000000 0.000000 0.000000 0.068785 0.000000 0.037443
# 5 0.000661 0.000850 -0.002578 0.000000 0.021093 0.000000
# 6 0.000000 0.000000 0.000000 0.037443 0.000000 0.051792
#
#
# Mechanical properties :
#
#
# Convention : Reuss Voigt Hill
#
# Bulk Modulus (GPa) = 37.09836 37.47779 37.28808
# Shear Modulus (GPa) = 26.38920 38.10622 32.24771
#
# Velocity S-wave (km/s) = 3.27833 3.93946 3.62400
# Velocity P-wave (km/s) = 5.42575 5.99632 5.71816
#
# Compressibility (1/GPa) = 0.02695537
#
# Stress axis : x y z
#
# Youngs Moduli (GPa) = 87.02581 102.29311 86.06541
#
# Poissons Ratio (x) = 0.02041 0.09987
# Poissons Ratio (y) = 0.01737 0.13816
# Poissons Ratio (z) = 0.10098 0.16421
#
# Static dielectric constant tensor:
#      x y z
#    x 1.971500 0.000000 0.003160 
#    y 0.000000 2.013580 0.000000 
#    z 0.003160 0.000000 1.953980 
# 
# From -- ./inp_files/8841.got.cif
#   From: 2010.05.17/outbox.cif.g08.bks.cpg/sg4_5_cif.got.tgz:8841.got - 2010.06.03 18:43:04.
