data_PCOD9119137
_publ_section_title
;
Structure prediction by ZEFSAII (Michael W. Deem and Ramdas Pophale) SiO2 
 PCOD9119137
Probable space group: P 21
;
_chemical_formula_sum "Si O2"
_cell_formula_units_Z 14
_cell_length_a 7.983763
_cell_length_b 14.504730
_cell_length_c 9.268486
_cell_angle_alpha 90.000000
_cell_angle_beta 147.371319
_cell_angle_gamma 90.000000
_cell_volume 578.721837
_symmetry_space_group_name_H-M "P 21"
_symmetry_group_IT_number 4
_symmetry_cell_setting 'monoclinic'
loop_
_space_group_symop_operation_xyz
x,y,z
-x,1/2+y,-z
loop_
_atom_site_type_symbol
_atom_site_label
_atom_site_fract_x
_atom_site_fract_y
_atom_site_fract_z
Si Si1 0.752005 0.588780 0.210840
Si Si2 0.644258 0.180386 0.305458
Si Si3 0.600460 0.251275 0.589689
Si Si4 0.580908 0.072396 0.736661
Si Si5 0.521453 0.428134 0.856748
Si Si6 0.014959 0.309100 0.359014
Si Si7 0.829403 0.456394 0.782716
O O1 0.600643 0.608161 0.255272
O O2 0.124165 0.594129 0.492662
O O3 0.641523 0.659078 0.006680
O O4 0.585922 0.495859 0.035502
O O5 0.546638 0.224575 0.384803
O O6 0.872639 0.243874 0.376676
O O7 0.731258 0.160274 0.764833
O O8 0.281075 0.271168 0.445158
O O9 0.792869 0.346807 0.730739
O O10 0.351286 0.018580 0.463334
O O11 0.828158 0.996093 0.962448
O O12 0.184871 0.391435 0.569765
O O13 0.677777 0.472203 0.829228
O O14 0.733378 0.340681 0.053364
#
# Coordination Sequence:
#
# PCOD9119137 Si02
#       7
#     2   2   2   2   2   2   2
#     4  12  26  46  73 107 147 197 243 309 370 439
#     4  12  26  45  72 105 143 192 244 291 386 432
#     4  11  27  48  78 107 153 193 252 309 371 445
#     4  12  26  46  72 108 153 185 254 305 366 442
#     4  11  24  45  72  97 151 181 249 300 370 430
#     4  11  25  45  71 108 140 191 236 313 360 441
#     4  11  26  45  72 110 137 203 242 301 375 437
#
# _framework density 24.191243
#
# number of rings (size 3 to 8) (size 9 to 14) (size 15 to 20)
#    0.000    0.571    1.429    6.000    6.000    4.571 
#    0.000    0.000    0.000    0.000    0.000    0.000 
#    0.000    0.000    0.000    0.000    0.000    0.000 
#
# Total GULP energy -78417.595380 kJ/mol
# GULP energy per Si atom -5601.256813 kJ/mol
# Density = 2.413618 g / cm^3
# Si number density = 24.191243 Si / 1000 Ang^3
#
#
#
# Elastic Constant Matrix: (Units=GPa)
#
#
# Indices 1 2 3 4 5 6 
#
# 1 97.6844 43.1565 29.3370 0.0000 -42.0291 0.0000
# 2 43.1565 130.8523 41.1547 0.0000 -10.4145 0.0000
# 3 29.3370 41.1547 129.9380 0.0000 -17.2326 0.0000
# 4 0.0000 0.0000 0.0000 35.4093 0.0000 -6.2695
# 5 -42.0291 -10.4145 -17.2326 0.0000 33.5055 0.0000
# 6 0.0000 0.0000 0.0000 -6.2695 0.0000 40.6953
#
#
#
# Elastic Compliance Matrix: (Units=1/GPa)
#
#
# Indices 1 2 3 4 5 6 
#
# 1 0.026411 -0.006276 0.000171 0.000000 0.031267 0.000000
# 2 -0.006276 0.010036 -0.002567 0.000000 -0.006073 0.000000
# 3 0.000171 -0.002567 0.009007 0.000000 0.004050 0.000000
# 4 0.000000 0.000000 0.000000 0.029033 0.000000 0.004473
# 5 0.031267 -0.006073 0.004050 0.000000 0.069263 0.000000
# 6 0.000000 0.000000 0.000000 0.004473 0.000000 0.025262
#
#
# Mechanical properties :
#
#
# Convention : Reuss Voigt Hill
#
# Bulk Modulus (GPa) = 35.57291 65.08567 50.32929
# Shear Modulus (GPa) = 25.54587 38.24379 31.89483
#
# Velocity S-wave (km/s) = 3.25314 3.98036 3.63498
# Velocity P-wave (km/s) = 5.37097 6.93451 6.20221
#
# Compressibility (1/GPa) = 0.02811128
#
# Stress axis : x y z
#
# Youngs Moduli (GPa) = 37.86271 99.63983 111.01912
#
# Poissons Ratio (x) = 0.62535 -0.01904
# Poissons Ratio (y) = 0.23763 0.28501
# Poissons Ratio (z) = -0.00649 0.25579
#
# Static dielectric constant tensor:
#      x y z
#    x 1.830460 0.000000 0.008950 
#    y 0.000000 2.005510 0.000000 
#    z 0.008950 0.000000 1.859850 
# 
# From -- ./inp_files/6517.got.cif
#   From: 2010.05.17/outbox.cif.g08.bks.cpg/sg4_4_cif.got.tgz:6517.got - 2010.06.03 18:43:04.
