data_PCOD9119934
_publ_section_title
;
Structure prediction by ZEFSAII (Michael W. Deem and Ramdas Pophale) SiO2 
 PCOD9119934
Probable space group: C 2
;
_chemical_formula_sum "Si O2"
_cell_formula_units_Z 26
_cell_length_a 11.383749
_cell_length_b 14.895790
_cell_length_c 15.364035
_cell_angle_alpha 90.000000
_cell_angle_beta 24.464449
_cell_angle_gamma 90.000000
_cell_volume 1078.920165
_symmetry_space_group_name_H-M "C 2"
_symmetry_group_IT_number 5
_symmetry_cell_setting 'monoclinic'
loop_
_space_group_symop_operation_xyz
x,y,z
-x,y,-z
1/2+x,1/2+y,z
1/2-x,1/2+y,-z
loop_
_atom_site_type_symbol
_atom_site_label
_atom_site_fract_x
_atom_site_fract_y
_atom_site_fract_z
Si Si1 0.034296 0.669220 0.287662
Si Si2 0.279756 0.006752 0.369059
Si Si3 0.789356 0.853490 0.859423
Si Si4 0.454742 0.824030 0.785714
Si Si5 0.118391 0.154746 0.779663
Si Si6 0.714577 0.545387 0.104056
Si Si7 0.500000 0.218584 0.000000
O O1 0.983075 0.775994 0.315181
O O2 0.139222 0.647647 0.313165
O O3 0.802104 0.598545 0.410441
O O4 0.317225 0.659379 0.036093
O O5 0.000000 0.001450 0.500000
O O6 0.367278 0.913112 0.354080
O O7 0.530414 0.017659 0.130069
O O8 0.837906 0.957797 0.802040
O O9 0.500000 0.829636 0.000000
O O10 0.744796 0.846580 0.994194
O O11 0.634289 0.743123 0.708881
O O12 0.260466 0.789976 0.836946
O O13 0.070789 0.067042 0.754617
O O14 0.831497 0.640594 0.058918
#
# Coordination Sequence:
#
# PCOD9119934 Si02
#       7
#     4   4   4   4   4   4   2
#     4   9  15  28  49  67  99 123 165 202 236 290
#     4  10  21  34  46  68 102 143 171 191 231 297
#     4  10  15  28  48  78  96 122 154 203 258 284
#     4   9  18  30  49  73 104 127 159 204 249 297
#     4   8  14  28  47  76  92 119 153 208 260 276
#     4   9  18  29  53  75 102 121 155 207 252 299
#     4  10  18  32  52  82 100 120 156 214 266 280
#
# _framework density 24.098168999999999
#
# number of rings (size 3 to 8) (size 9 to 14) (size 15 to 20)
#    0.000    2.769    3.846    0.923    0.000    3.692 
#    0.000    1.538    0.000    0.000    0.000    1.077 
#    0.000    0.000    0.000    0.000    0.000    0.000 
#
# Total GULP energy -72382.974355 kJ/mol
# GULP energy per Si atom -5567.921104 kJ/mol
# Density = 2.404332 g / cm^3
# Si number density = 24.098169 Si / 1000 Ang^3
#
#
#
# Elastic Constant Matrix: (Units=GPa)
#
#
# Indices 1 2 3 4 5 6 
#
# 1 60.9482 38.9085 24.9126 -0.0576 -9.5012 0.0431
# 2 38.9085 184.1904 46.5384 0.0726 -30.9663 0.0661
# 3 24.9126 46.5384 77.7324 0.2069 -5.7388 -0.0809
# 4 -0.0576 0.0726 0.2069 32.8416 0.0537 -8.9535
# 5 -9.5012 -30.9663 -5.7388 0.0537 36.5388 -0.0189
# 6 0.0431 0.0661 -0.0809 -8.9535 -0.0189 37.4350
#
#
#
# Elastic Compliance Matrix: (Units=1/GPa)
#
#
# Indices 1 2 3 4 5 6 
#
# 1 0.020449 -0.002743 -0.004746 0.000065 0.002247 -0.000012
# 2 -0.002743 0.007757 -0.003371 -0.000015 0.005331 -0.000019
# 3 -0.004746 -0.003371 0.016291 -0.000095 -0.001532 0.000023
# 4 0.000065 -0.000015 -0.000095 0.032574 -0.000054 0.007791
# 5 0.002247 0.005331 -0.001532 -0.000054 0.032230 -0.000012
# 6 -0.000012 -0.000019 0.000023 0.007791 -0.000012 0.028576
#
#
# Mechanical properties :
#
#
# Convention : Reuss Voigt Hill
#
# Bulk Modulus (GPa) = 43.90437 60.39889 52.15163
# Shear Modulus (GPa) = 29.90640 35.53052 32.71846
#
# Velocity S-wave (km/s) = 3.52664 3.84397 3.68872
# Velocity P-wave (km/s) = 5.90266 6.69474 6.31114
#
# Compressibility (1/GPa) = 0.02277678
#
# Stress axis : x y z
#
# Youngs Moduli (GPa) = 48.90326 128.92261 61.38284
#
# Poissons Ratio (x) = 0.35359 0.29131
# Poissons Ratio (y) = 0.13412 0.20694
# Poissons Ratio (z) = 0.23209 0.43464
#
# Static dielectric constant tensor:
#      x y z
#    x 2.000150 0.000090 0.089250 
#    y 0.000090 2.106860 -0.000060 
#    z 0.089250 -0.000060 1.985680 
# 
# From -- ./inp_files/68867.got.cif
#   From: 2010.05.17/outbox.cif.g08.bks.cpg/sg5_35_cif.got.tgz:68867.got - 2010.06.03 18:56:24.
