data_PCOD9119397
_publ_section_title
;
Structure prediction by ZEFSAII (Michael W. Deem and Ramdas Pophale) SiO2 
 PCOD9119397
Probable space group: P 21
;
_chemical_formula_sum "Si O2"
_cell_formula_units_Z 10
_cell_length_a 9.065885
_cell_length_b 9.200384
_cell_length_c 5.200854
_cell_angle_alpha 90.000000
_cell_angle_beta 106.488814
_cell_angle_gamma 90.000000
_cell_volume 415.961267
_symmetry_space_group_name_H-M "P 21"
_symmetry_group_IT_number 4
_symmetry_cell_setting 'monoclinic'
loop_
_space_group_symop_operation_xyz
x,y,z
-x,1/2+y,-z
loop_
_atom_site_type_symbol
_atom_site_label
_atom_site_fract_x
_atom_site_fract_y
_atom_site_fract_z
Si Si1 0.861611 0.241690 0.897895
Si Si2 0.587762 0.182414 0.484745
Si Si3 0.797214 0.994159 0.273311
Si Si4 0.919504 0.515403 0.259996
Si Si5 0.624164 0.696348 0.119914
O O1 0.725813 0.290924 0.636541
O O2 0.992678 0.152263 0.819899
O O3 0.789560 0.125190 0.065031
O O4 0.928884 0.374718 0.087462
O O5 0.692827 0.041715 0.467661
O O6 0.474874 0.182394 0.670179
O O7 0.486282 0.202428 0.181485
O O8 0.723750 0.843472 0.155388
O O9 0.976191 0.982245 0.439809
O O10 0.743202 0.562636 0.188774
#
# Coordination Sequence:
#
# PCOD9119397 Si02
#       5
#     2   2   2   2   2
#     4  11  25  50  73 111 149 197 246 305 364 443
#     4  11  28  47  75 112 148 193 242 306 367 437
#     4  11  26  49  76 109 151 191 253 301 365 440
#     4  11  27  46  77 107 151 196 249 299 372 434
#     4  12  28  48  77 111 147 195 246 305 370 432
#
# _framework density 24.040700000000001
#
# number of rings (size 3 to 8) (size 9 to 14) (size 15 to 20)
#    0.000    0.800    2.000    2.400   14.000    3.200 
#    0.000    0.000    0.000    0.000    0.000    0.000 
#    0.000    0.000    0.000    0.000    0.000    0.000 
#
# Total GULP energy -55969.796619 kJ/mol
# GULP energy per Si atom -5596.979662 kJ/mol
# Density = 2.398598 g / cm^3
# Si number density = 24.040700 Si / 1000 Ang^3
#
#
#
# Elastic Constant Matrix: (Units=GPa)
#
#
# Indices 1 2 3 4 5 6 
#
# 1 108.3764 23.3962 61.2909 0.0000 10.6787 0.0000
# 2 23.3962 69.1068 27.3950 0.0000 17.4669 0.0000
# 3 61.2909 27.3950 161.8049 0.0000 27.4435 0.0000
# 4 0.0000 0.0000 0.0000 34.8268 0.0000 3.7948
# 5 10.6787 17.4669 27.4435 0.0000 55.4708 0.0000
# 6 0.0000 0.0000 0.0000 3.7948 0.0000 18.2868
#
#
#
# Elastic Compliance Matrix: (Units=1/GPa)
#
#
# Indices 1 2 3 4 5 6 
#
# 1 0.012133 -0.002565 -0.004260 0.000000 0.000580 0.000000
# 2 -0.002565 0.016873 -0.001165 0.000000 -0.004243 0.000000
# 3 -0.004260 -0.001165 0.008503 0.000000 -0.003020 0.000000
# 4 0.000000 0.000000 0.000000 0.029378 0.000000 -0.006096
# 5 0.000580 -0.004243 -0.003020 0.000000 0.020746 0.000000
# 6 0.000000 0.000000 0.000000 -0.006096 0.000000 0.055949
#
#
# Mechanical properties :
#
#
# Convention : Reuss Voigt Hill
#
# Bulk Modulus (GPa) = 46.45089 62.60583 54.52836
# Shear Modulus (GPa) = 29.98681 36.86395 33.42538
#
# Velocity S-wave (km/s) = 3.53559 3.92011 3.73281
# Velocity P-wave (km/s) = 6.00258 6.82553 6.42724
#
# Compressibility (1/GPa) = 0.02152811
#
# Stress axis : x y z
#
# Youngs Moduli (GPa) = 82.42037 59.26553 117.59983
#
# Poissons Ratio (x) = 0.15204 0.50096
# Poissons Ratio (y) = 0.21145 0.13705
# Poissons Ratio (z) = 0.35110 0.06907
#
# Static dielectric constant tensor:
#      x y z
#    x 1.931340 0.000000 -0.019030 
#    y 0.000000 1.898870 0.000000 
#    z -0.019030 0.000000 1.940190 
# 
# From -- ./inp_files/983.got.cif
#   From: 2010.05.17/outbox.cif.g08.bks.cpg/sg4_1_cif.got.tgz:983.got - 2010.06.03 18:43:04.
