data_PCOD9119077
_publ_section_title
;
Structure prediction by ZEFSAII (Michael W. Deem and Ramdas Pophale) SiO2 
 PCOD9119077
Probable space group: P 21
;
_chemical_formula_sum "Si O2"
_cell_formula_units_Z 14
_cell_length_a 14.388713
_cell_length_b 8.651029
_cell_length_c 8.133584
_cell_angle_alpha 90.000000
_cell_angle_beta 148.041327
_cell_angle_gamma 90.000000
_cell_volume 535.894956
_symmetry_space_group_name_H-M "P 21"
_symmetry_group_IT_number 4
_symmetry_cell_setting 'monoclinic'
loop_
_space_group_symop_operation_xyz
x,y,z
-x,1/2+y,-z
loop_
_atom_site_type_symbol
_atom_site_label
_atom_site_fract_x
_atom_site_fract_y
_atom_site_fract_z
Si Si1 0.368137 0.976650 0.488555
Si Si2 0.659692 0.921355 0.383819
Si Si3 0.836006 0.174700 0.815613
Si Si4 0.767663 0.094106 0.078739
Si Si5 0.845680 0.740390 0.912892
Si Si6 0.677146 0.608254 0.223800
Si Si7 0.945778 0.394817 0.475402
O O1 0.321384 0.797737 0.406230
O O2 0.239289 0.074094 0.176840
O O3 0.302009 0.023283 0.570190
O O4 0.568085 0.034209 0.779289
O O5 0.677374 0.833716 0.586743
O O6 0.655668 0.787159 0.240702
O O7 0.808180 0.051442 0.628382
O O8 0.491187 0.028790 0.109178
O O9 0.834675 0.096848 0.990956
O O10 0.021928 0.246756 0.045388
O O11 0.810332 0.267859 0.202705
O O12 0.884881 0.971364 0.357703
O O13 0.958652 0.805806 0.230566
O O14 0.838263 0.549766 0.359058
#
# Coordination Sequence:
#
# PCOD9119077 Si02
#       7
#     2   2   2   2   2   2   2
#     4  11  26  44  76 114 154 205 260 322 401 463
#     4  11  24  43  79 108 153 190 267 327 386 460
#     4  12  25  48  78 115 152 206 265 328 400 479
#     4  12  30  47  76 116 165 208 254 341 405 466
#     4  11  24  48  78 107 153 207 271 320 377 496
#     4  11  24  48  75 115 148 206 267 328 380 482
#     4  12  27  52  72 115 159 214 266 322 403 470
#
# _framework density 26.124523
#
# number of rings (size 3 to 8) (size 9 to 14) (size 15 to 20)
#    0.000    0.571    2.857    5.143    6.000    4.571 
#    0.000    0.000    0.000    0.000    0.000    0.000 
#    0.000    0.000    0.000    0.000    0.000    0.000 
#
# Total GULP energy -78256.685945 kJ/mol
# GULP energy per Si atom -5589.763282 kJ/mol
# Density = 2.606506 g / cm^3
# Si number density = 26.124523 Si / 1000 Ang^3
#
#
#
# Elastic Constant Matrix: (Units=GPa)
#
#
# Indices 1 2 3 4 5 6 
#
# 1 58.8838 31.1507 29.2306 0.0000 -3.0394 0.0000
# 2 31.1507 184.9546 84.4784 0.0000 14.9051 0.0000
# 3 29.2306 84.4784 147.2925 0.0000 17.9766 0.0000
# 4 0.0000 0.0000 0.0000 67.0115 0.0000 -2.5015
# 5 -3.0394 14.9051 17.9766 0.0000 28.9177 0.0000
# 6 0.0000 0.0000 0.0000 -2.5015 0.0000 37.4884
#
#
#
# Elastic Compliance Matrix: (Units=1/GPa)
#
#
# Indices 1 2 3 4 5 6 
#
# 1 0.020131 -0.002302 -0.003330 0.000000 0.005373 0.000000
# 2 -0.002302 0.007632 -0.003691 0.000000 -0.001881 0.000000
# 3 -0.003330 -0.003691 0.010147 0.000000 -0.004756 0.000000
# 4 0.000000 0.000000 0.000000 0.014960 0.000000 0.000998
# 5 0.005373 -0.001881 -0.004756 0.000000 0.039072 0.000000
# 6 0.000000 0.000000 0.000000 0.000998 0.000000 0.026742
#
#
# Mechanical properties :
#
#
# Convention : Reuss Voigt Hill
#
# Bulk Modulus (GPa) = 51.91149 75.65005 63.78077
# Shear Modulus (GPa) = 34.78223 43.10160 38.94191
#
# Velocity S-wave (km/s) = 3.65280 4.06624 3.86505
# Velocity P-wave (km/s) = 6.14040 7.14606 6.66223
#
# Compressibility (1/GPa) = 0.01926356
#
# Stress axis : x y z
#
# Youngs Moduli (GPa) = 49.67427 131.03007 98.54862
#
# Poissons Ratio (x) = 0.30169 0.32820
# Poissons Ratio (y) = 0.11437 0.36371
# Poissons Ratio (z) = 0.16543 0.48358
#
# Static dielectric constant tensor:
#      x y z
#    x 2.024830 0.000000 -0.027150 
#    y 0.000000 2.184220 0.000000 
#    z -0.027150 0.000000 2.095270 
# 
# From -- ./inp_files/5301.got.cif
#   From: 2010.05.17/outbox.cif.g08.bks.cpg/sg4_3_cif.got.tgz:5301.got - 2010.06.03 18:43:04.
