data_PCOD9119878
_publ_section_title
;
Structure prediction by ZEFSAII (Michael W. Deem and Ramdas Pophale) SiO2 
 PCOD9119878
Probable space group: P 21
;
_chemical_formula_sum "Si O2"
_cell_formula_units_Z 16
_cell_length_a 12.000000
_cell_length_b 6.000000
_cell_length_c 18.000000
_cell_angle_alpha 90.000000
_cell_angle_beta 150.000000
_cell_angle_gamma 90.000000
_cell_volume 648.000000
_symmetry_space_group_name_H-M "P 21"
_symmetry_group_IT_number 4
_symmetry_cell_setting 'monoclinic'
loop_
_space_group_symop_operation_xyz
x,y,z
-x,1/2+y,-z
loop_
_atom_site_type_symbol
_atom_site_label
_atom_site_fract_x
_atom_site_fract_y
_atom_site_fract_z
Si Si1 0.898020 0.002810 0.789010
Si Si2 0.622109 0.416455 0.901269
Si Si3 0.662597 0.296228 0.313793
Si Si4 0.709237 0.762516 0.540539
Si Si5 0.585939 0.949657 0.069103
Si Si6 0.394339 0.617761 0.252500
Si Si7 0.992096 0.519530 0.394339
Si Si8 0.036452 0.862562 0.282629
O O1 0.802330 0.994907 0.816748
O O2 0.947559 0.248482 0.787263
O O3 0.744416 0.900201 0.635570
O O4 0.140298 0.895657 0.923373
O O5 0.559574 0.661261 0.835224
O O6 0.432231 0.388960 0.854093
O O7 0.639108 0.251487 0.842134
O O8 0.589673 0.450720 0.339847
O O9 0.848748 0.122595 0.450295
O O10 0.770949 0.432687 0.307943
O O11 0.480124 0.788683 0.365165
O O12 0.744900 0.506959 0.581441
O O13 0.889096 0.818179 0.580157
O O14 0.817257 0.008854 0.163828
O O15 0.529745 0.699277 0.002319
O O16 0.993899 0.694583 0.327165
#
# Coordination Sequence:
#
# PCOD9119878 Si02
#       8
#     2   2   2   2   2   2   2   2
#     4  11  29  48  75 108 150 207 264 323 390 484
#     4  12  28  50  72 115 157 204 258 329 407 482
#     4  12  26  43  73 109 159 192 254 320 409 467
#     4  11  24  48  75 107 147 197 260 321 396 472
#     4  12  27  48  77 112 158 207 264 327 412 495
#     4  12  28  48  75 110 152 207 261 329 396 477
#     4  11  24  42  69 114 139 195 246 321 391 472
#     4  11  24  45  74 103 146 191 257 320 389 471
#
# _framework density 24.691358000000001
#
# number of rings (size 3 to 8) (size 9 to 14) (size 15 to 20)
#    0.000    0.500    3.750    3.000   10.500    2.000 
#    0.000    0.000    0.000    0.000    0.000    0.000 
#    0.000    0.000    0.000    0.000    0.000    0.000 
#
# Total GULP energy -89247.496176 kJ/mol
# GULP energy per Si atom -5577.968511 kJ/mol
# Density = 2.463516 g / cm^3
# Si number density = 24.691358 Si / 1000 Ang^3
#
#
#
# Elastic Constant Matrix: (Units=GPa)
#
#
# Indices 1 2 3 4 5 6 
#
# 1 160.5060 32.6710 20.6818 0.0000 7.3742 0.0000
# 2 32.6710 72.8610 28.1829 0.0000 -6.5099 0.0000
# 3 20.6818 28.1829 34.6872 0.0000 -3.3762 0.0000
# 4 0.0000 0.0000 0.0000 24.1973 0.0000 -17.9827
# 5 7.3742 -6.5099 -3.3762 0.0000 28.2077 0.0000
# 6 0.0000 0.0000 0.0000 -17.9827 0.0000 24.3257
#
#
#
# Elastic Compliance Matrix: (Units=1/GPa)
#
#
# Indices 1 2 3 4 5 6 
#
# 1 0.007190 -0.002491 -0.002531 0.000000 -0.002758 0.000000
# 2 -0.002491 0.021084 -0.015286 0.000000 0.003688 0.000000
# 3 -0.002531 -0.015286 0.042980 0.000000 0.002278 0.000000
# 4 0.000000 0.000000 0.000000 0.091712 0.000000 0.067798
# 5 -0.002758 0.003688 0.002278 0.000000 0.037296 0.000000
# 6 0.000000 0.000000 0.000000 0.067798 0.000000 0.091228
#
#
# Mechanical properties :
#
#
# Convention : Reuss Voigt Hill
#
# Bulk Modulus (GPa) = 32.64077 47.90284 40.27180
# Shear Modulus (GPa) = 14.60618 27.78071 21.19345
#
# Velocity S-wave (km/s) = 2.43482 3.35792 2.93291
# Velocity P-wave (km/s) = 4.59920 5.87170 5.27397
#
# Compressibility (1/GPa) = 0.03063653
#
# Stress axis : x y z
#
# Youngs Moduli (GPa) = 139.07648 47.42896 23.26668
#
# Poissons Ratio (x) = 0.11816 0.05889
# Poissons Ratio (y) = 0.34650 0.35566
# Poissons Ratio (z) = 0.35204 0.72501
#
# Static dielectric constant tensor:
#      x y z
#    x 1.926070 0.000000 0.069380 
#    y 0.000000 2.042650 0.000000 
#    z 0.069380 0.000000 2.168470 
# 
# From -- ./inp_files/13629.got.cif
#   From: 2010.05.17/outbox.ucp.g08.bks.cvg/sg4_7_cif.got.tgz:13629.got - 2010.06.11 12:51:24.
