data_PCOD9119910
_publ_section_title
;
Structure prediction by ZEFSAII (Michael W. Deem and Ramdas Pophale) SiO2 
 PCOD9119910
Probable space group: C 2
;
_chemical_formula_sum "Si O2"
_cell_formula_units_Z 30
_cell_length_a 13.211398
_cell_length_b 5.137042
_cell_length_c 21.206036
_cell_angle_alpha 90.000000
_cell_angle_beta 121.308194
_cell_angle_gamma 90.000000
_cell_volume 1229.630877
_symmetry_space_group_name_H-M "C 2"
_symmetry_group_IT_number 5
_symmetry_cell_setting 'monoclinic'
loop_
_space_group_symop_operation_xyz
x,y,z
-x,y,-z
1/2+x,1/2+y,z
1/2-x,1/2+y,-z
loop_
_atom_site_type_symbol
_atom_site_label
_atom_site_fract_x
_atom_site_fract_y
_atom_site_fract_z
Si Si1 0.373697 0.651680 0.345413
Si Si2 0.022062 0.652146 0.685805
Si Si3 0.284426 0.023678 0.168362
Si Si4 0.184314 0.523453 0.198054
Si Si5 0.322273 0.095536 0.534265
Si Si6 0.548169 0.193163 0.943438
Si Si7 0.500000 0.394427 0.500000
Si Si8 0.374199 0.691462 0.997065
O O1 0.443358 0.445572 0.322468
O O2 0.237199 0.598583 0.283022
O O3 0.418057 0.570033 0.428255
O O4 0.409381 0.942912 0.337353
O O5 0.078662 0.586631 0.772000
O O6 0.886616 0.608518 0.622802
O O7 0.215323 0.224664 0.193002
O O8 0.223688 0.097264 0.083493
O O9 0.256427 0.725124 0.175802
O O10 0.051504 0.587708 0.135202
O O11 0.215911 0.303302 0.494342
O O12 0.416935 0.212486 0.515716
O O13 0.500000 0.234684 0.000000
O O14 0.594116 0.476324 0.941005
O O15 0.647340 0.975505 0.982872
O O16 0.500000 0.733148 0.000000
#
# Coordination Sequence:
#
# PCOD9119910 Si02
#       8
#     4   4   4   4   4   4   2   4
#     4   9  19  30  50  69  99 141 178 225 277 328
#     4   9  19  32  47  73 101 135 182 225 276 330
#     4  10  15  23  36  54  86 123 169 208 255 323
#     4  10  15  23  34  56  83 122 172 206 257 320
#     4  11  23  39  62  87 113 151 194 240 291 345
#     4  10  14  19  29  48  79 116 164 205 247 314
#     4  10  22  42  60  86 118 148 198 238 286 354
#     4  10  14  19  30  49  76 122 163 200 253 311
#
# _framework density 24.397565
#
# number of rings (size 3 to 8) (size 9 to 14) (size 15 to 20)
#    0.000    2.133    5.333    1.600    0.000    4.800 
#    0.000    0.000    0.000    0.000    0.000    0.000 
#    0.000    0.000    0.000    4.800    1.600   10.933 
#
# Total GULP energy -83773.262341 kJ/mol
# GULP energy per Si atom -5584.884156 kJ/mol
# Density = 2.434204 g / cm^3
# Si number density = 24.397565 Si / 1000 Ang^3
#
#
#
# Elastic Constant Matrix: (Units=GPa)
#
#
# Indices 1 2 3 4 5 6 
#
# 1 62.4514 -8.5134 22.6343 0.0000 -7.4547 0.0000
# 2 -8.5134 107.6239 -14.4869 0.0000 -6.5698 0.0001
# 3 22.6343 -14.4869 166.3407 0.0000 23.2098 0.0000
# 4 0.0000 0.0000 0.0000 43.5317 0.0000 11.2004
# 5 -7.4547 -6.5698 23.2098 0.0000 28.0477 0.0000
# 6 0.0000 0.0001 0.0000 11.2004 0.0000 6.3107
#
#
#
# Elastic Compliance Matrix: (Units=1/GPa)
#
#
# Indices 1 2 3 4 5 6 
#
# 1 0.018468 0.001485 -0.003524 0.000000 0.008172 0.000000
# 2 0.001485 0.009596 0.000299 0.000000 0.002395 0.000000
# 3 -0.003524 0.000299 0.007505 0.000000 -0.007077 0.000000
# 4 0.000000 0.000000 0.000000 0.042278 0.000000 -0.075037
# 5 0.008172 0.002395 -0.007077 0.000000 0.044243 0.000000
# 6 0.000000 0.000000 0.000000 -0.075037 0.000000 0.291639
#
#
# Mechanical properties :
#
#
# Convention : Reuss Voigt Hill
#
# Bulk Modulus (GPa) = 31.16243 37.29823 34.23033
# Shear Modulus (GPa) = 11.68491 38.03016 24.85753
#
# Velocity S-wave (km/s) = 2.19084 3.95241 3.19541
# Velocity P-wave (km/s) = 4.38180 6.01245 5.26069
#
# Compressibility (1/GPa) = 0.03208992
#
# Stress axis : x y z
#
# Youngs Moduli (GPa) = 54.14881 104.21446 133.24871
#
# Poissons Ratio (x) = -0.15480 0.46955
# Poissons Ratio (y) = -0.08043 -0.03990
# Poissons Ratio (z) = 0.19081 -0.03121
#
# Static dielectric constant tensor:
#      x y z
#    x 2.060830 0.000000 0.005610 
#    y 0.000000 1.918280 0.000000 
#    z 0.005610 0.000000 1.995190 
# 
# From -- ./inp_files/68561.got.cif
#   From: 2010.05.17/outbox.cif.g08.bks.cpg/sg5_35_cif.got.tgz:68561.got - 2010.06.03 18:56:24.
