data_PCOD9119334
_publ_section_title
;
Structure prediction by ZEFSAII (Michael W. Deem and Ramdas Pophale) SiO2 
 PCOD9119334
Probable space group: P 21
;
_chemical_formula_sum "Si O2"
_cell_formula_units_Z 14
_cell_length_a 7.601835
_cell_length_b 5.485246
_cell_length_c 17.025884
_cell_angle_alpha 90.000000
_cell_angle_beta 130.938441
_cell_angle_gamma 90.000000
_cell_volume 536.301805
_symmetry_space_group_name_H-M "P 21"
_symmetry_group_IT_number 4
_symmetry_cell_setting 'monoclinic'
loop_
_space_group_symop_operation_xyz
x,y,z
-x,1/2+y,-z
loop_
_atom_site_type_symbol
_atom_site_label
_atom_site_fract_x
_atom_site_fract_y
_atom_site_fract_z
Si Si1 0.910143 0.679420 0.770751
Si Si2 0.485277 0.773485 0.349329
Si Si3 0.653501 0.872380 0.136274
Si Si4 0.808924 0.822883 0.575458
Si Si5 0.736186 0.709661 0.988778
Si Si6 0.772287 0.011672 0.859479
Si Si7 0.918403 0.811302 0.368332
O O1 0.731339 0.455775 0.715407
O O2 0.820166 0.850865 0.673366
O O3 0.173349 0.601098 0.830622
O O4 0.900112 0.784456 0.854770
O O5 0.562113 0.758173 0.462814
O O6 0.408698 0.574519 0.262216
O O7 0.729993 0.849652 0.381363
O O8 0.777121 0.755762 0.246938
O O9 0.402046 0.976593 0.084030
O O10 0.661181 0.728247 0.057327
O O11 0.952883 0.571543 0.602713
O O12 0.918717 0.074149 0.574100
O O13 0.666799 0.929315 0.910907
O O14 0.014674 0.696482 0.068400
#
# Coordination Sequence:
#
# PCOD9119334 Si02
#       7
#     2   2   2   2   2   2   2
#     4  11  26  47  73 112 151 200 258 320 387 468
#     4  12  28  46  78 111 155 201 257 325 385 470
#     4  11  25  46  75 109 149 204 256 319 382 467
#     4  11  28  49  81 111 160 200 261 313 407 456
#     4  12  26  46  75 105 156 200 260 318 392 449
#     4  12  28  46  73 111 150 199 257 321 380 466
#     4  11  27  50  77 115 151 206 259 324 383 476
#
# _framework density 26.104703000000001
#
# number of rings (size 3 to 8) (size 9 to 14) (size 15 to 20)
#    0.000    0.571    1.429    4.286   16.000    0.000 
#    0.000    0.000    0.000    0.000    0.000    0.000 
#    0.000    0.000    0.000    0.000    0.000    0.000 
#
# Total GULP energy -78352.248479 kJ/mol
# GULP energy per Si atom -5596.589177 kJ/mol
# Density = 2.604529 g / cm^3
# Si number density = 26.104703 Si / 1000 Ang^3
#
#
#
# Elastic Constant Matrix: (Units=GPa)
#
#
# Indices 1 2 3 4 5 6 
#
# 1 95.6221 16.5006 15.1033 0.0000 -5.7929 0.0000
# 2 16.5006 74.6660 30.7848 0.0000 8.5653 0.0000
# 3 15.1033 30.7848 158.0048 0.0000 -3.3859 0.0000
# 4 0.0000 0.0000 0.0000 50.6373 0.0000 3.6516
# 5 -5.7929 8.5653 -3.3859 0.0000 38.0246 0.0000
# 6 0.0000 0.0000 0.0000 3.6516 0.0000 29.8204
#
#
#
# Elastic Compliance Matrix: (Units=1/GPa)
#
#
# Indices 1 2 3 4 5 6 
#
# 1 0.011104 -0.002489 -0.000529 0.000000 0.002205 0.000000
# 2 -0.002489 0.015612 -0.002893 0.000000 -0.004153 0.000000
# 3 -0.000529 -0.002893 0.006969 0.000000 0.001192 0.000000
# 4 0.000000 0.000000 0.000000 0.019924 0.000000 -0.002440
# 5 0.002205 -0.004153 0.001192 0.000000 0.027676 0.000000
# 6 0.000000 0.000000 0.000000 -0.002440 0.000000 0.033833
#
#
# Mechanical properties :
#
#
# Convention : Reuss Voigt Hill
#
# Bulk Modulus (GPa) = 45.73844 50.34115 48.03980
# Shear Modulus (GPa) = 37.24991 41.42342 39.33666
#
# Velocity S-wave (km/s) = 3.78159 3.98781 3.88607
# Velocity P-wave (km/s) = 6.05197 6.36629 6.21112
#
# Compressibility (1/GPa) = 0.02186345
#
# Stress axis : x y z
#
# Youngs Moduli (GPa) = 90.05367 64.05256 143.49899
#
# Poissons Ratio (x) = 0.15941 0.07595
# Poissons Ratio (y) = 0.22412 0.41513
# Poissons Ratio (z) = 0.04767 0.18530
#
# Static dielectric constant tensor:
#      x y z
#    x 2.043350 0.000000 -0.020100 
#    y 0.000000 2.087320 0.000000 
#    z -0.020100 0.000000 2.028600 
# 
# From -- ./inp_files/9345.got.cif
#   From: 2010.05.17/outbox.cif.g08.bks.cpg/sg4_5_cif.got.tgz:9345.got - 2010.06.03 18:43:04.
