data_PCOD9119132
_publ_section_title
;
Structure prediction by ZEFSAII (Michael W. Deem and Ramdas Pophale) SiO2 
 PCOD9119132
Probable space group: P 21
;
_chemical_formula_sum "Si O2"
_cell_formula_units_Z 16
_cell_length_a 8.370643
_cell_length_b 8.985522
_cell_length_c 17.115601
_cell_angle_alpha 90.000000
_cell_angle_beta 32.811311
_cell_angle_gamma 90.000000
_cell_volume 697.577896
_symmetry_space_group_name_H-M "P 21"
_symmetry_group_IT_number 4
_symmetry_cell_setting 'monoclinic'
loop_
_space_group_symop_operation_xyz
x,y,z
-x,1/2+y,-z
loop_
_atom_site_type_symbol
_atom_site_label
_atom_site_fract_x
_atom_site_fract_y
_atom_site_fract_z
Si Si1 0.436872 0.930170 0.370466
Si Si2 0.795340 0.556049 0.121103
Si Si3 0.305840 0.293200 0.136446
Si Si4 0.064025 0.846518 0.070000
Si Si5 0.386372 0.590312 0.420991
Si Si6 0.870102 0.550554 0.349956
Si Si7 0.746008 0.529768 0.722700
Si Si8 0.533639 0.232601 0.880417
O O1 0.320921 0.758131 0.416488
O O2 0.790271 0.910569 0.231291
O O3 0.277483 0.012154 0.506694
O O4 0.377270 0.015672 0.314246
O O5 0.552314 0.504729 0.283170
O O6 0.627372 0.654393 0.125457
O O7 0.008832 0.670197 0.079079
O O8 0.939689 0.424149 0.013418
O O9 0.284242 0.182908 0.218516
O O10 0.027837 0.401785 0.252412
O O11 0.620152 0.373923 0.021472
O O12 0.344646 0.217487 0.036736
O O13 0.615873 0.605376 0.397122
O O14 0.096093 0.507917 0.568581
O O15 0.141598 0.663409 0.244011
O O16 0.585945 0.404256 0.838747
#
# Coordination Sequence:
#
# PCOD9119132 Si02
#       8
#     2   2   2   2   2   2   2   2
#     4  11  25  49  73 108 148 193 250 303 377 442
#     4  11  24  46  69 106 137 193 238 300 360 440
#     4  12  27  46  76 110 150 191 247 305 377 442
#     4  11  24  45  72 103 147 184 242 299 364 441
#     4  11  26  46  74 106 153 184 251 302 370 444
#     4  12  27  47  74 106 153 195 245 311 370 445
#     4  12  26  46  77 108 147 201 245 308 370 444
#     4  12  25  45  71 107 149 195 242 306 368 436
#
# _framework density 22.936508
#
# number of rings (size 3 to 8) (size 9 to 14) (size 15 to 20)
#    0.000    0.500    5.000    3.750    5.250    0.000 
#    2.250    0.000    0.000    0.000    0.000    0.000 
#    0.000    0.000    0.000    0.000    0.000    0.000 
#
# Total GULP energy -89596.681152 kJ/mol
# GULP energy per Si atom -5599.792572 kJ/mol
# Density = 2.288430 g / cm^3
# Si number density = 22.936508 Si / 1000 Ang^3
#
#
#
# Elastic Constant Matrix: (Units=GPa)
#
#
# Indices 1 2 3 4 5 6 
#
# 1 71.4541 -3.0719 24.6336 0.0000 12.7316 0.0000
# 2 -3.0719 46.6039 9.8668 0.0000 7.9776 0.0000
# 3 24.6336 9.8668 117.8575 0.0000 18.4731 0.0000
# 4 0.0000 0.0000 0.0000 32.1176 0.0000 4.9317
# 5 12.7316 7.9776 18.4731 0.0000 42.1634 0.0000
# 6 0.0000 0.0000 0.0000 4.9317 0.0000 25.3314
#
#
#
# Elastic Compliance Matrix: (Units=1/GPa)
#
#
# Indices 1 2 3 4 5 6 
#
# 1 0.015790 0.002326 -0.002876 0.000000 -0.003948 0.000000
# 2 0.002326 0.022702 -0.001722 0.000000 -0.004243 0.000000
# 3 -0.002876 -0.001722 0.009710 0.000000 -0.003060 0.000000
# 4 0.000000 0.000000 0.000000 0.032095 0.000000 -0.006249
# 5 -0.003948 -0.004243 -0.003060 0.000000 0.027053 0.000000
# 6 0.000000 0.000000 0.000000 -0.006249 0.000000 0.040693
#
#
# Mechanical properties :
#
#
# Convention : Reuss Voigt Hill
#
# Bulk Modulus (GPa) = 22.90593 33.19695 28.05144
# Shear Modulus (GPa) = 29.91521 33.55492 31.73507
#
# Velocity S-wave (km/s) = 3.61537 3.82900 3.72372
# Velocity P-wave (km/s) = 5.23796 5.83551 5.54479
#
# Compressibility (1/GPa) = 0.04365683
#
# Stress axis : x y z
#
# Youngs Moduli (GPa) = 63.33140 44.04987 102.98967
#
# Poissons Ratio (x) = -0.10244 0.29622
# Poissons Ratio (y) = -0.14728 0.17730
# Poissons Ratio (z) = 0.18215 0.07583
#
# Static dielectric constant tensor:
#      x y z
#    x 1.842970 0.000000 -0.001630 
#    y 0.000000 1.875450 0.000000 
#    z -0.001630 0.000000 1.841060 
# 
# From -- ./inp_files/14958.got.cif
#   From: 2010.05.17/outbox.cif.g08.bks.cpg/sg4_8_cif.got.tgz:14958.got - 2010.06.03 18:43:04.
