data_PCOD9119935
_publ_section_title
;
Structure prediction by ZEFSAII (Michael W. Deem and Ramdas Pophale) SiO2 
 PCOD9119935
Probable space group: C 2
;
_chemical_formula_sum "Si O2"
_cell_formula_units_Z 18
_cell_length_a 7.856330
_cell_length_b 22.511368
_cell_length_c 5.435138
_cell_angle_alpha 90.000000
_cell_angle_beta 56.908965
_cell_angle_gamma 90.000000
_cell_volume 805.331506
_symmetry_space_group_name_H-M "C 2"
_symmetry_group_IT_number 5
_symmetry_cell_setting 'monoclinic'
loop_
_space_group_symop_operation_xyz
x,y,z
-x,y,-z
1/2+x,1/2+y,z
1/2-x,1/2+y,-z
loop_
_atom_site_type_symbol
_atom_site_label
_atom_site_fract_x
_atom_site_fract_y
_atom_site_fract_z
Si Si1 0.367987 0.820410 0.354568
Si Si2 0.000000 0.602725 0.500000
Si Si3 0.366894 0.684277 0.356565
Si Si4 0.751480 0.945268 0.559722
Si Si5 0.698219 0.993937 0.102048
O O1 0.500000 0.827126 0.500000
O O2 0.290835 0.752778 0.421932
O O3 0.211372 0.875088 0.473348
O O4 0.500000 0.825249 0.000000
O O5 0.174361 0.641372 0.488996
O O6 0.110417 0.559682 0.214427
O O7 0.500000 0.674333 0.500000
O O8 0.500000 0.677064 0.000000
O O9 0.810399 0.976964 0.262753
O O10 0.504586 0.953118 0.748421
O O11 0.809419 0.978585 0.763439
#
# Coordination Sequence:
#
# PCOD9119935 Si02
#       5
#     4   2   4   4   4
#     4  10  15  28  49  78 113 139 190 242 281 348
#     4  10  22  42  58  90 128 152 206 244 292 368
#     4  10  24  38  60  91 117 166 197 242 304 352
#     4   9  13  25  43  80 103 132 194 231 272 343
#     4   9  17  25  51  80 102 149 186 231 287 337
#
# _framework density 22.351043000000001
#
# number of rings (size 3 to 8) (size 9 to 14) (size 15 to 20)
#    0.000    2.667    4.444    0.000    0.000    8.000 
#    0.000    0.000    0.000    0.000   23.111    0.000 
#    0.000    0.000    0.000    0.000    0.000    0.000 
#
# Total GULP energy -50214.055571 kJ/mol
# GULP energy per Si atom -5579.339508 kJ/mol
# Density = 2.230017 g / cm^3
# Si number density = 22.351043 Si / 1000 Ang^3
#
#
#
# Elastic Constant Matrix: (Units=GPa)
#
#
# Indices 1 2 3 4 5 6 
#
# 1 145.2877 79.1780 73.0883 0.0000 36.5165 0.0000
# 2 79.1780 198.4239 58.3220 0.0000 13.3089 0.0000
# 3 73.0883 58.3220 157.7948 0.0000 45.1428 0.0000
# 4 0.0000 0.0000 0.0000 14.0949 0.0000 37.4025
# 5 36.5165 13.3089 45.1428 0.0000 49.8389 0.0000
# 6 0.0000 0.0000 0.0000 37.4025 0.0000 -22.6768
#
#
#
# Elastic Compliance Matrix: (Units=1/GPa)
#
#
# Indices 1 2 3 4 5 6 
#
# 1 0.011290 -0.003427 -0.002508 0.000000 -0.005086 0.000000
# 2 -0.003427 0.006704 -0.001480 0.000000 0.002061 0.000000
# 3 -0.002508 -0.001480 0.009998 0.000000 -0.006823 0.000000
# 4 0.000000 0.000000 0.000000 0.013195 0.000000 0.021764
# 5 -0.005086 0.002061 -0.006823 0.000000 0.029421 0.000000
# 6 0.000000 0.000000 0.000000 0.021764 0.000000 -0.008202
#
#
# Mechanical properties :
#
#
# Convention : Reuss Voigt Hill
#
# Bulk Modulus (GPa) = 75.97623 102.52033 89.24828
# Shear Modulus (GPa) = 61.25601 27.64593 44.45097
#
# Velocity S-wave (km/s) = 5.24079 3.52077 4.46440
# Velocity P-wave (km/s) = 8.40757 7.90542 8.16035
#
# Compressibility (1/GPa) = 0.01316201
#
# Stress axis : x y z
#
# Youngs Moduli (GPa) = 88.57096 149.16411 100.01831
#
# Poissons Ratio (x) = 0.51118 0.25085
# Poissons Ratio (y) = 0.30353 0.14806
# Poissons Ratio (z) = 0.22214 0.22081
#
# Static dielectric constant tensor:
#      x y z
#    x 1.705130 0.000000 -0.111060 
#    y 0.000000 1.830690 0.000000 
#    z -0.111060 0.000000 1.818020 
# 
# From -- ./inp_files/2668.got.cif
#   From: 2010.05.17/outbox.cif.g08.bks.cpg/sg5_2_cif.got.tgz:2668.got - 2010.06.03 18:56:24.
