data_PCOD9119181
_publ_section_title
;
Structure prediction by ZEFSAII (Michael W. Deem and Ramdas Pophale) SiO2 
 PCOD9119181
Probable space group: P 21
;
_chemical_formula_sum "Si O2"
_cell_formula_units_Z 16
_cell_length_a 9.665885
_cell_length_b 9.363295
_cell_length_c 8.984675
_cell_angle_alpha 90.000000
_cell_angle_beta 54.714899
_cell_angle_gamma 90.000000
_cell_volume 663.767558
_symmetry_space_group_name_H-M "P 21"
_symmetry_group_IT_number 4
_symmetry_cell_setting 'monoclinic'
loop_
_space_group_symop_operation_xyz
x,y,z
-x,1/2+y,-z
loop_
_atom_site_type_symbol
_atom_site_label
_atom_site_fract_x
_atom_site_fract_y
_atom_site_fract_z
Si Si1 0.662329 0.128160 0.375571
Si Si2 0.122518 0.353917 0.754053
Si Si3 0.623936 0.669087 0.223691
Si Si4 0.925156 0.483296 0.422381
Si Si5 0.506684 0.334642 0.973456
Si Si6 0.162045 0.910166 0.841735
Si Si7 0.574344 0.608022 0.760081
Si Si8 0.119765 0.736400 0.347768
O O1 0.556222 0.129575 0.593300
O O2 0.720981 0.286414 0.296559
O O3 0.541156 0.082578 0.313146
O O4 0.814780 0.016589 0.293786
O O5 0.282716 0.260865 0.705872
O O6 0.027117 0.298376 0.668389
O O7 0.984457 0.342448 0.969995
O O8 0.602974 0.762621 0.090167
O O9 0.731239 0.525760 0.132453
O O10 0.917055 0.490559 0.250398
O O11 0.762534 0.559853 0.598085
O O12 0.910191 0.319727 0.480692
O O13 0.088990 0.568264 0.375271
O O14 0.512047 0.502172 0.931401
O O15 0.699611 0.279463 0.831434
O O16 0.440621 0.268745 0.168682
#
# Coordination Sequence:
#
# PCOD9119181 Si02
#       8
#     2   2   2   2   2   2   2   2
#     4  12  24  45  75  99 142 186 238 288 347 416
#     4  12  26  46  73 102 143 185 233 295 350 412
#     4  12  25  48  72 104 138 189 235 291 350 416
#     4  11  26  47  68 102 143 181 231 286 349 423
#     4  11  27  44  71 101 144 177 239 286 346 419
#     4  12  26  44  72 105 140 183 238 292 347 415
#     4  11  24  47  67 103 140 184 231 288 344 416
#     4  11  26  47  68 104 140 185 229 288 353 415
#
# _framework density 24.104824000000001
#
# number of rings (size 3 to 8) (size 9 to 14) (size 15 to 20)
#    0.000    0.500    3.750    3.750   10.500    2.000 
#    0.000    0.000    0.000    0.000    0.000    0.000 
#    0.000    0.000    0.000    0.000    0.000    0.000 
#
# Total GULP energy -89684.279352 kJ/mol
# GULP energy per Si atom -5605.267459 kJ/mol
# Density = 2.404996 g / cm^3
# Si number density = 24.104824 Si / 1000 Ang^3
#
#
#
# Elastic Constant Matrix: (Units=GPa)
#
#
# Indices 1 2 3 4 5 6 
#
# 1 68.6388 0.2663 -9.2150 0.0000 2.0980 0.0000
# 2 0.2663 72.7435 -14.4448 0.0000 -4.9348 0.0000
# 3 -9.2150 -14.4448 52.8314 0.0000 7.7278 0.0000
# 4 0.0000 0.0000 0.0000 40.4209 0.0000 4.5202
# 5 2.0980 -4.9348 7.7278 0.0000 25.7247 0.0000
# 6 0.0000 0.0000 0.0000 4.5202 0.0000 8.8723
#
#
#
# Elastic Compliance Matrix: (Units=1/GPa)
#
#
# Indices 1 2 3 4 5 6 
#
# 1 0.015038 0.000408 0.003036 0.000000 -0.002060 0.000000
# 2 0.000408 0.014616 0.003830 0.000000 0.001620 0.000000
# 3 0.003036 0.003830 0.021373 0.000000 -0.005933 0.000000
# 4 0.000000 0.000000 0.000000 0.026234 0.000000 -0.013366
# 5 -0.002060 0.001620 -0.005933 0.000000 0.041134 0.000000
# 6 0.000000 0.000000 0.000000 -0.013366 0.000000 0.119520
#
#
# Mechanical properties :
#
#
# Convention : Reuss Voigt Hill
#
# Bulk Modulus (GPa) = 15.24963 16.38075 15.81519
# Shear Modulus (GPa) = 20.38941 29.51072 24.95007
#
# Velocity S-wave (km/s) = 2.91153 3.50275 3.22073
# Velocity P-wave (km/s) = 4.20033 4.81346 4.51731
#
# Compressibility (1/GPa) = 0.06557536
#
# Stress axis : x y z
#
# Youngs Moduli (GPa) = 66.49828 68.41847 46.78841
#
# Poissons Ratio (x) = -0.02792 -0.14204
# Poissons Ratio (y) = -0.02713 -0.17922
# Poissons Ratio (z) = -0.20188 -0.26207
#
# Static dielectric constant tensor:
#      x y z
#    x 1.925300 0.000000 0.028680 
#    y 0.000000 1.922720 0.000000 
#    z 0.028680 0.000000 1.840440 
# 
# From -- ./inp_files/5435.got.cif
#   From: 2010.05.17/outbox.cif.g08.bks.cpg/sg4_3_cif.got.tgz:5435.got - 2010.06.03 18:43:04.
