data_PCOD9119031
_publ_section_title
;
Structure prediction by ZEFSAII (Michael W. Deem and Ramdas Pophale) SiO2 
 PCOD9119031
Probable space group: P 21
;
_chemical_formula_sum "Si O2"
_cell_formula_units_Z 16
_cell_length_a 29.317518
_cell_length_b 4.953790
_cell_length_c 23.566950
_cell_angle_alpha 90.000000
_cell_angle_beta 10.916285
_cell_angle_gamma 90.000000
_cell_volume 648.171231
_symmetry_space_group_name_H-M "P 21"
_symmetry_group_IT_number 4
_symmetry_cell_setting 'monoclinic'
loop_
_space_group_symop_operation_xyz
x,y,z
-x,1/2+y,-z
loop_
_atom_site_type_symbol
_atom_site_label
_atom_site_fract_x
_atom_site_fract_y
_atom_site_fract_z
Si Si1 0.096580 0.680120 0.225917
Si Si2 0.438269 0.846637 0.371894
Si Si3 0.005457 0.091389 0.955348
Si Si4 0.653020 0.559592 0.691868
Si Si5 0.126531 0.785757 0.321689
Si Si6 0.711673 0.493465 0.114596
Si Si7 0.210490 0.563595 0.545291
Si Si8 0.440723 0.248828 0.539730
O O1 0.106026 0.783501 0.278479
O O2 0.835024 0.580971 0.523065
O O3 0.312018 0.463724 0.957177
O O4 0.170635 0.897184 0.087876
O O5 0.242284 0.071085 0.627064
O O6 0.503156 0.692322 0.350360
O O7 0.324704 0.643844 0.465053
O O8 0.037973 0.893860 0.970444
O O9 0.798680 0.924746 0.176111
O O10 0.663367 0.257497 0.655213
O O11 0.755025 0.756141 0.517132
O O12 0.383048 0.668012 0.029171
O O13 0.926366 0.581414 0.590326
O O14 0.592789 0.256368 0.295890
O O15 0.926362 0.623969 0.888320
O O16 0.584891 0.452224 0.405072
#
# Coordination Sequence:
#
# PCOD9119031 Si02
#       8
#     2   2   2   2   2   2   2   2
#     4  11  26  45  79 104 145 192 247 294 364 431
#     4  12  24  43  74 100 142 190 247 305 361 425
#     4  12  26  44  66  99 141 188 242 302 367 432
#     4  11  24  46  71 107 144 181 236 290 354 439
#     4  12  28  48  75 109 151 186 230 297 364 437
#     4  11  25  46  72 104 144 195 249 306 360 433
#     4  11  24  41  72 106 139 181 244 302 353 418
#     4  12  27  47  69 101 150 193 247 310 375 433
#
# _framework density 24.684833999999999
#
# number of rings (size 3 to 8) (size 9 to 14) (size 15 to 20)
#    0.000    0.500    3.750    3.750    3.500    3.000 
#    0.000    0.000    0.000    0.000    0.000    0.000 
#    0.000    0.000    0.000    0.000    0.000    0.000 
#
# Total GULP energy -89661.608837 kJ/mol
# GULP energy per Si atom -5603.850552 kJ/mol
# Density = 2.462865 g / cm^3
# Si number density = 24.684834 Si / 1000 Ang^3
#
#
#
# Elastic Constant Matrix: (Units=GPa)
#
#
# Indices 1 2 3 4 5 6 
#
# 1 118.7519 24.8499 50.9350 0.0000 -12.6211 0.0000
# 2 24.8499 91.2291 -3.7128 0.0000 2.0326 0.0000
# 3 50.9350 -3.7128 100.7117 0.0000 -24.4543 0.0000
# 4 0.0000 0.0000 0.0000 34.5945 0.0000 5.0307
# 5 -12.6211 2.0326 -24.4543 0.0000 51.1735 0.0000
# 6 0.0000 0.0000 0.0000 5.0307 0.0000 40.6505
#
#
#
# Elastic Compliance Matrix: (Units=1/GPa)
#
#
# Indices 1 2 3 4 5 6 
#
# 1 0.011745 -0.003448 -0.006030 0.000000 0.000152 0.000000
# 2 -0.003448 0.011994 0.002109 0.000000 -0.000319 0.000000
# 3 -0.006030 0.002109 0.014339 0.000000 0.005281 0.000000
# 4 0.000000 0.000000 0.000000 0.029436 0.000000 -0.003643
# 5 0.000152 -0.000319 0.005281 0.000000 0.022115 0.000000
# 6 0.000000 0.000000 0.000000 -0.003643 0.000000 0.025051
#
#
# Mechanical properties :
#
#
# Convention : Reuss Voigt Hill
#
# Bulk Modulus (GPa) = 42.84817 50.53744 46.69280
# Shear Modulus (GPa) = 36.44334 41.19173 38.81754
#
# Velocity S-wave (km/s) = 3.84649 4.08941 3.96981
# Velocity P-wave (km/s) = 6.09287 6.54333 6.32212
#
# Compressibility (1/GPa) = 0.02333822
#
# Stress axis : x y z
#
# Youngs Moduli (GPa) = 85.14167 83.37810 69.73850
#
# Poissons Ratio (x) = 0.28749 0.42055
# Poissons Ratio (y) = 0.29357 -0.14704
# Poissons Ratio (z) = 0.51343 -0.17580
#
# Static dielectric constant tensor:
#      x y z
#    x 2.001900 0.000000 -0.067140 
#    y 0.000000 1.912110 0.000000 
#    z -0.067140 0.000000 1.997220 
# 
# From -- ./inp_files/16240.got.cif
#   From: 2010.05.17/outbox.cif.g08.bks.cpg/sg4_9_cif.got.tgz:16240.got - 2010.06.03 18:43:04.
