data_PCOD9119707
_publ_section_title
;
Structure prediction by ZEFSAII (Michael W. Deem and Ramdas Pophale) SiO2 
 PCOD9119707
Probable space group: P 21
;
_chemical_formula_sum "Si O2"
_cell_formula_units_Z 14
_cell_length_a 12.033129
_cell_length_b 8.260512
_cell_length_c 8.450253
_cell_angle_alpha 90.000000
_cell_angle_beta 139.457707
_cell_angle_gamma 90.000000
_cell_volume 545.977483
_symmetry_space_group_name_H-M "P 21"
_symmetry_group_IT_number 4
_symmetry_cell_setting 'monoclinic'
loop_
_space_group_symop_operation_xyz
x,y,z
-x,1/2+y,-z
loop_
_atom_site_type_symbol
_atom_site_label
_atom_site_fract_x
_atom_site_fract_y
_atom_site_fract_z
Si Si1 0.842732 0.220150 0.857996
Si Si2 0.125832 0.370513 0.967725
Si Si3 0.610979 0.851167 0.298552
Si Si4 0.998135 0.423745 0.276815
Si Si5 0.509306 0.834306 0.542709
Si Si6 0.403015 0.970796 0.767958
Si Si7 0.059250 0.768239 0.481199
O O1 0.967244 0.258270 0.848279
O O2 0.880050 0.381879 0.000453
O O3 0.643537 0.206772 0.607002
O O4 0.891581 0.051180 0.988034
O O5 0.295747 0.286485 0.214115
O O6 0.101624 0.375057 0.754828
O O7 0.802409 0.907452 0.547974
O O8 0.507338 0.875799 0.351816
O O9 0.630078 0.662365 0.272589
O O10 0.526541 0.935963 0.053057
O O11 0.938237 0.283709 0.329575
O O12 0.994422 0.589805 0.366791
O O13 0.472485 0.940346 0.662739
O O14 0.237508 0.853958 0.617595
#
# Coordination Sequence:
#
# PCOD9119707 Si02
#       7
#     2   2   2   2   2   2   2
#     4  12  26  46  75 111 152 199 255 315 387 463
#     4  12  26  46  75 111 152 199 255 315 387 463
#     4  12  27  48  78 115 159 206 265 327 396 473
#     4  12  26  47  75 108 153 201 258 323 393 469
#     4  12  28  48  80 114 162 206 262 318 400 466
#     4  12  27  48  78 115 159 206 265 327 396 473
#     4  12  26  47  75 108 153 201 258 323 393 469
#
# _framework density 25.642085000000002
#
# number of rings (size 3 to 8) (size 9 to 14) (size 15 to 20)
#    0.000    0.000    2.857    6.857    0.000    6.857 
#    0.000    0.000    0.000    0.000    0.000    0.000 
#    0.000    0.000    0.000    0.000    0.000    0.000 
#
# Total GULP energy -78185.862996 kJ/mol
# GULP energy per Si atom -5584.704500 kJ/mol
# Density = 2.558372 g / cm^3
# Si number density = 25.642085 Si / 1000 Ang^3
#
#
#
# Elastic Constant Matrix: (Units=GPa)
#
#
# Indices 1 2 3 4 5 6 
#
# 1 84.6669 11.8582 30.2983 0.0000 -7.4882 0.0000
# 2 11.8582 92.6169 19.5536 0.0000 1.4432 0.0000
# 3 30.2983 19.5536 108.6681 0.0000 3.3559 0.0000
# 4 0.0000 0.0000 0.0000 27.0705 0.0000 -8.4331
# 5 -7.4882 1.4432 3.3559 0.0000 41.7953 0.0000
# 6 0.0000 0.0000 0.0000 -8.4331 0.0000 29.5887
#
#
#
# Elastic Compliance Matrix: (Units=1/GPa)
#
#
# Indices 1 2 3 4 5 6 
#
# 1 0.013508 -0.000997 -0.003672 0.000000 0.002749 0.000000
# 2 -0.000997 0.011299 -0.001742 0.000000 -0.000429 0.000000
# 3 -0.003672 -0.001742 0.010584 0.000000 -0.001448 0.000000
# 4 0.000000 0.000000 0.000000 0.040540 0.000000 0.011554
# 5 0.002749 -0.000429 -0.001448 0.000000 0.024550 0.000000
# 6 0.000000 0.000000 0.000000 0.011554 0.000000 0.037090
#
#
# Mechanical properties :
#
#
# Convention : Reuss Voigt Hill
#
# Bulk Modulus (GPa) = 44.30698 45.48578 44.89638
# Shear Modulus (GPa) = 31.66254 34.64036 33.15145
#
# Velocity S-wave (km/s) = 3.51777 3.67947 3.59953
# Velocity P-wave (km/s) = 5.81516 5.98570 5.90105
#
# Compressibility (1/GPa) = 0.02256981
#
# Stress axis : x y z
#
# Youngs Moduli (GPa) = 74.03176 88.50126 94.48064
#
# Poissons Ratio (x) = 0.08825 0.34690
# Poissons Ratio (y) = 0.07382 0.16458
# Poissons Ratio (z) = 0.27182 0.15416
#
# Static dielectric constant tensor:
#      x y z
#    x 2.135980 0.000000 -0.025310 
#    y 0.000000 2.092140 0.000000 
#    z -0.025310 0.000000 2.019810 
# 
# From -- ./inp_files/7609.got.cif
#   From: 2010.05.17/outbox.cif.g08.bks.cpg/sg4_4_cif.got.tgz:7609.got - 2010.06.03 18:43:04.
