data_PCOD9119520
_publ_section_title
;
Structure prediction by ZEFSAII (Michael W. Deem and Ramdas Pophale) SiO2 
 PCOD9119520
Probable space group: P 21
;
_chemical_formula_sum "Si O2"
_cell_formula_units_Z 14
_cell_length_a 16.323833
_cell_length_b 7.134754
_cell_length_c 8.368947
_cell_angle_alpha 90.000000
_cell_angle_beta 39.735158
_cell_angle_gamma 90.000000
_cell_volume 623.068483
_symmetry_space_group_name_H-M "P 21"
_symmetry_group_IT_number 4
_symmetry_cell_setting 'monoclinic'
loop_
_space_group_symop_operation_xyz
x,y,z
-x,1/2+y,-z
loop_
_atom_site_type_symbol
_atom_site_label
_atom_site_fract_x
_atom_site_fract_y
_atom_site_fract_z
Si Si1 0.145854 0.802900 0.189221
Si Si2 0.275398 0.185915 0.336942
Si Si3 0.097962 0.853979 0.704016
Si Si4 0.854091 0.069000 0.126841
Si Si5 0.382601 0.296608 0.510705
Si Si6 0.382557 0.075219 0.841628
Si Si7 0.098012 0.517885 0.502035
O O1 0.185105 0.644009 0.256377
O O2 0.012411 0.908197 0.426176
O O3 0.118865 0.685945 0.071711
O O4 0.255535 0.953087 0.001178
O O5 0.353781 0.188651 0.386402
O O6 0.183655 0.369040 0.468092
O O7 0.183589 0.002858 0.481077
O O8 0.353817 0.183133 0.052307
O O9 0.185094 0.727916 0.688347
O O10 0.033623 0.685910 0.699571
O O11 0.987501 0.963606 0.963525
O O12 0.744354 0.918903 0.267903
O O13 0.500057 0.435839 0.305322
O O14 0.407692 0.185928 0.638510
#
# Coordination Sequence:
#
# PCOD9119520 Si02
#       7
#     2   2   2   2   2   2   2
#     4  12  23  42  72 105 150 194 240 309 368 438
#     4  12  26  50  78 112 148 198 252 312 378 442
#     4  12  23  44  71 111 152 186 250 309 377 441
#     4  12  23  42  72 105 150 194 240 309 368 438
#     4  12  28  50  75 108 151 201 251 306 370 450
#     4  12  28  50  75 108 151 201 251 306 370 450
#     4  12  23  44  71 111 152 186 250 309 377 441
#
# _framework density 22.469436999999999
#
# number of rings (size 3 to 8) (size 9 to 14) (size 15 to 20)
#    0.000    0.000    4.286    6.857    0.000    3.429 
#    0.000    0.000    0.000    0.000    0.000    0.000 
#    0.000    0.000    0.000    0.000    0.000    0.000 
#
# Total GULP energy -78218.877149 kJ/mol
# GULP energy per Si atom -5587.062654 kJ/mol
# Density = 2.241830 g / cm^3
# Si number density = 22.469437 Si / 1000 Ang^3
#
#
#
# Elastic Constant Matrix: (Units=GPa)
#
#
# Indices 1 2 3 4 5 6 
#
# 1 84.9318 38.7119 33.7305 0.0000 13.7685 0.0000
# 2 38.7119 105.2210 32.4298 0.0000 21.1411 0.0000
# 3 33.7305 32.4298 77.7706 0.0000 10.5099 0.0000
# 4 0.0000 0.0000 0.0000 44.1966 0.0000 4.9360
# 5 13.7685 21.1411 10.5099 0.0000 34.3940 0.0000
# 6 0.0000 0.0000 0.0000 4.9360 0.0000 45.6707
#
#
#
# Elastic Compliance Matrix: (Units=1/GPa)
#
#
# Indices 1 2 3 4 5 6 
#
# 1 0.015889 -0.003814 -0.004963 0.000000 -0.002500 0.000000
# 2 -0.003814 0.012937 -0.002996 0.000000 -0.005510 0.000000
# 3 -0.004963 -0.002996 0.016421 0.000000 -0.001189 0.000000
# 4 0.000000 0.000000 0.000000 0.022903 0.000000 -0.002475
# 5 -0.002500 -0.005510 -0.001189 0.000000 0.033826 0.000000
# 6 0.000000 0.000000 0.000000 -0.002475 0.000000 0.022163
#
#
# Mechanical properties :
#
#
# Convention : Reuss Voigt Hill
#
# Bulk Modulus (GPa) = 46.08025 53.07422 49.57723
# Shear Modulus (GPa) = 32.27498 35.72235 33.99866
#
# Velocity S-wave (km/s) = 3.79409 3.99158 3.89409
# Velocity P-wave (km/s) = 6.30444 6.70190 6.50621
#
# Compressibility (1/GPa) = 0.02170127
#
# Stress axis : x y z
#
# Youngs Moduli (GPa) = 62.93747 77.29517 60.89757
#
# Poissons Ratio (x) = 0.29478 0.30224
# Poissons Ratio (y) = 0.24003 0.18246
# Poissons Ratio (z) = 0.31237 0.23158
#
# Static dielectric constant tensor:
#      x y z
#    x 1.879570 0.000000 0.106390 
#    y 0.000000 1.826250 0.000000 
#    z 0.106390 0.000000 1.847530 
# 
# From -- ./inp_files/7249.got.cif
#   From: 2010.05.17/outbox.cif.g08.bks.cpg/sg4_4_cif.got.tgz:7249.got - 2010.06.03 18:43:04.
