data_PCOD9119571
_publ_section_title
;
Structure prediction by ZEFSAII (Michael W. Deem and Ramdas Pophale) SiO2 
 PCOD9119571
Probable space group: P 21
;
_chemical_formula_sum "Si O2"
_cell_formula_units_Z 12
_cell_length_a 7.212824
_cell_length_b 5.692096
_cell_length_c 14.316365
_cell_angle_alpha 90.000000
_cell_angle_beta 58.574376
_cell_angle_gamma 90.000000
_cell_volume 501.557894
_symmetry_space_group_name_H-M "P 21"
_symmetry_group_IT_number 4
_symmetry_cell_setting 'monoclinic'
loop_
_space_group_symop_operation_xyz
x,y,z
-x,1/2+y,-z
loop_
_atom_site_type_symbol
_atom_site_label
_atom_site_fract_x
_atom_site_fract_y
_atom_site_fract_z
Si Si1 0.358262 0.192810 0.672347
Si Si2 0.097339 0.852448 0.214553
Si Si3 0.563820 0.014399 0.807022
Si Si4 0.070536 0.209461 0.377272
Si Si5 0.664842 0.529037 0.527012
Si Si6 0.100012 0.991259 0.009935
O O1 0.455058 0.455846 0.642523
O O2 0.101597 0.174198 0.751185
O O3 0.480713 0.077588 0.725439
O O4 0.409555 0.108125 0.554842
O O5 0.329833 0.733650 0.166958
O O6 0.040847 0.967929 0.329107
O O7 0.088088 0.012275 0.125311
O O8 0.767415 0.845466 0.735392
O O9 0.348904 0.935341 0.916648
O O10 0.841369 0.326051 0.459288
O O11 0.196692 0.195355 0.442034
O O12 0.970707 0.749104 0.013193
#
# Coordination Sequence:
#
# PCOD9119571 Si02
#       6
#     2   2   2   2   2   2
#     4  12  24  48  72 110 152 200 258 320 388 470
#     4  12  28  51  78 113 155 201 266 330 401 474
#     4  12  28  51  78 113 155 201 266 330 401 474
#     4  12  26  46  76 112 156 206 266 320 394 470
#     4  12  24  44  74 110 154 206 260 318 386 470
#     4  12  32  54  88 120 156 208 268 332 418 482
#
# _framework density 23.925453999999998
#
# number of rings (size 3 to 8) (size 9 to 14) (size 15 to 20)
#    0.000    0.000    5.000    4.000   11.667    0.000 
#    0.000    0.000    0.000    0.000    0.000    0.000 
#    0.000    0.000    0.000    0.000    0.000    0.000 
#
# Total GULP energy -67051.773964 kJ/mol
# GULP energy per Si atom -5587.647830 kJ/mol
# Density = 2.387100 g / cm^3
# Si number density = 23.925454 Si / 1000 Ang^3
#
#
#
# Elastic Constant Matrix: (Units=GPa)
#
#
# Indices 1 2 3 4 5 6 
#
# 1 133.0532 24.4597 26.8952 0.0000 -3.3152 0.0000
# 2 24.4597 37.1351 8.4365 0.0000 6.4886 0.0000
# 3 26.8952 8.4365 97.3707 0.0000 3.5025 0.0000
# 4 0.0000 0.0000 0.0000 39.3552 0.0000 -0.9080
# 5 -3.3152 6.4886 3.5025 0.0000 46.4266 0.0000
# 6 0.0000 0.0000 0.0000 -0.9080 0.0000 38.8180
#
#
#
# Elastic Compliance Matrix: (Units=1/GPa)
#
#
# Indices 1 2 3 4 5 6 
#
# 1 0.009030 -0.005762 -0.002053 0.000000 0.001605 0.000000
# 2 -0.005762 0.031784 -0.000990 0.000000 -0.004779 0.000000
# 3 -0.002053 -0.000990 0.010953 0.000000 -0.000834 0.000000
# 4 0.000000 0.000000 0.000000 0.025423 0.000000 0.000595
# 5 0.001605 -0.004779 -0.000834 0.000000 0.022385 0.000000
# 6 0.000000 0.000000 0.000000 0.000595 0.000000 0.025775
#
#
# Mechanical properties :
#
#
# Convention : Reuss Voigt Hill
#
# Bulk Modulus (GPa) = 29.27687 43.01575 36.14631
# Shear Modulus (GPa) = 32.39487 38.77114 35.58301
#
# Velocity S-wave (km/s) = 3.68366 4.02991 3.86067
# Velocity P-wave (km/s) = 5.50960 6.29854 5.91723
#
# Compressibility (1/GPa) = 0.03415666
#
# Stress axis : x y z
#
# Youngs Moduli (GPa) = 110.74284 31.46253 91.30048
#
# Poissons Ratio (x) = 0.18128 0.18741
# Poissons Ratio (y) = 0.63808 0.09043
# Poissons Ratio (z) = 0.22732 0.03116
#
# Static dielectric constant tensor:
#      x y z
#    x 1.882930 0.000000 -0.017090 
#    y 0.000000 2.053110 0.000000 
#    z -0.017090 0.000000 1.873280 
# 
# From -- ./inp_files/2323.got.cif
#   From: 2010.05.17/outbox.cif.g08.bks.cpg/sg4_2_cif.got.tgz:2323.got - 2010.06.03 18:43:04.
