data_PCOD9119254
_publ_section_title
;
Structure prediction by ZEFSAII (Michael W. Deem and Ramdas Pophale) SiO2 
 PCOD9119254
Probable space group: P 21
;
_chemical_formula_sum "Si O2"
_cell_formula_units_Z 16
_cell_length_a 5.520117
_cell_length_b 8.962467
_cell_length_c 14.306374
_cell_angle_alpha 90.000000
_cell_angle_beta 111.185668
_cell_angle_gamma 90.000000
_cell_volume 659.954993
_symmetry_space_group_name_H-M "P 21"
_symmetry_group_IT_number 4
_symmetry_cell_setting 'monoclinic'
loop_
_space_group_symop_operation_xyz
x,y,z
-x,1/2+y,-z
loop_
_atom_site_type_symbol
_atom_site_label
_atom_site_fract_x
_atom_site_fract_y
_atom_site_fract_z
Si Si1 0.723814 0.172600 0.980917
Si Si2 0.019771 0.597938 0.223747
Si Si3 0.517738 0.707736 0.382914
Si Si4 0.352586 0.335543 0.786005
Si Si5 0.375334 0.682151 0.818757
Si Si6 0.175211 0.375605 0.094318
Si Si7 0.393906 0.897839 0.530958
Si Si8 0.014353 0.851948 0.644938
O O1 0.576784 0.250187 0.875151
O O2 0.717167 0.995768 0.963683
O O3 0.615187 0.203514 0.068575
O O4 0.008319 0.244999 0.025556
O O5 0.318527 0.617347 0.290231
O O6 0.000343 0.484714 0.134980
O O7 0.896144 0.760231 0.198996
O O8 0.902031 0.509453 0.295852
O O9 0.675946 0.800069 0.328400
O O10 0.357717 0.822043 0.425445
O O11 0.639888 0.577204 0.464202
O O12 0.407419 0.508998 0.803555
O O13 0.599987 0.794132 0.815265
O O14 0.106997 0.730761 0.733104
O O15 0.187106 0.831869 0.576062
O O16 0.703656 0.861459 0.588935
#
# Coordination Sequence:
#
# PCOD9119254 Si02
#       8
#     2   2   2   2   2   2   2   2
#     4  12  27  43  73 107 151 201 260 315 391 471
#     4  11  24  49  76 100 151 202 251 324 391 460
#     4  11  26  49  73 111 153 196 255 321 393 465
#     4  12  27  45  73 110 152 199 259 323 390 467
#     4  12  27  44  73 108 150 199 260 322 385 478
#     4  12  26  47  73 107 154 205 258 319 395 466
#     4  11  27  46  78 110 149 202 255 323 395 465
#     4  11  24  49  75 107 148 202 252 319 392 462
#
# _framework density 24.244077000000001
#
# number of rings (size 3 to 8) (size 9 to 14) (size 15 to 20)
#    0.000    0.500    3.750    3.750    8.750    2.000 
#    0.000    0.000    0.000    0.000    0.000    0.000 
#    0.000    0.000    0.000    0.000    0.000    0.000 
#
# Total GULP energy -89421.257968 kJ/mol
# GULP energy per Si atom -5588.828623 kJ/mol
# Density = 2.418890 g / cm^3
# Si number density = 24.244077 Si / 1000 Ang^3
#
#
#
# Elastic Constant Matrix: (Units=GPa)
#
#
# Indices 1 2 3 4 5 6 
#
# 1 93.2574 19.1112 26.5037 0.0000 -11.5275 0.0000
# 2 19.1112 147.3341 33.4855 0.0000 -5.2783 0.0000
# 3 26.5037 33.4855 77.7471 0.0000 -25.9097 0.0000
# 4 0.0000 0.0000 0.0000 39.5032 0.0000 -2.9806
# 5 -11.5275 -5.2783 -25.9097 0.0000 49.2316 0.0000
# 6 0.0000 0.0000 0.0000 -2.9806 0.0000 34.2734
#
#
#
# Elastic Compliance Matrix: (Units=1/GPa)
#
#
# Indices 1 2 3 4 5 6 
#
# 1 0.011969 -0.000733 -0.003464 0.000000 0.000901 0.000000
# 2 -0.000733 0.007617 -0.003415 0.000000 -0.001152 0.000000
# 3 -0.003464 -0.003415 0.018338 0.000000 0.008474 0.000000
# 4 0.000000 0.000000 0.000000 0.025482 0.000000 0.002216
# 5 0.000901 -0.001152 0.008474 0.000000 0.024859 0.000000
# 6 0.000000 0.000000 0.000000 0.002216 0.000000 0.029370
#
#
# Mechanical properties :
#
#
# Convention : Reuss Voigt Hill
#
# Bulk Modulus (GPa) = 44.05298 52.94883 48.50090
# Shear Modulus (GPa) = 35.60605 40.55085 38.07845
#
# Velocity S-wave (km/s) = 3.83645 4.09419 3.96742
# Velocity P-wave (km/s) = 6.15098 6.65110 6.40592
#
# Compressibility (1/GPa) = 0.02269994
#
# Stress axis : x y z
#
# Youngs Moduli (GPa) = 83.54824 131.28196 54.53200
#
# Poissons Ratio (x) = 0.09622 0.18892
# Poissons Ratio (y) = 0.06123 0.18622
# Poissons Ratio (z) = 0.28944 0.44830
#
# Static dielectric constant tensor:
#      x y z
#    x 2.016280 0.000000 -0.013360 
#    y 0.000000 1.915070 0.000000 
#    z -0.013360 0.000000 1.958120 
# 
# From -- ./inp_files/3421.got.cif
#   From: 2010.05.17/outbox.cif.g08.bks.cpg/sg4_2_cif.got.tgz:3421.got - 2010.06.03 18:43:04.
