data_PCOD9119688
_publ_section_title
;
Structure prediction by ZEFSAII (Michael W. Deem and Ramdas Pophale) SiO2 
 PCOD9119688
Probable space group: P 21
;
_chemical_formula_sum "Si O2"
_cell_formula_units_Z 16
_cell_length_a 11.974456
_cell_length_b 9.054554
_cell_length_c 6.179547
_cell_angle_alpha 90.000000
_cell_angle_beta 88.631147
_cell_angle_gamma 90.000000
_cell_volume 669.816035
_symmetry_space_group_name_H-M "P 21"
_symmetry_group_IT_number 4
_symmetry_cell_setting 'monoclinic'
loop_
_space_group_symop_operation_xyz
x,y,z
-x,1/2+y,-z
loop_
_atom_site_type_symbol
_atom_site_label
_atom_site_fract_x
_atom_site_fract_y
_atom_site_fract_z
Si Si1 0.167833 0.069850 0.892330
Si Si2 0.905209 0.022293 0.414478
Si Si3 0.651959 0.681908 0.448574
Si Si4 0.513431 0.964276 0.344103
Si Si5 0.807023 0.800665 0.786533
Si Si6 0.899966 0.363810 0.483223
Si Si7 0.289177 0.840085 0.194681
Si Si8 0.288746 0.545162 0.934018
O O1 0.266751 0.147300 0.751985
O O2 0.095828 0.974871 0.722904
O O3 0.120502 0.201523 0.048326
O O4 0.227349 0.948430 0.035167
O O5 0.934086 0.193129 0.458104
O O6 0.809484 0.031584 0.238765
O O7 0.864005 0.917318 0.617209
O O8 0.018392 0.937898 0.344406
O O9 0.594698 0.841267 0.437170
O O10 0.553890 0.563742 0.483523
O O11 0.734972 0.687044 0.648734
O O12 0.417907 0.881366 0.213164
O O13 0.593549 0.062663 0.191257
O O14 0.720269 0.896629 0.928574
O O15 0.772974 0.353748 0.572046
O O16 0.271604 0.678529 0.098997
#
# Coordination Sequence:
#
# PCOD9119688 Si02
#       8
#     2   2   2   2   2   2   2   2
#     4  12  25  52  75 107 154 202 260 316 388 464
#     4  12  29  53  79 113 158 206 262 336 393 465
#     4  12  28  46  72 108 152 208 242 328 378 474
#     4  12  28  44  78 110 160 198 254 318 394 468
#     4  12  25  52  75 107 154 202 260 316 388 464
#     4  12  29  53  79 113 158 206 262 336 393 465
#     4  12  28  50  76 115 156 202 259 314 393 473
#     4  12  28  50  76 115 156 202 259 314 393 473
#
# _framework density 23.887156999999998
#
# number of rings (size 3 to 8) (size 9 to 14) (size 15 to 20)
#    0.000    0.000    7.500    0.000   14.000    1.000 
#    0.000    0.000    0.000    0.000    0.000    0.000 
#    0.000    0.000    0.000    0.000    0.000    0.000 
#
# Total GULP energy -89536.458913 kJ/mol
# GULP energy per Si atom -5596.028682 kJ/mol
# Density = 2.383279 g / cm^3
# Si number density = 23.887157 Si / 1000 Ang^3
#
#
#
# Elastic Constant Matrix: (Units=GPa)
#
#
# Indices 1 2 3 4 5 6 
#
# 1 82.2378 4.7093 7.6022 0.0000 4.2337 0.0000
# 2 4.7093 122.8207 18.6886 0.0000 -2.8678 0.0000
# 3 7.6022 18.6886 54.7826 0.0000 3.2902 0.0000
# 4 0.0000 0.0000 0.0000 53.9273 0.0000 2.0519
# 5 4.2337 -2.8678 3.2902 0.0000 22.9723 0.0000
# 6 0.0000 0.0000 0.0000 2.0519 0.0000 44.6966
#
#
#
# Elastic Compliance Matrix: (Units=1/GPa)
#
#
# Indices 1 2 3 4 5 6 
#
# 1 0.012424 -0.000298 -0.001495 0.000000 -0.002113 0.000000
# 2 -0.000298 0.008647 -0.003002 0.000000 0.001564 0.000000
# 3 -0.001495 -0.003002 0.019661 0.000000 -0.002915 0.000000
# 4 0.000000 0.000000 0.000000 0.018576 0.000000 -0.000853
# 5 -0.002113 0.001564 -0.002915 0.000000 0.044533 0.000000
# 6 0.000000 0.000000 0.000000 -0.000853 0.000000 0.022412
#
#
# Mechanical properties :
#
#
# Convention : Reuss Voigt Hill
#
# Bulk Modulus (GPa) = 32.11348 35.76014 33.93681
# Shear Modulus (GPa) = 34.19403 39.57530 36.88466
#
# Velocity S-wave (km/s) = 3.78760 4.07475 3.93379
# Velocity P-wave (km/s) = 5.70972 6.09435 5.90516
#
# Compressibility (1/GPa) = 0.03113957
#
# Stress axis : x y z
#
# Youngs Moduli (GPa) = 80.48971 115.65030 50.86256
#
# Poissons Ratio (x) = 0.03448 0.07606
# Poissons Ratio (y) = 0.02400 0.15271
# Poissons Ratio (z) = 0.12037 0.34722
#
# Static dielectric constant tensor:
#      x y z
#    x 1.898690 0.000000 -0.044730 
#    y 0.000000 1.906480 0.000000 
#    z -0.044730 0.000000 1.950160 
# 
# From -- ./inp_files/2581.got.cif
#   From: 2010.05.17/outbox.cif.g08.bks.cpg/sg4_2_cif.got.tgz:2581.got - 2010.06.03 18:43:04.
