data_PCOD9119844
_publ_section_title
;
Structure prediction by ZEFSAII (Michael W. Deem and Ramdas Pophale) SiO2 
 PCOD9119844
Probable space group: P 21
;
_chemical_formula_sum "Si O2"
_cell_formula_units_Z 16
_cell_length_a 6.000000
_cell_length_b 9.000000
_cell_length_c 15.000000
_cell_angle_alpha 90.000000
_cell_angle_beta 120.000000
_cell_angle_gamma 90.000000
_cell_volume 701.480577
_symmetry_space_group_name_H-M "P 21"
_symmetry_group_IT_number 4
_symmetry_cell_setting 'monoclinic'
loop_
_space_group_symop_operation_xyz
x,y,z
-x,1/2+y,-z
loop_
_atom_site_type_symbol
_atom_site_label
_atom_site_fract_x
_atom_site_fract_y
_atom_site_fract_z
Si Si1 0.170368 0.519310 0.932604
Si Si2 0.734759 0.528502 0.094101
Si Si3 0.923905 0.244971 0.943105
Si Si4 0.279721 0.535320 0.491798
Si Si5 0.973195 0.828427 0.425988
Si Si6 0.228822 0.399255 0.286983
Si Si7 0.453130 0.126054 0.750468
Si Si8 0.836079 0.550722 0.685991
O O1 0.013618 0.412154 0.967495
O O2 0.007516 0.515079 0.808777
O O3 0.469643 0.469744 0.996205
O O4 0.162292 0.677209 0.980565
O O5 0.836780 0.654246 0.048306
O O6 0.662943 0.600218 0.175363
O O7 0.975399 0.429879 0.175987
O O8 0.707774 0.221126 0.824013
O O9 0.079394 0.420623 0.495546
O O10 0.271109 0.496826 0.385238
O O11 0.541229 0.506125 0.600500
O O12 0.202355 0.708975 0.483650
O O13 0.738016 0.721139 0.348786
O O14 0.016475 0.957994 0.361488
O O15 0.460050 0.466223 0.272024
O O16 0.198892 0.229613 0.313551
#
# Coordination Sequence:
#
# PCOD9119844 Si02
#       8
#     2   2   2   2   2   2   2   2
#     4  11  26  43  72 102 142 188 238 296 370 442
#     4  10  23  44  72 102 140 186 235 296 369 440
#     4  10  24  44  68 103 139 183 233 299 362 430
#     4  12  28  46  76 106 151 191 250 307 375 440
#     4  12  27  48  74 110 145 199 249 304 375 449
#     4  11  26  46  75 105 147 189 246 307 372 440
#     4  10  23  45  75  99 141 190 243 296 374 436
#     4  12  29  46  72 111 149 192 250 313 367 443
#
# _framework density 22.808900000000001
#
# number of rings (size 3 to 8) (size 9 to 14) (size 15 to 20)
#    0.000    1.000    1.250    3.000   15.750    4.000 
#    0.000    0.000    0.000    0.000    0.000    0.000 
#    0.000    0.000    0.000    0.000    0.000    0.000 
#
# Total GULP energy -89300.671919 kJ/mol
# GULP energy per Si atom -5581.291995 kJ/mol
# Density = 2.275699 g / cm^3
# Si number density = 22.808900 Si / 1000 Ang^3
#
#
#
# Elastic Constant Matrix: (Units=GPa)
#
#
# Indices 1 2 3 4 5 6 
#
# 1 67.3265 27.4395 29.9398 0.0000 3.9962 0.0000
# 2 27.4395 91.1300 3.8649 0.0000 2.0526 0.0000
# 3 29.9398 3.8649 131.1156 0.0000 13.6786 0.0000
# 4 0.0000 0.0000 0.0000 37.1191 0.0000 -5.8047
# 5 3.9962 2.0526 13.6786 0.0000 46.1661 0.0000
# 6 0.0000 0.0000 0.0000 -5.8047 0.0000 34.7159
#
#
#
# Elastic Compliance Matrix: (Units=1/GPa)
#
#
# Indices 1 2 3 4 5 6 
#
# 1 0.018962 -0.005530 -0.004150 0.000000 -0.000166 0.000000
# 2 -0.005530 0.012607 0.000928 0.000000 -0.000357 0.000000
# 3 -0.004150 0.000928 0.008785 0.000000 -0.002285 0.000000
# 4 0.000000 0.000000 0.000000 0.027664 0.000000 0.004626
# 5 -0.000166 -0.000357 -0.002285 0.000000 0.022368 0.000000
# 6 0.000000 0.000000 0.000000 0.004626 0.000000 0.029579
#
#
# Mechanical properties :
#
#
# Convention : Reuss Voigt Hill
#
# Bulk Modulus (GPa) = 43.75920 45.78450 44.77185
# Shear Modulus (GPa) = 34.46275 38.82209 36.64242
#
# Velocity S-wave (km/s) = 3.89129 4.13008 4.01246
# Velocity P-wave (km/s) = 6.27824 6.54676 6.41391
#
# Compressibility (1/GPa) = 0.02285234
#
# Stress axis : x y z
#
# Youngs Moduli (GPa) = 52.73751 79.32089 113.82487
#
# Poissons Ratio (x) = 0.43862 0.47232
# Poissons Ratio (y) = 0.29162 -0.10567
# Poissons Ratio (z) = 0.21884 -0.07364
#
# Static dielectric constant tensor:
#      x y z
#    x 1.921100 0.000000 0.013600 
#    y 0.000000 1.837550 0.000000 
#    z 0.013600 0.000000 1.803240 
# 
# From -- ./inp_files/2570.got.cif
#   From: 2010.05.17/outbox.ucp.g08.bks.cvg/sg4_2_cif.got.tgz:2570.got - 2010.06.11 12:51:24.
