data_PCOD9119873
_publ_section_title
;
Structure prediction by ZEFSAII (Michael W. Deem and Ramdas Pophale) SiO2 
 PCOD9119873
Probable space group: P 21
;
_chemical_formula_sum "Si O2"
_cell_formula_units_Z 16
_cell_length_a 6.000000
_cell_length_b 15.000000
_cell_length_c 9.000000
_cell_angle_alpha 90.000000
_cell_angle_beta 60.000000
_cell_angle_gamma 90.000000
_cell_volume 701.480577
_symmetry_space_group_name_H-M "P 21"
_symmetry_group_IT_number 4
_symmetry_cell_setting 'monoclinic'
loop_
_space_group_symop_operation_xyz
x,y,z
-x,1/2+y,-z
loop_
_atom_site_type_symbol
_atom_site_label
_atom_site_fract_x
_atom_site_fract_y
_atom_site_fract_z
Si Si1 0.417216 0.504650 0.167532
Si Si2 0.616758 0.424631 0.792845
Si Si3 0.833323 0.504759 0.447536
Si Si4 0.336440 0.179642 0.392626
Si Si5 0.415261 0.168089 0.016257
Si Si6 0.160066 0.318185 0.917404
Si Si7 0.663317 0.357731 0.276276
Si Si8 0.922949 0.241852 0.733208
O O1 0.464738 0.425831 0.267325
O O2 0.118065 0.527788 0.294813
O O3 0.495969 0.465436 0.981340
O O4 0.616072 0.588403 0.094666
O O5 0.806853 0.482411 0.630214
O O6 0.349521 0.396793 0.803652
O O7 0.776051 0.335075 0.765522
O O8 0.644500 0.591661 0.507797
O O9 0.759012 0.414495 0.385371
O O10 0.357540 0.155914 0.209880
O O11 0.536270 0.261386 0.349241
O O12 0.051311 0.213254 0.536127
O O13 0.276183 0.257162 0.009072
O O14 0.717919 0.183373 0.891402
O O15 0.144977 0.257495 0.777802
O O16 0.890749 0.348754 0.077593
#
# Coordination Sequence:
#
# PCOD9119873 Si02
#       8
#     2   2   2   2   2   2   2   2
#     4  12  24  48  70 100 143 184 238 299 358 425
#     4  11  23  43  72 100 135 185 233 285 364 417
#     4  12  27  46  73 104 143 191 239 305 348 426
#     4  12  25  48  71 104 146 187 243 298 355 431
#     4  11  25  44  70 102 137 186 233 287 362 422
#     4  11  23  44  72  99 139 189 225 294 359 426
#     4  12  26  47  72 105 146 189 242 297 360 429
#     4  11  23  44  70 100 139 183 229 289 350 426
#
# _framework density 22.808900000000001
#
# number of rings (size 3 to 8) (size 9 to 14) (size 15 to 20)
#    0.000    0.500    6.250    2.250    3.500    0.000 
#    4.500    0.000    0.000    0.000    0.000    0.000 
#    0.000    0.000    0.000    0.000    0.000    0.000 
#
# Total GULP energy -89096.788008 kJ/mol
# GULP energy per Si atom -5568.549250 kJ/mol
# Density = 2.275699 g / cm^3
# Si number density = 22.808900 Si / 1000 Ang^3
#
#
#
# Elastic Constant Matrix: (Units=GPa)
#
#
# Indices 1 2 3 4 5 6 
#
# 1 15.8465 2.3811 8.1573 0.0000 -12.5758 0.0000
# 2 2.3811 85.3927 29.1232 0.0000 -16.3828 0.0000
# 3 8.1573 29.1232 155.4644 0.0000 -37.2899 0.0000
# 4 0.0000 0.0000 0.0000 43.8382 0.0000 -10.7707
# 5 -12.5758 -16.3828 -37.2899 0.0000 17.7784 0.0000
# 6 0.0000 0.0000 0.0000 -10.7707 0.0000 10.3099
#
#
#
# Elastic Compliance Matrix: (Units=1/GPa)
#
#
# Indices 1 2 3 4 5 6 
#
# 1 0.914169 0.136502 0.224877 0.000000 1.244117 0.000000
# 2 0.136502 0.034680 0.034548 0.000000 0.200979 0.000000
# 3 0.224877 0.034548 0.068329 0.000000 0.334226 0.000000
# 4 0.000000 0.000000 0.000000 0.030688 0.000000 0.032059
# 5 1.244117 0.200979 0.334226 0.000000 1.822531 0.000000
# 6 0.000000 0.000000 0.000000 0.032059 0.000000 0.130486
#
#
# Mechanical properties :
#
#
# Convention : Reuss Voigt Hill
#
# Bulk Modulus (GPa) = 0.55278 37.33631 18.94455
# Shear Modulus (GPa) = 1.77807 28.85477 15.31642
#
# Velocity S-wave (km/s) = 0.88388 3.56064 2.59416
# Velocity P-wave (km/s) = 1.13337 5.77139 4.15893
#
# Compressibility (1/GPa) = 1.80903309
#
# Stress axis : x y z
#
# Youngs Moduli (GPa) = 1.09389 28.83493 14.63512
#
# Poissons Ratio (x) = -3.93603 -3.29111
# Poissons Ratio (y) = -0.14932 -0.50562
# Poissons Ratio (z) = -0.24599 -0.99619
#
# Static dielectric constant tensor:
#      x y z
#    x 1.953080 0.000000 0.022250 
#    y 0.000000 2.075400 0.000000 
#    z 0.022250 0.000000 1.797880 
# 
# From -- ./inp_files/1829.got.cif
#   From: 2010.05.17/outbox.ucp.g08.bks.cvg/sg4_1_cif.got.tgz:1829.got - 2010.06.11 12:51:24.
