data_PCOD9119041
_publ_section_title
;
Structure prediction by ZEFSAII (Michael W. Deem and Ramdas Pophale) SiO2 
 PCOD9119041
Probable space group: P 21
;
_chemical_formula_sum "Si O2"
_cell_formula_units_Z 16
_cell_length_a 5.103745
_cell_length_b 9.688389
_cell_length_c 12.258153
_cell_angle_alpha 90.000000
_cell_angle_beta 94.219326
_cell_angle_gamma 90.000000
_cell_volume 604.486929
_symmetry_space_group_name_H-M "P 21"
_symmetry_group_IT_number 4
_symmetry_cell_setting 'monoclinic'
loop_
_space_group_symop_operation_xyz
x,y,z
-x,1/2+y,-z
loop_
_atom_site_type_symbol
_atom_site_label
_atom_site_fract_x
_atom_site_fract_y
_atom_site_fract_z
Si Si1 0.446701 0.481060 0.698302
Si Si2 0.962115 0.103842 0.041943
Si Si3 0.318452 0.911737 0.512159
Si Si4 0.124251 0.634509 0.294263
Si Si5 0.043575 0.644845 0.538550
Si Si6 0.523261 0.702207 0.846757
Si Si7 0.597258 0.476237 0.254424
Si Si8 0.808971 0.326160 0.866553
O O1 0.537802 0.386801 0.597860
O O2 0.189133 0.556955 0.637129
O O3 0.606692 0.621514 0.738785
O O4 0.538298 0.392071 0.809220
O O5 0.754895 0.134356 0.131495
O O6 0.244435 0.175642 0.063207
O O7 0.825800 0.187414 0.939614
O O8 0.043459 0.943733 0.057646
O O9 0.075556 0.810153 0.538183
O O10 0.466529 0.905413 0.630817
O O11 0.231174 0.070201 0.489820
O O12 0.170463 0.622712 0.423346
O O13 0.400258 0.601784 0.247453
O O14 0.039984 0.782078 0.241296
O O15 0.895013 0.526828 0.257514
O O16 0.471643 0.863093 0.835659
#
# Coordination Sequence:
#
# PCOD9119041 Si02
#       8
#     2   2   2   2   2   2   2   2
#     4  11  24  45  73 105 154 199 252 306 391 449
#     4  11  29  51  76 112 143 199 264 324 384 451
#     4  11  24  42  69 113 155 204 251 311 378 477
#     4  11  25  44  73 112 150 200 249 312 380 457
#     4  11  24  42  71 111 156 201 254 307 380 474
#     4  11  26  47  77 106 154 195 257 321 386 447
#     4  11  24  43  74 112 154 200 248 308 382 461
#     4  11  28  52  79 109 150 202 259 327 389 450
#
# _framework density 26.468726
#
# number of rings (size 3 to 8) (size 9 to 14) (size 15 to 20)
#    0.000    1.000    3.750    0.750    7.000   10.000 
#    0.000    0.000    0.000    0.000    0.000    0.000 
#    0.000    0.000    0.000    0.000    0.000    0.000 
#
# Total GULP energy -89122.236092 kJ/mol
# GULP energy per Si atom -5570.139756 kJ/mol
# Density = 2.640848 g / cm^3
# Si number density = 26.468726 Si / 1000 Ang^3
#
#
#
# Elastic Constant Matrix: (Units=GPa)
#
#
# Indices 1 2 3 4 5 6 
#
# 1 59.8142 1.6786 3.6019 0.0000 6.9693 0.0000
# 2 1.6786 87.1196 34.8214 0.0000 7.5710 0.0000
# 3 3.6019 34.8214 100.8189 0.0000 19.3376 0.0000
# 4 0.0000 0.0000 0.0000 54.6818 0.0000 13.0984
# 5 6.9693 7.5710 19.3376 0.0000 27.6015 0.0000
# 6 0.0000 0.0000 0.0000 13.0984 0.0000 27.4364
#
#
#
# Elastic Compliance Matrix: (Units=1/GPa)
#
#
# Indices 1 2 3 4 5 6 
#
# 1 0.017231 -0.000046 0.000268 0.000000 -0.004526 0.000000
# 2 -0.000046 0.013323 -0.004507 0.000000 -0.000485 0.000000
# 3 0.000268 -0.004507 0.012987 0.000000 -0.007930 0.000000
# 4 0.000000 0.000000 0.000000 0.020649 0.000000 -0.009858
# 5 -0.004526 -0.000485 -0.007930 0.000000 0.043062 0.000000
# 6 0.000000 0.000000 0.000000 -0.009858 0.000000 0.041154
#
#
# Mechanical properties :
#
#
# Convention : Reuss Voigt Hill
#
# Bulk Modulus (GPa) = 28.59431 36.43961 32.51696
# Shear Modulus (GPa) = 29.65043 35.78732 32.71887
#
# Velocity S-wave (km/s) = 3.35058 3.68103 3.51968
# Velocity P-wave (km/s) = 5.07888 5.64478 5.36929
#
# Compressibility (1/GPa) = 0.03497200
#
# Stress axis : x y z
#
# Youngs Moduli (GPa) = 58.03513 75.05874 77.00126
#
# Poissons Ratio (x) = 0.00345 -0.02067
# Poissons Ratio (y) = 0.00267 0.34703
# Poissons Ratio (z) = -0.01558 0.33827
#
# Static dielectric constant tensor:
#      x y z
#    x 2.118950 0.000000 -0.157150 
#    y 0.000000 2.145280 0.000000 
#    z -0.157150 0.000000 2.326270 
# 
# From -- ./inp_files/10348.got.cif
#   From: 2010.05.17/outbox.cif.g08.bks.cpg/sg4_6_cif.got.tgz:10348.got - 2010.06.03 18:43:04.
