data_PCOD9119306
_publ_section_title
;
Structure prediction by ZEFSAII (Michael W. Deem and Ramdas Pophale) SiO2 
 PCOD9119306
Probable space group: P 21
;
_chemical_formula_sum "Si O2"
_cell_formula_units_Z 14
_cell_length_a 24.417338
_cell_length_b 5.325141
_cell_length_c 8.676938
_cell_angle_alpha 90.000000
_cell_angle_beta 31.093182
_cell_angle_gamma 90.000000
_cell_volume 582.651124
_symmetry_space_group_name_H-M "P 21"
_symmetry_group_IT_number 4
_symmetry_cell_setting 'monoclinic'
loop_
_space_group_symop_operation_xyz
x,y,z
-x,1/2+y,-z
loop_
_atom_site_type_symbol
_atom_site_label
_atom_site_fract_x
_atom_site_fract_y
_atom_site_fract_z
Si Si1 0.033594 0.483510 0.291463
Si Si2 0.245579 0.700662 0.171201
Si Si3 0.260724 0.743408 0.780040
Si Si4 0.018565 0.443130 0.695082
Si Si5 0.483528 0.573801 0.131356
Si Si6 0.313709 0.213390 0.165422
Si Si7 0.835890 0.614344 0.215990
O O1 0.995778 0.425117 0.555334
O O2 0.950644 0.640735 0.391495
O O3 0.154227 0.583640 0.011761
O O4 0.062534 0.236323 0.120302
O O5 0.126516 0.592098 0.465863
O O6 0.312693 0.451553 0.055477
O O7 0.274099 0.941005 0.204284
O O8 0.267009 0.790545 0.945406
O O9 0.364188 0.596048 0.478719
O O10 0.243441 0.988297 0.714835
O O11 0.921039 0.402668 0.059253
O O12 0.507350 0.289373 0.022424
O O13 0.570286 0.665106 0.045267
O O14 0.229509 0.270974 0.506629
#
# Coordination Sequence:
#
# PCOD9119306 Si02
#       7
#     2   2   2   2   2   2   2
#     4   9  20  39  72 101 128 183 247 287 318 419
#     4  12  29  43  67 107 157 186 220 301 383 433
#     4  11  25  45  75 104 143 186 242 301 362 423
#     4   9  21  41  66 101 140 189 229 283 350 418
#     4  12  26  47  81 104 128 188 251 306 352 427
#     4  12  27  45  69 107 145 182 245 297 364 433
#     4   9  22  44  74  98 135 186 260 283 325 431
#
# _framework density 24.028099999999998
#
# number of rings (size 3 to 8) (size 9 to 14) (size 15 to 20)
#    0.857    0.571    1.429    2.571    6.000    4.571 
#    0.000    0.000    0.000    0.000    0.000    0.000 
#    0.000    0.000    0.000    0.000    0.000    0.000 
#
# Total GULP energy -78036.436840 kJ/mol
# GULP energy per Si atom -5574.031203 kJ/mol
# Density = 2.397341 g / cm^3
# Si number density = 24.028100 Si / 1000 Ang^3
#
#
#
# Elastic Constant Matrix: (Units=GPa)
#
#
# Indices 1 2 3 4 5 6 
#
# 1 59.5912 17.7243 3.1513 0.0000 -15.9599 0.0000
# 2 17.7243 80.1530 -5.7535 0.0000 -5.0645 0.0000
# 3 3.1513 -5.7535 101.8615 0.0000 -17.2110 0.0000
# 4 0.0000 0.0000 0.0000 10.9481 0.0000 -11.1292
# 5 -15.9599 -5.0645 -17.2110 0.0000 31.3304 0.0000
# 6 0.0000 0.0000 0.0000 -11.1292 0.0000 34.3763
#
#
#
# Elastic Compliance Matrix: (Units=1/GPa)
#
#
# Indices 1 2 3 4 5 6 
#
# 1 0.020663 -0.003847 0.000900 0.000000 0.010398 0.000000
# 2 -0.003847 0.013448 0.001008 0.000000 0.000768 0.000000
# 3 0.000900 0.001008 0.010970 0.000000 0.006648 0.000000
# 4 0.000000 0.000000 0.000000 0.136146 0.000000 0.044077
# 5 0.010398 0.000768 0.006648 0.000000 0.040991 0.000000
# 6 0.000000 0.000000 0.000000 0.044077 0.000000 0.043360
#
#
# Mechanical properties :
#
#
# Convention : Reuss Voigt Hill
#
# Bulk Modulus (GPa) = 24.27033 30.20554 27.23794
# Shear Modulus (GPa) = 17.65608 30.42986 24.04297
#
# Velocity S-wave (km/s) = 2.71368 3.56255 3.16669
# Velocity P-wave (km/s) = 4.46559 5.43328 4.97303
#
# Compressibility (1/GPa) = 0.04120256
#
# Stress axis : x y z
#
# Youngs Moduli (GPa) = 48.39643 74.36142 91.16131
#
# Poissons Ratio (x) = 0.28611 -0.08208
# Poissons Ratio (y) = 0.18621 -0.09192
# Poissons Ratio (z) = -0.04358 -0.07498
#
# Static dielectric constant tensor:
#      x y z
#    x 2.089040 0.000000 0.184620 
#    y 0.000000 2.443540 0.000000 
#    z 0.184620 0.000000 1.976680 
# 
# From -- ./inp_files/9373.got.cif
#   From: 2010.05.17/outbox.cif.g08.bks.cpg/sg4_5_cif.got.tgz:9373.got - 2010.06.03 18:43:04.
