data_PCOD9119178
_publ_section_title
;
Structure prediction by ZEFSAII (Michael W. Deem and Ramdas Pophale) SiO2 
 PCOD9119178
Probable space group: P 21
;
_chemical_formula_sum "Si O2"
_cell_formula_units_Z 12
_cell_length_a 11.548491
_cell_length_b 7.321507
_cell_length_c 6.082075
_cell_angle_alpha 90.000000
_cell_angle_beta 103.735245
_cell_angle_gamma 90.000000
_cell_volume 499.547793
_symmetry_space_group_name_H-M "P 21"
_symmetry_group_IT_number 4
_symmetry_cell_setting 'monoclinic'
loop_
_space_group_symop_operation_xyz
x,y,z
-x,1/2+y,-z
loop_
_atom_site_type_symbol
_atom_site_label
_atom_site_fract_x
_atom_site_fract_y
_atom_site_fract_z
Si Si1 0.714329 0.645770 0.313786
Si Si2 0.125811 0.933253 0.929029
Si Si3 0.497284 0.125946 0.128245
Si Si4 0.291349 0.601295 0.119175
Si Si5 0.506346 0.279012 0.549836
Si Si6 0.138636 0.288928 0.246279
O O1 0.613103 0.660898 0.457723
O O2 0.809796 0.777309 0.481411
O O3 0.802493 0.492290 0.258559
O O4 0.620640 0.655728 0.068361
O O5 0.132039 0.094115 0.115996
O O6 0.192465 0.755882 0.048471
O O7 0.990509 0.881735 0.814535
O O8 0.506774 0.303267 0.289090
O O9 0.489041 0.942728 0.273014
O O10 0.617695 0.106620 0.043729
O O11 0.376014 0.659887 0.357410
O O12 0.226206 0.414152 0.141161
#
# Coordination Sequence:
#
# PCOD9119178 Si02
#       6
#     2   2   2   2   2   2
#     4  11  26  47  76 115 156 205 263 328 395 478
#     4  12  26  51  81 112 157 214 274 332 399 481
#     4  11  25  46  79 116 161 205 268 330 409 481
#     4  11  26  50  80 117 156 210 270 332 404 481
#     4  11  24  46  80 116 160 204 257 345 405 471
#     4  12  27  52  82 114 162 210 274 335 398 476
#
# _framework density 24.021726000000001
#
# number of rings (size 3 to 8) (size 9 to 14) (size 15 to 20)
#    0.000    0.667    3.333    3.000    2.333    4.000 
#    9.000    0.000    0.000    0.000    0.000    0.000 
#    0.000    0.000    0.000    0.000    0.000    0.000 
#
# Total GULP energy -67036.701130 kJ/mol
# GULP energy per Si atom -5586.391761 kJ/mol
# Density = 2.396705 g / cm^3
# Si number density = 24.021726 Si / 1000 Ang^3
#
#
#
# Elastic Constant Matrix: (Units=GPa)
#
#
# Indices 1 2 3 4 5 6 
#
# 1 170.4429 54.5381 69.2324 0.0000 35.8019 0.0000
# 2 54.5381 132.6946 56.5738 0.0000 9.0721 0.0000
# 3 69.2324 56.5738 129.0572 0.0000 14.7164 0.0000
# 4 0.0000 0.0000 0.0000 39.5013 0.0000 -1.2462
# 5 35.8019 9.0721 14.7164 0.0000 33.6268 0.0000
# 6 0.0000 0.0000 0.0000 -1.2462 0.0000 40.7566
#
#
#
# Elastic Compliance Matrix: (Units=1/GPa)
#
#
# Indices 1 2 3 4 5 6 
#
# 1 0.009572 -0.001947 -0.003346 0.000000 -0.008201 0.000000
# 2 -0.001947 0.009683 -0.003304 0.000000 0.000906 0.000000
# 3 -0.003346 -0.003304 0.011035 0.000000 -0.000375 0.000000
# 4 0.000000 0.000000 0.000000 0.025340 0.000000 0.000775
# 5 -0.008201 0.000906 -0.000375 0.000000 0.038390 0.000000
# 6 0.000000 0.000000 0.000000 0.000775 0.000000 0.024560
#
#
# Mechanical properties :
#
#
# Convention : Reuss Voigt Hill
#
# Bulk Modulus (GPa) = 76.35857 88.09814 82.22836
# Shear Modulus (GPa) = 35.67937 39.56698 37.62318
#
# Velocity S-wave (km/s) = 3.85813 4.06289 3.96184
# Velocity P-wave (km/s) = 7.19050 7.66573 7.43191
#
# Compressibility (1/GPa) = 0.01309611
#
# Stress axis : x y z
#
# Youngs Moduli (GPa) = 104.47219 103.27677 90.62468
#
# Poissons Ratio (x) = 0.20105 0.30325
# Poissons Ratio (y) = 0.20338 0.29938
# Poissons Ratio (z) = 0.34959 0.34118
#
# Static dielectric constant tensor:
#      x y z
#    x 1.869270 0.000000 -0.024490 
#    y 0.000000 2.027050 0.000000 
#    z -0.024490 0.000000 1.995910 
# 
# From -- ./inp_files/2642.got.cif
#   From: 2010.05.17/outbox.cif.g08.bks.cpg/sg4_2_cif.got.tgz:2642.got - 2010.06.03 18:43:04.
