data_PCOD9119485
_publ_section_title
;
Structure prediction by ZEFSAII (Michael W. Deem and Ramdas Pophale) SiO2 
 PCOD9119485
Probable space group: P 21
;
_chemical_formula_sum "Si O2"
_cell_formula_units_Z 10
_cell_length_a 9.117852
_cell_length_b 8.864584
_cell_length_c 4.692835
_cell_angle_alpha 90.000000
_cell_angle_beta 102.882179
_cell_angle_gamma 90.000000
_cell_volume 369.756085
_symmetry_space_group_name_H-M "P 21"
_symmetry_group_IT_number 4
_symmetry_cell_setting 'monoclinic'
loop_
_space_group_symop_operation_xyz
x,y,z
-x,1/2+y,-z
loop_
_atom_site_type_symbol
_atom_site_label
_atom_site_fract_x
_atom_site_fract_y
_atom_site_fract_z
Si Si1 0.336819 0.159460 0.448830
Si Si2 0.242755 0.663445 0.674226
Si Si3 0.585762 0.347352 0.675834
Si Si4 0.202446 0.448671 0.131621
Si Si5 0.110238 0.911599 0.320874
O O1 0.441489 0.255118 0.708222
O O2 0.273065 0.285157 0.207618
O O3 0.441838 0.024008 0.374381
O O4 0.191815 0.060862 0.481747
O O5 0.376312 0.772910 0.618549
O O6 0.200849 0.529952 0.434571
O O7 0.103379 0.779873 0.553252
O O8 0.287364 0.569863 0.970517
O O9 0.760349 0.353441 0.851984
O O10 0.040978 0.439580 0.910818
#
# Coordination Sequence:
#
# PCOD9119485 Si02
#       5
#     2   2   2   2   2
#     4   9  19  37  70  92 137 172 225 269 337 390
#     4   9  24  38  67  89 137 165 225 272 332 390
#     4   8  19  42  61 103 128 183 218 280 328 406
#     4  12  20  43  66  99 125 179 216 283 326 398
#     4   8  22  38  64 101 131 177 224 276 333 400
#
# _framework density 27.044855999999999
#
# number of rings (size 3 to 8) (size 9 to 14) (size 15 to 20)
#    2.400    0.000    0.000    2.400    0.000    3.200 
#    0.000   16.000    0.000    0.000    0.000    0.000 
#    0.000    0.000    0.000    0.000    0.000    0.000 
#
# Total GULP energy -55677.580266 kJ/mol
# GULP energy per Si atom -5567.758027 kJ/mol
# Density = 2.698330 g / cm^3
# Si number density = 27.044856 Si / 1000 Ang^3
#
#
#
# Elastic Constant Matrix: (Units=GPa)
#
#
# Indices 1 2 3 4 5 6 
#
# 1 114.4446 56.2906 33.7543 0.0000 37.7186 0.0000
# 2 56.2906 221.9610 27.5633 0.0000 12.5178 0.0000
# 3 33.7543 27.5633 85.0962 0.0000 17.7253 0.0000
# 4 0.0000 0.0000 0.0000 41.0653 0.0000 15.8558
# 5 37.7186 12.5178 17.7253 0.0000 42.9078 0.0000
# 6 0.0000 0.0000 0.0000 15.8558 0.0000 43.0233
#
#
#
# Elastic Compliance Matrix: (Units=1/GPa)
#
#
# Indices 1 2 3 4 5 6 
#
# 1 0.014395 -0.002721 -0.002580 0.000000 -0.010794 0.000000
# 2 -0.002721 0.005235 -0.000871 0.000000 0.001225 0.000000
# 3 -0.002580 -0.000871 0.013711 0.000000 -0.003142 0.000000
# 4 0.000000 0.000000 0.000000 0.028392 0.000000 -0.010463
# 5 -0.010794 0.001225 -0.003142 0.000000 0.033735 0.000000
# 6 0.000000 0.000000 0.000000 -0.010463 0.000000 0.027099
#
#
# Mechanical properties :
#
#
# Convention : Reuss Voigt Hill
#
# Bulk Modulus (GPa) = 47.62893 72.96868 60.29880
# Shear Modulus (GPa) = 35.23332 45.65884 40.44608
#
# Velocity S-wave (km/s) = 3.61331 4.11331 3.87139
# Velocity P-wave (km/s) = 5.92092 7.04260 6.50598
#
# Compressibility (1/GPa) = 0.02099564
#
# Stress axis : x y z
#
# Youngs Moduli (GPa) = 69.46875 191.03743 72.93171
#
# Poissons Ratio (x) = 0.51991 0.18816
# Poissons Ratio (y) = 0.18906 0.06354
# Poissons Ratio (z) = 0.17923 0.16643
#
# Static dielectric constant tensor:
#      x y z
#    x 2.178020 0.000000 -0.076110 
#    y 0.000000 2.117560 0.000000 
#    z -0.076110 0.000000 2.223590 
# 
# From -- ./inp_files/2482.got.cif
#   From: 2010.05.17/outbox.cif.g08.bks.cpg/sg4_2_cif.got.tgz:2482.got - 2010.06.03 18:43:04.
