data_PCOD9119489
_publ_section_title
;
Structure prediction by ZEFSAII (Michael W. Deem and Ramdas Pophale) SiO2 
 PCOD9119489
Probable space group: P 21
;
_chemical_formula_sum "Si O2"
_cell_formula_units_Z 14
_cell_length_a 10.144235
_cell_length_b 5.180299
_cell_length_c 12.982555
_cell_angle_alpha 90.000000
_cell_angle_beta 105.471140
_cell_angle_gamma 90.000000
_cell_volume 657.514634
_symmetry_space_group_name_H-M "P 21"
_symmetry_group_IT_number 4
_symmetry_cell_setting 'monoclinic'
loop_
_space_group_symop_operation_xyz
x,y,z
-x,1/2+y,-z
loop_
_atom_site_type_symbol
_atom_site_label
_atom_site_fract_x
_atom_site_fract_y
_atom_site_fract_z
Si Si1 0.763317 0.348520 0.683548
Si Si2 0.901688 0.315439 0.489394
Si Si3 0.811767 0.436420 0.257511
Si Si4 0.067787 0.435672 0.793975
Si Si5 0.330388 0.348167 0.228832
Si Si6 0.908194 0.891623 0.983123
Si Si7 0.532163 0.378193 0.077118
O O1 0.816373 0.332977 0.577297
O O2 0.679171 0.600207 0.699857
O O3 0.909412 0.363372 0.773696
O O4 0.678470 0.102062 0.703062
O O5 0.796934 0.348424 0.372142
O O6 0.011925 0.550197 0.503710
O O7 0.867473 0.727583 0.269313
O O8 0.685204 0.407676 0.154002
O O9 0.923170 0.231279 0.238344
O O10 0.154136 0.391550 0.915803
O O11 0.195591 0.354157 0.129570
O O12 0.446109 0.348273 0.165195
O O13 0.014723 0.660571 0.004263
O O14 0.488980 0.630285 0.001605
#
# Coordination Sequence:
#
# PCOD9119489 Si02
#       7
#     2   2   2   2   2   2   2
#     4  12  23  40  63  98 133 166 210 272 340 382
#     4  12  23  40  67 100 134 171 216 273 332 392
#     4  12  24  43  67  95 128 174 226 266 322 386
#     4  12  22  38  64  96 133 164 211 274 330 391
#     4  12  24  42  61  93 134 171 214 275 324 386
#     4  12  21  32  54  87 120 156 199 251 325 387
#     4  12  27  49  70  93 132 182 228 265 317 402
#
# _framework density 21.292303
#
# number of rings (size 3 to 8) (size 9 to 14) (size 15 to 20)
#    0.000    0.000    5.714    6.000    0.000    0.000 
#    0.000    1.429    0.000    0.000    0.000    0.000 
#    0.000    0.000    0.000    0.000    0.000    0.000 
#
# Total GULP energy -78238.013828 kJ/mol
# GULP energy per Si atom -5588.429559 kJ/mol
# Density = 2.124384 g / cm^3
# Si number density = 21.292303 Si / 1000 Ang^3
#
#
#
# Elastic Constant Matrix: (Units=GPa)
#
#
# Indices 1 2 3 4 5 6 
#
# 1 59.3783 30.4537 6.2354 0.0000 -22.8661 0.0000
# 2 30.4537 146.4146 29.7542 0.0000 -16.8411 0.0000
# 3 6.2354 29.7542 113.2754 0.0000 -26.7956 0.0000
# 4 0.0000 0.0000 0.0000 31.5189 0.0000 -10.9388
# 5 -22.8661 -16.8411 -26.7956 0.0000 50.8945 0.0000
# 6 0.0000 0.0000 0.0000 -10.9388 0.0000 21.0968
#
#
#
# Elastic Compliance Matrix: (Units=1/GPa)
#
#
# Indices 1 2 3 4 5 6 
#
# 1 0.022469 -0.003970 0.002151 0.000000 0.009914 0.000000
# 2 -0.003970 0.008031 -0.001924 0.000000 -0.000139 0.000000
# 3 0.002151 -0.001924 0.010615 0.000000 0.005919 0.000000
# 4 0.000000 0.000000 0.000000 0.038689 0.000000 0.020060
# 5 0.009914 -0.000139 0.005919 0.000000 0.027173 0.000000
# 6 0.000000 0.000000 0.000000 0.020060 0.000000 0.057802
#
#
# Mechanical properties :
#
#
# Convention : Reuss Voigt Hill
#
# Bulk Modulus (GPa) = 29.73617 50.21722 39.97670
# Shear Modulus (GPa) = 27.25173 37.54370 32.39771
#
# Velocity S-wave (km/s) = 3.58143 4.20366 3.90496
# Velocity P-wave (km/s) = 5.57658 6.87000 6.25680
#
# Compressibility (1/GPa) = 0.03362908
#
# Stress axis : x y z
#
# Youngs Moduli (GPa) = 44.50502 124.52254 94.20594
#
# Poissons Ratio (x) = 0.49440 -0.20266
# Poissons Ratio (y) = 0.17670 0.18124
# Poissons Ratio (z) = -0.09574 0.23956
#
# Static dielectric constant tensor:
#      x y z
#    x 1.776720 0.000000 -0.023650 
#    y 0.000000 1.759640 0.000000 
#    z -0.023650 0.000000 1.832500 
# 
# From -- ./inp_files/9794.got.cif
#   From: 2010.05.17/outbox.cif.g08.bks.cpg/sg4_5_cif.got.tgz:9794.got - 2010.06.03 18:43:04.
