data_PCOD9119892
_publ_section_title
;
Structure prediction by ZEFSAII (Michael W. Deem and Ramdas Pophale) SiO2 
 PCOD9119892
Probable space group: P 21
;
_chemical_formula_sum "Si O2"
_cell_formula_units_Z 16
_cell_length_a 9.000000
_cell_length_b 9.000000
_cell_length_c 9.000000
_cell_angle_alpha 90.000000
_cell_angle_beta 60.000000
_cell_angle_gamma 90.000000
_cell_volume 631.332519
_symmetry_space_group_name_H-M "P 21"
_symmetry_group_IT_number 4
_symmetry_cell_setting 'monoclinic'
loop_
_space_group_symop_operation_xyz
x,y,z
-x,1/2+y,-z
loop_
_atom_site_type_symbol
_atom_site_label
_atom_site_fract_x
_atom_site_fract_y
_atom_site_fract_z
Si Si1 0.704691 0.979800 0.294246
Si Si2 0.203348 0.669175 0.354895
Si Si3 0.316568 0.961794 0.462930
Si Si4 0.485259 0.984747 0.846020
Si Si5 0.794264 0.319723 0.204696
Si Si6 0.346036 0.314739 0.985256
Si Si7 0.854932 0.630372 0.703316
Si Si8 0.037056 0.837739 0.183440
O O1 0.505513 0.977672 0.436202
O O2 0.700828 0.920342 0.126640
O O3 0.835248 0.867731 0.311066
O O4 0.768726 0.149753 0.268677
O O5 0.301879 0.810976 0.374040
O O6 0.325182 0.527920 0.304215
O O7 0.133196 0.708805 0.225633
O O8 0.034613 0.649795 0.534586
O O9 0.188932 0.931777 0.664728
O O10 0.274338 0.090727 0.366820
O O11 0.373370 0.879162 0.799127
O O12 0.405035 0.149739 0.905049
O O13 0.512526 0.899723 0.987452
O O14 0.936203 0.321902 0.005514
O O15 0.195770 0.271600 0.174809
O O16 0.874085 0.488552 0.801816
#
# Coordination Sequence:
#
# PCOD9119892 Si02
#       8
#     2   2   2   2   2   2   2   2
#     4  12  28  48  79 115 155 201 263 327 395 463
#     4  11  26  49  75 110 155 203 259 312 391 473
#     4  11  27  49  75 112 155 199 261 320 391 466
#     4  12  25  46  77 110 152 202 254 316 386 466
#     4  12  28  48  79 115 155 201 263 327 395 463
#     4  12  25  46  77 110 152 202 254 316 386 466
#     4  11  26  49  75 110 155 203 259 312 391 473
#     4  11  27  49  75 112 155 199 261 320 391 466
#
# _framework density 25.343222000000001
#
# number of rings (size 3 to 8) (size 9 to 14) (size 15 to 20)
#    0.000    0.500    2.500    4.500   10.500    3.000 
#    0.000    0.000    0.000    0.000    0.000    0.000 
#    0.000    0.000    0.000    0.000    0.000    0.000 
#
# Total GULP energy -89639.803998 kJ/mol
# GULP energy per Si atom -5602.487750 kJ/mol
# Density = 2.528554 g / cm^3
# Si number density = 25.343222 Si / 1000 Ang^3
#
#
#
# Elastic Constant Matrix: (Units=GPa)
#
#
# Indices 1 2 3 4 5 6 
#
# 1 97.4024 -2.6230 2.0983 0.0000 -3.4259 0.0000
# 2 -2.6230 46.9960 1.2388 0.0000 -3.3452 0.0000
# 3 2.0983 1.2388 112.9613 0.0000 -10.0565 0.0000
# 4 0.0000 0.0000 0.0000 29.8213 0.0000 7.1746
# 5 -3.4259 -3.3452 -10.0565 0.0000 55.3679 0.0000
# 6 0.0000 0.0000 0.0000 7.1746 0.0000 38.1126
#
#
#
# Elastic Compliance Matrix: (Units=1/GPa)
#
#
# Indices 1 2 3 4 5 6 
#
# 1 0.010309 0.000625 -0.000140 0.000000 0.000650 0.000000
# 2 0.000625 0.021410 -0.000130 0.000000 0.001309 0.000000
# 3 -0.000140 -0.000130 0.009001 0.000000 0.001618 0.000000
# 4 0.000000 0.000000 0.000000 0.035124 0.000000 -0.006612
# 5 0.000650 0.001309 0.001618 0.000000 0.018474 0.000000
# 6 0.000000 0.000000 0.000000 -0.006612 0.000000 0.027483
#
#
# Mechanical properties :
#
#
# Convention : Reuss Voigt Hill
#
# Bulk Modulus (GPa) = 24.13712 28.75423 26.44567
# Shear Modulus (GPa) = 37.06427 41.77005 39.41716
#
# Velocity S-wave (km/s) = 3.82840 4.06418 3.94805
# Velocity P-wave (km/s) = 5.39324 5.77875 5.58932
#
# Compressibility (1/GPa) = 0.04142997
#
# Stress axis : x y z
#
# Youngs Moduli (GPa) = 96.99860 46.70743 111.10254
#
# Poissons Ratio (x) = -0.02921 0.01561
# Poissons Ratio (y) = -0.06066 0.01443
# Poissons Ratio (z) = 0.01363 0.00607
#
# Static dielectric constant tensor:
#      x y z
#    x 2.018100 0.000000 -0.062220 
#    y 0.000000 1.904320 0.000000 
#    z -0.062220 0.000000 2.089950 
# 
# From -- ./inp_files/5786.got.cif
#   From: 2010.05.17/outbox.ucp.g08.bks.cvg/sg4_3_cif.got.tgz:5786.got - 2010.06.11 12:51:24.
