data_PCOD9119339
_publ_section_title
;
Structure prediction by ZEFSAII (Michael W. Deem and Ramdas Pophale) SiO2 
 PCOD9119339
Probable space group: P 21
;
_chemical_formula_sum "Si O2"
_cell_formula_units_Z 16
_cell_length_a 11.666399
_cell_length_b 11.359544
_cell_length_c 14.337766
_cell_angle_alpha 90.000000
_cell_angle_beta 19.618395
_cell_angle_gamma 90.000000
_cell_volume 637.970227
_symmetry_space_group_name_H-M "P 21"
_symmetry_group_IT_number 4
_symmetry_cell_setting 'monoclinic'
loop_
_space_group_symop_operation_xyz
x,y,z
-x,1/2+y,-z
loop_
_atom_site_type_symbol
_atom_site_label
_atom_site_fract_x
_atom_site_fract_y
_atom_site_fract_z
Si Si1 0.536772 0.014820 0.189168
Si Si2 0.633555 0.085076 0.455276
Si Si3 0.657196 0.783897 0.219319
Si Si4 0.231345 0.132857 0.590636
Si Si5 0.414841 0.379771 0.208864
Si Si6 0.378128 0.123532 0.932509
Si Si7 0.662739 0.336997 0.815718
Si Si8 0.381723 0.853693 0.738322
O O1 0.272347 0.092615 0.451661
O O2 0.580988 0.905456 0.226764
O O3 0.444308 0.951692 0.162582
O O4 0.879833 0.088720 0.905388
O O5 0.569655 0.223750 0.526992
O O6 0.533775 0.075212 0.423075
O O7 0.405746 0.985386 0.679607
O O8 0.008103 0.063639 0.208914
O O9 0.599040 0.688258 0.183383
O O10 0.034359 0.794109 0.970579
O O11 0.308086 0.271361 0.533350
O O12 0.352161 0.520756 0.258826
O O13 0.595307 0.354999 0.168112
O O14 0.051465 0.314865 0.487208
O O15 0.621200 0.354966 0.957126
O O16 0.424094 0.227307 0.971060
#
# Coordination Sequence:
#
# PCOD9119339 Si02
#       8
#     2   2   2   2   2   2   2   2
#     4  11  27  49  78 113 156 210 274 328 408 485
#     4  12  26  46  76 117 161 211 268 328 422 506
#     4  11  25  46  76 113 156 210 261 334 409 497
#     4  12  27  46  73 120 163 202 255 346 410 486
#     4  12  28  51  78 116 157 211 274 340 390 488
#     4  11  27  50  80 109 155 215 267 337 417 487
#     4  11  29  52  81 110 153 218 277 330 398 483
#     4  12  27  48  76 118 163 205 270 339 418 480
#
# _framework density 25.079540999999999
#
# number of rings (size 3 to 8) (size 9 to 14) (size 15 to 20)
#    0.000    0.500    3.750    2.250   10.500    6.000 
#    0.000    0.000    0.000    0.000    0.000    0.000 
#    0.000    0.000    0.000    0.000    0.000    0.000 
#
# Total GULP energy -89557.566754 kJ/mol
# GULP energy per Si atom -5597.347922 kJ/mol
# Density = 2.502246 g / cm^3
# Si number density = 25.079541 Si / 1000 Ang^3
#
#
#
# Elastic Constant Matrix: (Units=GPa)
#
#
# Indices 1 2 3 4 5 6 
#
# 1 133.0082 21.0904 9.6538 0.0000 22.4341 0.0000
# 2 21.0904 88.6080 16.5011 0.0000 12.4076 0.0000
# 3 9.6538 16.5011 72.1990 0.0000 10.1042 0.0000
# 4 0.0000 0.0000 0.0000 44.4042 0.0000 6.6899
# 5 22.4341 12.4076 10.1042 0.0000 33.9650 0.0000
# 6 0.0000 0.0000 0.0000 6.6899 0.0000 23.0575
#
#
#
# Elastic Compliance Matrix: (Units=1/GPa)
#
#
# Indices 1 2 3 4 5 6 
#
# 1 0.008606 -0.001300 -0.000130 0.000000 -0.005171 0.000000
# 2 -0.001300 0.012436 -0.002246 0.000000 -0.003016 0.000000
# 3 -0.000130 -0.002246 0.014874 0.000000 -0.003518 0.000000
# 4 0.000000 0.000000 0.000000 0.023550 0.000000 -0.006833
# 5 -0.005171 -0.003016 -0.003518 0.000000 0.035006 0.000000
# 6 0.000000 0.000000 0.000000 -0.006833 0.000000 0.045352
#
#
# Mechanical properties :
#
#
# Convention : Reuss Voigt Hill
#
# Bulk Modulus (GPa) = 35.01055 43.14509 39.07782
# Shear Modulus (GPa) = 31.90869 36.72333 34.31601
#
# Velocity S-wave (km/s) = 3.57080 3.83074 3.70305
# Velocity P-wave (km/s) = 5.56695 6.06685 5.82227
#
# Compressibility (1/GPa) = 0.02856282
#
# Stress axis : x y z
#
# Youngs Moduli (GPa) = 116.19714 80.41335 67.23251
#
# Poissons Ratio (x) = 0.10455 0.00874
# Poissons Ratio (y) = 0.15107 0.15102
# Poissons Ratio (z) = 0.01510 0.18063
#
# Static dielectric constant tensor:
#      x y z
#    x 1.953880 0.000000 0.032540 
#    y 0.000000 1.991680 0.000000 
#    z 0.032540 0.000000 2.039610 
# 
# From -- ./inp_files/13996.got.cif
#   From: 2010.05.17/outbox.cif.g08.bks.cpg/sg4_7_cif.got.tgz:13996.got - 2010.06.03 18:43:04.
