data_PCOD9119992
_publ_section_title
;
Structure prediction by ZEFSAII (Michael W. Deem and Ramdas Pophale) SiO2 
 PCOD9119992
Probable space group: C 2
;
_chemical_formula_sum "Si O2"
_cell_formula_units_Z 24
_cell_length_a 27.142748
_cell_length_b 5.360605
_cell_length_c 6.719969
_cell_angle_alpha 90.000000
_cell_angle_beta 80.451736
_cell_angle_gamma 90.000000
_cell_volume 964.220157
_symmetry_space_group_name_H-M "C 2"
_symmetry_group_IT_number 5
_symmetry_cell_setting 'monoclinic'
loop_
_space_group_symop_operation_xyz
x,y,z
-x,y,-z
1/2+x,1/2+y,z
1/2-x,1/2+y,-z
loop_
_atom_site_type_symbol
_atom_site_label
_atom_site_fract_x
_atom_site_fract_y
_atom_site_fract_z
Si Si1 0.047532 0.927820 0.817323
Si Si2 0.685879 0.953982 0.540164
Si Si3 0.010451 0.427638 0.752747
Si Si4 0.133785 0.877463 0.078310
Si Si5 0.398605 0.876466 0.684461
Si Si6 0.283314 0.454268 0.251307
O O1 0.037735 0.686364 0.692491
O O2 0.042686 0.180814 0.700029
O O3 0.000000 0.935271 0.000000
O O4 0.097850 0.913494 0.910033
O O5 0.630292 0.928943 0.499596
O O6 0.699195 0.720188 0.671822
O O7 0.724166 0.940504 0.327136
O O8 0.695474 0.218582 0.637753
O O9 0.957607 0.403317 0.681235
O O10 0.000000 0.435762 0.000000
O O11 0.116926 0.097858 0.236865
O O12 0.123366 0.599493 0.160946
O O13 0.191289 0.920360 0.979316
#
# Coordination Sequence:
#
# PCOD9119992 Si02
#       6
#     4   4   4   4   4   4
#     4  10  16  30  49  80 112 148 173 221 279 342
#     4  10  23  43  60  78 116 160 185 223 296 354
#     4  10  16  30  49  80 112 148 173 221 279 342
#     4  12  21  33  61  93 109 143 197 244 271 323
#     4  12  21  33  61  93 109 143 197 244 271 323
#     4  10  23  43  60  78 116 160 185 223 296 354
#
# _framework density 24.890584
#
# number of rings (size 3 to 8) (size 9 to 14) (size 15 to 20)
#    0.000    1.333    6.667    2.000    0.000    1.333 
#    0.000    0.000    0.000    6.000    0.000    0.000 
#    0.000    0.000    0.000    0.000    0.000    0.000 
#
# Total GULP energy -67201.137000 kJ/mol
# GULP energy per Si atom -5600.094750 kJ/mol
# Density = 2.483393 g / cm^3
# Si number density = 24.890584 Si / 1000 Ang^3
#
#
#
# Elastic Constant Matrix: (Units=GPa)
#
#
# Indices 1 2 3 4 5 6 
#
# 1 113.0371 14.6680 20.2757 0.0000 -11.0971 0.0000
# 2 14.6680 113.4921 1.8434 0.0000 12.7315 0.0000
# 3 20.2757 1.8434 33.0415 0.0000 3.2342 0.0000
# 4 0.0000 0.0000 0.0000 34.9275 0.0000 -1.7117
# 5 -11.0971 12.7315 3.2342 0.0000 44.7920 0.0000
# 6 0.0000 0.0000 0.0000 -1.7117 0.0000 32.9532
#
#
#
# Elastic Compliance Matrix: (Units=1/GPa)
#
#
# Indices 1 2 3 4 5 6 
#
# 1 0.010633 -0.001668 -0.006784 0.000000 0.003598 0.000000
# 2 -0.001668 0.009365 0.000808 0.000000 -0.003133 0.000000
# 3 -0.006784 0.000808 0.034816 0.000000 -0.004424 0.000000
# 4 0.000000 0.000000 0.000000 0.028704 0.000000 0.001491
# 5 0.003598 -0.003133 -0.004424 0.000000 0.024427 0.000000
# 6 0.000000 0.000000 0.000000 0.001491 0.000000 0.030424
#
#
# Mechanical properties :
#
#
# Convention : Reuss Voigt Hill
#
# Bulk Modulus (GPa) = 25.29994 37.01610 31.15802
# Shear Modulus (GPa) = 29.97021 37.38677 33.67849
#
# Velocity S-wave (km/s) = 3.47375 3.87983 3.68239
# Velocity P-wave (km/s) = 5.12599 5.91393 5.53400
#
# Compressibility (1/GPa) = 0.03952579
#
# Stress axis : x y z
#
# Youngs Moduli (GPa) = 94.04515 106.77927 28.72243
#
# Poissons Ratio (x) = 0.17808 0.19486
# Poissons Ratio (y) = 0.15684 -0.02320
# Poissons Ratio (z) = 0.63801 -0.08623
#
# Static dielectric constant tensor:
#      x y z
#    x 1.901210 0.000000 -0.043770 
#    y 0.000000 1.998500 0.000000 
#    z -0.043770 0.000000 2.061320 
# 
# From -- ./inp_files/31284.got.cif
#   From: 2010.05.17/outbox.cif.g08.bks.cpg/sg5_16_cif.got.tgz:31284.got - 2010.06.03 18:56:24.
