data_PCOD9119860
_publ_section_title
;
Structure prediction by ZEFSAII (Michael W. Deem and Ramdas Pophale) SiO2 
 PCOD9119860
Probable space group: P 21
;
_chemical_formula_sum "Si O2"
_cell_formula_units_Z 14
_cell_length_a 12.000000
_cell_length_b 9.000000
_cell_length_c 9.000000
_cell_angle_alpha 90.000000
_cell_angle_beta 40.000000
_cell_angle_gamma 90.000000
_cell_volume 624.789557
_symmetry_space_group_name_H-M "P 21"
_symmetry_group_IT_number 4
_symmetry_cell_setting 'monoclinic'
loop_
_space_group_symop_operation_xyz
x,y,z
-x,1/2+y,-z
loop_
_atom_site_type_symbol
_atom_site_label
_atom_site_fract_x
_atom_site_fract_y
_atom_site_fract_z
Si Si1 0.134216 0.817230 0.724965
Si Si2 0.337504 0.222777 0.134054
Si Si3 0.834814 0.625102 0.166860
Si Si4 0.435240 0.712410 0.634355
Si Si5 0.079038 0.747169 0.429441
Si Si6 0.270102 0.960165 0.003302
Si Si7 0.373768 0.552929 0.982778
O O1 0.309777 0.748658 0.621675
O O2 0.111618 0.774250 0.573306
O O3 0.135828 0.997922 0.737774
O O4 0.977687 0.751789 0.988758
O O5 0.362505 0.100841 0.980237
O O6 0.463848 0.155853 0.130848
O O7 0.129410 0.229575 0.380474
O O8 0.396216 0.384165 0.015087
O O9 0.637236 0.686227 0.387585
O O10 0.849795 0.527249 0.001695
O O11 0.368826 0.575940 0.808589
O O12 0.399052 0.851732 0.782328
O O13 0.159203 0.879134 0.244925
O O14 0.197961 0.612263 0.243289
#
# Coordination Sequence:
#
# PCOD9119860 Si02
#       7
#     2   2   2   2   2   2   2
#     4  11  27  47  76 108 147 193 256 295 388 434
#     4  12  25  46  76 108 150 187 249 311 369 430
#     4  11  26  48  72 108 150 197 237 317 365 457
#     4  10  26  48  71 109 153 193 246 303 370 448
#     4  11  25  49  76 108 146 193 247 316 359 437
#     4  10  24  48  74 109 144 191 254 295 375 436
#     4  11  27  44  75 112 144 198 247 305 374 442
#
# _framework density 22.407544999999999
#
# number of rings (size 3 to 8) (size 9 to 14) (size 15 to 20)
#    0.000    1.143    1.429    2.571    8.000    6.857 
#    0.000    0.000    0.000    0.000    0.000    0.000 
#    0.000    0.000    0.000    0.000    0.000    0.000 
#
# Total GULP energy -78313.724493 kJ/mol
# GULP energy per Si atom -5593.837464 kJ/mol
# Density = 2.235654 g / cm^3
# Si number density = 22.407545 Si / 1000 Ang^3
#
#
#
# Elastic Constant Matrix: (Units=GPa)
#
#
# Indices 1 2 3 4 5 6 
#
# 1 97.4957 26.5019 49.8035 0.0000 -10.4113 0.0000
# 2 26.5019 117.8542 37.9061 0.0000 -17.5328 0.0000
# 3 49.8035 37.9061 155.3873 0.0000 -22.2932 0.0000
# 4 0.0000 0.0000 0.0000 28.4398 0.0000 -6.2776
# 5 -10.4113 -17.5328 -22.2932 0.0000 46.7071 0.0000
# 6 0.0000 0.0000 0.0000 -6.2776 0.0000 38.9028
#
#
#
# Elastic Compliance Matrix: (Units=1/GPa)
#
#
# Indices 1 2 3 4 5 6 
#
# 1 0.012567 -0.001605 -0.003565 0.000000 0.000497 0.000000
# 2 -0.001605 0.009707 -0.001484 0.000000 0.002578 0.000000
# 3 -0.003565 -0.001484 0.008316 0.000000 0.002617 0.000000
# 4 0.000000 0.000000 0.000000 0.036461 0.000000 0.005883
# 5 0.000497 0.002578 0.002617 0.000000 0.023738 0.000000
# 6 0.000000 0.000000 0.000000 0.005883 0.000000 0.026655
#
#
# Mechanical properties :
#
#
# Convention : Reuss Voigt Hill
#
# Bulk Modulus (GPa) = 57.86457 66.57335 62.21896
# Shear Modulus (GPa) = 36.62700 39.91166 38.26933
#
# Velocity S-wave (km/s) = 4.04738 4.22497 4.13713
# Velocity P-wave (km/s) = 6.90808 7.31951 7.11677
#
# Compressibility (1/GPa) = 0.01728173
#
# Stress axis : x y z
#
# Youngs Moduli (GPa) = 79.57039 103.02152 120.25586
#
# Poissons Ratio (x) = 0.16539 0.42872
# Poissons Ratio (y) = 0.12775 0.17840
# Poissons Ratio (z) = 0.28367 0.15284
#
# Static dielectric constant tensor:
#      x y z
#    x 1.926750 0.000000 0.030260 
#    y 0.000000 1.900870 0.000000 
#    z 0.030260 0.000000 1.798960 
# 
# From -- ./inp_files/7472.got.cif
#   From: 2010.05.17/outbox.ucp.g08.bks.cvg/sg4_4_cif.got.tgz:7472.got - 2010.06.11 12:51:24.
