data_PCOD9119775
_publ_section_title
;
Structure prediction by ZEFSAII (Michael W. Deem and Ramdas Pophale) SiO2 
 PCOD9119775
Probable space group: P 21
;
_chemical_formula_sum "Si O2"
_cell_formula_units_Z 14
_cell_length_a 10.516471
_cell_length_b 5.736797
_cell_length_c 17.019912
_cell_angle_alpha 90.000000
_cell_angle_beta 146.074131
_cell_angle_gamma 90.000000
_cell_volume 573.091877
_symmetry_space_group_name_H-M "P 21"
_symmetry_group_IT_number 4
_symmetry_cell_setting 'monoclinic'
loop_
_space_group_symop_operation_xyz
x,y,z
-x,1/2+y,-z
loop_
_atom_site_type_symbol
_atom_site_label
_atom_site_fract_x
_atom_site_fract_y
_atom_site_fract_z
Si Si1 0.756412 0.939440 0.161003
Si Si2 0.998504 0.032454 0.955273
Si Si3 0.600953 0.726019 0.935248
Si Si4 0.769068 0.644667 0.592573
Si Si5 0.409120 0.309355 0.336539
Si Si6 0.233849 0.089821 0.691575
Si Si7 0.708119 0.953128 0.414521
O O1 0.775251 0.720859 0.229276
O O2 0.528659 0.069649 0.067845
O O3 0.756029 0.892331 0.068468
O O4 0.967659 0.103014 0.288115
O O5 0.228039 0.064744 0.023883
O O6 0.767229 0.998475 0.786943
O O7 0.981398 0.281822 0.990836
O O8 0.407007 0.873562 0.790737
O O9 0.626592 0.425745 0.489038
O O10 0.721036 0.682639 0.659186
O O11 0.699268 0.850144 0.498219
O O12 0.512693 0.147971 0.321203
O O13 0.327984 0.261311 0.671718
O O14 0.969895 0.035437 0.535268
#
# Coordination Sequence:
#
# PCOD9119775 Si02
#       7
#     2   2   2   2   2   2   2
#     4  12  27  50  82 120 163 221 287 360 435 512
#     4  12  36  58  84 126 182 236 288 348 434 532
#     4  12  30  51  84 119 171 225 283 357 433 522
#     4  12  27  50  82 120 163 221 287 360 435 512
#     4  12  30  51  84 119 171 225 283 357 433 522
#     4  12  28  50  80 125 167 220 289 362 437 515
#     4  12  28  50  80 125 167 220 289 362 437 515
#
# _framework density 24.428891
#
# number of rings (size 3 to 8) (size 9 to 14) (size 15 to 20)
#    0.000    0.000    5.714    0.857   16.000    0.000 
#    0.000    0.000    0.000    0.000    0.000    0.000 
#    0.000    0.000    0.000    0.000    0.000    0.000 
#
# Total GULP energy -78425.115272 kJ/mol
# GULP energy per Si atom -5601.793948 kJ/mol
# Density = 2.437329 g / cm^3
# Si number density = 24.428891 Si / 1000 Ang^3
#
#
#
# Elastic Constant Matrix: (Units=GPa)
#
#
# Indices 1 2 3 4 5 6 
#
# 1 97.7772 39.1598 33.1819 0.0000 -10.9789 0.0000
# 2 39.1598 76.9036 11.8892 0.0000 -7.7382 0.0000
# 3 33.1819 11.8892 78.7999 0.0000 -2.7919 0.0000
# 4 0.0000 0.0000 0.0000 49.8180 0.0000 5.9176
# 5 -10.9789 -7.7382 -2.7919 0.0000 27.4595 0.0000
# 6 0.0000 0.0000 0.0000 5.9176 0.0000 54.7219
#
#
#
# Elastic Compliance Matrix: (Units=1/GPa)
#
#
# Indices 1 2 3 4 5 6 
#
# 1 0.014992 -0.006462 -0.005209 0.000000 0.003644 0.000000
# 2 -0.006462 0.016455 0.000312 0.000000 0.002085 0.000000
# 3 -0.005209 0.000312 0.014819 0.000000 -0.000488 0.000000
# 4 0.000000 0.000000 0.000000 0.020334 0.000000 -0.002199
# 5 0.003644 0.002085 -0.000488 0.000000 0.038412 0.000000
# 6 0.000000 0.000000 0.000000 -0.002199 0.000000 0.018512
#
#
# Mechanical properties :
#
#
# Convention : Reuss Voigt Hill
#
# Bulk Modulus (GPa) = 42.46417 46.88249 44.67333
# Shear Modulus (GPa) = 32.44790 37.68322 35.06556
#
# Velocity S-wave (km/s) = 3.64848 3.93181 3.79280
# Velocity P-wave (km/s) = 5.93035 6.31231 6.12431
#
# Compressibility (1/GPa) = 0.02354927
#
# Stress axis : x y z
#
# Youngs Moduli (GPa) = 66.70079 60.77016 67.47901
#
# Poissons Ratio (x) = 0.39271 0.35150
# Poissons Ratio (y) = 0.43104 -0.02107
# Poissons Ratio (z) = 0.34745 -0.01898
#
# Static dielectric constant tensor:
#      x y z
#    x 1.897680 0.000000 -0.043000 
#    y 0.000000 2.020370 0.000000 
#    z -0.043000 0.000000 1.951850 
# 
# From -- ./inp_files/13628.got.cif
#   From: 2010.05.17/outbox.cif.g08.bks.cpg/sg4_7_cif.got.tgz:13628.got - 2010.06.03 18:43:04.
