data_PCOD9119879
_publ_section_title
;
Structure prediction by ZEFSAII (Michael W. Deem and Ramdas Pophale) SiO2 
 PCOD9119879
Probable space group: P 21
;
_chemical_formula_sum "Si O2"
_cell_formula_units_Z 16
_cell_length_a 12.000000
_cell_length_b 6.000000
_cell_length_c 30.000000
_cell_angle_alpha 90.000000
_cell_angle_beta 160.000000
_cell_angle_gamma 90.000000
_cell_volume 738.763510
_symmetry_space_group_name_H-M "P 21"
_symmetry_group_IT_number 4
_symmetry_cell_setting 'monoclinic'
loop_
_space_group_symop_operation_xyz
x,y,z
-x,1/2+y,-z
loop_
_atom_site_type_symbol
_atom_site_label
_atom_site_fract_x
_atom_site_fract_y
_atom_site_fract_z
Si Si1 0.582317 0.896160 0.007377
Si Si2 0.839360 0.981246 0.486480
Si Si3 0.306020 0.717613 0.812658
Si Si4 0.758405 0.175757 0.733071
Si Si5 0.464267 0.320206 0.281748
Si Si6 0.201811 0.513928 0.428637
Si Si7 0.828347 0.726071 0.928353
Si Si8 0.906672 0.323592 0.693743
O O1 0.429628 0.875251 0.900043
O O2 0.479352 0.650924 0.994364
O O3 0.972918 0.858092 0.150540
O O4 0.613266 0.123904 0.368411
O O5 0.897533 0.070888 0.558362
O O6 0.200829 0.950877 0.603812
O O7 0.615340 0.760724 0.408576
O O8 0.567980 0.702548 0.871127
O O9 0.214569 0.487243 0.803932
O O10 0.989281 0.807509 0.666275
O O11 0.759515 0.971695 0.768935
O O12 0.864765 0.156635 0.720573
O O13 0.305652 0.250166 0.173900
O O14 0.585590 0.474835 0.576804
O O15 0.121632 0.704318 0.363837
O O16 0.011774 0.478287 0.001424
#
# Coordination Sequence:
#
# PCOD9119879 Si02
#       8
#     2   2   2   2   2   2   2   2
#     4  12  28  48  74 108 152 205 263 321 395 478
#     4  11  26  44  73 115 148 202 259 330 407 484
#     4  12  26  47  76 109 156 207 262 334 397 487
#     4  11  26  47  72 110 154 199 261 333 400 479
#     4  12  26  48  80 112 162 210 268 338 407 490
#     4  11  24  42  70 107 153 194 254 323 408 481
#     4  12  32  55  81 120 161 223 282 333 403 486
#     4  11  24  43  72 111 148 200 251 328 409 481
#
# _framework density 21.657810000000001
#
# number of rings (size 3 to 8) (size 9 to 14) (size 15 to 20)
#    0.000    0.500    5.000    1.500    8.750    1.000 
#    0.000    0.000    0.000    0.000    0.000    0.000 
#    0.000    0.000    0.000    0.000    0.000    0.000 
#
# Total GULP energy -89140.713089 kJ/mol
# GULP energy per Si atom -5571.294568 kJ/mol
# Density = 2.160852 g / cm^3
# Si number density = 21.657810 Si / 1000 Ang^3
#
#
#
# Elastic Constant Matrix: (Units=GPa)
#
#
# Indices 1 2 3 4 5 6 
#
# 1 176.7346 47.3523 42.0299 0.0002 -23.8744 -0.0001
# 2 47.3523 76.7043 9.9883 0.0001 5.2790 0.0000
# 3 42.0299 9.9883 79.1676 0.0004 -11.5630 -0.0013
# 4 0.0002 0.0001 0.0004 49.1759 0.0001 -3.0773
# 5 -23.8744 5.2790 -11.5630 0.0001 58.9752 0.0001
# 6 -0.0001 0.0000 -0.0013 -3.0773 0.0001 42.1516
#
#
#
# Elastic Compliance Matrix: (Units=1/GPa)
#
#
# Indices 1 2 3 4 5 6 
#
# 1 0.008141 -0.004813 -0.003264 0.000000 0.003086 0.000000
# 2 -0.004813 0.016241 0.000010 0.000000 -0.003400 0.000000
# 3 -0.003264 0.000010 0.014588 0.000000 0.001538 0.000000
# 4 0.000000 0.000000 0.000000 0.020428 0.000000 0.001491
# 5 0.003086 -0.003400 0.001538 0.000000 0.018812 0.000000
# 6 0.000000 0.000000 0.000000 0.001491 0.000000 0.023833
#
#
# Mechanical properties :
#
#
# Convention : Reuss Voigt Hill
#
# Bulk Modulus (GPa) = 43.79293 59.03862 51.41577
# Shear Modulus (GPa) = 39.74903 45.60961 42.67932
#
# Velocity S-wave (km/s) = 4.28871 4.59401 4.44398
# Velocity P-wave (km/s) = 6.69241 7.44707 7.07980
#
# Compressibility (1/GPa) = 0.02283474
#
# Stress axis : x y z
#
# Youngs Moduli (GPa) = 122.83634 61.57201 68.55105
#
# Poissons Ratio (x) = 0.29635 0.22375
# Poissons Ratio (y) = 0.59122 -0.00065
# Poissons Ratio (z) = 0.40093 -0.00059
#
# Static dielectric constant tensor:
#      x y z
#    x 1.813300 0.000000 0.025640 
#    y 0.000000 1.876670 0.000000 
#    z 0.025640 0.000000 1.827190 
# 
# From -- ./inp_files/13145.got.cif
#   From: 2010.05.17/outbox.ucp.g08.bks.cvg/sg4_7_cif.got.tgz:13145.got - 2010.06.11 12:51:24.
