data_PCOD9119115
_publ_section_title
;
Structure prediction by ZEFSAII (Michael W. Deem and Ramdas Pophale) SiO2 
 PCOD9119115
Probable space group: P 21
;
_chemical_formula_sum "Si O2"
_cell_formula_units_Z 14
_cell_length_a 5.524194
_cell_length_b 10.308155
_cell_length_c 11.076605
_cell_angle_alpha 90.000000
_cell_angle_beta 118.834154
_cell_angle_gamma 90.000000
_cell_volume 552.548279
_symmetry_space_group_name_H-M "P 21"
_symmetry_group_IT_number 4
_symmetry_cell_setting 'monoclinic'
loop_
_space_group_symop_operation_xyz
x,y,z
-x,1/2+y,-z
loop_
_atom_site_type_symbol
_atom_site_label
_atom_site_fract_x
_atom_site_fract_y
_atom_site_fract_z
Si Si1 0.803365 0.730190 0.677596
Si Si2 0.964365 0.605257 0.282347
Si Si3 0.968110 0.064051 0.441900
Si Si4 0.288992 0.839548 0.422729
Si Si5 0.589950 0.486944 0.778277
Si Si6 0.303428 0.569633 0.118344
Si Si7 0.068125 0.842926 0.960505
O O1 0.944793 0.704637 0.582812
O O2 0.499207 0.771314 0.563838
O O3 0.756934 0.605112 0.754658
O O4 0.992515 0.824318 0.802430
O O5 0.088451 0.539577 0.432715
O O6 0.636701 0.579107 0.192386
O O7 0.016436 0.755789 0.330171
O O8 0.164118 0.579638 0.217820
O O9 0.222390 0.974409 0.469046
O O10 0.721180 0.031801 0.293382
O O11 0.400912 0.870541 0.316222
O O12 0.698808 0.440053 0.932970
O O13 0.197978 0.424997 0.050468
O O14 0.167446 0.699205 0.025524
#
# Coordination Sequence:
#
# PCOD9119115 Si02
#       7
#     2   2   2   2   2   2   2
#     4  11  25  47  73 112 155 205 267 327 404 475
#     4  12  26  49  79 117 154 205 269 329 402 471
#     4  11  26  43  76 113 152 202 265 342 393 474
#     4  11  24  44  79 108 154 197 266 327 402 467
#     4  11  24  47  73 109 155 204 262 326 398 476
#     4  12  29  49  80 116 163 213 266 329 403 484
#     4  12  26  51  76 113 165 212 265 326 404 485
#
# _framework density 25.337156
#
# number of rings (size 3 to 8) (size 9 to 14) (size 15 to 20)
#    0.000    0.571    4.286    2.571    6.000    2.286 
#    2.571    0.000    0.000    0.000    0.000    0.000 
#    0.000    0.000    0.000    0.000    0.000    0.000 
#
# Total GULP energy -78153.440726 kJ/mol
# GULP energy per Si atom -5582.388623 kJ/mol
# Density = 2.527949 g / cm^3
# Si number density = 25.337156 Si / 1000 Ang^3
#
#
#
# Elastic Constant Matrix: (Units=GPa)
#
#
# Indices 1 2 3 4 5 6 
#
# 1 105.9627 7.0507 48.3234 0.0000 11.3643 0.0000
# 2 7.0507 59.0542 27.2842 0.0000 5.9842 0.0000
# 3 48.3234 27.2842 138.0245 0.0000 20.8432 0.0000
# 4 0.0000 0.0000 0.0000 47.7844 0.0000 12.1213
# 5 11.3643 5.9842 20.8432 0.0000 34.3720 0.0000
# 6 0.0000 0.0000 0.0000 12.1213 0.0000 25.8762
#
#
#
# Elastic Compliance Matrix: (Units=1/GPa)
#
#
# Indices 1 2 3 4 5 6 
#
# 1 0.011316 0.000580 -0.003849 0.000000 -0.001508 0.000000
# 2 0.000580 0.018704 -0.003720 0.000000 -0.001192 0.000000
# 3 -0.003849 -0.003720 0.009949 0.000000 -0.004113 0.000000
# 4 0.000000 0.000000 0.000000 0.023749 0.000000 -0.011125
# 5 -0.001508 -0.001192 -0.004113 0.000000 0.032294 0.000000
# 6 0.000000 0.000000 0.000000 -0.011125 0.000000 0.043857
#
#
# Mechanical properties :
#
#
# Convention : Reuss Voigt Hill
#
# Bulk Modulus (GPa) = 38.47525 52.03978 45.25751
# Shear Modulus (GPa) = 30.76732 36.29874 33.53303
#
# Velocity S-wave (km/s) = 3.48848 3.78911 3.64190
# Velocity P-wave (km/s) = 5.60752 6.30291 5.96536
#
# Compressibility (1/GPa) = 0.02599074
#
# Stress axis : x y z
#
# Youngs Moduli (GPa) = 88.37387 53.46440 100.51251
#
# Poissons Ratio (x) = -0.03101 0.38682
# Poissons Ratio (y) = -0.05125 0.37394
# Poissons Ratio (z) = 0.34011 0.19891
#
# Static dielectric constant tensor:
#      x y z
#    x 2.001690 0.000000 -0.043810 
#    y 0.000000 2.173890 0.000000 
#    z -0.043810 0.000000 1.976430 
# 
# From -- ./inp_files/2796.got.cif
#   From: 2010.05.17/outbox.cif.g08.bks.cpg/sg4_2_cif.got.tgz:2796.got - 2010.06.03 18:43:04.
