data_PCOD9119715
_publ_section_title
;
Structure prediction by ZEFSAII (Michael W. Deem and Ramdas Pophale) SiO2 
 PCOD9119715
Probable space group: P 21
;
_chemical_formula_sum "Si O2"
_cell_formula_units_Z 14
_cell_length_a 13.787799
_cell_length_b 4.790077
_cell_length_c 19.835975
_cell_angle_alpha 90.000000
_cell_angle_beta 22.196644
_cell_angle_gamma 90.000000
_cell_volume 494.922831
_symmetry_space_group_name_H-M "P 21"
_symmetry_group_IT_number 4
_symmetry_cell_setting 'monoclinic'
loop_
_space_group_symop_operation_xyz
x,y,z
-x,1/2+y,-z
loop_
_atom_site_type_symbol
_atom_site_label
_atom_site_fract_x
_atom_site_fract_y
_atom_site_fract_z
Si Si1 0.879844 0.518670 0.894357
Si Si2 0.320877 0.695236 0.102706
Si Si3 0.062834 0.050414 0.373588
Si Si4 0.364329 0.898634 0.553041
Si Si5 0.602221 0.421852 0.623612
Si Si6 0.383920 0.347461 0.260269
Si Si7 0.116685 0.019044 0.958044
O O1 0.832829 0.299093 0.864812
O O2 0.085013 0.753185 0.743353
O O3 0.090109 0.757437 0.926372
O O4 0.948237 0.409227 0.925248
O O5 0.125238 0.789176 0.287083
O O6 0.423167 0.382309 0.044674
O O7 0.330540 0.155547 0.230639
O O8 0.887644 0.980013 0.549945
O O9 0.872825 0.261442 0.458232
O O10 0.565208 0.653386 0.443271
O O11 0.399889 0.003015 0.453581
O O12 0.562453 0.657125 0.707652
O O13 0.380902 0.188421 0.777815
O O14 0.583541 0.580986 0.106158
#
# Coordination Sequence:
#
# PCOD9119715 Si02
#       7
#     2   2   2   2   2   2   2
#     4  12  27  51  80 117 158 215 268 338 406 486
#     4  12  30  48  78 116 160 205 265 326 402 491
#     4  12  26  47  76 116 163 209 262 324 405 498
#     4  12  30  54  82 117 161 215 279 345 411 479
#     4  12  27  48  78 112 157 215 260 336 411 476
#     4  12  27  48  80 121 162 217 266 328 404 501
#     4  12  27  48  74 109 151 204 274 335 391 469
#
# _framework density 28.287237000000001
#
# number of rings (size 3 to 8) (size 9 to 14) (size 15 to 20)
#    0.000    0.000    5.714    2.571    8.000    3.429 
#    0.000    0.000    0.000    0.000    0.000    0.000 
#    0.000    0.000    0.000    0.000    0.000    0.000 
#
# Total GULP energy -78441.610409 kJ/mol
# GULP energy per Si atom -5602.972172 kJ/mol
# Density = 2.822285 g / cm^3
# Si number density = 28.287237 Si / 1000 Ang^3
#
#
#
# Elastic Constant Matrix: (Units=GPa)
#
#
# Indices 1 2 3 4 5 6 
#
# 1 164.0079 38.3738 44.1495 0.0000 4.6964 0.0000
# 2 38.3738 99.0342 49.2351 0.0000 -19.0670 0.0000
# 3 44.1495 49.2351 176.1145 0.0000 -0.1320 0.0000
# 4 0.0000 0.0000 0.0000 59.5767 0.0000 -4.6877
# 5 4.6964 -19.0670 -0.1320 0.0000 47.1353 0.0000
# 6 0.0000 0.0000 0.0000 -4.6877 0.0000 51.6188
#
#
#
# Elastic Compliance Matrix: (Units=1/GPa)
#
#
# Indices 1 2 3 4 5 6 
#
# 1 0.007022 -0.002529 -0.001055 0.000000 -0.001726 0.000000
# 2 -0.002529 0.013800 -0.003220 0.000000 0.005825 0.000000
# 3 -0.001055 -0.003220 0.006842 0.000000 -0.001178 0.000000
# 4 0.000000 0.000000 0.000000 0.016906 0.000000 0.001535
# 5 -0.001726 0.005825 -0.001178 0.000000 0.023741 0.000000
# 6 0.000000 0.000000 0.000000 0.001535 0.000000 0.019512
#
#
# Mechanical properties :
#
#
# Convention : Reuss Voigt Hill
#
# Bulk Modulus (GPa) = 71.13742 78.07484 74.60613
# Shear Modulus (GPa) = 47.11909 52.15935 49.63922
#
# Velocity S-wave (km/s) = 4.08577 4.29875 4.19361
# Velocity P-wave (km/s) = 6.88919 7.23185 7.06259
#
# Compressibility (1/GPa) = 0.01405730
#
# Stress axis : x y z
#
# Youngs Moduli (GPa) = 142.40359 72.46638 146.16255
#
# Poissons Ratio (x) = 0.18326 0.15416
# Poissons Ratio (y) = 0.36012 0.47057
# Poissons Ratio (z) = 0.15019 0.23331
#
# Static dielectric constant tensor:
#      x y z
#    x 2.310020 0.000000 -0.082980 
#    y 0.000000 2.173840 0.000000 
#    z -0.082980 0.000000 2.239270 
# 
# From -- ./inp_files/11469.got.cif
#   From: 2010.05.17/outbox.cif.g08.bks.cpg/sg4_6_cif.got.tgz:11469.got - 2010.06.03 18:43:04.
