data_PCOD9119356
_publ_section_title
;
Structure prediction by ZEFSAII (Michael W. Deem and Ramdas Pophale) SiO2 
 PCOD9119356
Probable space group: P 21
;
_chemical_formula_sum "Si O2"
_cell_formula_units_Z 14
_cell_length_a 7.192833
_cell_length_b 7.049490
_cell_length_c 13.203449
_cell_angle_alpha 90.000000
_cell_angle_beta 125.147062
_cell_angle_gamma 90.000000
_cell_volume 547.427896
_symmetry_space_group_name_H-M "P 21"
_symmetry_group_IT_number 4
_symmetry_cell_setting 'monoclinic'
loop_
_space_group_symop_operation_xyz
x,y,z
-x,1/2+y,-z
loop_
_atom_site_type_symbol
_atom_site_label
_atom_site_fract_x
_atom_site_fract_y
_atom_site_fract_z
Si Si1 0.036970 0.312920 0.705133
Si Si2 0.668848 0.145688 0.240010
Si Si3 0.708339 0.658733 0.594151
Si Si4 0.266931 0.999465 0.859963
Si Si5 0.801086 0.594374 0.854544
Si Si6 0.780879 0.043745 0.505777
Si Si7 0.289607 0.737646 0.062786
O O1 0.243544 0.458251 0.788601
O O2 0.838766 0.461401 0.618262
O O3 0.006145 0.163041 0.604003
O O4 0.069397 0.158040 0.803485
O O5 0.788804 0.328971 0.234345
O O6 0.402622 0.189369 0.146619
O O7 0.725361 0.087342 0.372289
O O8 0.772457 0.684134 0.733615
O O9 0.438468 0.625691 0.502564
O O10 0.777056 0.825712 0.539613
O O11 0.294452 0.891009 0.973286
O O12 0.491460 0.105251 0.886568
O O13 0.053751 0.624223 0.973877
O O14 0.729044 0.371128 0.842609
#
# Coordination Sequence:
#
# PCOD9119356 Si02
#       7
#     2   2   2   2   2   2   2
#     4  12  25  45  76 107 153 194 253 330 375 472
#     4  11  26  48  72 113 150 198 261 314 388 466
#     4  11  25  48  71 110 149 203 257 313 389 464
#     4  12  28  49  76 116 153 204 262 324 386 468
#     4  11  25  47  73 111 150 196 257 313 378 465
#     4  11  25  47  74 105 154 198 255 318 387 462
#     4  12  26  48  82 108 159 205 257 324 395 451
#
# _framework density 25.574144
#
# number of rings (size 3 to 8) (size 9 to 14) (size 15 to 20)
#    0.000    0.571    2.857    4.286    8.000    0.000 
#    5.143    0.000    0.000    0.000    0.000    0.000 
#    0.000    0.000    0.000    0.000    0.000    0.000 
#
# Total GULP energy -78163.149087 kJ/mol
# GULP energy per Si atom -5583.082078 kJ/mol
# Density = 2.551594 g / cm^3
# Si number density = 25.574144 Si / 1000 Ang^3
#
#
#
# Elastic Constant Matrix: (Units=GPa)
#
#
# Indices 1 2 3 4 5 6 
#
# 1 85.7696 58.8761 18.5586 0.0000 10.3982 0.0000
# 2 58.8761 197.0058 57.7553 0.0000 -13.7450 0.0000
# 3 18.5586 57.7553 76.9080 0.0000 6.1293 0.0000
# 4 0.0000 0.0000 0.0000 57.5049 0.0000 7.5487
# 5 10.3982 -13.7450 6.1293 0.0000 31.4933 0.0000
# 6 0.0000 0.0000 0.0000 7.5487 0.0000 26.6268
#
#
#
# Elastic Compliance Matrix: (Units=1/GPa)
#
#
# Indices 1 2 3 4 5 6 
#
# 1 0.016377 -0.005760 0.001021 0.000000 -0.008120 0.000000
# 2 -0.005760 0.009030 -0.005949 0.000000 0.007001 0.000000
# 3 0.001021 -0.005949 0.017733 0.000000 -0.006385 0.000000
# 4 0.000000 0.000000 0.000000 0.018062 0.000000 -0.005121
# 5 -0.008120 0.007001 -0.006385 0.000000 0.038732 0.000000
# 6 0.000000 0.000000 0.000000 -0.005121 0.000000 0.039008
#
#
# Mechanical properties :
#
#
# Convention : Reuss Voigt Hill
#
# Bulk Modulus (GPa) = 45.95047 70.00705 57.97876
# Shear Modulus (GPa) = 29.83802 38.09124 33.96463
#
# Velocity S-wave (km/s) = 3.41944 3.86352 3.64824
# Velocity P-wave (km/s) = 5.79626 6.88011 6.36131
#
# Compressibility (1/GPa) = 0.02176256
#
# Stress axis : x y z
#
# Youngs Moduli (GPa) = 61.06289 110.74296 56.39315
#
# Poissons Ratio (x) = 0.63788 -0.05757
# Poissons Ratio (y) = 0.35172 0.33549
# Poissons Ratio (z) = -0.06234 0.65883
#
# Static dielectric constant tensor:
#      x y z
#    x 2.133840 0.000000 0.013740 
#    y 0.000000 1.985980 0.000000 
#    z 0.013740 0.000000 2.079980 
# 
# From -- ./inp_files/8563.got.cif
#   From: 2010.05.17/outbox.cif.g08.bks.cpg/sg4_5_cif.got.tgz:8563.got - 2010.06.03 18:43:04.
