data_PCOD9119206
_publ_section_title
;
Structure prediction by ZEFSAII (Michael W. Deem and Ramdas Pophale) SiO2 
 PCOD9119206
Probable space group: P 21
;
_chemical_formula_sum "Si O2"
_cell_formula_units_Z 14
_cell_length_a 9.325396
_cell_length_b 9.124706
_cell_length_c 14.851193
_cell_angle_alpha 90.000000
_cell_angle_beta 152.379485
_cell_angle_gamma 90.000000
_cell_volume 585.872894
_symmetry_space_group_name_H-M "P 21"
_symmetry_group_IT_number 4
_symmetry_cell_setting 'monoclinic'
loop_
_space_group_symop_operation_xyz
x,y,z
-x,1/2+y,-z
loop_
_atom_site_type_symbol
_atom_site_label
_atom_site_fract_x
_atom_site_fract_y
_atom_site_fract_z
Si Si1 0.317809 0.125000 0.217457
Si Si2 0.754124 0.331635 0.090867
Si Si3 0.195792 0.180657 0.869700
Si Si4 0.220186 0.691029 0.207513
Si Si5 0.376790 0.366088 0.701916
Si Si6 0.828126 0.336843 0.521253
Si Si7 0.743639 0.587347 0.612981
O O1 0.473542 0.286329 0.311954
O O2 0.290852 0.052206 0.300759
O O3 0.540931 0.032504 0.276634
O O4 0.984678 0.121656 0.985091
O O5 0.770762 0.506342 0.105162
O O6 0.069137 0.240570 0.277770
O O7 0.517788 0.260739 0.030069
O O8 0.592468 0.309282 0.903675
O O9 0.042341 0.254403 0.872350
O O10 0.980018 0.206848 0.663214
O O11 0.497200 0.777535 0.313570
O O12 0.402314 0.595245 0.381495
O O13 0.025356 0.354297 0.540136
O O14 0.890722 0.473634 0.623601
#
# Coordination Sequence:
#
# PCOD9119206 Si02
#       7
#     2   2   2   2   2   2   2
#     4  12  27  49  77 111 159 198 253 326 371 459
#     4  11  24  48  76 111 157 196 254 316 383 458
#     4  11  24  47  75 113 148 201 251 310 385 456
#     4  12  27  46  78 110 149 203 256 308 386 449
#     4  11  26  48  74 114 150 199 260 309 384 459
#     4  11  28  50  76 115 153 202 257 310 392 454
#     4  12  28  50  78 110 152 205 253 319 383 459
#
# _framework density 23.895968
#
# number of rings (size 3 to 8) (size 9 to 14) (size 15 to 20)
#    0.000    0.571    4.286    2.571    8.000    0.000 
#    0.000    0.000    0.000    0.000    0.000    0.000 
#    0.000    0.000    0.000    0.000    0.000    0.000 
#
# Total GULP energy -78182.641284 kJ/mol
# GULP energy per Si atom -5584.474377 kJ/mol
# Density = 2.384158 g / cm^3
# Si number density = 23.895968 Si / 1000 Ang^3
#
#
#
# Elastic Constant Matrix: (Units=GPa)
#
#
# Indices 1 2 3 4 5 6 
#
# 1 175.4783 56.3734 31.1027 0.0000 14.3675 0.0000
# 2 56.3734 87.4165 20.1956 0.0000 11.0998 0.0000
# 3 31.1027 20.1956 114.7488 0.0000 -14.0924 0.0000
# 4 0.0000 0.0000 0.0000 23.7221 0.0000 5.4775
# 5 14.3675 11.0998 -14.0924 0.0000 31.6253 0.0000
# 6 0.0000 0.0000 0.0000 5.4775 0.0000 38.6061
#
#
#
# Elastic Compliance Matrix: (Units=1/GPa)
#
#
# Indices 1 2 3 4 5 6 
#
# 1 0.007542 -0.004139 -0.001648 0.000000 -0.002708 0.000000
# 2 -0.004139 0.015143 -0.002079 0.000000 -0.004361 0.000000
# 3 -0.001648 -0.002079 0.010271 0.000000 0.006055 0.000000
# 4 0.000000 0.000000 0.000000 0.043583 0.000000 -0.006184
# 5 -0.002708 -0.004361 0.006055 0.000000 0.037079 0.000000
# 6 0.000000 0.000000 0.000000 -0.006184 0.000000 0.026780
#
#
# Mechanical properties :
#
#
# Convention : Reuss Voigt Hill
#
# Bulk Modulus (GPa) = 58.06072 65.88744 61.97408
# Shear Modulus (GPa) = 30.88859 36.78881 33.83870
#
# Velocity S-wave (km/s) = 3.59921 3.92795 3.76717
# Velocity P-wave (km/s) = 6.45155 6.94293 6.70174
#
# Compressibility (1/GPa) = 0.01722335
#
# Stress axis : x y z
#
# Youngs Moduli (GPa) = 132.58388 66.03828 97.36133
#
# Poissons Ratio (x) = 0.27335 0.16050
# Poissons Ratio (y) = 0.54879 0.20238
# Poissons Ratio (z) = 0.21856 0.13727
#
# Static dielectric constant tensor:
#      x y z
#    x 1.937770 0.000000 0.039990 
#    y 0.000000 1.959630 0.000000 
#    z 0.039990 0.000000 1.949060 
# 
# From -- ./inp_files/13709.got.cif
#   From: 2010.05.17/outbox.cif.g08.bks.cpg/sg4_7_cif.got.tgz:13709.got - 2010.06.03 18:43:04.
