data_PCOD9119228
_publ_section_title
;
Structure prediction by ZEFSAII (Michael W. Deem and Ramdas Pophale) SiO2 
 PCOD9119228
Probable space group: P 21
;
_chemical_formula_sum "Si O2"
_cell_formula_units_Z 16
_cell_length_a 8.829504
_cell_length_b 10.946941
_cell_length_c 6.976820
_cell_angle_alpha 90.000000
_cell_angle_beta 98.352101
_cell_angle_gamma 90.000000
_cell_volume 667.199827
_symmetry_space_group_name_H-M "P 21"
_symmetry_group_IT_number 4
_symmetry_cell_setting 'monoclinic'
loop_
_space_group_symop_operation_xyz
x,y,z
-x,1/2+y,-z
loop_
_atom_site_type_symbol
_atom_site_label
_atom_site_fract_x
_atom_site_fract_y
_atom_site_fract_z
Si Si1 0.636789 0.589700 0.066404
Si Si2 0.156754 0.316022 0.785324
Si Si3 0.974346 0.159711 0.442527
Si Si4 0.630596 0.418876 0.716343
Si Si5 0.042927 0.776687 0.913485
Si Si6 0.310416 0.526254 0.555102
Si Si7 0.328328 0.649554 0.160181
Si Si8 0.176397 0.948052 0.609367
O O1 0.724878 0.718724 0.097035
O O2 0.452762 0.599438 0.032668
O O3 0.688818 0.527792 0.273541
O O4 0.687241 0.496703 0.909010
O O5 0.042516 0.250365 0.613456
O O6 0.240561 0.416791 0.672605
O O7 0.054470 0.351937 0.950583
O O8 0.047908 0.187367 0.248770
O O9 0.032996 0.031188 0.531217
O O10 0.790954 0.142233 0.393493
O O11 0.489307 0.500774 0.617987
O O12 0.592332 0.277637 0.757242
O O13 0.756120 0.402582 0.576077
O O14 0.121578 0.858727 0.765333
O O15 0.167906 0.695035 0.045697
O O16 0.299490 0.550878 0.322925
#
# Coordination Sequence:
#
# PCOD9119228 Si02
#       8
#     2   2   2   2   2   2   2   2
#     4  11  24  48  73 111 151 203 261 319 393 468
#     4  11  26  48  74 113 158 201 265 322 395 467
#     4  11  25  46  72 113 150 202 256 319 392 461
#     4  12  25  48  77 109 156 203 260 326 388 469
#     4  12  25  48  77 107 154 204 256 318 385 477
#     4  12  25  47  77 113 159 205 262 334 387 469
#     4  12  25  48  75 115 154 206 269 314 399 469
#     4  11  25  45  75 107 148 200 249 318 389 454
#
# _framework density 23.980823000000001
#
# number of rings (size 3 to 8) (size 9 to 14) (size 15 to 20)
#    0.000    0.500    5.000    3.000    1.750    2.000 
#    6.750    3.750    0.000    0.000    0.000    0.000 
#    0.000    0.000    0.000    0.000    0.000    0.000 
#
# Total GULP energy -89310.848994 kJ/mol
# GULP energy per Si atom -5581.928062 kJ/mol
# Density = 2.392624 g / cm^3
# Si number density = 23.980823 Si / 1000 Ang^3
#
#
#
# Elastic Constant Matrix: (Units=GPa)
#
#
# Indices 1 2 3 4 5 6 
#
# 1 89.9879 31.5337 54.7577 0.0000 -25.3023 0.0000
# 2 31.5337 91.1596 48.8060 0.0000 -22.2013 0.0000
# 3 54.7577 48.8060 137.6580 0.0000 -23.8195 0.0000
# 4 0.0000 0.0000 0.0000 51.9050 0.0000 -5.2594
# 5 -25.3023 -22.2013 -23.8195 0.0000 46.7521 0.0000
# 6 0.0000 0.0000 0.0000 -5.2594 0.0000 36.5299
#
#
#
# Elastic Compliance Matrix: (Units=1/GPa)
#
#
# Indices 1 2 3 4 5 6 
#
# 1 0.016228 -0.001639 -0.004923 0.000000 0.005496 0.000000
# 2 -0.001639 0.014571 -0.003806 0.000000 0.004093 0.000000
# 3 -0.004923 -0.003806 0.010746 0.000000 0.001003 0.000000
# 4 0.000000 0.000000 0.000000 0.019551 0.000000 0.002815
# 5 0.005496 0.004093 0.001003 0.000000 0.026819 0.000000
# 6 0.000000 0.000000 0.000000 0.002815 0.000000 0.027780
#
#
# Mechanical properties :
#
#
# Convention : Reuss Voigt Hill
#
# Bulk Modulus (GPa) = 48.05697 65.44449 56.75073
# Shear Modulus (GPa) = 34.87542 39.28461 37.08001
#
# Velocity S-wave (km/s) = 3.81767 4.05182 3.93649
# Velocity P-wave (km/s) = 6.28618 7.01707 6.66166
#
# Compressibility (1/GPa) = 0.02080864
#
# Stress axis : x y z
#
# Youngs Moduli (GPa) = 61.62175 68.62786 93.06165
#
# Poissons Ratio (x) = 0.11250 0.45814
# Poissons Ratio (y) = 0.10102 0.35418
# Poissons Ratio (z) = 0.30336 0.26119
#
# Static dielectric constant tensor:
#      x y z
#    x 1.955200 0.000000 0.020700 
#    y 0.000000 2.028830 0.000000 
#    z 0.020700 0.000000 1.923420 
# 
# From -- ./inp_files/1450.got.cif
#   From: 2010.05.17/outbox.cif.g08.bks.cpg/sg4_1_cif.got.tgz:1450.got - 2010.06.03 18:43:04.
