data_PCOD9119623
_publ_section_title
;
Structure prediction by ZEFSAII (Michael W. Deem and Ramdas Pophale) SiO2 
 PCOD9119623
Probable space group: P 21
;
_chemical_formula_sum "Si O2"
_cell_formula_units_Z 12
_cell_length_a 11.867145
_cell_length_b 7.463445
_cell_length_c 9.485016
_cell_angle_alpha 90.000000
_cell_angle_beta 143.069713
_cell_angle_gamma 90.000000
_cell_volume 504.759567
_symmetry_space_group_name_H-M "P 21"
_symmetry_group_IT_number 4
_symmetry_cell_setting 'monoclinic'
loop_
_space_group_symop_operation_xyz
x,y,z
-x,1/2+y,-z
loop_
_atom_site_type_symbol
_atom_site_label
_atom_site_fract_x
_atom_site_fract_y
_atom_site_fract_z
Si Si1 0.316825 0.641140 0.601791
Si Si2 0.998207 0.844633 0.433584
Si Si3 0.214706 0.375217 0.277021
Si Si4 0.575896 0.362285 0.792166
Si Si5 0.299088 0.243796 0.076788
Si Si6 0.950178 0.210063 0.230317
O O1 0.217791 0.567563 0.359663
O O2 0.424322 0.301601 0.525875
O O3 0.481116 0.780672 0.726961
O O4 0.176137 0.724161 0.570001
O O5 0.994939 0.859329 0.597884
O O6 0.018604 0.031097 0.373551
O O7 0.813552 0.758279 0.180324
O O8 0.439233 0.463773 0.768802
O O9 0.202746 0.365809 0.098374
O O10 0.058953 0.256148 0.197212
O O11 0.696989 0.536640 0.864997
O O12 0.725962 0.219526 0.989656
#
# Coordination Sequence:
#
# PCOD9119623 Si02
#       6
#     2   2   2   2   2   2
#     4   8  22  42  64  91 136 166 218 268 328 382
#     4  12  25  41  66  96 132 175 222 271 331 392
#     4   9  21  41  67  95 129 171 215 273 329 389
#     4   8  22  42  64  91 136 166 218 268 328 382
#     4   9  21  41  67  95 129 171 215 273 329 389
#     4  12  25  41  66  96 132 175 222 271 331 392
#
# _framework density 23.773693000000002
#
# number of rings (size 3 to 8) (size 9 to 14) (size 15 to 20)
#    2.000    0.000    0.000    3.000    0.000   12.000 
#    0.000    0.000    0.000    0.000    0.000    0.000 
#    0.000    0.000    0.000    0.000    0.000    0.000 
#
# Total GULP energy -66909.015661 kJ/mol
# GULP energy per Si atom -5575.751305 kJ/mol
# Density = 2.371958 g / cm^3
# Si number density = 23.773693 Si / 1000 Ang^3
#
#
#
# Elastic Constant Matrix: (Units=GPa)
#
#
# Indices 1 2 3 4 5 6 
#
# 1 79.0043 17.6980 20.0718 0.0000 3.2513 0.0000
# 2 17.6980 53.4731 3.7640 0.0000 9.8654 0.0000
# 3 20.0718 3.7640 77.7251 0.0000 0.4481 0.0000
# 4 0.0000 0.0000 0.0000 27.0598 0.0000 4.5680
# 5 3.2513 9.8654 0.4481 0.0000 25.5464 0.0000
# 6 0.0000 0.0000 0.0000 4.5680 0.0000 24.1509
#
#
#
# Elastic Compliance Matrix: (Units=1/GPa)
#
#
# Indices 1 2 3 4 5 6 
#
# 1 0.014583 -0.004572 -0.003544 0.000000 -0.000028 0.000000
# 2 -0.004572 0.021636 0.000178 0.000000 -0.007777 0.000000
# 3 -0.003544 0.000178 0.013772 0.000000 0.000141 0.000000
# 4 0.000000 0.000000 0.000000 0.038174 0.000000 -0.007220
# 5 -0.000028 -0.007777 0.000141 0.000000 0.042149 0.000000
# 6 0.000000 0.000000 0.000000 -0.007220 0.000000 0.042772
#
#
# Mechanical properties :
#
#
# Convention : Reuss Voigt Hill
#
# Bulk Modulus (GPa) = 29.31334 32.58556 30.94945
# Shear Modulus (GPa) = 24.95815 26.59599 25.77707
#
# Velocity S-wave (km/s) = 3.24361 3.34835 3.29640
# Velocity P-wave (km/s) = 5.13663 5.35583 5.24737
#
# Compressibility (1/GPa) = 0.03411416
#
# Stress axis : x y z
#
# Youngs Moduli (GPa) = 68.57119 46.21843 72.61233
#
# Poissons Ratio (x) = 0.21131 0.25737
# Poissons Ratio (y) = 0.31350 -0.01290
# Poissons Ratio (z) = 0.24305 -0.00821
#
# Static dielectric constant tensor:
#      x y z
#    x 1.864480 0.000000 0.015140 
#    y 0.000000 1.978340 0.000000 
#    z 0.015140 0.000000 1.903790 
# 
# From -- ./inp_files/7905.got.cif
#   From: 2010.05.17/outbox.cif.g08.bks.cpg/sg4_4_cif.got.tgz:7905.got - 2010.06.03 18:43:04.
