data_PCOD9119601
_publ_section_title
;
Structure prediction by ZEFSAII (Michael W. Deem and Ramdas Pophale) SiO2 
 PCOD9119601
Probable space group: P 21
;
_chemical_formula_sum "Si O2"
_cell_formula_units_Z 14
_cell_length_a 10.122529
_cell_length_b 8.804860
_cell_length_c 7.781327
_cell_angle_alpha 90.000000
_cell_angle_beta 48.518192
_cell_angle_gamma 90.000000
_cell_volume 519.569025
_symmetry_space_group_name_H-M "P 21"
_symmetry_group_IT_number 4
_symmetry_cell_setting 'monoclinic'
loop_
_space_group_symop_operation_xyz
x,y,z
-x,1/2+y,-z
loop_
_atom_site_type_symbol
_atom_site_label
_atom_site_fract_x
_atom_site_fract_y
_atom_site_fract_z
Si Si1 0.088715 0.626850 0.243033
Si Si2 0.635337 0.780841 0.766406
Si Si3 0.450855 0.087287 0.845855
Si Si4 0.869172 0.530287 0.121664
Si Si5 0.418022 0.537463 0.763148
Si Si6 0.004810 0.440087 0.641332
Si Si7 0.670655 0.270583 0.452893
O O1 0.993884 0.551573 0.488487
O O2 0.966919 0.631867 0.177012
O O3 0.133708 0.801079 0.246187
O O4 0.261624 0.530609 0.038719
O O5 0.574321 0.637705 0.706454
O O6 0.812048 0.853121 0.543056
O O7 0.494491 0.918674 0.874017
O O8 0.644913 0.700878 0.942275
O O9 0.322314 0.074530 0.791179
O O10 0.640528 0.166317 0.645122
O O11 0.833203 0.376730 0.263620
O O12 0.981806 0.510784 0.850016
O O13 0.500873 0.383502 0.618724
O O14 0.341925 0.647049 0.684302
#
# Coordination Sequence:
#
# PCOD9119601 Si02
#       7
#     2   2   2   2   2   2   2
#     4  12  29  51  77 115 160 203 259 320 394 472
#     4  12  26  48  76 110 154 200 267 323 381 470
#     4  12  26  49  78 113 152 209 264 323 391 459
#     4  12  28  47  80 114 156 203 260 323 394 465
#     4  12  25  49  75 111 149 205 260 320 389 459
#     4  12  28  48  75 112 157 203 256 322 396 460
#     4  12  24  48  75 109 152 197 266 313 383 461
#
# _framework density 26.945409000000001
#
# number of rings (size 3 to 8) (size 9 to 14) (size 15 to 20)
#    0.000    0.000    4.286    4.286    4.000    5.714 
#    0.000    0.000    0.000    0.000    0.000    0.000 
#    0.000    0.000    0.000    0.000    0.000    0.000 
#
# Total GULP energy -78445.677953 kJ/mol
# GULP energy per Si atom -5603.262711 kJ/mol
# Density = 2.688408 g / cm^3
# Si number density = 26.945409 Si / 1000 Ang^3
#
#
#
# Elastic Constant Matrix: (Units=GPa)
#
#
# Indices 1 2 3 4 5 6 
#
# 1 98.3184 27.2641 36.0482 0.0000 2.7647 0.0000
# 2 27.2641 137.8313 49.9904 0.0000 13.6926 0.0000
# 3 36.0482 49.9904 201.0972 0.0000 17.9958 0.0000
# 4 0.0000 0.0000 0.0000 63.9667 0.0000 3.0296
# 5 2.7647 13.6926 17.9958 0.0000 34.2642 0.0000
# 6 0.0000 0.0000 0.0000 3.0296 0.0000 34.3003
#
#
#
# Elastic Compliance Matrix: (Units=1/GPa)
#
#
# Indices 1 2 3 4 5 6 
#
# 1 0.011225 -0.001685 -0.001650 0.000000 0.000634 0.000000
# 2 -0.001685 0.008396 -0.001571 0.000000 -0.002394 0.000000
# 3 -0.001650 -0.001571 0.005867 0.000000 -0.002320 0.000000
# 4 0.000000 0.000000 0.000000 0.015699 0.000000 -0.001387
# 5 0.000634 -0.002394 -0.002320 0.000000 0.031309 0.000000
# 6 0.000000 0.000000 0.000000 -0.001387 0.000000 0.029277
#
#
# Mechanical properties :
#
#
# Convention : Reuss Voigt Hill
#
# Bulk Modulus (GPa) = 63.79073 73.76134 68.77604
# Shear Modulus (GPa) = 42.80437 48.10253 45.45345
#
# Velocity S-wave (km/s) = 3.99000 4.22973 4.11161
# Velocity P-wave (km/s) = 6.70464 7.16156 6.93686
#
# Compressibility (1/GPa) = 0.01567626
#
# Stress axis : x y z
#
# Youngs Moduli (GPa) = 89.08309 119.10217 170.45470
#
# Poissons Ratio (x) = 0.20069 0.28127
# Poissons Ratio (y) = 0.15011 0.26776
# Poissons Ratio (z) = 0.14700 0.18709
#
# Static dielectric constant tensor:
#      x y z
#    x 2.091380 0.000000 -0.011100 
#    y 0.000000 2.081150 0.000000 
#    z -0.011100 0.000000 2.192840 
# 
# From -- ./inp_files/7924.got.cif
#   From: 2010.05.17/outbox.cif.g08.bks.cpg/sg4_4_cif.got.tgz:7924.got - 2010.06.03 18:43:04.
