data_PCOD9119177
_publ_section_title
;
Structure prediction by ZEFSAII (Michael W. Deem and Ramdas Pophale) SiO2 
 PCOD9119177
Probable space group: P 21
;
_chemical_formula_sum "Si O2"
_cell_formula_units_Z 14
_cell_length_a 11.140313
_cell_length_b 5.508748
_cell_length_c 16.930027
_cell_angle_alpha 90.000000
_cell_angle_beta 150.125546
_cell_angle_gamma 90.000000
_cell_volume 517.518066
_symmetry_space_group_name_H-M "P 21"
_symmetry_group_IT_number 4
_symmetry_cell_setting 'monoclinic'
loop_
_space_group_symop_operation_xyz
x,y,z
-x,1/2+y,-z
loop_
_atom_site_type_symbol
_atom_site_label
_atom_site_fract_x
_atom_site_fract_y
_atom_site_fract_z
Si Si1 0.598573 0.888180 0.455316
Si Si2 0.166644 0.675554 0.272425
Si Si3 0.402757 0.723799 0.977768
Si Si4 0.958418 0.503436 0.678622
Si Si5 0.416074 0.021525 0.753398
Si Si6 0.875417 0.961874 0.905495
Si Si7 0.877146 0.161587 0.482649
O O1 0.314355 0.860263 0.300763
O O2 0.697477 0.623651 0.535235
O O3 0.680213 0.081061 0.566651
O O4 0.729038 0.963705 0.449297
O O5 0.969961 0.830924 0.206815
O O6 0.111732 0.458983 0.182502
O O7 0.459918 0.639834 0.099764
O O8 0.503354 0.990970 0.018889
O O9 0.130819 0.732767 0.789533
O O10 0.950308 0.353460 0.593843
O O11 0.321425 0.742488 0.695484
O O12 0.613236 0.022740 0.795183
O O13 0.138953 0.121208 0.593834
O O14 0.042053 0.196073 0.019841
#
# Coordination Sequence:
#
# PCOD9119177 Si02
#       7
#     2   2   2   2   2   2   2
#     4  11  24  46  78 113 153 197 272 321 404 470
#     4  11  25  44  78 110 150 207 256 329 386 482
#     4  12  28  51  77 111 154 204 263 320 400 473
#     4  11  24  48  75 110 152 203 261 324 392 479
#     4  12  29  51  82 116 164 210 269 342 407 482
#     4  12  32  54  79 116 163 216 268 329 407 488
#     4  11  28  48  75 120 154 209 263 339 404 476
#
# _framework density 27.052197
#
# number of rings (size 3 to 8) (size 9 to 14) (size 15 to 20)
#    0.000    0.571    2.857    2.571   16.000    1.143 
#    0.000    0.000    0.000    0.000    0.000    0.000 
#    0.000    0.000    0.000    0.000    0.000    0.000 
#
# Total GULP energy -78181.144217 kJ/mol
# GULP energy per Si atom -5584.367444 kJ/mol
# Density = 2.699062 g / cm^3
# Si number density = 27.052197 Si / 1000 Ang^3
#
#
#
# Elastic Constant Matrix: (Units=GPa)
#
#
# Indices 1 2 3 4 5 6 
#
# 1 137.3517 49.1856 25.3188 0.0000 2.5557 0.0000
# 2 49.1856 98.2100 18.6507 0.0000 3.2737 0.0000
# 3 25.3188 18.6507 55.8431 0.0000 5.9750 0.0000
# 4 0.0000 0.0000 0.0000 50.8136 0.0000 1.5123
# 5 2.5557 3.2737 5.9750 0.0000 38.3881 0.0000
# 6 0.0000 0.0000 0.0000 1.5123 0.0000 37.3278
#
#
#
# Elastic Compliance Matrix: (Units=1/GPa)
#
#
# Indices 1 2 3 4 5 6 
#
# 1 0.009274 -0.004109 -0.002851 0.000000 0.000177 0.000000
# 2 -0.004109 0.012698 -0.002330 0.000000 -0.000447 0.000000
# 3 -0.002851 -0.002330 0.020274 0.000000 -0.002767 0.000000
# 4 0.000000 0.000000 0.000000 0.019704 0.000000 -0.000798
# 5 0.000177 -0.000447 -0.002767 0.000000 0.026507 0.000000
# 6 0.000000 0.000000 0.000000 -0.000798 0.000000 0.026822
#
#
# Mechanical properties :
#
#
# Convention : Reuss Voigt Hill
#
# Bulk Modulus (GPa) = 42.25609 53.07943 47.66776
# Shear Modulus (GPa) = 35.27380 38.52254 36.89817
#
# Velocity S-wave (km/s) = 3.61490 3.77770 3.69719
# Velocity P-wave (km/s) = 5.75130 6.22027 5.99037
#
# Compressibility (1/GPa) = 0.02366523
#
# Stress axis : x y z
#
# Youngs Moduli (GPa) = 107.82347 78.75505 49.32334
#
# Poissons Ratio (x) = 0.32362 0.14064
# Poissons Ratio (y) = 0.44307 0.11492
# Poissons Ratio (z) = 0.30745 0.18349
#
# Static dielectric constant tensor:
#      x y z
#    x 2.141990 0.000000 0.042830 
#    y 0.000000 2.260000 0.000000 
#    z 0.042830 0.000000 2.160330 
# 
# From -- ./inp_files/7246.got.cif
#   From: 2010.05.17/outbox.cif.g08.bks.cpg/sg4_4_cif.got.tgz:7246.got - 2010.06.03 18:43:04.
