data_PCOD9119768
_publ_section_title
;
Structure prediction by ZEFSAII (Michael W. Deem and Ramdas Pophale) SiO2 
 PCOD9119768
Probable space group: P 21
;
_chemical_formula_sum "Si O2"
_cell_formula_units_Z 14
_cell_length_a 9.147446
_cell_length_b 4.870011
_cell_length_c 15.973345
_cell_angle_alpha 90.000000
_cell_angle_beta 44.605538
_cell_angle_gamma 90.000000
_cell_volume 499.689266
_symmetry_space_group_name_H-M "P 21"
_symmetry_group_IT_number 4
_symmetry_cell_setting 'monoclinic'
loop_
_space_group_symop_operation_xyz
x,y,z
-x,1/2+y,-z
loop_
_atom_site_type_symbol
_atom_site_label
_atom_site_fract_x
_atom_site_fract_y
_atom_site_fract_z
Si Si1 0.414862 0.743510 0.989424
Si Si2 0.005937 0.931307 0.795587
Si Si3 0.901969 0.074549 0.663263
Si Si4 0.548189 0.688821 0.423902
Si Si5 0.921429 0.054222 0.080059
Si Si6 0.468506 0.978629 0.228368
Si Si7 0.238037 0.367757 0.445889
O O1 0.499726 0.683426 0.862880
O O2 0.555903 0.555536 0.994293
O O3 0.183009 0.622732 0.094860
O O4 0.225394 0.090588 0.699320
O O5 0.034224 0.674467 0.845935
O O6 0.933723 0.879542 0.729360
O O7 0.690547 0.249651 0.740895
O O8 0.915709 0.929567 0.568387
O O9 0.099279 0.275712 0.580287
O O10 0.479914 0.495455 0.530697
O O11 0.384203 0.610184 0.418443
O O12 0.701378 0.900766 0.159140
O O13 0.076458 0.833501 0.976270
O O14 0.381574 0.144650 0.342506
#
# Coordination Sequence:
#
# PCOD9119768 Si02
#       7
#     2   2   2   2   2   2   2
#     4  12  28  49  78 118 160 213 273 342 413 497
#     4  12  27  53  85 122 166 220 284 346 416 514
#     4  12  27  51  81 123 163 227 279 347 416 505
#     4  12  30  51  82 118 163 215 277 342 415 495
#     4  12  30  53  85 123 169 222 281 349 431 507
#     4  12  27  50  80 117 164 220 273 348 424 499
#     4  12  27  47  81 117 167 215 279 340 421 499
#
# _framework density 28.017410999999999
#
# number of rings (size 3 to 8) (size 9 to 14) (size 15 to 20)
#    0.000    0.000    7.143    0.857    8.000    3.429 
#    2.571    0.000    0.000    0.000    0.000    0.000 
#    0.000    0.000    0.000    0.000    0.000    0.000 
#
# Total GULP energy -78611.349232 kJ/mol
# GULP energy per Si atom -5615.096374 kJ/mol
# Density = 2.795364 g / cm^3
# Si number density = 28.017411 Si / 1000 Ang^3
#
#
#
# Elastic Constant Matrix: (Units=GPa)
#
#
# Indices 1 2 3 4 5 6 
#
# 1 147.9160 8.8152 64.0239 0.0000 19.4811 0.0000
# 2 8.8152 83.1522 54.1325 0.0000 14.4604 0.0000
# 3 64.0239 54.1325 135.1438 0.0000 0.3667 0.0000
# 4 0.0000 0.0000 0.0000 45.4057 0.0000 6.5546
# 5 19.4811 14.4604 0.3667 0.0000 71.5200 0.0000
# 6 0.0000 0.0000 0.0000 6.5546 0.0000 51.1056
#
#
#
# Elastic Compliance Matrix: (Units=1/GPa)
#
#
# Indices 1 2 3 4 5 6 
#
# 1 0.009518 0.003361 -0.005846 0.000000 -0.003242 0.000000
# 2 0.003361 0.018250 -0.008890 0.000000 -0.004560 0.000000
# 3 -0.005846 -0.008890 0.013721 0.000000 0.003320 0.000000
# 4 0.000000 0.000000 0.000000 0.022439 0.000000 -0.002878
# 5 -0.003242 -0.004560 0.003320 0.000000 0.015770 0.000000
# 6 0.000000 0.000000 0.000000 -0.002878 0.000000 0.019936
#
#
# Mechanical properties :
#
#
# Convention : Reuss Voigt Hill
#
# Bulk Modulus (GPa) = 53.36737 68.90613 61.13675
# Shear Modulus (GPa) = 38.87046 49.55564 44.21305
#
# Velocity S-wave (km/s) = 3.72878 4.21021 3.97679
# Velocity P-wave (km/s) = 6.13414 6.94852 6.55399
#
# Compressibility (1/GPa) = 0.01873804
#
# Stress axis : x y z
#
# Youngs Moduli (GPa) = 105.06544 54.79368 72.87980
#
# Poissons Ratio (x) = -0.18415 0.42609
# Poissons Ratio (y) = -0.35311 0.64791
# Poissons Ratio (z) = 0.61426 0.48712
#
# Static dielectric constant tensor:
#      x y z
#    x 2.207430 0.000000 -0.006820 
#    y 0.000000 2.162860 0.000000 
#    z -0.006820 0.000000 2.186920 
# 
# From -- ./inp_files/13577.got.cif
#   From: 2010.05.17/outbox.cif.g08.bks.cpg/sg4_7_cif.got.tgz:13577.got - 2010.06.03 18:43:04.
