data_PCOD9119223
_publ_section_title
;
Structure prediction by ZEFSAII (Michael W. Deem and Ramdas Pophale) SiO2 
 PCOD9119223
Probable space group: P 21
;
_chemical_formula_sum "Si O2"
_cell_formula_units_Z 12
_cell_length_a 8.597755
_cell_length_b 11.834426
_cell_length_c 7.522356
_cell_angle_alpha 90.000000
_cell_angle_beta 130.206404
_cell_angle_gamma 90.000000
_cell_volume 584.551147
_symmetry_space_group_name_H-M "P 21"
_symmetry_group_IT_number 4
_symmetry_cell_setting 'monoclinic'
loop_
_space_group_symop_operation_xyz
x,y,z
-x,1/2+y,-z
loop_
_atom_site_type_symbol
_atom_site_label
_atom_site_fract_x
_atom_site_fract_y
_atom_site_fract_z
Si Si1 0.692482 0.163240 0.611919
Si Si2 0.603128 0.608377 0.292247
Si Si3 0.524965 0.518825 0.847465
Si Si4 0.173296 0.337536 0.541798
Si Si5 0.989665 0.469692 0.092797
Si Si6 0.865512 0.402004 0.626425
O O1 0.571701 0.154000 0.707085
O O2 0.553329 0.107970 0.356144
O O3 0.750193 0.289917 0.605428
O O4 0.892253 0.084847 0.773925
O O5 0.770778 0.706850 0.400410
O O6 0.706565 0.498908 0.456548
O O7 0.522223 0.574175 0.039660
O O8 0.374073 0.412213 0.726812
O O9 0.754052 0.482051 0.971268
O O10 0.092223 0.372171 0.287432
O O11 0.004138 0.373180 0.559817
O O12 0.999984 0.443670 0.891902
#
# Coordination Sequence:
#
# PCOD9119223 Si02
#       6
#     2   2   2   2   2   2
#     4  11  27  45  71 104 142 188 237 292 355 418
#     4  12  26  45  74 104 141 187 237 291 356 418
#     4  11  24  48  72 102 143 185 236 294 355 418
#     4  11  27  45  71 104 142 188 237 292 355 418
#     4  11  24  48  72 102 143 185 236 294 355 418
#     4  12  26  45  74 104 141 187 237 291 356 418
#
# _framework density 20.528570999999999
#
# number of rings (size 3 to 8) (size 9 to 14) (size 15 to 20)
#    0.000    0.667    3.333    3.000    9.333    2.667 
#    0.000    0.000    0.000    0.000    0.000    0.000 
#    0.000    0.000    0.000    0.000    0.000    0.000 
#
# Total GULP energy -67208.709287 kJ/mol
# GULP energy per Si atom -5600.725774 kJ/mol
# Density = 2.048185 g / cm^3
# Si number density = 20.528571 Si / 1000 Ang^3
#
#
#
# Elastic Constant Matrix: (Units=GPa)
#
#
# Indices 1 2 3 4 5 6 
#
# 1 49.5402 -24.4612 -12.5656 0.0000 1.8020 0.0000
# 2 -24.4612 84.2011 4.5754 0.0000 6.7052 0.0000
# 3 -12.5656 4.5754 68.8116 0.0000 -9.9341 0.0000
# 4 0.0000 0.0000 0.0000 9.8829 0.0000 0.8846
# 5 1.8020 6.7052 -9.9341 0.0000 47.5945 0.0000
# 6 0.0000 0.0000 0.0000 0.8846 0.0000 36.9374
#
#
#
# Elastic Compliance Matrix: (Units=1/GPa)
#
#
# Indices 1 2 3 4 5 6 
#
# 1 0.024692 0.007052 0.003879 0.000000 -0.001119 0.000000
# 2 0.007052 0.014103 0.000025 0.000000 -0.002248 0.000000
# 3 0.003879 0.000025 0.015690 0.000000 0.003124 0.000000
# 4 0.000000 0.000000 0.000000 0.101402 0.000000 -0.002428
# 5 -0.001119 -0.002248 0.003124 0.000000 0.022022 0.000000
# 6 0.000000 0.000000 0.000000 -0.002428 0.000000 0.027131
#
#
# Mechanical properties :
#
#
# Convention : Reuss Voigt Hill
#
# Bulk Modulus (GPa) = 13.08979 15.29448 14.19214
# Shear Modulus (GPa) = 23.97003 34.54992 29.25997
#
# Velocity S-wave (km/s) = 3.42079 4.10691 3.77945
# Velocity P-wave (km/s) = 4.68963 5.47316 5.09647
#
# Compressibility (1/GPa) = 0.07639539
#
# Stress axis : x y z
#
# Youngs Moduli (GPa) = 40.49915 70.90927 63.73454
#
# Poissons Ratio (x) = -0.50002 -0.24720
# Poissons Ratio (y) = -0.28558 -0.00162
# Poissons Ratio (z) = -0.15708 -0.00180
#
# Static dielectric constant tensor:
#      x y z
#    x 1.716450 0.000000 -0.004310 
#    y 0.000000 1.695340 0.000000 
#    z -0.004310 0.000000 1.704320 
# 
# From -- ./inp_files/1271.got.cif
#   From: 2010.05.17/outbox.cif.g08.bks.cpg/sg4_1_cif.got.tgz:1271.got - 2010.06.03 18:43:04.
