data_PCOD9119984
_publ_section_title
;
Structure prediction by ZEFSAII (Michael W. Deem and Ramdas Pophale) SiO2 
 PCOD9119984
Probable space group: C 2
;
_chemical_formula_sum "Si O2"
_cell_formula_units_Z 22
_cell_length_a 7.893851
_cell_length_b 24.570344
_cell_length_c 5.692707
_cell_angle_alpha 90.000000
_cell_angle_beta 60.239399
_cell_angle_gamma 90.000000
_cell_volume 958.500283
_symmetry_space_group_name_H-M "C 2"
_symmetry_group_IT_number 5
_symmetry_cell_setting 'monoclinic'
loop_
_space_group_symop_operation_xyz
x,y,z
-x,y,-z
1/2+x,1/2+y,z
1/2-x,1/2+y,-z
loop_
_atom_site_type_symbol
_atom_site_label
_atom_site_fract_x
_atom_site_fract_y
_atom_site_fract_z
Si Si1 0.729432 0.592700 0.088471
Si Si2 0.178720 0.370019 0.556586
Si Si3 0.500000 0.396999 0.000000
Si Si4 0.107917 0.250293 0.684170
Si Si5 0.729970 0.634364 0.585010
Si Si6 0.797606 0.968400 0.782934
O O1 0.808574 0.615061 0.280088
O O2 0.499532 0.612970 0.252841
O O3 0.760886 0.528099 0.097113
O O4 0.803774 0.611668 0.782762
O O5 0.168261 0.312384 0.694270
O O6 0.178055 0.425816 0.705439
O O7 0.000000 0.371889 0.500000
O O8 0.383554 0.365600 0.277506
O O9 0.342970 0.435108 0.985399
O O10 0.251702 0.199508 0.562573
O O11 0.000000 0.251044 0.500000
O O12 0.000000 0.233893 0.000000
O O13 0.000000 0.976108 0.500000
#
# Coordination Sequence:
#
# PCOD9119984 Si02
#       6
#     4   4   2   4   4   4
#     4  10  17  28  52  84 124 153 206 265 311 370
#     4  10  25  39  63  92 135 174 214 265 322 391
#     4  10  22  42  60  90 128 170 218 258 328 380
#     4  11  20  35  56  89 133 162 214 269 317 382
#     4  10  16  29  51  87 123 158 204 274 313 365
#     4  10  20  35  57  89 130 167 211 267 321 383
#
# _framework density 22.952521999999998
#
# number of rings (size 3 to 8) (size 9 to 14) (size 15 to 20)
#    0.000    1.818    5.455    1.091    7.636    0.000 
#    0.000    0.000    0.000    0.000    0.000    6.364 
#    0.000    0.000    0.000    0.000    0.000    0.000 
#
# Total GULP energy -61320.805797 kJ/mol
# GULP energy per Si atom -5574.618709 kJ/mol
# Density = 2.290028 g / cm^3
# Si number density = 22.952522 Si / 1000 Ang^3
#
#
#
# Elastic Constant Matrix: (Units=GPa)
#
#
# Indices 1 2 3 4 5 6 
#
# 1 87.0226 38.4028 24.0221 0.0000 23.1038 0.0000
# 2 38.4028 174.4208 34.2281 0.0000 19.5797 0.0000
# 3 24.0221 34.2281 155.2570 0.0000 31.4335 0.0000
# 4 0.0000 0.0000 0.0000-3529.4237 0.0000 -201.0735
# 5 23.1038 19.5797 31.4335 0.0000 34.3868 0.0000
# 6 0.0000 0.0000 0.0000 -201.0735 0.0000 -2.6075
#
#
#
# Elastic Compliance Matrix: (Units=1/GPa)
#
#
# Indices 1 2 3 4 5 6 
#
# 1 0.014794 -0.002283 -0.000045 0.000000 -0.008599 0.000000
# 2 -0.002283 0.006557 -0.000794 0.000000 -0.001474 0.000000
# 3 -0.000045 -0.000794 0.008007 0.000000 -0.006837 0.000000
# 4 0.000000 0.000000 0.000000 0.000084 0.000000 -0.006439
# 5 -0.008599 -0.001474 -0.006837 0.000000 0.041948 0.000000
# 6 0.000000 0.000000 0.000000 -0.006439 0.000000 0.113023
#
#
# Mechanical properties :
#
#
# Convention : Reuss Voigt Hill
#
# Bulk Modulus (GPa) = 43.26227 67.77847 55.52037
# Shear Modulus (GPa) = 25.20652 -678.19240 -326.49294
#
# Velocity S-wave (km/s) = 3.31751 -17.20807 -11.93968
# Velocity P-wave (km/s) = 5.79344 19.11098 12.87761
#
# Compressibility (1/GPa) = 0.02311483
#
# Stress axis : x y z
#
# Youngs Moduli (GPa) = 67.59428 152.50383 124.88769
#
# Poissons Ratio (x) = 0.34820 0.00558
# Poissons Ratio (y) = 0.15433 0.09915
# Poissons Ratio (z) = 0.00302 0.12108
#
# Static dielectric constant tensor:
#      x y z
#    x 2.447350 0.000000 0.926680 
#    y 0.000000 1.799790 0.000000 
#    z 0.926680 0.000000 3.704240 
# 
# From -- ./inp_files/3321.got.cif
#   From: 2010.05.17/outbox.cif.g08.bks.cpg/sg5_2_cif.got.tgz:3321.got - 2010.06.03 18:56:24.
