data_PCOD9119497
_publ_section_title
;
Structure prediction by ZEFSAII (Michael W. Deem and Ramdas Pophale) SiO2 
 PCOD9119497
Probable space group: P 21
;
_chemical_formula_sum "Si O2"
_cell_formula_units_Z 14
_cell_length_a 14.539809
_cell_length_b 5.016637
_cell_length_c 8.274326
_cell_angle_alpha 90.000000
_cell_angle_beta 72.769915
_cell_angle_gamma 90.000000
_cell_volume 576.452187
_symmetry_space_group_name_H-M "P 21"
_symmetry_group_IT_number 4
_symmetry_cell_setting 'monoclinic'
loop_
_space_group_symop_operation_xyz
x,y,z
-x,1/2+y,-z
loop_
_atom_site_type_symbol
_atom_site_label
_atom_site_fract_x
_atom_site_fract_y
_atom_site_fract_z
Si Si1 0.705000 0.048940 0.496972
Si Si2 0.470020 0.398059 0.223716
Si Si3 0.583471 0.907860 0.254503
Si Si4 0.832303 0.547936 0.433332
Si Si5 0.186845 0.930569 0.204881
Si Si6 0.939465 0.408164 0.047727
Si Si7 0.319622 0.429715 0.108890
O O1 0.740017 0.349304 0.466547
O O2 0.642704 0.991868 0.691836
O O3 0.626722 0.961330 0.408014
O O4 0.794325 0.849437 0.443809
O O5 0.544257 0.609448 0.252477
O O6 0.442559 0.400226 0.050899
O O7 0.495580 0.114634 0.280137
O O8 0.672001 0.979500 0.091984
O O9 0.869120 0.490713 0.596946
O O10 0.896961 0.480073 0.245705
O O11 0.230836 0.636519 0.190708
O O12 0.277244 0.132104 0.156734
O O13 0.128988 0.966682 0.069653
O O14 0.031143 0.599747 0.974731
#
# Coordination Sequence:
#
# PCOD9119497 Si02
#       7
#     2   2   2   2   2   2   2
#     4  12  23  42  64  94 131 177 231 266 322 391
#     4  12  22  39  58  94 132 174 232 282 324 371
#     4  12  24  37  60  92 134 180 224 288 330 355
#     4  12  24  46  72  97 133 176 214 266 324 395
#     4  12  24  46  72  97 133 176 214 266 324 395
#     4  12  28  48  74 108 134 160 208 264 332 410
#     4  12  23  42  64  94 131 177 231 266 322 391
#
# _framework density 24.286489
#
# number of rings (size 3 to 8) (size 9 to 14) (size 15 to 20)
#    0.000    0.000    2.857    8.571    0.000    1.143 
#    0.000    0.000    0.000    0.000    0.000    0.000 
#    0.000    0.000    0.000    0.000    0.000    0.000 
#
# Total GULP energy -78204.687311 kJ/mol
# GULP energy per Si atom -5586.049094 kJ/mol
# Density = 2.423121 g / cm^3
# Si number density = 24.286489 Si / 1000 Ang^3
#
#
#
# Elastic Constant Matrix: (Units=GPa)
#
#
# Indices 1 2 3 4 5 6 
#
# 1 41.4674 -4.6109 19.3557 0.0000 22.5137 0.0000
# 2 -4.6109 61.7235 -22.8223 0.0000 4.2424 0.0000
# 3 19.3557 -22.8223 118.1956 0.0000 -0.0586 0.0000
# 4 0.0000 0.0000 0.0000 28.9545 0.0000 -5.6325
# 5 22.5137 4.2424 -0.0586 0.0000 34.1571 0.0000
# 6 0.0000 0.0000 0.0000 -5.6325 0.0000 37.5143
#
#
#
# Elastic Compliance Matrix: (Units=1/GPa)
#
#
# Indices 1 2 3 4 5 6 
#
# 1 0.043086 0.002779 -0.006533 0.000000 -0.028755 0.000000
# 2 0.002779 0.017787 0.002977 0.000000 -0.004036 0.000000
# 3 -0.006533 0.002977 0.010107 0.000000 0.003954 0.000000
# 4 0.000000 0.000000 0.000000 0.035576 0.000000 0.005341
# 5 -0.028755 -0.004036 0.003954 0.000000 0.048738 0.000000
# 6 0.000000 0.000000 0.000000 0.005341 0.000000 0.027458
#
#
# Mechanical properties :
#
#
# Convention : Reuss Voigt Hill
#
# Bulk Modulus (GPa) = 14.40357 22.80350 18.60353
# Shear Modulus (GPa) = 24.10235 35.42278 29.76257
#
# Velocity S-wave (km/s) = 3.15368 3.82323 3.50448
# Velocity P-wave (km/s) = 4.38230 5.37579 4.90427
#
# Compressibility (1/GPa) = 0.06942723
#
# Stress axis : x y z
#
# Youngs Moduli (GPa) = 23.20940 56.22020 98.93822
#
# Poissons Ratio (x) = -0.15626 0.64640
# Poissons Ratio (y) = -0.06451 -0.29458
# Poissons Ratio (z) = 0.15164 -0.16739
#
# Static dielectric constant tensor:
#      x y z
#    x 1.916890 0.000000 0.019730 
#    y 0.000000 1.860690 0.000000 
#    z 0.019730 0.000000 2.045180 
# 
# From -- ./inp_files/8581.got.cif
#   From: 2010.05.17/outbox.cif.g08.bks.cpg/sg4_5_cif.got.tgz:8581.got - 2010.06.03 18:43:04.
