data_PCOD9119052
_publ_section_title
;
Structure prediction by ZEFSAII (Michael W. Deem and Ramdas Pophale) SiO2 
 PCOD9119052
Probable space group: P 21
;
_chemical_formula_sum "Si O2"
_cell_formula_units_Z 16
_cell_length_a 11.977452
_cell_length_b 8.188336
_cell_length_c 10.680597
_cell_angle_alpha 90.000000
_cell_angle_beta 37.165090
_cell_angle_gamma 90.000000
_cell_volume 632.811400
_symmetry_space_group_name_H-M "P 21"
_symmetry_group_IT_number 4
_symmetry_cell_setting 'monoclinic'
loop_
_space_group_symop_operation_xyz
x,y,z
-x,1/2+y,-z
loop_
_atom_site_type_symbol
_atom_site_label
_atom_site_fract_x
_atom_site_fract_y
_atom_site_fract_z
Si Si1 0.065300 0.191590 0.390404
Si Si2 0.548020 0.187416 0.204862
Si Si3 0.243427 0.823714 0.745724
Si Si4 0.703602 0.209210 0.559094
Si Si5 0.142545 0.848092 0.213750
Si Si6 0.226061 0.355763 0.597861
Si Si7 0.169697 0.192283 0.901327
Si Si8 0.363457 0.330113 0.974297
O O1 0.908745 0.230239 0.427313
O O2 0.953785 0.208655 0.617693
O O3 0.135864 0.009840 0.302879
O O4 0.238394 0.309594 0.208868
O O5 0.637626 0.222669 0.260780
O O6 0.332583 0.223259 0.417292
O O7 0.600580 0.013744 0.101087
O O8 0.657070 0.313186 0.018086
O O9 0.331415 0.825172 0.528546
O O10 0.212161 0.007682 0.821369
O O11 0.048676 0.729807 0.902629
O O12 0.561847 0.243467 0.797331
O O13 0.685580 0.027198 0.520570
O O14 0.991681 0.866617 0.237609
O O15 0.248250 0.309314 0.722003
O O16 0.256349 0.236860 0.957156
#
# Coordination Sequence:
#
# PCOD9119052 Si02
#       8
#     2   2   2   2   2   2   2   2
#     4  11  25  45  69  94 127 169 218 271 323 381
#     4  12  25  42  67  97 132 171 214 265 322 384
#     4  12  23  39  65  97 133 171 212 260 321 387
#     4  11  24  43  67  96 131 171 215 264 321 383
#     4  11  25  45  69  94 127 169 218 271 323 381
#     4  11  24  43  67  96 131 171 215 264 321 383
#     4  12  23  39  65  97 133 171 212 260 321 387
#     4  12  25  42  67  97 132 171 214 265 322 384
#
# _framework density 25.283994
#
# number of rings (size 3 to 8) (size 9 to 14) (size 15 to 20)
#    0.000    0.500    2.500    6.750    0.000    4.000 
#    0.000    0.000    0.000    0.000    0.000    0.000 
#    0.000    0.000    0.000    0.000    0.000    0.000 
#
# Total GULP energy -89734.336604 kJ/mol
# GULP energy per Si atom -5608.396038 kJ/mol
# Density = 2.522645 g / cm^3
# Si number density = 25.283994 Si / 1000 Ang^3
#
#
#
# Elastic Constant Matrix: (Units=GPa)
#
#
# Indices 1 2 3 4 5 6 
#
# 1 38.8836 -0.8632 2.1577 0.0000 1.1035 0.0000
# 2 -0.8632 72.4227 -14.2606 0.0000 -12.5332 0.0000
# 3 2.1577 -14.2606 116.1007 0.0000 -7.9473 0.0000
# 4 0.0000 0.0000 0.0000 44.5162 0.0000 5.0635
# 5 1.1035 -12.5332 -7.9473 0.0000 37.1947 0.0000
# 6 0.0000 0.0000 0.0000 5.0635 0.0000 24.9063
#
#
#
# Elastic Compliance Matrix: (Units=1/GPa)
#
#
# Indices 1 2 3 4 5 6 
#
# 1 0.025773 0.000054 -0.000531 0.000000 -0.000860 0.000000
# 2 0.000054 0.015223 0.002253 0.000000 0.005609 0.000000
# 3 -0.000531 0.002253 0.009086 0.000000 0.002716 0.000000
# 4 0.000000 0.000000 0.000000 0.022995 0.000000 -0.004675
# 5 -0.000860 0.005609 0.002716 0.000000 0.029381 0.000000
# 6 0.000000 0.000000 0.000000 -0.004675 0.000000 0.041101
#
#
# Mechanical properties :
#
#
# Convention : Reuss Voigt Hill
#
# Bulk Modulus (GPa) = 18.64565 22.38611 20.51588
# Shear Modulus (GPa) = 31.66839 37.34831 34.50835
#
# Velocity S-wave (km/s) = 3.54292 3.84754 3.69837
# Velocity P-wave (km/s) = 4.91191 5.34894 5.13508
#
# Compressibility (1/GPa) = 0.05363181
#
# Stress axis : x y z
#
# Youngs Moduli (GPa) = 38.80047 65.69108 110.06288
#
# Poissons Ratio (x) = -0.00353 0.05847
# Poissons Ratio (y) = -0.00208 -0.24795
# Poissons Ratio (z) = 0.02061 -0.14799
#
# Static dielectric constant tensor:
#      x y z
#    x 1.978540 0.000000 0.015120 
#    y 0.000000 1.982170 0.000000 
#    z 0.015120 0.000000 2.001330 
# 
# From -- ./inp_files/12587.got.cif
#   From: 2010.05.17/outbox.cif.g08.bks.cpg/sg4_7_cif.got.tgz:12587.got - 2010.06.03 18:43:04.
