data_PCOD9119611
_publ_section_title
;
Structure prediction by ZEFSAII (Michael W. Deem and Ramdas Pophale) SiO2 
 PCOD9119611
Probable space group: P 21
;
_chemical_formula_sum "Si O2"
_cell_formula_units_Z 10
_cell_length_a 5.036157
_cell_length_b 4.919921
_cell_length_c 13.673145
_cell_angle_alpha 90.000000
_cell_angle_beta 78.887369
_cell_angle_gamma 90.000000
_cell_volume 332.434101
_symmetry_space_group_name_H-M "P 21"
_symmetry_group_IT_number 4
_symmetry_cell_setting 'monoclinic'
loop_
_space_group_symop_operation_xyz
x,y,z
-x,1/2+y,-z
loop_
_atom_site_type_symbol
_atom_site_label
_atom_site_fract_x
_atom_site_fract_y
_atom_site_fract_z
Si Si1 0.111054 0.669430 0.846188
Si Si2 0.677260 0.522488 0.490842
Si Si3 0.943561 0.370282 0.666070
Si Si4 0.750214 0.892049 0.999000
Si Si5 0.451452 0.614691 0.154054
O O1 0.062118 0.549869 0.743791
O O2 0.999845 0.630284 0.974059
O O3 0.339081 0.891268 0.829364
O O4 0.316354 0.391558 0.874623
O O5 0.415921 0.715145 0.517161
O O6 0.830851 0.536919 0.582638
O O7 0.854402 0.648530 0.392413
O O8 0.705067 0.225508 0.741994
O O9 0.817530 0.892718 0.871688
O O10 0.473107 0.653073 0.025843
#
# Coordination Sequence:
#
# PCOD9119611 Si02
#       5
#     2   2   2   2   2
#     4  12  27  49  82 121 175 228 279 353 425 522
#     4  12  32  64  92 124 176 228 298 392 450 526
#     4  12  32  57  88 130 162 231 306 358 454 522
#     4  12  24  49  74 124 174 217 280 338 420 522
#     4  12  27  49  82 121 175 228 279 353 425 522
#
# _framework density 30.081151999999999
#
# number of rings (size 3 to 8) (size 9 to 14) (size 15 to 20)
#    0.000    0.000    4.000    3.600    2.800    9.600 
#    0.000    0.000    0.000    0.000    0.000    0.000 
#    0.000    0.000    0.000    0.000    0.000    0.000 
#
# Total GULP energy -56130.257914 kJ/mol
# GULP energy per Si atom -5613.025791 kJ/mol
# Density = 3.001269 g / cm^3
# Si number density = 30.081152 Si / 1000 Ang^3
#
#
#
# Elastic Constant Matrix: (Units=GPa)
#
#
# Indices 1 2 3 4 5 6 
#
# 1 249.5166 76.3073 103.1184 0.0000 -3.5676 0.0000
# 2 76.3073 215.6158 79.4596 0.0000 3.3611 0.0000
# 3 103.1184 79.4596 227.1570 0.0000 -29.3046 0.0000
# 4 0.0000 0.0000 0.0000 78.6616 0.0000 4.7924
# 5 -3.5676 3.3611 -29.3046 0.0000 73.4704 0.0000
# 6 0.0000 0.0000 0.0000 4.7924 0.0000 101.6001
#
#
#
# Elastic Compliance Matrix: (Units=1/GPa)
#
#
# Indices 1 2 3 4 5 6 
#
# 1 0.005170 -0.001070 -0.002039 0.000000 -0.000513 0.000000
# 2 -0.001070 0.005622 -0.001603 0.000000 -0.000949 0.000000
# 3 -0.002039 -0.001603 0.006205 0.000000 0.002449 0.000000
# 4 0.000000 0.000000 0.000000 0.012749 0.000000 -0.000601
# 5 -0.000513 -0.000949 0.002449 0.000000 0.014606 0.000000
# 6 0.000000 0.000000 0.000000 -0.000601 0.000000 0.009871
#
#
# Mechanical properties :
#
#
# Convention : Reuss Voigt Hill
#
# Bulk Modulus (GPa) = 132.06020 134.45112 133.25566
# Shear Modulus (GPa) = 75.55995 79.64002 77.59999
#
# Velocity S-wave (km/s) = 5.01729 5.15097 5.08457
# Velocity P-wave (km/s) = 8.80687 8.95376 8.88062
#
# Compressibility (1/GPa) = 0.00757230
#
# Stress axis : x y z
#
# Youngs Moduli (GPa) = 193.40918 177.86336 161.17309
#
# Poissons Ratio (x) = 0.19039 0.32861
# Poissons Ratio (y) = 0.20703 0.25838
# Poissons Ratio (z) = 0.39434 0.28514
#
# Static dielectric constant tensor:
#      x y z
#    x 2.944990 0.000000 -0.046680 
#    y 0.000000 2.785660 0.000000 
#    z -0.046680 0.000000 2.049660 
# 
# From -- ./inp_files/2268.got.cif
#   From: 2010.05.17/outbox.cif.g08.bks.cpg/sg4_2_cif.got.tgz:2268.got - 2010.06.03 18:43:04.
