data_PCOD9119942
_publ_section_title
;
Structure prediction by ZEFSAII (Michael W. Deem and Ramdas Pophale) SiO2 
 PCOD9119942
Probable space group: C 2
;
_chemical_formula_sum "Si O2"
_cell_formula_units_Z 26
_cell_length_a 9.762329
_cell_length_b 19.765280
_cell_length_c 11.215133
_cell_angle_alpha 90.000000
_cell_angle_beta 40.182759
_cell_angle_gamma 90.000000
_cell_volume 1396.284527
_symmetry_space_group_name_H-M "C 2"
_symmetry_group_IT_number 5
_symmetry_cell_setting 'monoclinic'
loop_
_space_group_symop_operation_xyz
x,y,z
-x,y,-z
1/2+x,1/2+y,z
1/2-x,1/2+y,-z
loop_
_atom_site_type_symbol
_atom_site_label
_atom_site_fract_x
_atom_site_fract_y
_atom_site_fract_z
Si Si1 0.000000 0.078740 0.500000
Si Si2 0.692969 0.184411 0.585859
Si Si3 0.253112 0.366715 0.137307
Si Si4 0.250110 0.019082 0.862377
Si Si5 0.259273 0.085928 0.112807
Si Si6 0.834129 0.729356 0.000281
Si Si7 0.500000 0.108626 0.500000
Si Si8 0.000000 0.289715 0.500000
O O1 0.801265 0.123327 0.587041
O O2 0.899416 0.049022 0.688521
O O3 0.471251 0.206497 0.795337
O O4 0.647482 0.156935 0.484165
O O5 0.856813 0.244738 0.506141
O O6 0.166770 0.442075 0.175524
O O7 0.150644 0.336034 0.322842
O O8 0.500000 0.376968 0.000000
O O9 0.232964 0.304041 0.057039
O O10 0.372826 0.060788 0.677832
O O11 0.000000 0.019221 0.000000
O O12 0.267443 0.053896 0.978339
O O13 0.500000 0.085879 0.000000
O O14 0.194071 0.165155 0.135810
O O15 0.000000 0.736623 0.000000
#
# Coordination Sequence:
#
# PCOD9119942 Si02
#       8
#     2   4   4   4   4   4   2   2
#     4  11  18  32  59  91 104 141 204 240 281 348
#     4  11  20  32  61  89 112 147 192 246 297 337
#     4  10  20  35  58  85 115 149 199 249 284 339
#     4  11  24  38  57  86 122 165 193 232 303 362
#     4  11  20  36  60  85 115 147 194 252 293 335
#     4  10  15  34  57  83 107 143 188 255 279 318
#     4  12  23  40  53  89 135 154 180 248 311 352
#     4  11  19  36  64  88 103 149 214 248 282 342
#
# _framework density 18.620846
#
# number of rings (size 3 to 8) (size 9 to 14) (size 15 to 20)
#    0.000    1.231    7.692    2.308    0.000    0.000 
#    0.000    0.000    3.385    0.000    0.000    0.000 
#    0.000    0.000    0.000    0.000    0.000    0.000 
#
# Total GULP energy -72393.787640 kJ/mol
# GULP energy per Si atom -5568.752895 kJ/mol
# Density = 1.857846 g / cm^3
# Si number density = 18.620846 Si / 1000 Ang^3
#
#
#
# Elastic Constant Matrix: (Units=GPa)
#
#
# Indices 1 2 3 4 5 6 
#
# 1 71.1727 42.0249 29.8383 0.0001 15.9874 0.0000
# 2 42.0249 118.7864 52.4633 0.0000 17.4096 0.0000
# 3 29.8383 52.4633 159.1963 0.0001 9.4544 0.0000
# 4 0.0001 0.0000 0.0001 -76.0177 0.0000 11.0079
# 5 15.9874 17.4096 9.4544 0.0000 28.8446 0.0000
# 6 0.0000 0.0000 0.0000 11.0079 0.0000 13.5250
#
#
#
# Elastic Compliance Matrix: (Units=1/GPa)
#
#
# Indices 1 2 3 4 5 6 
#
# 1 0.019304 -0.005121 -0.001508 0.000000 -0.007115 0.000000
# 2 -0.005121 0.011966 -0.002777 0.000000 -0.003474 0.000000
# 3 -0.001508 -0.002777 0.007476 0.000000 0.000062 0.000000
# 4 0.000000 0.000000 0.000000 -0.011768 0.000000 0.009578
# 5 -0.007115 -0.003474 0.000062 0.000000 0.040688 0.000000
# 6 0.000000 0.000000 0.000000 0.009578 0.000000 0.066142
#
#
# Mechanical properties :
#
#
# Convention : Reuss Voigt Hill
#
# Bulk Modulus (GPa) = 50.16652 66.42317 58.29485
# Shear Modulus (GPa) = 31.39423 8.25898 19.82661
#
# Velocity S-wave (km/s) = 4.11051 2.10831 3.26660
# Velocity P-wave (km/s) = 7.03761 6.45565 6.75290
#
# Compressibility (1/GPa) = 0.01993361
#
# Stress axis : x y z
#
# Youngs Moduli (GPa) = 51.80170 83.57123 133.76474
#
# Poissons Ratio (x) = 0.42795 0.20174
# Poissons Ratio (y) = 0.26527 0.37150
# Poissons Ratio (z) = 0.07813 0.23210
#
# Static dielectric constant tensor:
#      x y z
#    x 1.707930 0.000000 -0.030430 
#    y 0.000000 1.702700 0.000000 
#    z -0.030430 0.000000 1.773000 
# 
# From -- ./inp_files/17045.got.cif
#   From: 2010.05.17/outbox.cif.g08.bks.cpg/sg5_9_cif.got.tgz:17045.got - 2010.06.03 18:56:24.
