data_PCOD9119922
_publ_section_title
;
Structure prediction by ZEFSAII (Michael W. Deem and Ramdas Pophale) SiO2 
 PCOD9119922
Probable space group: C 2
;
_chemical_formula_sum "Si O2"
_cell_formula_units_Z 32
_cell_length_a 14.283734
_cell_length_b 19.943078
_cell_length_c 7.714263
_cell_angle_alpha 90.000000
_cell_angle_beta 40.120813
_cell_angle_gamma 90.000000
_cell_volume 1416.070551
_symmetry_space_group_name_H-M "C 2"
_symmetry_group_IT_number 5
_symmetry_cell_setting 'monoclinic'
loop_
_space_group_symop_operation_xyz
x,y,z
-x,y,-z
1/2+x,1/2+y,z
1/2-x,1/2+y,-z
loop_
_atom_site_type_symbol
_atom_site_label
_atom_site_fract_x
_atom_site_fract_y
_atom_site_fract_z
Si Si1 0.090494 0.418490 0.690882
Si Si2 0.859283 0.702617 0.441793
Si Si3 0.696325 0.214681 0.892882
Si Si4 0.387711 0.355624 0.997868
Si Si5 0.799902 0.440319 0.937529
Si Si6 0.314841 0.346153 0.592483
Si Si7 0.145838 0.568754 0.669952
Si Si8 0.329089 0.575980 0.740723
O O1 0.222826 0.368659 0.549913
O O2 0.139855 0.494763 0.609165
O O3 0.000000 0.413712 0.000000
O O4 0.965955 0.416123 0.722332
O O5 0.812422 0.708635 0.304917
O O6 0.793782 0.765334 0.638330
O O7 0.832986 0.624162 0.508914
O O8 0.033241 0.707906 0.197048
O O9 0.790614 0.154112 0.837562
O O10 0.721534 0.293467 0.881466
O O11 0.286545 0.419770 0.113112
O O12 0.514762 0.356548 0.675477
O O13 0.500000 0.346660 0.000000
O O14 0.731174 0.395438 0.189984
O O15 0.765438 0.518475 0.027940
O O16 0.277605 0.570413 0.615980
O O17 0.000000 0.580968 0.000000
O O18 0.500000 0.562745 0.500000
#
# Coordination Sequence:
#
# PCOD9119922 Si02
#       8
#     4   4   4   4   4   4   4   4
#     4   9  17  32  52  81 114 145 186 236 281 326
#     4   9  14  27  54  75 103 141 181 220 277 335
#     4   9  16  33  50  76 107 144 183 227 272 328
#     4  11  21  37  55  80 118 156 186 229 288 343
#     4  11  21  35  56  87 116 146 185 243 284 332
#     4  10  18  32  55  84 110 143 192 229 280 338
#     4  10  14  30  54  77 111 144 187 233 280 328
#     4  11  19  30  54  89 110 136 196 247 273 321
#
# _framework density 22.597745
#
# number of rings (size 3 to 8) (size 9 to 14) (size 15 to 20)
#    0.000    2.000    8.750    1.125    0.000    0.000 
#    4.500    0.625    0.000    1.500    0.000    7.875 
#    0.000    0.000    0.000    0.000    0.000    0.000 
#
# Total GULP energy -89069.641198 kJ/mol
# GULP energy per Si atom -5566.852575 kJ/mol
# Density = 2.254631 g / cm^3
# Si number density = 22.597745 Si / 1000 Ang^3
#
#
#
# Elastic Constant Matrix: (Units=GPa)
#
#
# Indices 1 2 3 4 5 6 
#
# 1 92.0540 25.7514 25.9012 0.0000 -18.6848 0.0000
# 2 25.7514 120.8873 24.4516 0.0000 -9.5879 0.0000
# 3 25.9012 24.4516 39.2966 0.0000 -10.5936 0.0000
# 4 0.0000 0.0000 0.0000 10.5222 0.0000 -14.7109
# 5 -18.6848 -9.5879 -10.5936 0.0000 35.8331 0.0000
# 6 0.0000 0.0000 0.0000 -14.7109 0.0000 27.7636
#
#
#
# Elastic Compliance Matrix: (Units=1/GPa)
#
#
# Indices 1 2 3 4 5 6 
#
# 1 0.014259 -0.001160 -0.007341 0.000000 0.004955 0.000000
# 2 -0.001160 0.009582 -0.005074 0.000000 0.000459 0.000000
# 3 -0.007341 -0.005074 0.034821 0.000000 0.005109 0.000000
# 4 0.000000 0.000000 0.000000 0.366637 0.000000 0.194267
# 5 0.004955 0.000459 0.005109 0.000000 0.032124 0.000000
# 6 0.000000 0.000000 0.000000 0.194267 0.000000 0.138953
#
#
# Mechanical properties :
#
#
# Convention : Reuss Voigt Hill
#
# Bulk Modulus (GPa) = 31.73418 44.93849 38.33633
# Shear Modulus (GPa) = 7.88609 26.56603 17.22606
#
# Velocity S-wave (km/s) = 1.87012 3.43243 2.76396
# Velocity P-wave (km/s) = 4.32859 5.96977 5.21416
#
# Compressibility (1/GPa) = 0.03151177
#
# Stress axis : x y z
#
# Youngs Moduli (GPa) = 70.13214 104.36318 28.71859
#
# Poissons Ratio (x) = 0.12102 0.21083
# Poissons Ratio (y) = 0.08132 0.14572
# Poissons Ratio (z) = 0.51485 0.52955
#
# Static dielectric constant tensor:
#      x y z
#    x 1.932610 0.000000 -0.022900 
#    y 0.000000 1.927320 0.000000 
#    z -0.022900 0.000000 2.135470 
# 
# From -- ./inp_files/25426.got.cif
#   From: 2010.05.17/outbox.cif.g08.bks.cpg/sg5_13_cif.got.tgz:25426.got - 2010.06.03 18:56:24.
