data_PCOD9119899
_publ_section_title
;
Structure prediction by ZEFSAII (Michael W. Deem and Ramdas Pophale) SiO2 
 PCOD9119899
Probable space group: P 21
;
_chemical_formula_sum "Si O2"
_cell_formula_units_Z 16
_cell_length_a 9.000000
_cell_length_b 18.000000
_cell_length_c 9.000000
_cell_angle_alpha 90.000000
_cell_angle_beta 30.000000
_cell_angle_gamma 90.000000
_cell_volume 729.000000
_symmetry_space_group_name_H-M "P 21"
_symmetry_group_IT_number 4
_symmetry_cell_setting 'monoclinic'
loop_
_space_group_symop_operation_xyz
x,y,z
-x,1/2+y,-z
loop_
_atom_site_type_symbol
_atom_site_label
_atom_site_fract_x
_atom_site_fract_y
_atom_site_fract_z
Si Si1 0.014762 0.420610 0.291237
Si Si2 0.311334 0.645756 0.296437
Si Si3 0.300254 0.149650 0.558602
Si Si4 0.556111 0.532689 0.826069
Si Si5 0.267784 0.758316 0.939149
Si Si6 0.748940 0.756367 0.798689
Si Si7 0.889916 0.422115 0.049643
Si Si8 0.605105 0.033501 0.516254
O O1 0.125608 0.338548 0.257455
O O2 0.814766 0.468055 0.584385
O O3 0.278949 0.479135 0.032626
O O4 0.874530 0.411667 0.244658
O O5 0.253636 0.590761 0.486626
O O6 0.019376 0.698869 0.522400
O O7 0.441641 0.585588 0.062310
O O8 0.568694 0.709615 0.081035
O O9 0.349512 0.095892 0.373996
O O10 0.530759 0.218578 0.360649
O O11 0.391056 0.090032 0.607449
O O12 0.986554 0.193944 0.821441
O O13 0.501876 0.765555 0.877542
O O14 0.131771 0.839099 0.007955
O O15 0.161430 0.479685 0.774317
O O16 0.611271 0.470122 0.231050
#
# Coordination Sequence:
#
# PCOD9119899 Si02
#       8
#     2   2   2   2   2   2   2   2
#     4  12  26  48  79 108 153 200 250 312 383 455
#     4  12  28  49  77 112 155 197 258 319 373 450
#     4  12  24  48  78 105 148 201 253 308 374 453
#     4  12  25  50  75 109 144 203 254 304 375 450
#     4  12  28  46  75 111 152 200 248 312 385 454
#     4  12  28  50  73 115 156 199 252 312 387 458
#     4  12  26  50  74 115 153 196 255 312 384 457
#     4  12  27  49  77 113 151 196 258 319 373 447
#
# _framework density 21.947873999999999
#
# number of rings (size 3 to 8) (size 9 to 14) (size 15 to 20)
#    0.000    0.000    3.750    5.250    5.250    0.000 
#    0.000    0.000    0.000    0.000    0.000    0.000 
#    0.000    0.000    0.000    0.000    0.000    0.000 
#
# Total GULP energy -89201.479582 kJ/mol
# GULP energy per Si atom -5575.092474 kJ/mol
# Density = 2.189792 g / cm^3
# Si number density = 21.947874 Si / 1000 Ang^3
#
#
#
# Elastic Constant Matrix: (Units=GPa)
#
#
# Indices 1 2 3 4 5 6 
#
# 1 85.2659 63.5909 23.9300 0.0000 -2.8245 0.0000
# 2 63.5909 221.1180 44.1129 0.0000 -7.2154 0.0000
# 3 23.9300 44.1129 110.4559 0.0000 -21.4617 0.0000
# 4 0.0000 0.0000 0.0000 63.6763 0.0000 -10.7908
# 5 -2.8245 -7.2154 -21.4617 0.0000 32.9614 0.0000
# 6 0.0000 0.0000 0.0000 -10.7908 0.0000 52.6462
#
#
#
# Elastic Compliance Matrix: (Units=1/GPa)
#
#
# Indices 1 2 3 4 5 6 
#
# 1 0.015230 -0.004039 -0.001837 0.000000 -0.000775 0.000000
# 2 -0.004039 0.005987 -0.001521 0.000000 -0.000026 0.000000
# 3 -0.001837 -0.001521 0.011407 0.000000 0.006937 0.000000
# 4 0.000000 0.000000 0.000000 0.016270 0.000000 0.003335
# 5 -0.000775 -0.000026 0.006937 0.000000 0.034783 0.000000
# 6 0.000000 0.000000 0.000000 0.003335 0.000000 0.019678
#
#
# Mechanical properties :
#
#
# Convention : Reuss Voigt Hill
#
# Bulk Modulus (GPa) = 56.08693 75.56750 65.82722
# Shear Modulus (GPa) = 40.29304 48.87051 44.58177
#
# Velocity S-wave (km/s) = 4.28933 4.72387 4.51184
# Velocity P-wave (km/s) = 7.08105 8.01614 7.56306
#
# Compressibility (1/GPa) = 0.01782947
#
# Stress axis : x y z
#
# Youngs Moduli (GPa) = 65.65973 167.04129 87.66836
#
# Poissons Ratio (x) = 0.67464 0.16107
# Poissons Ratio (y) = 0.26518 0.13333
# Poissons Ratio (z) = 0.12063 0.25405
#
# Static dielectric constant tensor:
#      x y z
#    x 1.887880 0.000000 -0.012650 
#    y 0.000000 1.750000 0.000000 
#    z -0.012650 0.000000 1.917570 
# 
# From -- ./inp_files/6905.got.cif
#   From: 2010.05.17/outbox.ucp.g08.bks.cvg/sg4_4_cif.got.tgz:6905.got - 2010.06.11 12:51:24.
