data_PCOD9119402
_publ_section_title
;
Structure prediction by ZEFSAII (Michael W. Deem and Ramdas Pophale) SiO2 
 PCOD9119402
Probable space group: P 21
;
_chemical_formula_sum "Si O2"
_cell_formula_units_Z 14
_cell_length_a 7.935058
_cell_length_b 7.106221
_cell_length_c 9.637113
_cell_angle_alpha 90.000000
_cell_angle_beta 67.640305
_cell_angle_gamma 90.000000
_cell_volume 502.562525
_symmetry_space_group_name_H-M "P 21"
_symmetry_group_IT_number 4
_symmetry_cell_setting 'monoclinic'
loop_
_space_group_symop_operation_xyz
x,y,z
-x,1/2+y,-z
loop_
_atom_site_type_symbol
_atom_site_label
_atom_site_fract_x
_atom_site_fract_y
_atom_site_fract_z
Si Si1 0.725162 0.273210 0.496187
Si Si2 0.747073 0.956224 0.647512
Si Si3 0.340087 0.803777 0.995168
Si Si4 0.957886 0.883012 0.130093
Si Si5 0.472064 0.124900 0.338674
Si Si6 0.990682 0.812685 0.799664
Si Si7 0.402460 0.189613 0.842520
O O1 0.600111 0.157243 0.429328
O O2 0.853857 0.123283 0.537678
O O3 0.850352 0.388670 0.349524
O O4 0.556209 0.068519 0.716623
O O5 0.416919 0.685342 0.837576
O O6 0.694981 0.768395 0.584861
O O7 0.812912 0.875628 0.772260
O O8 0.511741 0.298100 0.929716
O O9 0.311395 0.018209 0.956359
O O10 0.136488 0.760353 0.117350
O O11 0.754213 0.793080 0.197090
O O12 0.971542 0.088032 0.195839
O O13 0.982917 0.890655 0.955675
O O14 0.385399 0.918663 0.373377
#
# Coordination Sequence:
#
# PCOD9119402 Si02
#       7
#     2   2   2   2   2   2   2
#     4  12  27  51  85 116 172 226 291 357 433 538
#     4  11  29  52  78 125 170 229 293 355 450 520
#     4  11  26  47  80 124 173 218 297 354 447 519
#     4  12  26  51  84 126 174 223 291 369 438 532
#     4  11  25  50  78 119 163 229 286 356 437 522
#     4  12  30  54  80 130 170 229 298 363 452 522
#     4  11  27  47  81 124 172 226 282 366 441 525
#
# _framework density 27.857230000000001
#
# number of rings (size 3 to 8) (size 9 to 14) (size 15 to 20)
#    0.000    0.571    4.286    1.714   10.000    0.000 
#    2.571    0.000    0.000    0.000    0.000    0.000 
#    0.000    0.000    0.000    0.000    0.000    0.000 
#
# Total GULP energy -78325.434924 kJ/mol
# GULP energy per Si atom -5594.673923 kJ/mol
# Density = 2.779383 g / cm^3
# Si number density = 27.857230 Si / 1000 Ang^3
#
#
#
# Elastic Constant Matrix: (Units=GPa)
#
#
# Indices 1 2 3 4 5 6 
#
# 1 148.0674 76.8842 63.3985 0.0000 0.1008 0.0000
# 2 76.8842 177.9840 31.1869 0.0000 6.3906 0.0000
# 3 63.3985 31.1869 132.3692 0.0000 12.7504 0.0000
# 4 0.0000 0.0000 0.0000 41.1227 0.0000 12.1253
# 5 0.1008 6.3906 12.7504 0.0000 35.8513 0.0000
# 6 0.0000 0.0000 0.0000 12.1253 0.0000 47.6049
#
#
#
# Elastic Compliance Matrix: (Units=1/GPa)
#
#
# Indices 1 2 3 4 5 6 
#
# 1 0.010673 -0.003919 -0.004404 0.000000 0.002235 0.000000
# 2 -0.003919 0.007311 0.000289 0.000000 -0.001395 0.000000
# 3 -0.004404 0.000289 0.009940 0.000000 -0.003574 0.000000
# 4 0.000000 0.000000 0.000000 0.026292 0.000000 -0.006697
# 5 0.002235 -0.001395 -0.003574 0.000000 0.029406 0.000000
# 6 0.000000 0.000000 0.000000 -0.006697 0.000000 0.022712
#
#
# Mechanical properties :
#
#
# Convention : Reuss Voigt Hill
#
# Bulk Modulus (GPa) = 84.34483 89.03999 86.69241
# Shear Modulus (GPa) = 39.57167 44.04585 41.80876
#
# Velocity S-wave (km/s) = 3.77306 3.98065 3.87825
# Velocity P-wave (km/s) = 7.02315 7.29108 7.15837
#
# Compressibility (1/GPa) = 0.01185609
#
# Stress axis : x y z
#
# Youngs Moduli (GPa) = 93.69851 136.78400 100.60407
#
# Poissons Ratio (x) = 0.53604 0.44302
# Poissons Ratio (y) = 0.36719 -0.02906
# Poissons Ratio (z) = 0.41261 -0.03951
#
# Static dielectric constant tensor:
#      x y z
#    x 2.239590 0.000000 -0.195260 
#    y 0.000000 2.325920 0.000000 
#    z -0.195260 0.000000 2.437660 
# 
# From -- ./inp_files/10917.got.cif
#   From: 2010.05.17/outbox.cif.g08.bks.cpg/sg4_6_cif.got.tgz:10917.got - 2010.06.03 18:43:04.
