data_PCOD9119980
_publ_section_title
;
Structure prediction by ZEFSAII (Michael W. Deem and Ramdas Pophale) SiO2 
 PCOD9119980
Probable space group: C 2
;
_chemical_formula_sum "Si O2"
_cell_formula_units_Z 32
_cell_length_a 16.440155
_cell_length_b 20.620633
_cell_length_c 8.399758
_cell_angle_alpha 90.000000
_cell_angle_beta 148.013676
_cell_angle_gamma 90.000000
_cell_volume 1508.406670
_symmetry_space_group_name_H-M "C 2"
_symmetry_group_IT_number 5
_symmetry_cell_setting 'monoclinic'
loop_
_space_group_symop_operation_xyz
x,y,z
-x,y,-z
1/2+x,1/2+y,z
1/2-x,1/2+y,-z
loop_
_atom_site_type_symbol
_atom_site_label
_atom_site_fract_x
_atom_site_fract_y
_atom_site_fract_z
Si Si1 0.055423 0.514330 0.330397
Si Si2 0.773444 0.516404 0.048103
Si Si3 0.901896 0.902035 0.671099
Si Si4 0.598361 0.772538 0.830509
Si Si5 0.545062 0.632343 0.750051
Si Si6 0.352255 0.548737 0.634687
Si Si7 0.375065 0.869827 0.600419
Si Si8 0.317047 0.372794 0.052649
O O1 0.131682 0.511102 0.630720
O O2 0.183876 0.550157 0.436370
O O3 0.045854 0.440242 0.256294
O O4 0.883972 0.538526 0.086295
O O5 0.713059 0.443527 0.920251
O O6 0.648318 0.569005 0.891474
O O7 0.746974 0.865575 0.460459
O O8 0.866260 0.977702 0.578302
O O9 0.000000 0.903201 0.000000
O O10 0.007099 0.871252 0.710879
O O11 0.500000 0.775655 0.500000
O O12 0.621679 0.699369 0.933911
O O13 0.495130 0.812875 0.782099
O O14 0.750361 0.813769 0.043301
O O15 0.500000 0.650734 0.500000
O O16 0.395470 0.608914 0.596284
O O17 0.500000 0.549870 0.000000
O O18 0.279446 0.872222 0.274675
#
# Coordination Sequence:
#
# PCOD9119980 Si02
#       8
#     4   4   4   4   4   4   4   4
#     4   9  16  26  54  81  96 114 172 231 251 271
#     4  10  16  29  49  80 101 125 167 217 258 282
#     4   8  13  21  43  73  95 108 155 217 253 271
#     4   9  17  28  42  66 102 132 159 197 250 301
#     4  11  22  33  46  74 111 143 163 190 254 326
#     4  10  16  31  50  77  99 128 170 210 249 290
#     4   8  13  23  41  72  98 115 150 216 258 276
#     4   9  13  24  44  69  94 123 160 207 250 282
#
# _framework density 21.214437
#
# number of rings (size 3 to 8) (size 9 to 14) (size 15 to 20)
#    0.000    2.750    3.750    1.500    0.000    0.000 
#    0.000    1.875    0.000    3.000    9.750    0.000 
#    0.000    0.000    0.000    0.000    0.000    0.000 
#
# Total GULP energy -89170.630991 kJ/mol
# GULP energy per Si atom -5573.164437 kJ/mol
# Density = 2.116615 g / cm^3
# Si number density = 21.214437 Si / 1000 Ang^3
#
#
#
# Elastic Constant Matrix: (Units=GPa)
#
#
# Indices 1 2 3 4 5 6 
#
# 1 166.0577 75.5126 24.7226 0.0000 54.7665 0.0000
# 2 75.5126 119.2584 13.8045 0.0000 30.4636 0.0000
# 3 24.7226 13.8045 36.0178 0.0000 3.0394 0.0000
# 4 0.0000 0.0000 0.0000 9.8357 0.0000 5.0089
# 5 54.7665 30.4636 3.0394 0.0000 38.4940 0.0000
# 6 0.0000 0.0000 0.0000 5.0089 0.0000 36.6292
#
#
#
# Elastic Compliance Matrix: (Units=1/GPa)
#
#
# Indices 1 2 3 4 5 6 
#
# 1 0.014428 -0.004047 -0.006937 0.000000 -0.016777 0.000000
# 2 -0.004047 0.012062 -0.001536 0.000000 -0.003666 0.000000
# 3 -0.006937 -0.001536 0.032394 0.000000 0.008526 0.000000
# 4 0.000000 0.000000 0.000000 0.109281 0.000000 -0.014944
# 5 -0.016777 -0.003666 0.008526 0.000000 0.052075 0.000000
# 6 0.000000 0.000000 0.000000 -0.014944 0.000000 0.029344
#
#
# Mechanical properties :
#
#
# Convention : Reuss Voigt Hill
#
# Bulk Modulus (GPa) = 29.54583 61.04593 45.29588
# Shear Modulus (GPa) = 17.48826 30.81138 24.14982
#
# Velocity S-wave (km/s) = 2.87428 3.81514 3.37763
# Velocity P-wave (km/s) = 4.99727 6.94588 6.05054
#
# Compressibility (1/GPa) = 0.03384572
#
# Stress axis : x y z
#
# Youngs Moduli (GPa) = 69.30854 82.90414 30.86954
#
# Poissons Ratio (x) = 0.33554 0.21413
# Poissons Ratio (y) = 0.28051 0.04740
# Poissons Ratio (z) = 0.48077 0.12731
#
# Static dielectric constant tensor:
#      x y z
#    x 1.812820 0.000000 -0.034810 
#    y 0.000000 1.782790 0.000000 
#    z -0.034810 0.000000 1.840550 
# 
# From -- ./inp_files/25455.got.cif
#   From: 2010.05.17/outbox.cif.g08.bks.cpg/sg5_13_cif.got.tgz:25455.got - 2010.06.03 18:56:24.
