data_PCOD9119367
_publ_section_title
;
Structure prediction by ZEFSAII (Michael W. Deem and Ramdas Pophale) SiO2 
 PCOD9119367
Probable space group: P 21
;
_chemical_formula_sum "Si O2"
_cell_formula_units_Z 12
_cell_length_a 5.429045
_cell_length_b 10.841799
_cell_length_c 11.434128
_cell_angle_alpha 90.000000
_cell_angle_beta 52.542316
_cell_angle_gamma 90.000000
_cell_volume 534.244954
_symmetry_space_group_name_H-M "P 21"
_symmetry_group_IT_number 4
_symmetry_cell_setting 'monoclinic'
loop_
_space_group_symop_operation_xyz
x,y,z
-x,1/2+y,-z
loop_
_atom_site_type_symbol
_atom_site_label
_atom_site_fract_x
_atom_site_fract_y
_atom_site_fract_z
Si Si1 0.810617 0.104180 0.179992
Si Si2 0.137878 0.991649 0.310123
Si Si3 0.808129 0.761400 0.370991
Si Si4 0.751975 0.603770 0.169583
Si Si5 0.903429 0.035105 0.620177
Si Si6 0.776614 0.360475 0.326420
O O1 0.796192 0.241123 0.239420
O O2 0.475695 0.044928 0.244606
O O3 0.999441 0.031239 0.225657
O O4 0.009747 0.105095 0.004289
O O5 0.105191 0.843992 0.317715
O O6 0.904509 0.035588 0.480395
O O7 0.792295 0.722767 0.240605
O O8 0.515654 0.835772 0.504734
O O9 0.820121 0.629109 0.430504
O O10 0.396613 0.592189 0.232702
O O11 0.779007 0.478984 0.240252
O O12 0.957032 0.899117 0.657252
#
# Coordination Sequence:
#
# PCOD9119367 Si02
#       6
#     2   2   2   2   2   2
#     4  12  30  49  75 115 159 199 251 323 409 448
#     4  12  27  49  78 110 148 206 254 316 385 463
#     4  11  25  47  79 107 151 200 273 317 376 468
#     4  11  28  48  73 115 150 207 253 322 395 463
#     4  11  25  47  77 110 146 211 260 320 381 462
#     4  11  25  48  76 109 156 199 261 324 374 468
#
# _framework density 22.46161
#
# number of rings (size 3 to 8) (size 9 to 14) (size 15 to 20)
#    0.000    0.667    3.333    2.000   16.333    0.000 
#    0.000    0.000    0.000    0.000    0.000    0.000 
#    0.000    0.000    0.000    0.000    0.000    0.000 
#
# Total GULP energy -67011.864235 kJ/mol
# GULP energy per Si atom -5584.322020 kJ/mol
# Density = 2.241049 g / cm^3
# Si number density = 22.461610 Si / 1000 Ang^3
#
#
#
# Elastic Constant Matrix: (Units=GPa)
#
#
# Indices 1 2 3 4 5 6 
#
# 1 96.7739 38.5163 60.9153 0.0000 -0.9390 0.0000
# 2 38.5163 109.8077 64.9490 0.0000 5.6740 0.0000
# 3 60.9153 64.9490 174.9801 0.0000 -3.4699 0.0000
# 4 0.0000 0.0000 0.0000 25.8160 0.0000 9.5354
# 5 -0.9390 5.6740 -3.4699 0.0000 32.3899 0.0000
# 6 0.0000 0.0000 0.0000 9.5354 0.0000 52.5072
#
#
#
# Elastic Compliance Matrix: (Units=1/GPa)
#
#
# Indices 1 2 3 4 5 6 
#
# 1 0.013777 -0.002593 -0.003825 0.000000 0.000444 0.000000
# 2 -0.002593 0.012364 -0.003739 0.000000 -0.002642 0.000000
# 3 -0.003825 -0.003739 0.008463 0.000000 0.001451 0.000000
# 4 0.000000 0.000000 0.000000 0.041521 0.000000 -0.007540
# 5 0.000444 -0.002642 0.001451 0.000000 0.031505 0.000000
# 6 0.000000 0.000000 0.000000 -0.007540 0.000000 0.020414
#
#
# Mechanical properties :
#
#
# Convention : Reuss Voigt Hill
#
# Bulk Modulus (GPa) = 69.97570 78.92476 74.45023
# Shear Modulus (GPa) = 32.65348 36.62136 34.63742
#
# Velocity S-wave (km/s) = 3.81694 4.04220 3.93118
# Velocity P-wave (km/s) = 7.11663 7.54982 7.33642
#
# Compressibility (1/GPa) = 0.01429067
#
# Stress axis : x y z
#
# Youngs Moduli (GPa) = 72.58257 80.87673 118.15936
#
# Poissons Ratio (x) = 0.20972 0.45196
# Poissons Ratio (y) = 0.18822 0.44181
# Poissons Ratio (z) = 0.27763 0.30241
#
# Static dielectric constant tensor:
#      x y z
#    x 1.957050 0.000000 -0.008260 
#    y 0.000000 1.862990 0.000000 
#    z -0.008260 0.000000 1.775870 
# 
# From -- ./inp_files/1172.got.cif
#   From: 2010.05.17/outbox.cif.g08.bks.cpg/sg4_1_cif.got.tgz:1172.got - 2010.06.03 18:43:04.
