data_PCOD9119665
_publ_section_title
;
Structure prediction by ZEFSAII (Michael W. Deem and Ramdas Pophale) SiO2 
 PCOD9119665
Probable space group: P 21
;
_chemical_formula_sum "Si O2"
_cell_formula_units_Z 12
_cell_length_a 12.706048
_cell_length_b 8.395336
_cell_length_c 8.656463
_cell_angle_alpha 90.000000
_cell_angle_beta 147.744612
_cell_angle_gamma 90.000000
_cell_volume 492.812151
_symmetry_space_group_name_H-M "P 21"
_symmetry_group_IT_number 4
_symmetry_cell_setting 'monoclinic'
loop_
_space_group_symop_operation_xyz
x,y,z
-x,1/2+y,-z
loop_
_atom_site_type_symbol
_atom_site_label
_atom_site_fract_x
_atom_site_fract_y
_atom_site_fract_z
Si Si1 0.100246 0.376470 0.566851
Si Si2 0.466365 0.484262 0.225476
Si Si3 0.944181 0.773417 0.033377
Si Si4 0.836689 0.516523 0.469818
Si Si5 0.466870 0.163852 0.389711
Si Si6 0.233677 0.502838 0.418484
O O1 0.111292 0.196140 0.517770
O O2 0.168911 0.490391 0.513312
O O3 0.889308 0.413520 0.382164
O O4 0.264843 0.422867 0.898960
O O5 0.620472 0.518216 0.279204
O O6 0.536407 0.336216 0.417730
O O7 0.453229 0.620016 0.340273
O O8 0.112491 0.650697 0.200556
O O9 0.769626 0.674842 0.898701
O O10 0.838667 0.844982 0.754064
O O11 0.034782 0.920512 0.242006
O O12 0.545289 0.040147 0.358921
#
# Coordination Sequence:
#
# PCOD9119665 Si02
#       6
#     2   2   2   2   2   2
#     4  12  29  49  75 112 156 196 250 313 379 447
#     4  12  28  50  76 112 151 197 254 305 380 444
#     4  12  25  49  73 112 150 198 261 299 372 450
#     4  12  27  51  75 111 154 198 250 308 379 449
#     4  12  25  48  74 107 149 195 256 305 369 449
#     4  12  26  45  77 110 150 204 247 314 373 443
#
# _framework density 24.35005
#
# number of rings (size 3 to 8) (size 9 to 14) (size 15 to 20)
#    0.000    0.000    5.000    4.000    2.333    0.000 
#    0.000    1.667    0.000    0.000    0.000    0.000 
#    0.000    0.000    0.000    0.000    0.000    0.000 
#
# Total GULP energy -67088.276659 kJ/mol
# GULP energy per Si atom -5590.689722 kJ/mol
# Density = 2.429463 g / cm^3
# Si number density = 24.350050 Si / 1000 Ang^3
#
#
#
# Elastic Constant Matrix: (Units=GPa)
#
#
# Indices 1 2 3 4 5 6 
#
# 1 139.7179 13.9284 14.7320 0.0000 18.1692 0.0000
# 2 13.9284 87.7468 22.7934 0.0000 3.0844 0.0000
# 3 14.7320 22.7934 43.3099 0.0000 -1.1225 0.0000
# 4 0.0000 0.0000 0.0000 35.4990 0.0000 -7.6250
# 5 18.1692 3.0844 -1.1225 0.0000 26.2332 0.0000
# 6 0.0000 0.0000 0.0000 -7.6250 0.0000 56.3825
#
#
#
# Elastic Compliance Matrix: (Units=1/GPa)
#
#
# Indices 1 2 3 4 5 6 
#
# 1 0.008237 -0.000391 -0.002746 0.000000 -0.005776 0.000000
# 2 -0.000391 0.013310 -0.006913 0.000000 -0.001590 0.000000
# 3 -0.002746 -0.006913 0.027763 0.000000 0.003902 0.000000
# 4 0.000000 0.000000 0.000000 0.029013 0.000000 0.003924
# 5 -0.005776 -0.001590 0.003902 0.000000 0.042474 0.000000
# 6 0.000000 0.000000 0.000000 0.003924 0.000000 0.018267
#
#
# Mechanical properties :
#
#
# Convention : Reuss Voigt Hill
#
# Bulk Modulus (GPa) = 34.23488 41.52024 37.87756
# Shear Modulus (GPa) = 29.60333 38.24433 33.92383
#
# Velocity S-wave (km/s) = 3.49053 3.96739 3.73657
# Velocity P-wave (km/s) = 5.50773 6.17052 5.84852
#
# Compressibility (1/GPa) = 0.02920998
#
# Stress axis : x y z
#
# Youngs Moduli (GPa) = 121.40397 75.13045 36.01950
#
# Poissons Ratio (x) = 0.02939 0.09890
# Poissons Ratio (y) = 0.04750 0.24901
# Poissons Ratio (z) = 0.33333 0.51938
#
# Static dielectric constant tensor:
#      x y z
#    x 1.983570 0.000000 -0.006250 
#    y 0.000000 1.940210 0.000000 
#    z -0.006250 0.000000 1.939950 
# 
# From -- ./inp_files/8074.got.cif
#   From: 2010.05.17/outbox.cif.g08.bks.cpg/sg4_5_cif.got.tgz:8074.got - 2010.06.03 18:43:04.
