data_PCOD9119482
_publ_section_title
;
Structure prediction by ZEFSAII (Michael W. Deem and Ramdas Pophale) SiO2 
 PCOD9119482
Probable space group: P 21
;
_chemical_formula_sum "Si O2"
_cell_formula_units_Z 10
_cell_length_a 8.071969
_cell_length_b 9.337744
_cell_length_c 9.450189
_cell_angle_alpha 90.000000
_cell_angle_beta 145.264341
_cell_angle_gamma 90.000000
_cell_volume 405.861256
_symmetry_space_group_name_H-M "P 21"
_symmetry_group_IT_number 4
_symmetry_cell_setting 'monoclinic'
loop_
_space_group_symop_operation_xyz
x,y,z
-x,1/2+y,-z
loop_
_atom_site_type_symbol
_atom_site_label
_atom_site_fract_x
_atom_site_fract_y
_atom_site_fract_z
Si Si1 0.665916 0.310550 0.850705
Si Si2 0.831467 0.547701 0.150628
Si Si3 0.564167 0.088043 0.354223
Si Si4 0.759668 0.430712 0.635121
Si Si5 0.424192 0.489503 0.118288
O O1 0.394921 0.420337 0.668451
O O2 0.734488 0.304609 0.733279
O O3 0.605166 0.159420 0.871128
O O4 0.903515 0.413481 0.095253
O O5 0.654379 0.479254 0.154144
O O6 0.110401 0.634568 0.395334
O O7 0.621151 0.646378 0.906286
O O8 0.364367 0.063385 0.352858
O O9 0.555900 0.421943 0.355131
O O10 0.098345 0.450051 0.844120
#
# Coordination Sequence:
#
# PCOD9119482 Si02
#       5
#     2   2   2   2   2
#     4   8  23  38  59  77 127 144 182 234 291 319
#     4   9  19  35  59  79 113 145 191 227 272 338
#     4   8  18  40  53  73 123 144 167 247 271 313
#     4   9  22  35  58  86 113 145 196 229 270 348
#     4  12  20  36  65  83 108 158 186 227 292 322
#
# _framework density 24.638964000000001
#
# number of rings (size 3 to 8) (size 9 to 14) (size 15 to 20)
#    2.400    0.000    0.000    3.600    2.800    0.000 
#    0.000   10.000    0.000    0.000    0.000    0.000 
#    0.000    0.000    0.000    0.000    0.000    0.000 
#
# Total GULP energy -55723.519896 kJ/mol
# GULP energy per Si atom -5572.351990 kJ/mol
# Density = 2.458288 g / cm^3
# Si number density = 24.638964 Si / 1000 Ang^3
#
#
#
# Elastic Constant Matrix: (Units=GPa)
#
#
# Indices 1 2 3 4 5 6 
#
# 1 101.5351 -16.5186 44.8462 0.0000 5.6353 0.0000
# 2 -16.5186 60.1458 -1.7948 0.0000 1.3682 0.0000
# 3 44.8462 -1.7948 176.6285 0.0000 15.7712 0.0000
# 4 0.0000 0.0000 0.0000 28.0672 0.0000 1.7164
# 5 5.6353 1.3682 15.7712 0.0000 40.6827 0.0000
# 6 0.0000 0.0000 0.0000 1.7164 0.0000 18.6365
#
#
#
# Elastic Compliance Matrix: (Units=1/GPa)
#
#
# Indices 1 2 3 4 5 6 
#
# 1 0.011662 0.003131 -0.002875 0.000000 -0.000606 0.000000
# 2 0.003131 0.017488 -0.000545 0.000000 -0.000811 0.000000
# 3 -0.002875 -0.000545 0.006576 0.000000 -0.002133 0.000000
# 4 0.000000 0.000000 0.000000 0.035831 0.000000 -0.003300
# 5 -0.000606 -0.000811 -0.002133 0.000000 0.025519 0.000000
# 6 0.000000 0.000000 0.000000 -0.003300 0.000000 0.053962
#
#
# Mechanical properties :
#
#
# Convention : Reuss Voigt Hill
#
# Bulk Modulus (GPa) = 28.45085 43.48611 35.96848
# Shear Modulus (GPa) = 30.61256 38.26238 34.43747
#
# Velocity S-wave (km/s) = 3.52866 3.94499 3.74262
# Velocity P-wave (km/s) = 5.30792 6.19986 5.77115
#
# Compressibility (1/GPa) = 0.03514834
#
# Stress axis : x y z
#
# Youngs Moduli (GPa) = 85.75143 57.18110 152.05734
#
# Poissons Ratio (x) = -0.17902 0.43716
# Poissons Ratio (y) = -0.26847 0.08284
# Poissons Ratio (z) = 0.24653 0.03115
#
# Static dielectric constant tensor:
#      x y z
#    x 1.900450 0.000000 -0.012360 
#    y 0.000000 2.065590 0.000000 
#    z -0.012360 0.000000 2.083550 
# 
# From -- ./inp_files/1137.got.cif
#   From: 2010.05.17/outbox.cif.g08.bks.cpg/sg4_1_cif.got.tgz:1137.got - 2010.06.03 18:43:04.
