data_PCOD9119081
_publ_section_title
;
Structure prediction by ZEFSAII (Michael W. Deem and Ramdas Pophale) SiO2 
 PCOD9119081
Probable space group: P 21
;
_chemical_formula_sum "Si O2"
_cell_formula_units_Z 16
_cell_length_a 21.932935
_cell_length_b 5.019165
_cell_length_c 5.420382
_cell_angle_alpha 90.000000
_cell_angle_beta 96.927196
_cell_angle_gamma 90.000000
_cell_volume 592.347051
_symmetry_space_group_name_H-M "P 21"
_symmetry_group_IT_number 4
_symmetry_cell_setting 'monoclinic'
loop_
_space_group_symop_operation_xyz
x,y,z
-x,1/2+y,-z
loop_
_atom_site_type_symbol
_atom_site_label
_atom_site_fract_x
_atom_site_fract_y
_atom_site_fract_z
Si Si1 0.011229 0.667450 0.638805
Si Si2 0.116157 0.186208 0.196830
Si Si3 0.138962 0.677492 0.924467
Si Si4 0.239654 0.274442 0.465541
Si Si5 0.461875 0.047237 0.393429
Si Si6 0.396297 0.728145 0.000827
Si Si7 0.629639 0.931145 0.508284
Si Si8 0.738504 0.461568 0.034383
O O1 0.955174 0.739878 0.790795
O O2 0.006567 0.351919 0.600987
O O3 0.080346 0.750452 0.732100
O O4 0.165863 0.308270 0.413005
O O5 0.133504 0.366086 0.972384
O O6 0.127073 0.874016 0.154451
O O7 0.207944 0.747285 0.886155
O O8 0.296628 0.476264 0.456456
O O9 0.253194 0.167143 0.741119
O O10 0.251131 0.082473 0.232964
O O11 0.601254 0.059492 0.248201
O O12 0.396287 0.127087 0.489107
O O13 0.497103 0.808539 0.546690
O O14 0.447105 0.945856 0.108732
O O15 0.329949 0.862984 0.970845
O O16 0.393057 0.541265 0.240835
#
# Coordination Sequence:
#
# PCOD9119081 Si02
#       8
#     2   2   2   2   2   2   2   2
#     4  12  24  40  66 100 148 198 258 318 386 462
#     4  11  24  44  69 102 147 200 257 319 388 460
#     4  11  24  44  69 102 147 200 257 319 388 460
#     4  11  24  45  77 114 157 203 261 325 393 464
#     4  12  28  58  84 124 166 216 270 336 404 492
#     4  12  27  51  83 119 163 212 267 330 401 475
#     4  12  27  51  83 119 163 212 267 330 401 475
#     4  11  24  45  77 114 157 203 261 325 393 464
#
# _framework density 27.011192999999999
#
# number of rings (size 3 to 8) (size 9 to 14) (size 15 to 20)
#    0.000    0.500    2.500    5.250    0.000    5.000 
#    4.500    0.000    0.000    0.000    0.000    0.000 
#    0.000    0.000    0.000    0.000    0.000    0.000 
#
# Total GULP energy -89526.905126 kJ/mol
# GULP energy per Si atom -5595.431570 kJ/mol
# Density = 2.694971 g / cm^3
# Si number density = 27.011193 Si / 1000 Ang^3
#
#
#
# Elastic Constant Matrix: (Units=GPa)
#
#
# Indices 1 2 3 4 5 6 
#
# 1 120.2644 25.5099 47.0490 0.0000 33.2633 0.0000
# 2 25.5099 102.0459 45.0568 0.0000 7.6237 0.0000
# 3 47.0490 45.0568 115.9728 0.0000 16.0627 0.0000
# 4 0.0000 0.0000 0.0000 39.9698 0.0000 7.0002
# 5 33.2633 7.6237 16.0627 0.0000 61.0677 0.0000
# 6 0.0000 0.0000 0.0000 7.0002 0.0000 45.1481
#
#
#
# Elastic Compliance Matrix: (Units=1/GPa)
#
#
# Indices 1 2 3 4 5 6 
#
# 1 0.011299 -0.000883 -0.003532 0.000000 -0.005115 0.000000
# 2 -0.000883 0.011902 -0.004283 0.000000 0.000121 0.000000
# 3 -0.003532 -0.004283 0.011809 0.000000 -0.000647 0.000000
# 4 0.000000 0.000000 0.000000 0.025717 0.000000 -0.003987
# 5 -0.005115 0.000121 -0.000647 0.000000 0.019317 0.000000
# 6 0.000000 0.000000 0.000000 -0.003987 0.000000 0.022768
#
#
# Mechanical properties :
#
#
# Convention : Reuss Voigt Hill
#
# Bulk Modulus (GPa) = 56.77147 63.72382 60.24765
# Shear Modulus (GPa) = 39.65755 43.94829 41.80292
#
# Velocity S-wave (km/s) = 3.83585 4.03803 3.93824
# Velocity P-wave (km/s) = 6.37822 6.73675 6.55994
#
# Compressibility (1/GPa) = 0.01761448
#
# Stress axis : x y z
#
# Youngs Moduli (GPa) = 88.50366 84.01866 84.67836
#
# Poissons Ratio (x) = 0.07416 0.29912
# Poissons Ratio (y) = 0.07812 0.36266
# Poissons Ratio (z) = 0.31264 0.35984
#
# Static dielectric constant tensor:
#      x y z
#    x 2.246410 0.000000 0.014860 
#    y 0.000000 2.173360 0.000000 
#    z 0.014860 0.000000 2.091530 
# 
# From -- ./inp_files/4328.got.cif
#   From: 2010.05.17/outbox.cif.g08.bks.cpg/sg4_3_cif.got.tgz:4328.got - 2010.06.03 18:43:04.
