data_PCOD9119251
_publ_section_title
;
Structure prediction by ZEFSAII (Michael W. Deem and Ramdas Pophale) SiO2 
 PCOD9119251
Probable space group: P 21
;
_chemical_formula_sum "Si O2"
_cell_formula_units_Z 14
_cell_length_a 10.045963
_cell_length_b 9.890616
_cell_length_c 5.399254
_cell_angle_alpha 90.000000
_cell_angle_beta 87.051892
_cell_angle_gamma 90.000000
_cell_volume 535.763984
_symmetry_space_group_name_H-M "P 21"
_symmetry_group_IT_number 4
_symmetry_cell_setting 'monoclinic'
loop_
_space_group_symop_operation_xyz
x,y,z
-x,1/2+y,-z
loop_
_atom_site_type_symbol
_atom_site_label
_atom_site_fract_x
_atom_site_fract_y
_atom_site_fract_z
Si Si1 0.088776 0.319860 0.548693
Si Si2 0.543443 0.601558 0.805061
Si Si3 0.675494 0.072046 0.792260
Si Si4 0.797109 0.290617 0.408621
Si Si5 0.518824 0.366818 0.456032
Si Si6 0.104203 0.549452 0.874801
Si Si7 0.165273 0.158655 0.043020
O O1 0.139107 0.467251 0.624424
O O2 0.929921 0.341183 0.528894
O O3 0.132201 0.235020 0.788938
O O4 0.134981 0.242246 0.299602
O O5 0.420355 0.637418 0.991950
O O6 0.520966 0.447540 0.715801
O O7 0.531918 0.712670 0.582605
O O8 0.274915 0.688142 0.394358
O O9 0.801476 0.004989 0.915308
O O10 0.585384 0.955904 0.685436
O O11 0.672868 0.384212 0.352591
O O12 0.854346 0.204153 0.175746
O O13 0.682767 0.616160 0.932913
O O14 0.948425 0.542187 0.947194
#
# Coordination Sequence:
#
# PCOD9119251 Si02
#       7
#     2   2   2   2   2   2   2
#     4  11  26  46  81 107 155 200 263 324 390 466
#     4  12  29  46  75 116 152 210 260 329 392 477
#     4  12  25  47  79 105 159 198 269 317 403 468
#     4  11  25  50  72 116 150 201 258 330 393 468
#     4  12  26  47  73 110 157 200 254 326 390 469
#     4  11  24  49  72 109 147 205 257 324 391 466
#     4  11  27  47  74 113 150 200 265 320 391 466
#
# _framework density 26.130911000000001
#
# number of rings (size 3 to 8) (size 9 to 14) (size 15 to 20)
#    0.000    0.571    4.286    1.714   10.000    0.000 
#    5.143    0.000    0.000    0.000    0.000    0.000 
#    0.000    0.000    0.000    0.000    0.000    0.000 
#
# Total GULP energy -78360.234799 kJ/mol
# GULP energy per Si atom -5597.159628 kJ/mol
# Density = 2.607144 g / cm^3
# Si number density = 26.130911 Si / 1000 Ang^3
#
#
#
# Elastic Constant Matrix: (Units=GPa)
#
#
# Indices 1 2 3 4 5 6 
#
# 1 103.7303 24.4735 48.9136 0.0000 55.3955 0.0000
# 2 24.4735 63.8831 20.5078 0.0000 4.6110 0.0000
# 3 48.9136 20.5078 92.7537 0.0000 23.0101 0.0000
# 4 0.0000 0.0000 0.0000 39.5431 0.0000 1.4367
# 5 55.3955 4.6110 23.0101 0.0000 53.5771 0.0000
# 6 0.0000 0.0000 0.0000 1.4367 0.0000 35.4669
#
#
#
# Elastic Compliance Matrix: (Units=1/GPa)
#
#
# Indices 1 2 3 4 5 6 
#
# 1 0.028174 -0.006689 -0.007046 0.000000 -0.025529 0.000000
# 2 -0.006689 0.018439 -0.002095 0.000000 0.006229 0.000000
# 3 -0.007046 -0.002095 0.014671 0.000000 0.001164 0.000000
# 4 0.000000 0.000000 0.000000 0.025326 0.000000 -0.001026
# 5 -0.025529 0.006229 0.001164 0.000000 0.044024 0.000000
# 6 0.000000 0.000000 0.000000 -0.001026 0.000000 0.028237
#
#
# Mechanical properties :
#
#
# Convention : Reuss Voigt Hill
#
# Bulk Modulus (GPa) = 33.75448 49.79522 41.77485
# Shear Modulus (GPa) = 24.94959 36.81558 30.88259
#
# Velocity S-wave (km/s) = 3.09332 3.75759 3.44152
# Velocity P-wave (km/s) = 5.06988 6.15820 5.64035
#
# Compressibility (1/GPa) = 0.02962570
#
# Stress axis : x y z
#
# Youngs Moduli (GPa) = 35.49378 54.23301 68.16147
#
# Poissons Ratio (x) = 0.36276 0.48023
# Poissons Ratio (y) = 0.23742 0.14277
# Poissons Ratio (z) = 0.25007 0.11360
#
# Static dielectric constant tensor:
#      x y z
#    x 2.049700 0.000000 -0.001980 
#    y 0.000000 2.122890 0.000000 
#    z -0.001980 0.000000 2.062210 
# 
# From -- ./inp_files/2985.got.cif
#   From: 2010.05.17/outbox.cif.g08.bks.cpg/sg4_2_cif.got.tgz:2985.got - 2010.06.03 18:43:04.
