data_PCOD9119209
_publ_section_title
;
Structure prediction by ZEFSAII (Michael W. Deem and Ramdas Pophale) SiO2 
 PCOD9119209
Probable space group: P 21
;
_chemical_formula_sum "Si O2"
_cell_formula_units_Z 16
_cell_length_a 11.316147
_cell_length_b 5.413242
_cell_length_c 11.025993
_cell_angle_alpha 90.000000
_cell_angle_beta 73.233383
_cell_angle_gamma 90.000000
_cell_volume 646.706098
_symmetry_space_group_name_H-M "P 21"
_symmetry_group_IT_number 4
_symmetry_cell_setting 'monoclinic'
loop_
_space_group_symop_operation_xyz
x,y,z
-x,1/2+y,-z
loop_
_atom_site_type_symbol
_atom_site_label
_atom_site_fract_x
_atom_site_fract_y
_atom_site_fract_z
Si Si1 0.985229 0.098900 0.925674
Si Si2 0.286987 0.631627 0.108515
Si Si3 0.363096 0.573946 0.829381
Si Si4 0.583754 0.680302 0.342602
Si Si5 0.189639 0.846726 0.712044
Si Si6 0.249852 0.129032 0.254208
Si Si7 0.413274 0.307098 0.391502
Si Si8 0.011620 0.641532 0.576038
O O1 0.853126 0.131440 0.901220
O O2 0.087091 0.036100 0.792026
O O3 0.015907 0.350898 0.989726
O O4 0.300536 0.368157 0.169285
O O5 0.299448 0.874006 0.186623
O O6 0.373674 0.640130 0.965073
O O7 0.357657 0.287552 0.796882
O O8 0.238044 0.684196 0.810173
O O9 0.479721 0.659990 0.713934
O O10 0.683801 0.481481 0.359220
O O11 0.449677 0.584263 0.344654
O O12 0.572855 0.832769 0.468729
O O13 0.133870 0.686543 0.619551
O O14 0.289322 0.187005 0.380746
O O15 0.102254 0.125344 0.296739
O O16 0.008590 0.388757 0.499470
#
# Coordination Sequence:
#
# PCOD9119209 Si02
#       8
#     2   2   2   2   2   2   2   2
#     4  12  24  43  74 108 148 193 245 306 359 439
#     4  12  27  48  73 110 155 197 250 301 372 461
#     4  11  26  46  76 105 143 192 256 312 377 430
#     4  11  24  47  76 109 141 187 259 325 375 434
#     4  11  26  41  73 105 142 192 244 308 379 438
#     4  12  29  48  75 108 158 203 241 304 382 455
#     4  11  26  46  76 107 143 194 253 317 378 441
#     4  12  28  47  71 108 152 198 248 303 376 458
#
# _framework density 24.740760999999999
#
# number of rings (size 3 to 8) (size 9 to 14) (size 15 to 20)
#    0.000    0.500    3.750    3.000    8.750    1.000 
#    0.000    0.000    0.000    0.000    0.000    0.000 
#    0.000    0.000    0.000    0.000    0.000    0.000 
#
# Total GULP energy -89446.778848 kJ/mol
# GULP energy per Si atom -5590.423678 kJ/mol
# Density = 2.468445 g / cm^3
# Si number density = 24.740761 Si / 1000 Ang^3
#
#
#
# Elastic Constant Matrix: (Units=GPa)
#
#
# Indices 1 2 3 4 5 6 
#
# 1 57.9827 9.5106 -3.8806 0.0000 4.3564 0.0000
# 2 9.5106 141.0074 55.6823 0.0000 12.1029 0.0000
# 3 -3.8806 55.6823 86.9112 0.0000 5.8158 0.0000
# 4 0.0000 0.0000 0.0000 45.9383 0.0000 -0.4185
# 5 4.3564 12.1029 5.8158 0.0000 34.8700 0.0000
# 6 0.0000 0.0000 0.0000 -0.4185 0.0000 34.2138
#
#
#
# Elastic Compliance Matrix: (Units=1/GPa)
#
#
# Indices 1 2 3 4 5 6 
#
# 1 0.017842 -0.001878 0.002129 0.000000 -0.001932 0.000000
# 2 -0.001878 0.009879 -0.006269 0.000000 -0.002148 0.000000
# 3 0.002129 -0.006269 0.015665 0.000000 -0.000703 0.000000
# 4 0.000000 0.000000 0.000000 0.021771 0.000000 0.000266
# 5 -0.001932 -0.002148 -0.000703 0.000000 0.029782 0.000000
# 6 0.000000 0.000000 0.000000 0.000266 0.000000 0.029231
#
#
# Mechanical properties :
#
#
# Convention : Reuss Voigt Hill
#
# Bulk Modulus (GPa) = 31.89867 45.39176 38.64522
# Shear Modulus (GPa) = 34.09348 37.97702 36.03525
#
# Velocity S-wave (km/s) = 3.71621 3.92216 3.82057
# Velocity P-wave (km/s) = 5.59775 6.23681 5.92590
#
# Compressibility (1/GPa) = 0.03134927
#
# Stress axis : x y z
#
# Youngs Moduli (GPa) = 56.04643 101.22965 63.83822
#
# Poissons Ratio (x) = 0.19016 -0.13594
# Poissons Ratio (y) = 0.10528 0.40021
# Poissons Ratio (z) = -0.11935 0.63462
#
# Static dielectric constant tensor:
#      x y z
#    x 1.919200 0.000000 -0.004220 
#    y 0.000000 2.182900 0.000000 
#    z -0.004220 0.000000 1.981150 
# 
# From -- ./inp_files/7365.got.cif
#   From: 2010.05.17/outbox.cif.g08.bks.cpg/sg4_4_cif.got.tgz:7365.got - 2010.06.03 18:43:04.
