data_PCOD9119038
_publ_section_title
;
Structure prediction by ZEFSAII (Michael W. Deem and Ramdas Pophale) SiO2 
 PCOD9119038
Probable space group: P 21
;
_chemical_formula_sum "Si O2"
_cell_formula_units_Z 8
_cell_length_a 6.706305
_cell_length_b 5.065184
_cell_length_c 12.176013
_cell_angle_alpha 90.000000
_cell_angle_beta 59.980140
_cell_angle_gamma 90.000000
_cell_volume 358.118961
_symmetry_space_group_name_H-M "P 21"
_symmetry_group_IT_number 4
_symmetry_cell_setting 'monoclinic'
loop_
_space_group_symop_operation_xyz
x,y,z
-x,1/2+y,-z
loop_
_atom_site_type_symbol
_atom_site_label
_atom_site_fract_x
_atom_site_fract_y
_atom_site_fract_z
Si Si1 0.463974 0.225690 0.580203
Si Si2 0.775629 0.299559 0.105317
Si Si3 0.559323 0.302516 0.786716
Si Si4 0.005597 0.923977 0.182192
O O1 0.521563 0.429832 0.467728
O O2 0.628136 0.274905 0.639676
O O3 0.213321 0.300075 0.696451
O O4 0.600390 0.545845 0.148596
O O5 0.606120 0.050752 0.151364
O O6 0.932108 0.302532 0.953854
O O7 0.936061 0.226508 0.167108
O O8 0.775142 0.361534 0.803860
#
# Coordination Sequence:
#
# PCOD9119038 Si02
#       4
#     2   2   2   2
#     4  11  25  43  62  93 133 178 234 279 324 403
#     4  11  24  42  68 107 134 168 228 282 348 423
#     4  11  25  43  69 101 135 177 229 281 347 419
#     4  11  24  44  71  97 140 183 217 288 353 397
#
# _framework density 22.338944999999999
#
# number of rings (size 3 to 8) (size 9 to 14) (size 15 to 20)
#    0.000    1.000    0.000    7.500    0.000   12.000 
#    0.000    0.000    0.000    0.000    0.000    0.000 
#    0.000    0.000    0.000    0.000    0.000    0.000 
#
# Total GULP energy -44701.338747 kJ/mol
# GULP energy per Si atom -5587.667343 kJ/mol
# Density = 2.228810 g / cm^3
# Si number density = 22.338945 Si / 1000 Ang^3
#
#
#
# Elastic Constant Matrix: (Units=GPa)
#
#
# Indices 1 2 3 4 5 6 
#
# 1 188.4317 39.9227 31.1252 0.0000 21.1600 0.0000
# 2 39.9227 131.4362 7.6071 0.0000 -3.5515 0.0000
# 3 31.1252 7.6071 88.1423 0.0000 5.7291 0.0000
# 4 0.0000 0.0000 0.0000 46.6548 0.0000 0.8610
# 5 21.1600 -3.5515 5.7291 0.0000 28.3450 0.0000
# 6 0.0000 0.0000 0.0000 0.8610 0.0000 32.6193
#
#
#
# Elastic Compliance Matrix: (Units=1/GPa)
#
#
# Indices 1 2 3 4 5 6 
#
# 1 0.006577 -0.002021 -0.001836 0.000000 -0.004791 0.000000
# 2 -0.002021 0.008302 -0.000171 0.000000 0.002583 0.000000
# 3 -0.001836 -0.000171 0.012080 0.000000 -0.001092 0.000000
# 4 0.000000 0.000000 0.000000 0.021444 0.000000 -0.000566
# 5 -0.004791 0.002583 -0.001092 0.000000 0.039401 0.000000
# 6 0.000000 0.000000 0.000000 -0.000566 0.000000 0.030672
#
#
# Mechanical properties :
#
#
# Convention : Reuss Voigt Hill
#
# Bulk Modulus (GPa) = 52.90540 62.81336 57.85938
# Shear Modulus (GPa) = 37.64170 43.48081 40.56126
#
# Velocity S-wave (km/s) = 4.10936 4.41660 4.26575
# Velocity P-wave (km/s) = 6.80075 7.36124 7.08654
#
# Compressibility (1/GPa) = 0.01890166
#
# Stress axis : x y z
#
# Youngs Moduli (GPa) = 152.05647 120.45694 82.78477
#
# Poissons Ratio (x) = 0.24341 0.15203
# Poissons Ratio (y) = 0.30727 0.01414
# Poissons Ratio (z) = 0.27925 0.02058
#
# Static dielectric constant tensor:
#      x y z
#    x 1.871690 0.000000 0.044780 
#    y 0.000000 1.927430 0.000000 
#    z 0.044780 0.000000 1.830370 
# 
# From -- ./inp_files/10217.got.cif
#   From: 2010.05.17/outbox.cif.g08.bks.cpg/sg4_6_cif.got.tgz:10217.got - 2010.06.03 18:43:04.
