data_PCOD9119336
_publ_section_title
;
Structure prediction by ZEFSAII (Michael W. Deem and Ramdas Pophale) SiO2 
 PCOD9119336
Probable space group: P 21
;
_chemical_formula_sum "Si O2"
_cell_formula_units_Z 16
_cell_length_a 22.396953
_cell_length_b 4.906697
_cell_length_c 15.771106
_cell_angle_alpha 90.000000
_cell_angle_beta 159.561693
_cell_angle_gamma 90.000000
_cell_volume 605.219411
_symmetry_space_group_name_H-M "P 21"
_symmetry_group_IT_number 4
_symmetry_cell_setting 'monoclinic'
loop_
_space_group_symop_operation_xyz
x,y,z
-x,1/2+y,-z
loop_
_atom_site_type_symbol
_atom_site_label
_atom_site_fract_x
_atom_site_fract_y
_atom_site_fract_z
Si Si1 0.250252 0.280950 0.502060
Si Si2 0.220392 0.163401 0.759541
Si Si3 0.612314 0.037670 0.145979
Si Si4 0.095904 0.455677 0.930099
Si Si5 0.415020 0.769041 0.139322
Si Si6 0.577352 0.331276 0.651391
Si Si7 0.982451 0.113663 0.922688
Si Si8 0.078816 0.397443 0.723376
O O1 0.289929 0.439963 0.641079
O O2 0.415468 0.142895 0.678409
O O3 0.181439 0.500760 0.343515
O O4 0.092205 0.083207 0.309328
O O5 0.103835 0.036487 0.530578
O O6 0.293487 0.435814 0.813126
O O7 0.085401 0.183089 0.657001
O O8 0.367119 0.002317 0.006283
O O9 0.440559 0.850878 0.919942
O O10 0.101586 0.295125 0.848719
O O11 0.110618 0.259706 0.029195
O O12 0.235444 0.693772 0.110168
O O13 0.454279 0.858552 0.288900
O O14 0.245286 0.583758 0.925127
O O15 0.542775 0.613287 0.557531
O O16 0.935009 0.349223 0.925150
#
# Coordination Sequence:
#
# PCOD9119336 Si02
#       8
#     2   2   2   2   2   2   2   2
#     4  12  27  49  82 118 165 202 269 335 397 473
#     4  12  24  45  78 110 160 213 261 326 386 478
#     4  12  28  49  78 119 165 213 266 323 400 473
#     4  11  28  50  83 118 158 206 269 327 403 477
#     4  11  27  49  73 117 152 212 262 327 394 473
#     4  11  30  53  80 114 159 210 266 328 392 468
#     4  12  29  51  81 120 155 205 265 334 404 472
#     4  11  25  46  75 112 158 209 266 318 396 470
#
# _framework density 26.436693000000002
#
# number of rings (size 3 to 8) (size 9 to 14) (size 15 to 20)
#    0.000    0.500    5.000    0.750    8.750    4.000 
#    0.000    0.000    0.000    0.000    0.000    0.000 
#    0.000    0.000    0.000    0.000    0.000    0.000 
#
# Total GULP energy -89672.296079 kJ/mol
# GULP energy per Si atom -5604.518505 kJ/mol
# Density = 2.637652 g / cm^3
# Si number density = 26.436693 Si / 1000 Ang^3
#
#
#
# Elastic Constant Matrix: (Units=GPa)
#
#
# Indices 1 2 3 4 5 6 
#
# 1 169.7828 28.3286 60.0868 0.0000 -13.8180 0.0000
# 2 28.3286 68.8838 15.4395 0.0000 -2.9513 0.0000
# 3 60.0868 15.4395 109.2661 0.0000 12.7536 0.0000
# 4 0.0000 0.0000 0.0000 40.0073 0.0000 9.1215
# 5 -13.8180 -2.9513 12.7536 0.0000 60.7134 0.0000
# 6 0.0000 0.0000 0.0000 9.1215 0.0000 34.4776
#
#
#
# Elastic Compliance Matrix: (Units=1/GPa)
#
#
# Indices 1 2 3 4 5 6 
#
# 1 0.008036 -0.002201 -0.004417 0.000000 0.002650 0.000000
# 2 -0.002201 0.015681 -0.001062 0.000000 0.000484 0.000000
# 3 -0.004417 -0.001062 0.012153 0.000000 -0.003610 0.000000
# 4 0.000000 0.000000 0.000000 0.026600 0.000000 -0.007037
# 5 0.002650 0.000484 -0.003610 0.000000 0.017856 0.000000
# 6 0.000000 0.000000 0.000000 -0.007037 0.000000 0.030866
#
#
# Mechanical properties :
#
#
# Convention : Reuss Voigt Hill
#
# Bulk Modulus (GPa) = 48.75932 61.73807 55.24869
# Shear Modulus (GPa) = 37.48428 43.31151 40.39790
#
# Velocity S-wave (km/s) = 3.76957 4.05200 3.91333
# Velocity P-wave (km/s) = 6.11801 6.73019 6.43139
#
# Compressibility (1/GPa) = 0.02050890
#
# Stress axis : x y z
#
# Youngs Moduli (GPa) = 124.43709 63.77054 82.28713
#
# Poissons Ratio (x) = 0.14037 0.36350
# Poissons Ratio (y) = 0.27392 0.08738
# Poissons Ratio (z) = 0.54970 0.06771
#
# Static dielectric constant tensor:
#      x y z
#    x 2.062930 0.000000 0.007950 
#    y 0.000000 2.122920 0.000000 
#    z 0.007950 0.000000 2.072320 
# 
# From -- ./inp_files/14417.got.cif
#   From: 2010.05.17/outbox.cif.g08.bks.cpg/sg4_8_cif.got.tgz:14417.got - 2010.06.03 18:43:04.
