data_PCOD9119205
_publ_section_title
;
Structure prediction by ZEFSAII (Michael W. Deem and Ramdas Pophale) SiO2 
 PCOD9119205
Probable space group: P 21
;
_chemical_formula_sum "Si O2"
_cell_formula_units_Z 16
_cell_length_a 7.956577
_cell_length_b 14.378680
_cell_length_c 5.720051
_cell_angle_alpha 90.000000
_cell_angle_beta 68.283518
_cell_angle_gamma 90.000000
_cell_volume 607.957384
_symmetry_space_group_name_H-M "P 21"
_symmetry_group_IT_number 4
_symmetry_cell_setting 'monoclinic'
loop_
_space_group_symop_operation_xyz
x,y,z
-x,1/2+y,-z
loop_
_atom_site_type_symbol
_atom_site_label
_atom_site_fract_x
_atom_site_fract_y
_atom_site_fract_z
Si Si1 0.267053 0.121430 0.463438
Si Si2 0.385333 0.441629 0.465104
Si Si3 0.960867 0.178512 0.306830
Si Si4 0.075662 0.008635 0.926052
Si Si5 0.528190 0.994868 0.075730
Si Si6 0.064280 0.366172 0.345171
Si Si7 0.255264 0.848180 0.141255
Si Si8 0.400344 0.754616 0.660517
O O1 0.066896 0.153699 0.491381
O O2 0.237516 0.052913 0.692756
O O3 0.412324 0.200082 0.440321
O O4 0.359879 0.063435 0.207223
O O5 0.372058 0.493236 0.722043
O O6 0.209167 0.383293 0.473307
O O7 0.542714 0.362661 0.404210
O O8 0.405811 0.507514 0.224601
O O9 0.075019 0.272868 0.182024
O O10 0.748852 0.202699 0.419019
O O11 0.993800 0.091575 0.120417
O O12 0.944596 0.957376 0.808866
O O13 0.152920 0.923836 0.034766
O O14 0.450577 0.889873 0.101432
O O15 0.874419 0.348873 0.570865
O O16 0.297166 0.757636 0.966098
#
# Coordination Sequence:
#
# PCOD9119205 Si02
#       8
#     2   2   2   2   2   2   2   2
#     4  12  26  48  72 116 161 212 271 346 414 494
#     4  11  27  48  82 117 155 219 280 338 420 502
#     4  12  27  48  77 120 157 215 280 338 420 499
#     4  12  26  50  81 114 164 219 275 348 424 500
#     4  11  24  47  75 110 158 209 267 341 417 488
#     4  12  26  49  82 116 163 222 279 342 422 510
#     4  11  24  50  79 107 161 217 273 336 428 494
#     4  11  26  48  74 114 157 209 271 343 411 493
#
# _framework density 26.317633000000001
#
# number of rings (size 3 to 8) (size 9 to 14) (size 15 to 20)
#    0.000    0.500    5.000    2.250    5.250    2.000 
#    2.250    0.000    0.000    0.000    0.000    0.000 
#    0.000    0.000    0.000    0.000    0.000    0.000 
#
# Total GULP energy -89419.410174 kJ/mol
# GULP energy per Si atom -5588.713136 kJ/mol
# Density = 2.625773 g / cm^3
# Si number density = 26.317633 Si / 1000 Ang^3
#
#
#
# Elastic Constant Matrix: (Units=GPa)
#
#
# Indices 1 2 3 4 5 6 
#
# 1 137.6281 47.0516 46.4614 0.0000 38.7590 0.0000
# 2 47.0516 76.7484 22.9958 0.0000 16.8214 0.0000
# 3 46.4614 22.9958 117.2722 0.0000 17.4683 0.0000
# 4 0.0000 0.0000 0.0000 43.5495 0.0000 3.8250
# 5 38.7590 16.8214 17.4683 0.0000 36.4584 0.0000
# 6 0.0000 0.0000 0.0000 3.8250 0.0000 51.8013
#
#
#
# Elastic Compliance Matrix: (Units=1/GPa)
#
#
# Indices 1 2 3 4 5 6 
#
# 1 0.012549 -0.004751 -0.002562 0.000000 -0.009921 0.000000
# 2 -0.004751 0.016738 -0.001079 0.000000 -0.002155 0.000000
# 3 -0.002562 -0.001079 0.009987 0.000000 -0.001563 0.000000
# 4 0.000000 0.000000 0.000000 0.023112 0.000000 -0.001707
# 5 -0.009921 -0.002155 -0.001563 0.000000 0.039719 0.000000
# 6 0.000000 0.000000 0.000000 -0.001707 0.000000 0.019431
#
#
# Mechanical properties :
#
#
# Convention : Reuss Voigt Hill
#
# Bulk Modulus (GPa) = 44.46584 62.74070 53.60327
# Shear Modulus (GPa) = 34.28950 40.70450 37.49700
#
# Velocity S-wave (km/s) = 3.61350 3.93703 3.77873
# Velocity P-wave (km/s) = 5.86024 6.67521 6.28096
#
# Compressibility (1/GPa) = 0.02248917
#
# Stress axis : x y z
#
# Youngs Moduli (GPa) = 79.68496 59.74464 100.13303
#
# Poissons Ratio (x) = 0.28386 0.25658
# Poissons Ratio (y) = 0.37861 0.10802
# Poissons Ratio (z) = 0.20418 0.06445
#
# Static dielectric constant tensor:
#      x y z
#    x 2.143650 0.000000 0.040400 
#    y 0.000000 2.101710 0.000000 
#    z 0.040400 0.000000 2.138280 
# 
# From -- ./inp_files/1938.got.cif
#   From: 2010.05.17/outbox.cif.g08.bks.cpg/sg4_1_cif.got.tgz:1938.got - 2010.06.03 18:43:04.
