data_PCOD9119198
_publ_section_title
;
Structure prediction by ZEFSAII (Michael W. Deem and Ramdas Pophale) SiO2 
 PCOD9119198
Probable space group: P 21
;
_chemical_formula_sum "Si O2"
_cell_formula_units_Z 14
_cell_length_a 5.357889
_cell_length_b 8.271150
_cell_length_c 12.180935
_cell_angle_alpha 90.000000
_cell_angle_beta 91.531107
_cell_angle_gamma 90.000000
_cell_volume 539.616411
_symmetry_space_group_name_H-M "P 21"
_symmetry_group_IT_number 4
_symmetry_cell_setting 'monoclinic'
loop_
_space_group_symop_operation_xyz
x,y,z
-x,1/2+y,-z
loop_
_atom_site_type_symbol
_atom_site_label
_atom_site_fract_x
_atom_site_fract_y
_atom_site_fract_z
Si Si1 0.804931 0.294830 0.784230
Si Si2 0.144275 0.097891 0.363847
Si Si3 0.493588 0.533396 0.903975
Si Si4 0.166745 0.618913 0.433250
Si Si5 0.529970 0.339938 0.415244
Si Si6 0.212072 0.822474 0.781582
Si Si7 0.006718 0.557833 0.041098
O O1 0.906718 0.442366 0.711344
O O2 0.547674 0.375079 0.828478
O O3 0.826229 0.150228 0.696124
O O4 0.943696 0.224809 0.892473
O O5 0.420479 0.170007 0.368570
O O6 0.071747 0.097123 0.491554
O O7 0.982768 0.231557 0.298689
O O8 0.919577 0.425486 0.127651
O O9 0.272445 0.508924 0.990027
O O10 0.769752 0.570903 0.956344
O O11 0.319897 0.456473 0.457218
O O12 0.297972 0.778100 0.485240
O O13 0.642890 0.424916 0.308906
O O14 0.389736 0.691512 0.841450
#
# Coordination Sequence:
#
# PCOD9119198 Si02
#       7
#     2   2   2   2   2   2   2
#     4  12  27  51  83 117 160 221 269 347 421 491
#     4  11  24  47  77 114 161 205 264 331 415 501
#     4  12  29  54  81 118 163 216 281 348 412 485
#     4  11  26  45  76 117 156 208 265 327 412 509
#     4  11  24  47  74 113 161 203 263 333 407 507
#     4  11  27  49  77 108 159 210 259 343 413 479
#     4  12  31  53  82 121 162 215 291 343 408 496
#
# _framework density 25.944353
#
# number of rings (size 3 to 8) (size 9 to 14) (size 15 to 20)
#    0.000    0.571    1.429    4.286    6.000   11.429 
#    2.571    0.000    0.000    0.000    0.000    0.000 
#    0.000    0.000    0.000    0.000    0.000    0.000 
#
# Total GULP energy -78322.367645 kJ/mol
# GULP energy per Si atom -5594.454832 kJ/mol
# Density = 2.588530 g / cm^3
# Si number density = 25.944353 Si / 1000 Ang^3
#
#
#
# Elastic Constant Matrix: (Units=GPa)
#
#
# Indices 1 2 3 4 5 6 
#
# 1 92.9822 27.1035 56.2884 0.0000 -9.7738 0.0000
# 2 27.1035 93.0352 37.4214 0.0000 -3.4178 0.0000
# 3 56.2884 37.4214 158.2041 0.0000 -20.1338 0.0000
# 4 0.0000 0.0000 0.0000 47.9556 0.0000 -6.7217
# 5 -9.7738 -3.4178 -20.1338 0.0000 40.8765 0.0000
# 6 0.0000 0.0000 0.0000 -6.7217 0.0000 56.1284
#
#
#
# Elastic Compliance Matrix: (Units=1/GPa)
#
#
# Indices 1 2 3 4 5 6 
#
# 1 0.014187 -0.002341 -0.004361 0.000000 0.001049 0.000000
# 2 -0.002341 0.012272 -0.002145 0.000000 -0.000590 0.000000
# 3 -0.004361 -0.002145 0.008774 0.000000 0.003100 0.000000
# 4 0.000000 0.000000 0.000000 0.021209 0.000000 0.002540
# 5 0.001049 -0.000590 0.003100 0.000000 0.026192 0.000000
# 6 0.000000 0.000000 0.000000 0.002540 0.000000 0.018120
#
#
# Mechanical properties :
#
#
# Convention : Reuss Voigt Hill
#
# Bulk Modulus (GPa) = 57.01083 65.09423 61.05253
# Shear Modulus (GPa) = 40.22740 43.88597 42.05668
#
# Velocity S-wave (km/s) = 3.94194 4.11730 4.03057
# Velocity P-wave (km/s) = 6.53763 6.90994 6.72636
#
# Compressibility (1/GPa) = 0.01754053
#
# Stress axis : x y z
#
# Youngs Moduli (GPa) = 70.48718 81.48892 113.96908
#
# Poissons Ratio (x) = 0.19073 0.49697
# Poissons Ratio (y) = 0.16498 0.24447
# Poissons Ratio (z) = 0.30737 0.17480
#
# Static dielectric constant tensor:
#      x y z
#    x 2.057840 0.000000 0.022720 
#    y 0.000000 2.058940 0.000000 
#    z 0.022720 0.000000 2.039590 
# 
# From -- ./inp_files/2466.got.cif
#   From: 2010.05.17/outbox.cif.g08.bks.cpg/sg4_2_cif.got.tgz:2466.got - 2010.06.03 18:43:04.
