data_PCOD9119351
_publ_section_title
;
Structure prediction by ZEFSAII (Michael W. Deem and Ramdas Pophale) SiO2 
 PCOD9119351
Probable space group: P 21
;
_chemical_formula_sum "Si O2"
_cell_formula_units_Z 16
_cell_length_a 17.400710
_cell_length_b 9.571325
_cell_length_c 8.756128
_cell_angle_alpha 90.000000
_cell_angle_beta 29.334387
_cell_angle_gamma 90.000000
_cell_volume 714.436560
_symmetry_space_group_name_H-M "P 21"
_symmetry_group_IT_number 4
_symmetry_cell_setting 'monoclinic'
loop_
_space_group_symop_operation_xyz
x,y,z
-x,1/2+y,-z
loop_
_atom_site_type_symbol
_atom_site_label
_atom_site_fract_x
_atom_site_fract_y
_atom_site_fract_z
Si Si1 0.957651 0.176970 0.562359
Si Si2 0.326668 0.053530 0.315419
Si Si3 0.637766 0.250076 0.274671
Si Si4 0.504320 0.506741 0.661311
Si Si5 0.359381 0.590994 0.409374
Si Si6 0.865322 0.286378 0.390728
Si Si7 0.157373 0.398037 0.334307
Si Si8 0.155636 0.339516 0.675882
O O1 0.922511 0.225776 0.451432
O O2 0.117383 0.244264 0.344286
O O3 0.942656 0.010346 0.588543
O O4 0.816503 0.238914 0.909003
O O5 0.386267 0.010090 0.380532
O O6 0.195597 0.944497 0.490212
O O7 0.263022 0.209581 0.442425
O O8 0.472963 0.049348 0.948095
O O9 0.578915 0.406571 0.404240
O O10 0.627202 0.170894 0.454863
O O11 0.533818 0.160647 0.336066
O O12 0.337569 0.440226 0.999761
O O13 0.276503 0.693932 0.430781
O O14 0.250751 0.453854 0.607743
O O15 0.006260 0.285290 0.025653
O O16 0.111144 0.408903 0.591453
#
# Coordination Sequence:
#
# PCOD9119351 Si02
#       8
#     2   2   2   2   2   2   2   2
#     4  11  27  45  70  97 147 182 228 288 349 417
#     4  12  26  45  75 104 138 185 239 290 350 414
#     4  11  26  43  70 100 140 181 232 282 353 415
#     4  11  25  47  67 106 137 183 233 290 347 418
#     4  12  23  47  70  99 141 182 232 292 343 418
#     4  12  26  46  69 104 139 186 233 288 351 414
#     4  11  25  48  67 103 140 182 232 289 348 417
#     4  12  26  43  74 103 140 181 239 287 347 419
#
# _framework density 22.39527
#
# number of rings (size 3 to 8) (size 9 to 14) (size 15 to 20)
#    0.000    0.500    3.750    3.750    8.750    1.000 
#    0.000    0.000    0.000    0.000    0.000    0.000 
#    0.000    0.000    0.000    0.000    0.000    0.000 
#
# Total GULP energy -89661.512013 kJ/mol
# GULP energy per Si atom -5603.844501 kJ/mol
# Density = 2.234430 g / cm^3
# Si number density = 22.395270 Si / 1000 Ang^3
#
#
#
# Elastic Constant Matrix: (Units=GPa)
#
#
# Indices 1 2 3 4 5 6 
#
# 1 49.0837 -8.4976 8.6386 0.0000 4.4133 0.0000
# 2 -8.4976 67.4541 -10.7285 0.0000 -11.6505 0.0000
# 3 8.6386 -10.7285 63.1416 0.0000 19.4702 0.0000
# 4 0.0000 0.0000 0.0000 -104.7940 0.0000 96.9917
# 5 4.4133 -11.6505 19.4702 0.0000 24.0140 0.0000
# 6 0.0000 0.0000 0.0000 96.9917 0.0000 -26.5335
#
#
#
# Elastic Compliance Matrix: (Units=1/GPa)
#
#
# Indices 1 2 3 4 5 6 
#
# 1 0.021229 0.002138 -0.002211 0.000000 -0.001072 0.000000
# 2 0.002138 0.016405 0.000216 0.000000 0.007391 0.000000
# 3 -0.002211 0.000216 0.021359 0.000000 -0.016807 0.000000
# 4 0.000000 0.000000 0.000000 0.004004 0.000000 0.014636
# 5 -0.001072 0.007391 -0.016807 0.000000 0.059052 0.000000
# 6 0.000000 0.000000 0.000000 0.014636 0.000000 0.015814
#
#
# Mechanical properties :
#
#
# Convention : Reuss Voigt Hill
#
# Bulk Modulus (GPa) = 16.86948 17.61158 17.24053
# Shear Modulus (GPa) = 31.77906 -8.77824 11.50041
#
# Velocity S-wave (km/s) = 3.77106 -1.98197 2.26856
# Velocity P-wave (km/s) = 5.14880 1.62587 3.81796
#
# Compressibility (1/GPa) = 0.05927866
#
# Stress axis : x y z
#
# Youngs Moduli (GPa) = 47.10563 60.95670 46.81865
#
# Poissons Ratio (x) = -0.13030 0.10350
# Poissons Ratio (y) = -0.10069 -0.01011
# Poissons Ratio (z) = 0.10413 -0.01316
#
# Static dielectric constant tensor:
#      x y z
#    x 1.868810 0.000000 -0.019560 
#    y 0.000000 1.838020 0.000000 
#    z -0.019560 0.000000 1.767080 
# 
# From -- ./inp_files/5423.got.cif
#   From: 2010.05.17/outbox.cif.g08.bks.cpg/sg4_3_cif.got.tgz:5423.got - 2010.06.03 18:43:04.
