data_PCOD9119558
_publ_section_title
;
Structure prediction by ZEFSAII (Michael W. Deem and Ramdas Pophale) SiO2 
 PCOD9119558
Probable space group: P 21
;
_chemical_formula_sum "Si O2"
_cell_formula_units_Z 14
_cell_length_a 17.324358
_cell_length_b 6.958975
_cell_length_c 5.496141
_cell_angle_alpha 90.000000
_cell_angle_beta 123.570400
_cell_angle_gamma 90.000000
_cell_volume 552.094236
_symmetry_space_group_name_H-M "P 21"
_symmetry_group_IT_number 4
_symmetry_cell_setting 'monoclinic'
loop_
_space_group_symop_operation_xyz
x,y,z
-x,1/2+y,-z
loop_
_atom_site_type_symbol
_atom_site_label
_atom_site_fract_x
_atom_site_fract_y
_atom_site_fract_z
Si Si1 0.883878 0.232730 0.418440
Si Si2 0.987793 0.883523 0.754037
Si Si3 0.718570 0.541197 0.200854
Si Si4 0.561250 0.238239 0.847699
Si Si5 0.604495 0.008795 0.421308
Si Si6 0.856712 0.599065 0.780219
Si Si7 0.220781 0.381850 0.018324
O O1 0.804956 0.396099 0.300356
O O2 0.967521 0.337244 0.426189
O O3 0.935048 0.085190 0.690895
O O4 0.828767 0.067625 0.172672
O O5 0.912332 0.724502 0.682723
O O6 0.081771 0.911806 0.075185
O O7 0.748142 0.569034 0.533433
O O8 0.626803 0.426454 0.979610
O O9 0.723686 0.747107 0.076982
O O10 0.577109 0.131679 0.617112
O O11 0.457304 0.316769 0.684707
O O12 0.586599 0.113929 0.132310
O O13 0.711163 0.958444 0.653209
O O14 0.854189 0.734935 0.008069
#
# Coordination Sequence:
#
# PCOD9119558 Si02
#       7
#     2   2   2   2   2   2   2
#     4  12  24  48  70 106 150 204 260 322 394 456
#     4  12  24  44  70 104 148 200 266 324 388 452
#     4  12  27  48  75 110 156 202 259 319 397 468
#     4  12  29  52  86 120 162 204 257 321 393 476
#     4  12  29  52  86 120 162 204 257 321 393 476
#     4  12  26  42  74 104 148 202 260 324 384 458
#     4  12  27  48  75 110 156 202 259 319 397 468
#
# _framework density 25.357989
#
# number of rings (size 3 to 8) (size 9 to 14) (size 15 to 20)
#    0.000    0.000    4.286    5.143   10.000    0.000 
#    0.000    0.000    0.000    0.000    0.000    0.000 
#    0.000    0.000    0.000    0.000    0.000    0.000 
#
# Total GULP energy -78258.799079 kJ/mol
# GULP energy per Si atom -5589.914220 kJ/mol
# Density = 2.530027 g / cm^3
# Si number density = 25.357989 Si / 1000 Ang^3
#
#
#
# Elastic Constant Matrix: (Units=GPa)
#
#
# Indices 1 2 3 4 5 6 
#
# 1 44.4858 8.9158 -0.1415 0.0000 3.5988 0.0000
# 2 8.9158 119.0352 22.9901 0.0000 -9.8904 0.0000
# 3 -0.1415 22.9901 102.2320 0.0000 12.7538 0.0000
# 4 0.0000 0.0000 0.0000 54.5396 0.0000 7.1157
# 5 3.5988 -9.8904 12.7538 0.0000 42.0328 0.0000
# 6 0.0000 0.0000 0.0000 7.1157 0.0000 58.7778
#
#
#
# Elastic Compliance Matrix: (Units=1/GPa)
#
#
# Indices 1 2 3 4 5 6 
#
# 1 0.023129 -0.002124 0.000851 0.000000 -0.002738 0.000000
# 2 -0.002124 0.009299 -0.002484 0.000000 0.003124 0.000000
# 3 0.000851 -0.002484 0.010834 0.000000 -0.003945 0.000000
# 4 0.000000 0.000000 0.000000 0.018630 0.000000 -0.002255
# 5 -0.002738 0.003124 -0.003945 0.000000 0.025957 0.000000
# 6 0.000000 0.000000 0.000000 -0.002255 0.000000 0.017286
#
#
# Mechanical properties :
#
#
# Convention : Reuss Voigt Hill
#
# Bulk Modulus (GPa) = 27.97344 36.58686 32.28015
# Shear Modulus (GPa) = 40.13980 46.66929 43.40454
#
# Velocity S-wave (km/s) = 3.98292 4.29466 4.14172
# Velocity P-wave (km/s) = 5.67511 6.24913 5.96902
#
# Compressibility (1/GPa) = 0.03574819
#
# Stress axis : x y z
#
# Youngs Moduli (GPa) = 43.23560 107.53545 92.30611
#
# Poissons Ratio (x) = 0.22844 -0.07859
# Poissons Ratio (y) = 0.09185 0.22928
# Poissons Ratio (z) = -0.03681 0.26710
#
# Static dielectric constant tensor:
#      x y z
#    x 1.964370 0.000000 -0.095470 
#    y 0.000000 1.972040 0.000000 
#    z -0.095470 0.000000 2.155900 
# 
# From -- ./inp_files/3305.got.cif
#   From: 2010.05.17/outbox.cif.g08.bks.cpg/sg4_2_cif.got.tgz:3305.got - 2010.06.03 18:43:04.
