data_PCOD9119559
_publ_section_title
;
Structure prediction by ZEFSAII (Michael W. Deem and Ramdas Pophale) SiO2 
 PCOD9119559
Probable space group: P 21
;
_chemical_formula_sum "Si O2"
_cell_formula_units_Z 16
_cell_length_a 16.242137
_cell_length_b 6.946966
_cell_length_c 6.968584
_cell_angle_alpha 90.000000
_cell_angle_beta 103.261012
_cell_angle_gamma 90.000000
_cell_volume 765.323955
_symmetry_space_group_name_H-M "P 21"
_symmetry_group_IT_number 4
_symmetry_cell_setting 'monoclinic'
loop_
_space_group_symop_operation_xyz
x,y,z
-x,1/2+y,-z
loop_
_atom_site_type_symbol
_atom_site_label
_atom_site_fract_x
_atom_site_fract_y
_atom_site_fract_z
Si Si1 0.883852 0.854770 0.831985
Si Si2 0.008379 0.712184 0.226134
Si Si3 0.707360 0.777564 0.917700
Si Si4 0.394688 0.643720 0.011049
Si Si5 0.106287 0.046938 0.493258
Si Si6 0.716819 0.448298 0.241897
Si Si7 0.386655 0.121539 0.486510
Si Si8 0.516502 0.942487 0.286503
O O1 0.797973 0.862546 0.908185
O O2 0.871063 0.722499 0.637033
O O3 0.954848 0.762084 0.008297
O O4 0.918745 0.060703 0.786903
O O5 0.946732 0.620737 0.352928
O O6 0.049858 0.900309 0.340841
O O7 0.676739 0.649833 0.722662
O O8 0.713045 0.635889 0.102457
O O9 0.639864 0.947626 0.914345
O O10 0.314070 0.762776 0.890582
O O11 0.456336 0.582164 0.870126
O O12 0.448506 0.787293 0.172289
O O13 0.190488 0.944028 0.616950
O O14 0.649587 0.477615 0.376405
O O15 0.402769 0.324224 0.598658
O O16 0.473819 0.053251 0.438832
#
# Coordination Sequence:
#
# PCOD9119559 Si02
#       8
#     2   2   2   2   2   2   2   2
#     4  12  26  45  74 106 146 186 237 292 351 422
#     4  12  26  44  76 106 142 192 236 286 354 422
#     4  12  26  47  71 104 146 185 233 295 353 420
#     4  12  26  46  73 105 144 186 234 297 363 410
#     4  12  26  45  74 106 146 186 237 292 351 422
#     4  12  26  47  71 104 146 185 233 295 353 420
#     4  12  24  44  71 101 136 186 234 279 353 422
#     4  12  24  44  72 104 140 182 238 292 348 424
#
# _framework density 20.906181
#
# number of rings (size 3 to 8) (size 9 to 14) (size 15 to 20)
#    0.000    0.000    7.500    3.000    0.000    6.000 
#    0.000    0.000    0.000    0.000    0.000    0.000 
#    0.000    0.000    0.000    0.000    0.000    0.000 
#
# Total GULP energy -89573.560445 kJ/mol
# GULP energy per Si atom -5598.347528 kJ/mol
# Density = 2.085860 g / cm^3
# Si number density = 20.906181 Si / 1000 Ang^3
#
#
#
# Elastic Constant Matrix: (Units=GPa)
#
#
# Indices 1 2 3 4 5 6 
#
# 1 35.4799 -3.6411 -7.5319 0.0000 -3.1918 0.0000
# 2 -3.6411 41.6764 3.1502 0.0000 -13.9229 0.0000
# 3 -7.5319 3.1502 73.4885 0.0000 2.4866 0.0000
# 4 0.0000 0.0000 0.0000 26.8936 0.0000 -0.2616
# 5 -3.1918 -13.9229 2.4866 0.0000 41.8734 0.0000
# 6 0.0000 0.0000 0.0000 -0.2616 0.0000 35.7911
#
#
#
# Elastic Compliance Matrix: (Units=1/GPa)
#
#
# Indices 1 2 3 4 5 6 
#
# 1 0.029413 0.003437 0.002758 0.000000 0.003221 0.000000
# 2 0.003437 0.027552 -0.001150 0.000000 0.009491 0.000000
# 3 0.002758 -0.001150 0.013973 0.000000 -0.001002 0.000000
# 4 0.000000 0.000000 0.000000 0.037186 0.000000 0.000272
# 5 0.003221 0.009491 -0.001002 0.000000 0.027342 0.000000
# 6 0.000000 0.000000 0.000000 0.000272 0.000000 0.027942
#
#
# Mechanical properties :
#
#
# Convention : Reuss Voigt Hill
#
# Bulk Modulus (GPa) = 12.34111 14.95547 13.64829
# Shear Modulus (GPa) = 27.72720 31.48947 29.60833
#
# Velocity S-wave (km/s) = 3.64575 3.88523 3.76739
# Velocity P-wave (km/s) = 4.86188 5.22454 5.04647
#
# Compressibility (1/GPa) = 0.08103001
#
# Stress axis : x y z
#
# Youngs Moduli (GPa) = 33.99856 36.29441 71.56423
#
# Poissons Ratio (x) = -0.12475 -0.19739
# Poissons Ratio (y) = -0.11686 0.08230
# Poissons Ratio (z) = -0.09378 0.04174
#
# Static dielectric constant tensor:
#      x y z
#    x 1.738840 0.000000 0.003560 
#    y 0.000000 1.711930 0.000000 
#    z 0.003560 0.000000 1.719910 
# 
# From -- ./inp_files/4003.got.cif
#   From: 2010.05.17/outbox.cif.g08.bks.cpg/sg4_3_cif.got.tgz:4003.got - 2010.06.03 18:43:04.
