data_PCOD9119929
_publ_section_title
;
Structure prediction by ZEFSAII (Michael W. Deem and Ramdas Pophale) SiO2 
 PCOD9119929
Probable space group: C 2
;
_chemical_formula_sum "Si O2"
_cell_formula_units_Z 26
_cell_length_a 5.402425
_cell_length_b 32.071436
_cell_length_c 7.860333
_cell_angle_alpha 90.000000
_cell_angle_beta 120.157750
_cell_angle_gamma 90.000000
_cell_volume 1177.568502
_symmetry_space_group_name_H-M "C 2"
_symmetry_group_IT_number 5
_symmetry_cell_setting 'monoclinic'
loop_
_space_group_symop_operation_xyz
x,y,z
-x,y,-z
1/2+x,1/2+y,z
1/2-x,1/2+y,-z
loop_
_atom_site_type_symbol
_atom_site_label
_atom_site_fract_x
_atom_site_fract_y
_atom_site_fract_z
Si Si1 0.938166 0.317360 0.245396
Si Si2 0.844083 0.589045 0.270669
Si Si3 0.405024 0.283142 0.197791
Si Si4 0.836272 0.134030 0.260821
Si Si5 0.349217 0.906738 0.133324
Si Si6 0.000000 0.706473 0.000000
Si Si7 0.656864 0.998173 0.871043
O O1 0.726813 0.299741 0.313906
O O2 0.970222 0.366782 0.273508
O O3 0.219809 0.291449 0.299137
O O4 0.753576 0.309777 0.006278
O O5 0.522570 0.604194 0.201058
O O6 0.891370 0.540444 0.248137
O O7 0.000000 0.598388 0.500000
O O8 0.026675 0.614549 0.197196
O O9 0.411936 0.236623 0.125294
O O10 0.765267 0.178128 0.150798
O O11 0.000000 0.138366 0.500000
O O12 0.426039 0.952726 0.230622
O O13 0.500000 0.905217 0.000000
O O14 0.000000 0.903295 0.000000
O O15 0.500000 0.002161 0.000000
O O16 0.000000 0.996184 0.000000
#
# Coordination Sequence:
#
# PCOD9119929 Si02
#       7
#     4   4   4   4   4   2   4
#     4   9  13  25  40  65 103 131 165 203 265 315
#     4  10  22  40  55  76 110 151 186 224 283 343
#     4   9  17  25  44  69 100 133 167 210 267 322
#     4  10  23  39  59  80 109 151 188 230 289 342
#     4  10  15  25  42  69 105 136 164 223 265 305
#     4  10  22  36  56  84 114 136 190 242 278 326
#     4  10  21  31  51  82 110 132 188 227 271 319
#
# _framework density 22.079391999999999
#
# number of rings (size 3 to 8) (size 9 to 14) (size 15 to 20)
#    0.000    2.462    3.077    0.923    3.231    4.923 
#    0.000    0.000    0.000    0.000    0.000    4.308 
#    9.231    0.000    0.000    0.000    0.000    0.000 
#
# Total GULP energy -72512.676373 kJ/mol
# GULP energy per Si atom -5577.898183 kJ/mol
# Density = 2.202914 g / cm^3
# Si number density = 22.079392 Si / 1000 Ang^3
#
#
#
# Elastic Constant Matrix: (Units=GPa)
#
#
# Indices 1 2 3 4 5 6 
#
# 1 216.4980 62.1241 34.6206 0.0000 -9.7336 0.0000
# 2 62.1241 157.7081 12.3277 0.0000 -13.4455 0.0000
# 3 34.6206 12.3277 51.1129 0.0000 -11.0165 0.0000
# 4 0.0000 0.0000 0.0000 -16.9206 0.0000 -3.3250
# 5 -9.7336 -13.4455 -11.0165 0.0000 30.3444 0.0000
# 6 0.0000 0.0000 0.0000 -3.3250 0.0000 -93.4463
#
#
#
# Elastic Compliance Matrix: (Units=1/GPa)
#
#
# Indices 1 2 3 4 5 6 
#
# 1 0.005738 -0.002016 -0.003467 0.000000 -0.000311 0.000000
# 2 -0.002016 0.007349 0.000168 0.000000 0.002671 0.000000
# 3 -0.003467 0.000168 0.023487 0.000000 0.007489 0.000000
# 4 0.000000 0.000000 0.000000 -0.059516 0.000000 0.002118
# 5 -0.000311 0.002671 0.007489 0.000000 0.036758 0.000000
# 6 0.000000 0.000000 0.000000 0.002118 0.000000 -0.010777
#
#
# Mechanical properties :
#
#
# Convention : Reuss Voigt Hill
#
# Bulk Modulus (GPa) = 38.54375 71.49597 55.01986
# Shear Modulus (GPa) = 224.04820 5.07862 114.56341
#
# Velocity S-wave (km/s) = 10.08435 1.51827 7.21108
# Velocity P-wave (km/s) = 12.37283 5.96030 9.71113
#
# Compressibility (1/GPa) = 0.02594455
#
# Stress axis : x y z
#
# Youngs Moduli (GPa) = 174.28020 136.06493 42.57732
#
# Poissons Ratio (x) = 0.27428 0.14763
# Poissons Ratio (y) = 0.35131 -0.00717
# Poissons Ratio (z) = 0.60431 -0.02292
#
# Static dielectric constant tensor:
#      x y z
#    x 1.891980 0.000000 -0.080270 
#    y 0.000000 1.825860 0.000000 
#    z -0.080270 0.000000 2.051700 
# 
# From -- ./inp_files/13238.got.cif
#   From: 2010.05.17/outbox.cif.g08.bks.cpg/sg5_7_cif.got.tgz:13238.got - 2010.06.03 18:56:24.
