data_PCOD9119605
_publ_section_title
;
Structure prediction by ZEFSAII (Michael W. Deem and Ramdas Pophale) SiO2 
 PCOD9119605
Probable space group: P 21
;
_chemical_formula_sum "Si O2"
_cell_formula_units_Z 14
_cell_length_a 4.952987
_cell_length_b 13.730586
_cell_length_c 9.154006
_cell_angle_alpha 90.000000
_cell_angle_beta 65.199143
_cell_angle_gamma 90.000000
_cell_volume 565.124136
_symmetry_space_group_name_H-M "P 21"
_symmetry_group_IT_number 4
_symmetry_cell_setting 'monoclinic'
loop_
_space_group_symop_operation_xyz
x,y,z
-x,1/2+y,-z
loop_
_atom_site_type_symbol
_atom_site_label
_atom_site_fract_x
_atom_site_fract_y
_atom_site_fract_z
Si Si1 0.131137 0.695330 0.521487
Si Si2 0.703893 0.346407 0.711043
Si Si3 0.257158 0.683356 0.050600
Si Si4 0.641449 0.573207 0.458495
Si Si5 0.040132 0.479856 0.130831
Si Si6 0.845552 0.964282 0.231537
Si Si7 0.876746 0.750362 0.872034
O O1 0.108297 0.804216 0.464542
O O2 0.462391 0.657436 0.414715
O O3 0.898401 0.623508 0.496585
O O4 0.096639 0.709466 0.700801
O O5 0.366791 0.371327 0.750499
O O6 0.869451 0.440384 0.736030
O O7 0.731863 0.262840 0.824992
O O8 0.564513 0.703028 0.899122
O O9 0.992093 0.710863 0.000920
O O10 0.244963 0.574321 0.115850
O O11 0.389350 0.527265 0.621135
O O12 0.771053 0.500264 0.305648
O O13 0.141641 0.368107 0.127917
O O14 0.024365 0.492010 0.957216
#
# Coordination Sequence:
#
# PCOD9119605 Si02
#       7
#     2   2   2   2   2   2   2
#     4  12  26  49  74 108 156 197 251 326 379 451
#     4  12  24  49  73 101 154 193 245 316 381 441
#     4  12  26  48  74 110 151 195 254 318 375 456
#     4  12  28  47  75 115 150 199 259 313 385 459
#     4  12  27  48  80 109 152 207 255 310 389 463
#     4  12  26  48  74 111 149 196 254 314 379 455
#     4  12  27  49  76 114 150 203 260 313 386 461
#
# _framework density 24.773315
#
# number of rings (size 3 to 8) (size 9 to 14) (size 15 to 20)
#    0.000    0.000    4.286    5.143    2.000    5.714 
#    0.000    0.000    0.000    0.000    0.000    0.000 
#    0.000    0.000    0.000    0.000    0.000    0.000 
#
# Total GULP energy -78286.592302 kJ/mol
# GULP energy per Si atom -5591.899450 kJ/mol
# Density = 2.471693 g / cm^3
# Si number density = 24.773315 Si / 1000 Ang^3
#
#
#
# Elastic Constant Matrix: (Units=GPa)
#
#
# Indices 1 2 3 4 5 6 
#
# 1 43.8603 8.5179 -16.7285 0.0000 10.6106 0.0000
# 2 8.5179 121.8628 28.0817 0.0000 -11.2611 0.0000
# 3 -16.7285 28.0817 126.0509 0.0000 3.0289 0.0000
# 4 0.0000 0.0000 0.0000 47.9370 0.0000 -2.3916
# 5 10.6106 -11.2611 3.0289 0.0000 21.6523 0.0000
# 6 0.0000 0.0000 0.0000 -2.3916 0.0000 30.6120
#
#
#
# Elastic Compliance Matrix: (Units=1/GPa)
#
#
# Indices 1 2 3 4 5 6 
#
# 1 0.030362 -0.005107 0.005607 0.000000 -0.018319 0.000000
# 2 -0.005107 0.010033 -0.003109 0.000000 0.008156 0.000000
# 3 0.005607 -0.003109 0.009507 0.000000 -0.005695 0.000000
# 4 0.000000 0.000000 0.000000 0.020942 0.000000 0.001636
# 5 -0.018319 0.008156 -0.005695 0.000000 0.060200 0.000000
# 6 0.000000 0.000000 0.000000 0.001636 0.000000 0.032795
#
#
# Mechanical properties :
#
#
# Convention : Reuss Voigt Hill
#
# Bulk Modulus (GPa) = 22.37914 36.83511 29.60712
# Shear Modulus (GPa) = 27.18109 38.16714 32.67412
#
# Velocity S-wave (km/s) = 3.31598 3.92938 3.63564
# Velocity P-wave (km/s) = 4.86972 5.95716 5.44068
#
# Compressibility (1/GPa) = 0.04468448
#
# Stress axis : x y z
#
# Youngs Moduli (GPa) = 32.93586 99.67115 105.18647
#
# Poissons Ratio (x) = 0.50904 -0.58982
# Poissons Ratio (y) = 0.16821 0.32702
# Poissons Ratio (z) = -0.18469 0.30987
#
# Static dielectric constant tensor:
#      x y z
#    x 1.909240 0.000000 -0.036850 
#    y 0.000000 2.036120 0.000000 
#    z -0.036850 0.000000 2.103870 
# 
# From -- ./inp_files/1255.got.cif
#   From: 2010.05.17/outbox.cif.g08.bks.cpg/sg4_1_cif.got.tgz:1255.got - 2010.06.03 18:43:04.
