data_PCOD9119578
_publ_section_title
;
Structure prediction by ZEFSAII (Michael W. Deem and Ramdas Pophale) SiO2 
 PCOD9119578
Probable space group: P 21
;
_chemical_formula_sum "Si O2"
_cell_formula_units_Z 16
_cell_length_a 10.902799
_cell_length_b 4.769370
_cell_length_c 16.809638
_cell_angle_alpha 90.000000
_cell_angle_beta 47.748030
_cell_angle_gamma 90.000000
_cell_volume 646.998889
_symmetry_space_group_name_H-M "P 21"
_symmetry_group_IT_number 4
_symmetry_cell_setting 'monoclinic'
loop_
_space_group_symop_operation_xyz
x,y,z
-x,1/2+y,-z
loop_
_atom_site_type_symbol
_atom_site_label
_atom_site_fract_x
_atom_site_fract_y
_atom_site_fract_z
Si Si1 0.043279 0.608190 0.429256
Si Si2 0.944146 0.329211 0.309878
Si Si3 0.587289 0.311890 0.758249
Si Si4 0.558383 0.539104 0.020057
Si Si5 0.076261 0.853383 0.162982
Si Si6 0.074800 0.621794 0.925339
Si Si7 0.573570 0.141936 0.430398
Si Si8 0.444596 0.816671 0.741449
O O1 0.222202 0.728462 0.328867
O O2 0.058991 0.364724 0.488687
O O3 0.959761 0.465931 0.389341
O O4 0.756804 0.245643 0.371895
O O5 0.049992 0.047537 0.251906
O O6 0.017907 0.547595 0.213577
O O7 0.505626 0.199435 0.874563
O O8 0.556816 0.635802 0.752913
O O9 0.490583 0.139208 0.731983
O O10 0.437303 0.287160 0.047202
O O11 0.736581 0.391794 0.948078
O O12 0.962859 0.978083 0.142394
O O13 0.255782 0.754013 0.847356
O O14 0.051069 0.374249 0.999879
O O15 0.448227 0.316363 0.540873
O O16 0.531604 0.215434 0.358463
#
# Coordination Sequence:
#
# PCOD9119578 Si02
#       8
#     2   2   2   2   2   2   2   2
#     4  12  28  49  73 104 141 193 240 303 365 421
#     4  12  27  49  73 106 143 185 246 298 359 438
#     4  12  27  47  72 108 146 189 243 297 362 432
#     4  12  25  45  74 105 144 193 244 297 359 430
#     4  12  24  45  73 104 141 189 233 297 360 425
#     4  12  25  43  68 105 146 189 233 284 358 432
#     4  12  28  47  77 108 143 196 242 302 367 431
#     4  12  26  47  72 106 148 188 235 300 362 433
#
# _framework density 24.729565000000001
#
# number of rings (size 3 to 8) (size 9 to 14) (size 15 to 20)
#    0.000    0.000    1.250    9.000    7.000    0.000 
#    0.000    0.000    0.000    0.000    0.000    0.000 
#    0.000    0.000    0.000    0.000    0.000    0.000 
#
# Total GULP energy -89825.909342 kJ/mol
# GULP energy per Si atom -5614.119334 kJ/mol
# Density = 2.467328 g / cm^3
# Si number density = 24.729565 Si / 1000 Ang^3
#
#
#
# Elastic Constant Matrix: (Units=GPa)
#
#
# Indices 1 2 3 4 5 6 
#
# 1 73.6192 -7.7450 28.2222 0.0000 -0.9846 0.0000
# 2 -7.7450 74.7191 5.0713 0.0000 0.9887 0.0000
# 3 28.2222 5.0713 91.7101 0.0000 -2.9981 0.0000
# 4 0.0000 0.0000 0.0000 33.3740 0.0000 16.4445
# 5 -0.9846 0.9887 -2.9981 0.0000 39.5584 0.0000
# 6 0.0000 0.0000 0.0000 16.4445 0.0000 33.8703
#
#
#
# Elastic Compliance Matrix: (Units=1/GPa)
#
#
# Indices 1 2 3 4 5 6 
#
# 1 0.015681 0.001961 -0.004935 0.000000 -0.000033 0.000000
# 2 0.001961 0.013685 -0.001373 0.000000 -0.000397 0.000000
# 3 -0.004935 -0.001373 0.012527 0.000000 0.000861 0.000000
# 4 0.000000 0.000000 0.000000 0.039386 0.000000 -0.019122
# 5 -0.000033 -0.000397 0.000861 0.000000 0.025353 0.000000
# 6 0.000000 0.000000 0.000000 -0.019122 0.000000 0.038808
#
#
# Mechanical properties :
#
#
# Convention : Reuss Voigt Hill
#
# Bulk Modulus (GPa) = 30.12218 32.34949 31.23583
# Shear Modulus (GPa) = 30.26611 35.66055 32.96333
#
# Velocity S-wave (km/s) = 3.50220 3.80151 3.65492
# Velocity P-wave (km/s) = 5.34424 5.69020 5.51993
#
# Compressibility (1/GPa) = 0.03319813
#
# Stress axis : x y z
#
# Youngs Moduli (GPa) = 63.77084 73.07190 79.82962
#
# Poissons Ratio (x) = -0.14328 0.39397
# Poissons Ratio (y) = -0.12504 0.10962
# Poissons Ratio (z) = 0.31471 0.10034
#
# Static dielectric constant tensor:
#      x y z
#    x 1.945670 0.000000 0.029200 
#    y 0.000000 1.893100 0.000000 
#    z 0.029200 0.000000 1.957840 
# 
# From -- ./inp_files/13579.got.cif
#   From: 2010.05.17/outbox.cif.g08.bks.cpg/sg4_7_cif.got.tgz:13579.got - 2010.06.03 18:43:04.
