data_PCOD9119773
_publ_section_title
;
Structure prediction by ZEFSAII (Michael W. Deem and Ramdas Pophale) SiO2 
 PCOD9119773
Probable space group: P 21
;
_chemical_formula_sum "Si O2"
_cell_formula_units_Z 16
_cell_length_a 9.822418
_cell_length_b 8.322640
_cell_length_c 7.868350
_cell_angle_alpha 90.000000
_cell_angle_beta 104.369705
_cell_angle_gamma 90.000000
_cell_volume 623.101793
_symmetry_space_group_name_H-M "P 21"
_symmetry_group_IT_number 4
_symmetry_cell_setting 'monoclinic'
loop_
_space_group_symop_operation_xyz
x,y,z
-x,1/2+y,-z
loop_
_atom_site_type_symbol
_atom_site_label
_atom_site_fract_x
_atom_site_fract_y
_atom_site_fract_z
Si Si1 0.066395 0.376200 0.519504
Si Si2 0.649027 0.901148 0.863791
Si Si3 0.798434 0.202371 0.426274
Si Si4 0.599008 0.204793 0.067289
Si Si5 0.937743 0.787521 0.098100
Si Si6 0.365228 0.271367 0.519790
Si Si7 0.631924 0.435632 0.624793
Si Si8 0.815263 0.448079 0.997242
O O1 0.115061 0.551455 0.475840
O O2 0.034804 0.368614 0.710938
O O3 0.207294 0.272327 0.539871
O O4 0.923795 0.313388 0.390407
O O5 0.553048 0.765456 0.924487
O O6 0.637036 0.866013 0.660695
O O7 0.808564 0.878444 0.970612
O O8 0.601543 0.074590 0.918914
O O9 0.688499 0.136440 0.254425
O O10 0.709180 0.301388 0.535119
O O11 0.689519 0.364664 0.058123
O O12 0.072957 0.812595 0.022711
O O13 0.890697 0.602759 0.097259
O O14 0.490806 0.358590 0.658928
O O15 0.405532 0.088379 0.499781
O O16 0.740211 0.499058 0.797795
#
# Coordination Sequence:
#
# PCOD9119773 Si02
#       8
#     2   2   2   2   2   2   2   2
#     4  12  29  47  80 109 155 201 257 311 386 452
#     4  12  27  50  76 112 152 201 254 317 377 454
#     4  12  27  51  74 111 153 202 253 310 376 459
#     4  12  29  48  78 109 156 199 255 310 385 454
#     4  12  27  50  76 112 152 201 254 317 377 454
#     4  12  29  47  80 109 155 201 257 311 386 452
#     4  12  27  51  74 111 153 202 253 310 376 459
#     4  12  29  48  78 109 156 199 255 310 385 454
#
# _framework density 25.677990000000001
#
# number of rings (size 3 to 8) (size 9 to 14) (size 15 to 20)
#    0.000    0.000    5.000    3.000   10.500    0.000 
#    0.000    0.000    0.000    0.000    0.000    0.000 
#    0.000    0.000    0.000    0.000    0.000    0.000 
#
# Total GULP energy -89755.195999 kJ/mol
# GULP energy per Si atom -5609.699750 kJ/mol
# Density = 2.561955 g / cm^3
# Si number density = 25.677990 Si / 1000 Ang^3
#
#
#
# Elastic Constant Matrix: (Units=GPa)
#
#
# Indices 1 2 3 4 5 6 
#
# 1 127.3202 16.8698 15.3215 0.0000 1.8828 0.0000
# 2 16.8698 104.9053 3.8900 0.0000 5.7371 0.0000
# 3 15.3215 3.8900 73.5231 0.0000 11.6756 0.0000
# 4 0.0000 0.0000 0.0000 37.2651 0.0000 -4.8045
# 5 1.8828 5.7371 11.6756 0.0000 37.6088 0.0000
# 6 0.0000 0.0000 0.0000 -4.8045 0.0000 56.7573
#
#
#
# Elastic Compliance Matrix: (Units=1/GPa)
#
#
# Indices 1 2 3 4 5 6 
#
# 1 0.008223 -0.001276 -0.001695 0.000000 0.000309 0.000000
# 2 -0.001276 0.009817 -0.000027 0.000000 -0.001425 0.000000
# 3 -0.001695 -0.000027 0.014665 0.000000 -0.004464 0.000000
# 4 0.000000 0.000000 0.000000 0.027131 0.000000 0.002297
# 5 0.000309 -0.001425 -0.004464 0.000000 0.028177 0.000000
# 6 0.000000 0.000000 0.000000 0.002297 0.000000 0.017813
#
#
# Mechanical properties :
#
#
# Convention : Reuss Voigt Hill
#
# Bulk Modulus (GPa) = 37.44351 41.99014 39.71682
# Shear Modulus (GPa) = 41.41653 44.30407 42.86030
#
# Velocity S-wave (km/s) = 4.02047 4.15827 4.08995
# Velocity P-wave (km/s) = 6.01381 6.28036 6.14853
#
# Compressibility (1/GPa) = 0.02670690
#
# Stress axis : x y z
#
# Youngs Moduli (GPa) = 121.61396 101.86821 68.19109
#
# Poissons Ratio (x) = 0.13002 0.11559
# Poissons Ratio (y) = 0.15522 0.00185
# Poissons Ratio (z) = 0.20615 0.00276
#
# Static dielectric constant tensor:
#      x y z
#    x 1.963050 0.000000 0.009190 
#    y 0.000000 2.015490 0.000000 
#    z 0.009190 0.000000 2.041770 
# 
# From -- ./inp_files/5752.got.cif
#   From: 2010.05.17/outbox.cif.g08.bks.cpg/sg4_3_cif.got.tgz:5752.got - 2010.06.03 18:43:04.
