data_PCOD9119829
_publ_section_title
;
Structure prediction by ZEFSAII (Michael W. Deem and Ramdas Pophale) SiO2 
 PCOD9119829
Probable space group: P 21
;
_chemical_formula_sum "Si O2"
_cell_formula_units_Z 16
_cell_length_a 15.000000
_cell_length_b 9.000000
_cell_length_c 6.000000
_cell_angle_alpha 90.000000
_cell_angle_beta 80.000000
_cell_angle_gamma 90.000000
_cell_volume 797.694280
_symmetry_space_group_name_H-M "P 21"
_symmetry_group_IT_number 4
_symmetry_cell_setting 'monoclinic'
loop_
_space_group_symop_operation_xyz
x,y,z
-x,1/2+y,-z
loop_
_atom_site_type_symbol
_atom_site_label
_atom_site_fract_x
_atom_site_fract_y
_atom_site_fract_z
Si Si1 0.882603 0.275670 0.198476
Si Si2 0.230582 0.232754 0.748798
Si Si3 0.646986 0.514219 0.040179
Si Si4 0.800305 0.488559 0.609001
Si Si5 0.576511 0.290538 0.448072
Si Si6 0.711245 0.070620 0.261348
Si Si7 0.514339 0.037738 0.205345
Si Si8 0.931896 0.587787 0.925854
O O1 0.841522 0.352128 0.444132
O O2 0.795911 0.176049 0.151667
O O3 0.969033 0.161864 0.156489
O O4 0.918156 0.424500 0.051184
O O5 0.233979 0.121007 0.536961
O O6 0.250694 0.406534 0.695224
O O7 0.304300 0.160184 0.883825
O O8 0.132259 0.201009 0.904905
O O9 0.717685 0.454651 0.818732
O O10 0.548662 0.549664 0.981822
O O11 0.627565 0.395926 0.245353
O O12 0.882730 0.558218 0.713070
O O13 0.654514 0.167391 0.472539
O O14 0.502054 0.186746 0.359236
O O15 0.526346 0.394925 0.646585
O O16 0.624305 0.038504 0.134075
#
# Coordination Sequence:
#
# PCOD9119829 Si02
#       8
#     2   2   2   2   2   2   2   2
#     4  11  22  44  67  99 130 168 212 264 315 387
#     4  10  22  41  64  95 128 166 215 265 313 383
#     4  11  22  41  66  90 127 172 214 265 323 376
#     4  10  23  42  68  92 133 168 207 264 321 378
#     4  10  24  40  60  89 126 166 215 264 316 376
#     4  10  23  39  64  89 129 170 211 266 320 370
#     4  10  25  39  64  90 128 170 212 270 320 370
#     4  10  23  42  71  96 131 168 208 262 322 382
#
# _framework density 20.05781
#
# number of rings (size 3 to 8) (size 9 to 14) (size 15 to 20)
#    0.750    1.000    0.000    4.500    5.250    3.000 
#    0.000    8.750    0.000    0.000    0.000    0.000 
#    0.000    0.000    0.000    0.000    0.000    0.000 
#
# Total GULP energy -89130.204810 kJ/mol
# GULP energy per Si atom -5570.637801 kJ/mol
# Density = 2.001216 g / cm^3
# Si number density = 20.057810 Si / 1000 Ang^3
#
#
#
# Elastic Constant Matrix: (Units=GPa)
#
#
# Indices 1 2 3 4 5 6 
#
# 1 161.1068 49.7886 27.2462 0.0000 -4.7388 0.0000
# 2 49.7886 137.1624 25.9122 0.0000 -5.6336 0.0000
# 3 27.2462 25.9122 55.5951 0.0000 -3.1573 0.0000
# 4 0.0000 0.0000 0.0000 19.0147 0.0000 -12.0610
# 5 -4.7388 -5.6336 -3.1573 0.0000 26.0642 0.0000
# 6 0.0000 0.0000 0.0000 -12.0610 0.0000 52.2471
#
#
#
# Elastic Compliance Matrix: (Units=1/GPa)
#
#
# Indices 1 2 3 4 5 6 
#
# 1 0.007320 -0.002152 -0.002553 0.000000 0.000557 0.000000
# 2 -0.002152 0.008670 -0.002922 0.000000 0.001129 0.000000
# 3 -0.002553 -0.002922 0.020680 0.000000 0.001409 0.000000
# 4 0.000000 0.000000 0.000000 0.061612 0.000000 0.014223
# 5 0.000557 0.001129 0.001409 0.000000 0.038883 0.000000
# 6 0.000000 0.000000 0.000000 0.014223 0.000000 0.022423
#
#
# Mechanical properties :
#
#
# Convention : Reuss Voigt Hill
#
# Bulk Modulus (GPa) = 46.69315 62.19538 54.44426
# Shear Modulus (GPa) = 27.47520 36.19303 31.83412
#
# Velocity S-wave (km/s) = 3.70510 4.25247 3.98819
# Velocity P-wave (km/s) = 6.45240 7.42878 6.95774
#
# Compressibility (1/GPa) = 0.02141642
#
# Stress axis : x y z
#
# Youngs Moduli (GPa) = 136.60750 115.33724 48.35500
#
# Poissons Ratio (x) = 0.24821 0.12344
# Poissons Ratio (y) = 0.29398 0.14131
# Poissons Ratio (z) = 0.34874 0.33705
#
# Static dielectric constant tensor:
#      x y z
#    x 1.734300 0.000000 0.023700 
#    y 0.000000 1.718920 0.000000 
#    z 0.023700 0.000000 1.751190 
# 
# From -- ./inp_files/3539.got.cif
#   From: 2010.05.17/outbox.ucp.g08.bks.cvg/sg4_2_cif.got.tgz:3539.got - 2010.06.11 12:51:24.
