data_PCOD9119518
_publ_section_title
;
Structure prediction by ZEFSAII (Michael W. Deem and Ramdas Pophale) SiO2 
 PCOD9119518
Probable space group: P 21
;
_chemical_formula_sum "Si O2"
_cell_formula_units_Z 14
_cell_length_a 12.733236
_cell_length_b 4.972326
_cell_length_c 9.774121
_cell_angle_alpha 90.000000
_cell_angle_beta 99.042846
_cell_angle_gamma 90.000000
_cell_volume 611.145275
_symmetry_space_group_name_H-M "P 21"
_symmetry_group_IT_number 4
_symmetry_cell_setting 'monoclinic'
loop_
_space_group_symop_operation_xyz
x,y,z
-x,1/2+y,-z
loop_
_atom_site_type_symbol
_atom_site_label
_atom_site_fract_x
_atom_site_fract_y
_atom_site_fract_z
Si Si1 0.275370 0.287300 0.558575
Si Si2 0.033053 0.738802 0.096651
Si Si3 0.566710 0.221961 0.052228
Si Si4 0.652459 0.842662 0.695225
Si Si5 0.411108 0.777344 0.640269
Si Si6 0.039745 0.226367 0.597543
Si Si7 0.279467 0.855988 0.136256
O O1 0.262244 0.223903 0.394952
O O2 0.330971 0.576253 0.550741
O O3 0.165567 0.289669 0.615244
O O4 0.355911 0.067083 0.634487
O O5 0.154464 0.837066 0.124472
O O6 0.994614 0.715036 0.248485
O O7 0.027205 0.459185 0.010473
O O8 0.678695 0.262969 0.002229
O O9 0.502514 0.500403 0.038565
O O10 0.582091 0.142102 0.210185
O O11 0.532460 0.797669 0.616297
O O12 0.672339 0.649256 0.828333
O O13 0.669111 0.145591 0.746667
O O14 0.981545 0.453346 0.492942
#
# Coordination Sequence:
#
# PCOD9119518 Si02
#       7
#     2   2   2   2   2   2   2
#     4  12  26  41  70  96 133 170 217 277 331 382
#     4  12  28  47  71 106 139 177 234 300 346 394
#     4  12  23  42  64  95 130 175 215 261 317 405
#     4  12  23  44  65  99 132 177 213 262 326 415
#     4  12  24  41  64 100 136 166 216 267 334 389
#     4  12  26  50  74 100 136 186 240 282 340 418
#     4  12  24  43  70  92 134 177 217 263 336 399
#
# _framework density 22.907807999999999
#
# number of rings (size 3 to 8) (size 9 to 14) (size 15 to 20)
#    0.000    0.000    2.857    7.714    4.000    0.000 
#    0.000    0.000    0.000    0.000    0.000    0.000 
#    0.000    0.000    0.000    0.000    0.000    0.000 
#
# Total GULP energy -78287.540005 kJ/mol
# GULP energy per Si atom -5591.967143 kJ/mol
# Density = 2.285567 g / cm^3
# Si number density = 22.907808 Si / 1000 Ang^3
#
#
#
# Elastic Constant Matrix: (Units=GPa)
#
#
# Indices 1 2 3 4 5 6 
#
# 1 121.2468 -18.8276 14.0164 0.0000 -27.6015 0.0000
# 2 -18.8276 75.0474 -3.7624 0.0000 3.7843 0.0000
# 3 14.0164 -3.7624 100.8510 0.0000 -27.0590 0.0000
# 4 0.0000 0.0000 0.0000 35.3365 0.0000 6.5047
# 5 -27.6015 3.7843 -27.0590 0.0000 39.0943 0.0000
# 6 0.0000 0.0000 0.0000 6.5047 0.0000 27.2969
#
#
#
# Elastic Compliance Matrix: (Units=1/GPa)
#
#
# Indices 1 2 3 4 5 6 
#
# 1 0.010213 0.002219 0.000664 0.000000 0.007455 0.000000
# 2 0.002219 0.013875 0.000331 0.000000 0.000453 0.000000
# 3 0.000664 0.000331 0.012223 0.000000 0.008896 0.000000
# 4 0.000000 0.000000 0.000000 0.029598 0.000000 -0.007053
# 5 0.007455 0.000453 0.008896 0.000000 0.036956 0.000000
# 6 0.000000 0.000000 0.000000 -0.007053 0.000000 0.038315
#
#
# Mechanical properties :
#
#
# Convention : Reuss Voigt Hill
#
# Bulk Modulus (GPa) = 23.39825 31.11090 27.25457
# Shear Modulus (GPa) = 33.55744 40.72679 37.14212
#
# Velocity S-wave (km/s) = 3.83154 4.22104 4.03100
# Velocity P-wave (km/s) = 5.45990 6.11282 5.79557
#
# Compressibility (1/GPa) = 0.04273824
#
# Stress axis : x y z
#
# Youngs Moduli (GPa) = 97.91787 72.06963 81.81508
#
# Poissons Ratio (x) = -0.15996 -0.05429
# Poissons Ratio (y) = -0.21732 -0.02705
# Poissons Ratio (z) = -0.06498 -0.02383
#
# Static dielectric constant tensor:
#      x y z
#    x 1.821260 0.000000 -0.008600 
#    y 0.000000 1.834570 0.000000 
#    z -0.008600 0.000000 1.984710 
# 
# From -- ./inp_files/7397.got.cif
#   From: 2010.05.17/outbox.cif.g08.bks.cpg/sg4_4_cif.got.tgz:7397.got - 2010.06.03 18:43:04.
