data_PCOD9119070
_publ_section_title
;
Structure prediction by ZEFSAII (Michael W. Deem and Ramdas Pophale) SiO2 
 PCOD9119070
Probable space group: P 21
;
_chemical_formula_sum "Si O2"
_cell_formula_units_Z 12
_cell_length_a 7.295929
_cell_length_b 8.115809
_cell_length_c 14.131951
_cell_angle_alpha 90.000000
_cell_angle_beta 141.954753
_cell_angle_gamma 90.000000
_cell_volume 515.697633
_symmetry_space_group_name_H-M "P 21"
_symmetry_group_IT_number 4
_symmetry_cell_setting 'monoclinic'
loop_
_space_group_symop_operation_xyz
x,y,z
-x,1/2+y,-z
loop_
_atom_site_type_symbol
_atom_site_label
_atom_site_fract_x
_atom_site_fract_y
_atom_site_fract_z
Si Si1 0.803769 0.154600 0.036537
Si Si2 0.922681 0.183656 0.421904
Si Si3 0.149159 0.990863 0.345934
Si Si4 0.830531 0.672388 0.153262
Si Si5 0.828685 0.995132 0.570343
Si Si6 0.726180 0.795528 0.910668
O O1 0.973349 0.108690 0.201923
O O2 0.015146 0.266218 0.059530
O O3 0.483463 0.227261 0.930607
O O4 0.742651 0.980852 0.957580
O O5 0.921991 0.131135 0.530457
O O6 0.592253 0.247638 0.262023
O O7 0.022391 0.029096 0.397904
O O8 0.144156 0.325621 0.476225
O O9 0.498666 0.018520 0.475570
O O10 0.072652 0.808346 0.279678
O O11 0.942626 0.507091 0.249280
O O12 0.789189 0.674430 0.024796
#
# Coordination Sequence:
#
# PCOD9119070 Si02
#       6
#     2   2   2   2   2   2
#     4  11  24  43  72 103 132 177 230 278 339 401
#     4  12  25  46  70  99 141 179 222 285 340 404
#     4  11  25  44  70  99 139 181 222 283 338 405
#     4  11  25  45  69 104 135 176 230 282 333 406
#     4  12  26  46  69 105 135 180 229 277 348 401
#     4  11  25  44  72 100 136 179 225 281 340 403
#
# _framework density 23.269449000000002
#
# number of rings (size 3 to 8) (size 9 to 14) (size 15 to 20)
#    0.000    0.667    5.000    2.000    2.333    5.333 
#    3.000    0.000    0.000    0.000    0.000    0.000 
#    0.000    0.000    0.000    0.000    0.000    0.000 
#
# Total GULP energy -67224.043802 kJ/mol
# GULP energy per Si atom -5602.003650 kJ/mol
# Density = 2.321649 g / cm^3
# Si number density = 23.269449 Si / 1000 Ang^3
#
#
#
# Elastic Constant Matrix: (Units=GPa)
#
#
# Indices 1 2 3 4 5 6 
#
# 1 105.0335 -10.2390 26.4168 0.0000 15.8896 0.0000
# 2 -10.2390 46.0913 -5.2974 0.0000 -0.5990 0.0000
# 3 26.4168 -5.2974 74.2260 0.0000 18.6362 0.0000
# 4 0.0000 0.0000 0.0000 24.8508 0.0000 6.4763
# 5 15.8896 -0.5990 18.6362 0.0000 48.2467 0.0000
# 6 0.0000 0.0000 0.0000 6.4763 0.0000 39.4830
#
#
#
# Elastic Compliance Matrix: (Units=1/GPa)
#
#
# Indices 1 2 3 4 5 6 
#
# 1 0.010860 0.002022 -0.003133 0.000000 -0.002341 0.000000
# 2 0.002022 0.022258 0.001071 0.000000 -0.000803 0.000000
# 3 -0.003133 0.001071 0.015948 0.000000 -0.005115 0.000000
# 4 0.000000 0.000000 0.000000 0.042037 0.000000 -0.006895
# 5 -0.002341 -0.000803 -0.005115 0.000000 0.023464 0.000000
# 6 0.000000 0.000000 0.000000 -0.006895 0.000000 0.026458
#
#
# Mechanical properties :
#
#
# Convention : Reuss Voigt Hill
#
# Bulk Modulus (GPa) = 20.41433 27.45685 23.93559
# Shear Modulus (GPa) = 31.75928 36.81412 34.28670
#
# Velocity S-wave (km/s) = 3.69839 3.98185 3.84274
# Velocity P-wave (km/s) = 5.19900 5.74154 5.47699
#
# Compressibility (1/GPa) = 0.04898520
#
# Stress axis : x y z
#
# Youngs Moduli (GPa) = 92.08063 44.92799 62.70375
#
# Poissons Ratio (x) = -0.09085 0.19644
# Poissons Ratio (y) = -0.18619 -0.06712
# Poissons Ratio (z) = 0.28848 -0.04810
#
# Static dielectric constant tensor:
#      x y z
#    x 1.831500 0.000000 -0.027580 
#    y 0.000000 1.941870 0.000000 
#    z -0.027580 0.000000 1.801690 
# 
# From -- ./inp_files/1008.got.cif
#   From: 2010.05.17/outbox.cif.g08.bks.cpg/sg4_1_cif.got.tgz:1008.got - 2010.06.03 18:43:04.
