data_PCOD9119529
_publ_section_title
;
Structure prediction by ZEFSAII (Michael W. Deem and Ramdas Pophale) SiO2 
 PCOD9119529
Probable space group: P 21
;
_chemical_formula_sum "Si O2"
_cell_formula_units_Z 16
_cell_length_a 8.383728
_cell_length_b 9.070043
_cell_length_c 12.045833
_cell_angle_alpha 90.000000
_cell_angle_beta 53.832606
_cell_angle_gamma 90.000000
_cell_volume 739.462777
_symmetry_space_group_name_H-M "P 21"
_symmetry_group_IT_number 4
_symmetry_cell_setting 'monoclinic'
loop_
_space_group_symop_operation_xyz
x,y,z
-x,1/2+y,-z
loop_
_atom_site_type_symbol
_atom_site_label
_atom_site_fract_x
_atom_site_fract_y
_atom_site_fract_z
Si Si1 0.538523 0.772280 0.342131
Si Si2 0.207268 0.384796 0.472140
Si Si3 0.687414 0.488706 0.398753
Si Si4 0.140512 0.476734 0.754993
Si Si5 0.429341 0.734756 0.139373
Si Si6 0.650149 0.271337 0.238371
Si Si7 0.055925 0.627316 0.369697
Si Si8 0.681233 0.444528 0.997398
O O1 0.554714 0.614631 0.395030
O O2 0.431167 0.885178 0.468251
O O3 0.761223 0.829987 0.234542
O O4 0.437045 0.777506 0.265218
O O5 0.176369 0.453864 0.607778
O O6 0.418322 0.301873 0.367471
O O7 0.172735 0.512640 0.397756
O O8 0.032318 0.266163 0.528115
O O9 0.765997 0.387198 0.267721
O O10 0.864384 0.559188 0.392629
O O11 0.261820 0.613094 0.761225
O O12 0.907853 0.479045 0.872896
O O13 0.206429 0.678051 0.213295
O O14 0.445033 0.870741 0.050135
O O15 0.580186 0.600801 0.065301
O O16 0.671502 0.328722 0.103948
#
# Coordination Sequence:
#
# PCOD9119529 Si02
#       8
#     2   2   2   2   2   2   2   2
#     4  12  24  47  74 109 147 194 247 321 368 445
#     4  12  25  47  75 113 144 194 241 316 374 435
#     4  12  23  43  77 108 147 190 245 312 381 431
#     4  12  28  47  76 109 147 193 258 301 375 455
#     4  12  28  50  71 106 156 199 249 307 372 450
#     4  12  28  47  76 110 147 193 253 308 379 442
#     4  12  25  43  72 109 151 184 245 307 378 438
#     4  12  29  52  73 108 153 205 248 302 379 450
#
# _framework density 21.637329000000001
#
# number of rings (size 3 to 8) (size 9 to 14) (size 15 to 20)
#    0.000    0.000    6.250    2.250    7.000    3.000 
#    0.000    0.000    0.000    0.000    0.000    0.000 
#    0.000    0.000    0.000    0.000    0.000    0.000 
#
# Total GULP energy -89445.674156 kJ/mol
# GULP energy per Si atom -5590.354635 kJ/mol
# Density = 2.158808 g / cm^3
# Si number density = 21.637329 Si / 1000 Ang^3
#
#
#
# Elastic Constant Matrix: (Units=GPa)
#
#
# Indices 1 2 3 4 5 6 
#
# 1 80.9982 26.3285 38.3445 0.0000 14.9913 0.0000
# 2 26.3285 99.5735 28.9336 0.0000 11.6118 0.0000
# 3 38.3445 28.9336 91.6137 0.0000 2.1806 0.0000
# 4 0.0000 0.0000 0.0000 29.6162 0.0000 3.7031
# 5 14.9913 11.6118 2.1806 0.0000 45.2344 0.0000
# 6 0.0000 0.0000 0.0000 3.7031 0.0000 47.7960
#
#
#
# Elastic Compliance Matrix: (Units=1/GPa)
#
#
# Indices 1 2 3 4 5 6 
#
# 1 0.016883 -0.002080 -0.006296 0.000000 -0.004758 0.000000
# 2 -0.002080 0.011646 -0.002756 0.000000 -0.002168 0.000000
# 3 -0.006296 -0.002756 0.014371 0.000000 0.002101 0.000000
# 4 0.000000 0.000000 0.000000 0.034096 0.000000 -0.002642
# 5 -0.004758 -0.002168 0.002101 0.000000 0.024139 0.000000
# 6 0.000000 0.000000 0.000000 -0.002642 0.000000 0.021127
#
#
# Mechanical properties :
#
#
# Convention : Reuss Voigt Hill
#
# Bulk Modulus (GPa) = 48.45813 51.04427 49.75120
# Shear Modulus (GPa) = 33.02390 36.43458 34.72924
#
# Velocity S-wave (km/s) = 3.91096 4.10796 4.01067
# Velocity P-wave (km/s) = 6.54510 6.79283 6.67011
#
# Compressibility (1/GPa) = 0.02063637
#
# Stress axis : x y z
#
# Youngs Moduli (GPa) = 59.23023 85.86365 69.58395
#
# Poissons Ratio (x) = 0.17857 0.43812
# Poissons Ratio (y) = 0.12318 0.19178
# Poissons Ratio (z) = 0.37293 0.23665
#
# Static dielectric constant tensor:
#      x y z
#    x 1.805160 0.000000 -0.012030 
#    y 0.000000 1.824380 0.000000 
#    z -0.012030 0.000000 1.790620 
# 
# From -- ./inp_files/11025.got.cif
#   From: 2010.05.17/outbox.cif.g08.bks.cpg/sg4_6_cif.got.tgz:11025.got - 2010.06.03 18:43:04.
