data_PCOD9119247
_publ_section_title
;
Structure prediction by ZEFSAII (Michael W. Deem and Ramdas Pophale) SiO2 
 PCOD9119247
Probable space group: P 21
;
_chemical_formula_sum "Si O2"
_cell_formula_units_Z 14
_cell_length_a 19.353691
_cell_length_b 5.144581
_cell_length_c 24.689610
_cell_angle_alpha 90.000000
_cell_angle_beta 13.122843
_cell_angle_gamma 90.000000
_cell_volume 558.122659
_symmetry_space_group_name_H-M "P 21"
_symmetry_group_IT_number 4
_symmetry_cell_setting 'monoclinic'
loop_
_space_group_symop_operation_xyz
x,y,z
-x,1/2+y,-z
loop_
_atom_site_type_symbol
_atom_site_label
_atom_site_fract_x
_atom_site_fract_y
_atom_site_fract_z
Si Si1 0.564900 0.141610 0.412792
Si Si2 0.804619 0.078824 0.647429
Si Si3 0.637901 0.816150 0.089049
Si Si4 0.347451 0.883610 0.131544
Si Si5 0.235388 0.930563 0.566896
Si Si6 0.711306 0.715220 0.581763
Si Si7 0.739868 0.605264 0.127398
O O1 0.525942 0.404340 0.477496
O O2 0.353096 0.139267 0.521252
O O3 0.905764 0.088383 0.129803
O O4 0.570218 0.091282 0.776846
O O5 0.638837 0.220243 0.823552
O O6 0.067537 0.295729 0.437419
O O7 0.748990 0.772219 0.065167
O O8 0.411075 0.056902 0.273106
O O9 0.926788 0.834153 0.829903
O O10 0.999567 0.892434 0.376671
O O11 0.519468 0.669338 0.963936
O O12 0.165167 0.025479 0.559910
O O13 0.516037 0.730558 0.342760
O O14 0.431238 0.851773 0.764614
#
# Coordination Sequence:
#
# PCOD9119247 Si02
#       7
#     2   2   2   2   2   2   2
#     4  12  28  52  79 114 154 195 249 305 378 448
#     4  12  25  45  74 104 145 196 244 304 370 435
#     4  11  24  49  70 108 147 195 249 304 372 446
#     4  12  27  47  72 109 150 195 252 313 370 439
#     4  11  27  46  78 111 146 199 245 304 377 444
#     4  11  26  47  74 105 153 197 250 313 370 443
#     4  11  27  46  79 107 153 193 247 311 369 451
#
# _framework density 25.08409
#
# number of rings (size 3 to 8) (size 9 to 14) (size 15 to 20)
#    0.000    0.571    2.857    3.429   12.000    1.143 
#    0.000    0.000    0.000    0.000    0.000    0.000 
#    0.000    0.000    0.000    0.000    0.000    0.000 
#
# Total GULP energy -78285.951303 kJ/mol
# GULP energy per Si atom -5591.853665 kJ/mol
# Density = 2.502700 g / cm^3
# Si number density = 25.084090 Si / 1000 Ang^3
#
#
#
# Elastic Constant Matrix: (Units=GPa)
#
#
# Indices 1 2 3 4 5 6 
#
# 1 60.4197 18.2924 44.4404 0.0000 5.4747 0.0000
# 2 18.2924 62.8609 24.6292 0.0000 27.8916 0.0000
# 3 44.4404 24.6292 166.6226 0.0000 29.1476 0.0000
# 4 0.0000 0.0000 0.0000 -13.0120 0.0000 -18.1802
# 5 5.4747 27.8916 29.1476 0.0000 57.1303 0.0000
# 6 0.0000 0.0000 0.0000 -18.1802 0.0000 22.0351
#
#
#
# Elastic Compliance Matrix: (Units=1/GPa)
#
#
# Indices 1 2 3 4 5 6 
#
# 1 0.022169 -0.005831 -0.005685 0.000000 0.003623 0.000000
# 2 -0.005831 0.022139 0.000083 0.000000 -0.010292 0.000000
# 3 -0.005685 0.000083 0.008144 0.000000 -0.003651 0.000000
# 4 0.000000 0.000000 0.000000 -0.035699 0.000000 -0.029454
# 5 0.003623 -0.010292 -0.003651 0.000000 0.024044 0.000000
# 6 0.000000 0.000000 0.000000 -0.029454 0.000000 0.021081
#
#
# Mechanical properties :
#
#
# Convention : Reuss Voigt Hill
#
# Bulk Modulus (GPa) = 33.79853 51.62524 42.71188
# Shear Modulus (GPa) = 52.85057 26.73341 39.79199
#
# Velocity S-wave (km/s) = 4.59512 3.26813 3.98721
# Velocity P-wave (km/s) = 6.45421 5.90478 6.18560
#
# Compressibility (1/GPa) = 0.02958709
#
# Stress axis : x y z
#
# Youngs Moduli (GPa) = 45.10742 45.16878 122.78817
#
# Poissons Ratio (x) = 0.26340 0.69800
# Poissons Ratio (y) = 0.26304 -0.01023
# Poissons Ratio (z) = 0.25642 -0.00376
#
# Static dielectric constant tensor:
#      x y z
#    x 2.189170 0.000000 0.169520 
#    y 0.000000 2.057920 0.000000 
#    z 0.169520 0.000000 2.112940 
# 
# From -- ./inp_files/14091.got.cif
#   From: 2010.05.17/outbox.cif.g08.bks.cpg/sg4_8_cif.got.tgz:14091.got - 2010.06.03 18:43:04.
