data_PCOD9119637
_publ_section_title
;
Structure prediction by ZEFSAII (Michael W. Deem and Ramdas Pophale) SiO2 
 PCOD9119637
Probable space group: P 21
;
_chemical_formula_sum "Si O2"
_cell_formula_units_Z 16
_cell_length_a 13.216728
_cell_length_b 4.973548
_cell_length_c 23.482930
_cell_angle_alpha 90.000000
_cell_angle_beta 156.751045
_cell_angle_gamma 90.000000
_cell_volume 609.311664
_symmetry_space_group_name_H-M "P 21"
_symmetry_group_IT_number 4
_symmetry_cell_setting 'monoclinic'
loop_
_space_group_symop_operation_xyz
x,y,z
-x,1/2+y,-z
loop_
_atom_site_type_symbol
_atom_site_label
_atom_site_fract_x
_atom_site_fract_y
_atom_site_fract_z
Si Si1 0.016764 0.549010 0.545522
Si Si2 0.569114 0.257651 0.381220
Si Si3 0.186938 0.954447 0.394303
Si Si4 0.637944 0.840043 0.821894
Si Si5 0.399751 0.365007 0.918004
Si Si6 0.505664 0.259086 0.845883
Si Si7 0.654403 0.354789 0.652604
Si Si8 0.027845 0.572525 0.096571
O O1 0.768657 0.473432 0.453800
O O2 0.997558 0.354060 0.480942
O O3 0.276123 0.462198 0.711611
O O4 0.778897 0.213522 0.542811
O O5 0.506741 0.102011 0.286780
O O6 0.351669 0.119285 0.311163
O O7 0.293955 0.471163 0.205672
O O8 0.398469 0.170803 0.526208
O O9 0.291534 0.899157 0.385265
O O10 0.884252 0.995649 0.232606
O O11 0.504525 0.008943 0.801800
O O12 0.912823 0.776290 0.990518
O O13 0.477727 0.224132 0.898712
O O14 0.419085 0.118194 0.972628
O O15 0.786509 0.381168 0.979354
O O16 0.890476 0.192817 0.801821
#
# Coordination Sequence:
#
# PCOD9119637 Si02
#       8
#     2   2   2   2   2   2   2   2
#     4  12  28  48  78 113 156 205 260 324 402 482
#     4  12  26  47  76 113 159 205 263 334 400 486
#     4  12  27  51  79 113 157 212 275 331 409 472
#     4  12  25  45  71 114 154 204 257 327 407 481
#     4  12  32  55  84 117 162 215 275 340 406 485
#     4  12  28  48  76 109 158 208 264 330 403 488
#     4  12  28  47  81 112 158 210 274 339 400 479
#     4  12  26  45  75 111 158 205 264 331 403 483
#
# _framework density 26.259141
#
# number of rings (size 3 to 8) (size 9 to 14) (size 15 to 20)
#    0.000    0.000    6.250    2.250    8.750    1.000 
#    0.000    0.000    0.000    0.000    0.000    0.000 
#    0.000    0.000    0.000    0.000    0.000    0.000 
#
# Total GULP energy -89174.457506 kJ/mol
# GULP energy per Si atom -5573.403594 kJ/mol
# Density = 2.619937 g / cm^3
# Si number density = 26.259141 Si / 1000 Ang^3
#
#
#
# Elastic Constant Matrix: (Units=GPa)
#
#
# Indices 1 2 3 4 5 6 
#
# 1 173.6222 25.9610 80.8007 0.0000 -7.4424 0.0000
# 2 25.9610 57.7239 59.6102 0.0000 -0.0965 0.0000
# 3 80.8007 59.6102 180.3300 0.0000 0.0272 0.0000
# 4 0.0000 0.0000 0.0000 44.9775 0.0000 7.8027
# 5 -7.4424 -0.0965 0.0272 0.0000 64.5451 0.0000
# 6 0.0000 0.0000 0.0000 7.8027 0.0000 27.6038
#
#
#
# Elastic Compliance Matrix: (Units=1/GPa)
#
#
# Indices 1 2 3 4 5 6 
#
# 1 0.007324 0.000147 -0.003330 0.000000 0.000846 0.000000
# 2 0.000147 0.026306 -0.008761 0.000000 0.000060 0.000000
# 3 -0.003330 -0.008761 0.009934 0.000000 -0.000401 0.000000
# 4 0.000000 0.000000 0.000000 0.023380 0.000000 -0.006609
# 5 0.000846 0.000060 -0.000401 0.000000 0.015591 0.000000
# 6 0.000000 0.000000 0.000000 -0.006609 0.000000 0.038095
#
#
# Mechanical properties :
#
#
# Convention : Reuss Voigt Hill
#
# Bulk Modulus (GPa) = 50.83017 82.71333 66.77175
# Shear Modulus (GPa) = 33.09583 43.77891 38.43737
#
# Velocity S-wave (km/s) = 3.55400 4.08755 3.83008
# Velocity P-wave (km/s) = 6.02000 7.33789 6.71137
#
# Compressibility (1/GPa) = 0.01967336
#
# Stress axis : x y z
#
# Youngs Moduli (GPa) = 136.54155 38.01465 100.66697
#
# Poissons Ratio (x) = -0.00557 0.33524
# Poissons Ratio (y) = -0.02001 0.88197
# Poissons Ratio (z) = 0.45470 0.33306
#
# Static dielectric constant tensor:
#      x y z
#    x 2.069980 0.000000 0.022640 
#    y 0.000000 2.298890 0.000000 
#    z 0.022640 0.000000 2.123020 
# 
# From -- ./inp_files/16149.got.cif
#   From: 2010.05.17/outbox.cif.g08.bks.cpg/sg4_9_cif.got.tgz:16149.got - 2010.06.03 18:43:04.
