data_PCOD9119561
_publ_section_title
;
Structure prediction by ZEFSAII (Michael W. Deem and Ramdas Pophale) SiO2 
 PCOD9119561
Probable space group: P 21
;
_chemical_formula_sum "Si O2"
_cell_formula_units_Z 12
_cell_length_a 8.788797
_cell_length_b 11.948630
_cell_length_c 4.852755
_cell_angle_alpha 90.000000
_cell_angle_beta 93.005100
_cell_angle_gamma 90.000000
_cell_volume 508.906843
_symmetry_space_group_name_H-M "P 21"
_symmetry_group_IT_number 4
_symmetry_cell_setting 'monoclinic'
loop_
_space_group_symop_operation_xyz
x,y,z
-x,1/2+y,-z
loop_
_atom_site_type_symbol
_atom_site_label
_atom_site_fract_x
_atom_site_fract_y
_atom_site_fract_z
Si Si1 0.741812 0.891060 0.727507
Si Si2 0.441693 0.170942 0.299546
Si Si3 0.442630 0.022022 0.802426
Si Si4 0.808274 0.388769 0.569663
Si Si5 0.104676 0.493558 0.789347
Si Si6 0.773483 0.236036 0.101396
O O1 0.685802 0.765335 0.682759
O O2 0.786332 0.955097 0.452030
O O3 0.596318 0.952625 0.849920
O O4 0.873329 0.905013 0.963272
O O5 0.477197 0.125103 0.604318
O O6 0.600376 0.215460 0.189038
O O7 0.389918 0.071799 0.087896
O O8 0.324249 0.948473 0.617664
O O9 0.865487 0.297290 0.354446
O O10 0.934810 0.479406 0.660916
O O11 0.766224 0.315452 0.833673
O O12 0.150078 0.613855 0.917104
#
# Coordination Sequence:
#
# PCOD9119561 Si02
#       6
#     2   2   2   2   2   2
#     4  12  24  44  72 102 139 185 242 289 350 426
#     4  12  25  42  76 108 137 185 242 293 353 420
#     4  12  24  44  71 108 136 184 241 293 346 424
#     4  12  28  45  73 103 146 186 237 298 357 431
#     4  12  27  47  70 104 145 187 235 298 359 430
#     4  12  24  46  74 101 141 193 233 293 373 417
#
# _framework density 23.579953
#
# number of rings (size 3 to 8) (size 9 to 14) (size 15 to 20)
#    0.000    0.000    5.000    5.000    2.333    4.000 
#    0.000    0.000    0.000    0.000    0.000    0.000 
#    0.000    0.000    0.000    0.000    0.000    0.000 
#
# Total GULP energy -67201.377478 kJ/mol
# GULP energy per Si atom -5600.114790 kJ/mol
# Density = 2.352628 g / cm^3
# Si number density = 23.579953 Si / 1000 Ang^3
#
#
#
# Elastic Constant Matrix: (Units=GPa)
#
#
# Indices 1 2 3 4 5 6 
#
# 1 65.1176 15.3287 2.8677 0.0000 11.8097 0.0000
# 2 15.3287 64.5423 2.5591 0.0000 -2.0418 0.0000
# 3 2.8677 2.5591 91.3033 0.0000 6.6307 0.0000
# 4 0.0000 0.0000 0.0000 49.1427 0.0000 0.9761
# 5 11.8097 -2.0418 6.6307 0.0000 35.5703 0.0000
# 6 0.0000 0.0000 0.0000 0.9761 0.0000 29.7533
#
#
#
# Elastic Compliance Matrix: (Units=1/GPa)
#
#
# Indices 1 2 3 4 5 6 
#
# 1 0.017476 -0.004343 0.000012 0.000000 -0.006054 0.000000
# 2 -0.004343 0.016624 -0.000510 0.000000 0.002491 0.000000
# 3 0.000012 -0.000510 0.011119 0.000000 -0.002106 0.000000
# 4 0.000000 0.000000 0.000000 0.020362 0.000000 -0.000668
# 5 -0.006054 0.002491 -0.002106 0.000000 0.030659 0.000000
# 6 0.000000 0.000000 0.000000 -0.000668 0.000000 0.033632
#
#
# Mechanical properties :
#
#
# Convention : Reuss Voigt Hill
#
# Bulk Modulus (GPa) = 28.13837 29.16381 28.65109
# Shear Modulus (GPa) = 33.02503 36.24043 34.63273
#
# Velocity S-wave (km/s) = 3.74646 3.92461 3.83657
# Velocity P-wave (km/s) = 5.53838 5.73861 5.63938
#
# Compressibility (1/GPa) = 0.03553867
#
# Stress axis : x y z
#
# Youngs Moduli (GPa) = 57.21979 60.15353 89.93300
#
# Poissons Ratio (x) = 0.26123 -0.00112
# Poissons Ratio (y) = 0.24849 0.04591
# Poissons Ratio (z) = -0.00071 0.03071
#
# Static dielectric constant tensor:
#      x y z
#    x 1.908380 0.000000 -0.034180 
#    y 0.000000 1.942030 0.000000 
#    z -0.034180 0.000000 1.845190 
# 
# From -- ./inp_files/1158.got.cif
#   From: 2010.05.17/outbox.cif.g08.bks.cpg/sg4_1_cif.got.tgz:1158.got - 2010.06.03 18:43:04.
