data_PCOD9119142
_publ_section_title
;
Structure prediction by ZEFSAII (Michael W. Deem and Ramdas Pophale) SiO2 
 PCOD9119142
Probable space group: P 21
;
_chemical_formula_sum "Si O2"
_cell_formula_units_Z 16
_cell_length_a 8.685282
_cell_length_b 8.376002
_cell_length_c 10.828606
_cell_angle_alpha 90.000000
_cell_angle_beta 54.136412
_cell_angle_gamma 90.000000
_cell_volume 638.410834
_symmetry_space_group_name_H-M "P 21"
_symmetry_group_IT_number 4
_symmetry_cell_setting 'monoclinic'
loop_
_space_group_symop_operation_xyz
x,y,z
-x,1/2+y,-z
loop_
_atom_site_type_symbol
_atom_site_label
_atom_site_fract_x
_atom_site_fract_y
_atom_site_fract_z
Si Si1 0.449226 0.626280 0.134039
Si Si2 0.719501 0.415957 0.655614
Si Si3 0.139252 0.172391 0.050743
Si Si4 0.111256 0.416692 0.589470
Si Si5 0.769167 0.251771 0.369793
Si Si6 0.526172 0.857976 0.703613
Si Si7 0.361651 0.597272 0.920038
Si Si8 0.007961 0.804296 0.102251
O O1 0.313763 0.770057 0.233966
O O2 0.485552 0.539328 0.246718
O O3 0.655509 0.671061 0.986691
O O4 0.359423 0.535573 0.060329
O O5 0.750875 0.356724 0.501425
O O6 0.515136 0.504297 0.763914
O O7 0.920801 0.483533 0.613094
O O8 0.974003 0.256969 0.206543
O O9 0.092462 0.983486 0.053119
O O10 0.158222 0.277384 0.917635
O O11 0.231771 0.564812 0.589811
O O12 0.254686 0.327811 0.430899
O O13 0.060999 0.299792 0.725534
O O14 0.610124 0.303510 0.344286
O O15 0.457854 0.770958 0.859059
O O16 0.147520 0.659001 0.996724
#
# Coordination Sequence:
#
# PCOD9119142 Si02
#       8
#     2   2   2   2   2   2   2   2
#     4  12  25  48  76 110 152 204 266 326 388 467
#     4  12  28  46  78 115 151 213 258 329 405 467
#     4  11  24  45  74 107 157 199 268 321 391 472
#     4  11  27  50  76 110 165 201 270 320 400 484
#     4  11  26  49  76 113 159 209 255 330 406 468
#     4  12  27  48  77 113 159 209 264 327 400 481
#     4  12  25  49  72 108 156 205 262 323 393 468
#     4  11  24  47  73 108 149 210 259 328 385 467
#
# _framework density 25.062232000000002
#
# number of rings (size 3 to 8) (size 9 to 14) (size 15 to 20)
#    0.000    0.500    5.000    2.250    8.750    0.000 
#    2.250    0.000    0.000    0.000    0.000    0.000 
#    0.000    0.000    0.000    0.000    0.000    0.000 
#
# Total GULP energy -89295.384787 kJ/mol
# GULP energy per Si atom -5580.961549 kJ/mol
# Density = 2.500519 g / cm^3
# Si number density = 25.062232 Si / 1000 Ang^3
#
#
#
# Elastic Constant Matrix: (Units=GPa)
#
#
# Indices 1 2 3 4 5 6 
#
# 1 79.3707 17.7924 36.5150 0.0000 -7.2883 0.0000
# 2 17.7924 48.8348 21.4568 0.0000 -9.6234 0.0000
# 3 36.5150 21.4568 103.5376 0.0000 -11.4721 0.0000
# 4 0.0000 0.0000 0.0000 47.4696 0.0000 -0.3018
# 5 -7.2883 -9.6234 -11.4721 0.0000 33.4311 0.0000
# 6 0.0000 0.0000 0.0000 -0.3018 0.0000 38.7879
#
#
#
# Elastic Compliance Matrix: (Units=1/GPa)
#
#
# Indices 1 2 3 4 5 6 
#
# 1 0.015611 -0.003467 -0.004699 0.000000 0.000793 0.000000
# 2 -0.003467 0.024159 -0.003220 0.000000 0.005094 0.000000
# 3 -0.004699 -0.003220 0.012232 0.000000 0.002246 0.000000
# 4 0.000000 0.000000 0.000000 0.021067 0.000000 0.000164
# 5 0.000793 0.005094 0.002246 0.000000 0.032322 0.000000
# 6 0.000000 0.000000 0.000000 0.000164 0.000000 0.025783
#
#
# Mechanical properties :
#
#
# Convention : Reuss Voigt Hill
#
# Bulk Modulus (GPa) = 34.21121 42.58572 38.39846
# Shear Modulus (GPa) = 30.54599 34.33631 32.44115
#
# Velocity S-wave (km/s) = 3.49493 3.70542 3.60171
# Velocity P-wave (km/s) = 5.47414 5.94439 5.71410
#
# Compressibility (1/GPa) = 0.02923019
#
# Stress axis : x y z
#
# Youngs Moduli (GPa) = 64.05747 41.39317 81.75458
#
# Poissons Ratio (x) = 0.14350 0.38419
# Poissons Ratio (y) = 0.22207 0.26321
# Poissons Ratio (z) = 0.30103 0.13327
#
# Static dielectric constant tensor:
#      x y z
#    x 1.957880 0.000000 -0.008260 
#    y 0.000000 2.080120 0.000000 
#    z -0.008260 0.000000 1.966660 
# 
# From -- ./inp_files/11022.got.cif
#   From: 2010.05.17/outbox.cif.g08.bks.cpg/sg4_6_cif.got.tgz:11022.got - 2010.06.03 18:43:04.
