data_PCOD9119703
_publ_section_title
;
Structure prediction by ZEFSAII (Michael W. Deem and Ramdas Pophale) SiO2 
 PCOD9119703
Probable space group: P 21
;
_chemical_formula_sum "Si O2"
_cell_formula_units_Z 12
_cell_length_a 16.002644
_cell_length_b 5.114492
_cell_length_c 8.946985
_cell_angle_alpha 90.000000
_cell_angle_beta 36.806916
_cell_angle_gamma 90.000000
_cell_volume 438.717496
_symmetry_space_group_name_H-M "P 21"
_symmetry_group_IT_number 4
_symmetry_cell_setting 'monoclinic'
loop_
_space_group_symop_operation_xyz
x,y,z
-x,1/2+y,-z
loop_
_atom_site_type_symbol
_atom_site_label
_atom_site_fract_x
_atom_site_fract_y
_atom_site_fract_z
Si Si1 0.925679 0.329880 0.573125
Si Si2 0.659551 0.502249 0.129847
Si Si3 0.535045 0.001600 0.149023
Si Si4 0.701234 0.859403 0.609347
Si Si5 0.221727 0.751616 0.755915
Si Si6 0.952215 0.522983 0.234982
O O1 0.900405 0.321558 0.433613
O O2 0.051180 0.538606 0.405255
O O3 0.808235 0.479935 0.834497
O O4 0.581359 0.764793 0.191520
O O5 0.687182 0.429004 0.263091
O O6 0.579911 0.260935 0.170588
O O7 0.379203 0.088065 0.321181
O O8 0.621197 0.958873 0.871246
O O9 0.860935 0.776310 0.406345
O O10 0.700432 0.066631 0.474724
O O11 0.105752 0.929040 0.840115
O O12 0.117547 0.560198 0.996582
#
# Coordination Sequence:
#
# PCOD9119703 Si02
#       6
#     2   2   2   2   2   2
#     4  12  26  45  80 119 164 214 275 347 423 512
#     4  12  28  52  82 125 167 224 283 354 427 502
#     4  12  29  55  86 117 169 230 298 344 406 528
#     4  12  29  54  85 124 162 232 291 348 429 512
#     4  12  29  49  85 126 176 220 279 363 444 503
#     4  12  27  47  82 121 172 216 276 354 439 513
#
# _framework density 27.352454999999999
#
# number of rings (size 3 to 8) (size 9 to 14) (size 15 to 20)
#    0.000    0.000    5.000    3.000   11.667    0.000 
#    3.000    0.000    0.000    0.000    0.000    0.000 
#    0.000    0.000    0.000    0.000    0.000    0.000 
#
# Total GULP energy -67290.786069 kJ/mol
# GULP energy per Si atom -5607.565506 kJ/mol
# Density = 2.729020 g / cm^3
# Si number density = 27.352455 Si / 1000 Ang^3
#
#
#
# Elastic Constant Matrix: (Units=GPa)
#
#
# Indices 1 2 3 4 5 6 
#
# 1 120.4902 61.1185 58.3810 0.0000 30.4703 0.0000
# 2 61.1185 195.6590 36.5610 0.0000 3.7852 0.0000
# 3 58.3810 36.5610 108.0848 0.0000 1.1876 0.0000
# 4 0.0000 0.0000 0.0000 43.3818 0.0000 2.5224
# 5 30.4703 3.7852 1.1876 0.0000 38.3503 0.0000
# 6 0.0000 0.0000 0.0000 2.5224 0.0000 63.1351
#
#
#
# Elastic Compliance Matrix: (Units=1/GPa)
#
#
# Indices 1 2 3 4 5 6 
#
# 1 0.017377 -0.003679 -0.007997 0.000000 -0.013196 0.000000
# 2 -0.003679 0.006243 -0.000150 0.000000 0.002311 0.000000
# 3 -0.007997 -0.000150 0.013557 0.000000 0.005949 0.000000
# 4 0.000000 0.000000 0.000000 0.023105 0.000000 -0.000923
# 5 -0.013196 0.002311 0.005949 0.000000 0.036148 0.000000
# 6 0.000000 0.000000 0.000000 -0.000923 0.000000 0.015876
#
#
# Mechanical properties :
#
#
# Convention : Reuss Voigt Hill
#
# Bulk Modulus (GPa) = 73.93175 81.81724 77.87449
# Shear Modulus (GPa) = 35.59587 46.85167 41.22377
#
# Velocity S-wave (km/s) = 3.61137 4.14319 3.88639
# Velocity P-wave (km/s) = 6.66913 7.27085 6.97648
#
# Compressibility (1/GPa) = 0.01352599
#
# Stress axis : x y z
#
# Youngs Moduli (GPa) = 57.54698 160.16909 73.76328
#
# Poissons Ratio (x) = 0.58919 0.58987
# Poissons Ratio (y) = 0.21169 0.01109
# Poissons Ratio (z) = 0.46019 0.02408
#
# Static dielectric constant tensor:
#      x y z
#    x 2.213810 0.000000 -0.052870 
#    y 0.000000 2.137340 0.000000 
#    z -0.052870 0.000000 2.245740 
# 
# From -- ./inp_files/8777.got.cif
#   From: 2010.05.17/outbox.cif.g08.bks.cpg/sg4_5_cif.got.tgz:8777.got - 2010.06.03 18:43:04.
