data_PCOD9119543
_publ_section_title
;
Structure prediction by ZEFSAII (Michael W. Deem and Ramdas Pophale) SiO2 
 PCOD9119543
Probable space group: P 21
;
_chemical_formula_sum "Si O2"
_cell_formula_units_Z 12
_cell_length_a 19.451724
_cell_length_b 4.906842
_cell_length_c 6.229151
_cell_angle_alpha 90.000000
_cell_angle_beta 52.709183
_cell_angle_gamma 90.000000
_cell_volume 473.007203
_symmetry_space_group_name_H-M "P 21"
_symmetry_group_IT_number 4
_symmetry_cell_setting 'monoclinic'
loop_
_space_group_symop_operation_xyz
x,y,z
-x,1/2+y,-z
loop_
_atom_site_type_symbol
_atom_site_label
_atom_site_fract_x
_atom_site_fract_y
_atom_site_fract_z
Si Si1 0.143837 0.692260 0.104707
Si Si2 0.020081 0.028622 0.839198
Si Si3 0.182503 0.201680 0.291576
Si Si4 0.317793 0.630557 0.567283
Si Si5 0.356428 0.134461 0.201832
Si Si6 0.550721 0.333580 0.338814
O O1 0.047649 0.643096 0.205627
O O2 0.156588 0.508394 0.289788
O O3 0.165868 0.002487 0.120847
O O4 0.217183 0.576223 0.805206
O O5 0.118007 0.084740 0.591398
O O6 0.998484 0.213803 0.085678
O O7 0.281166 0.199462 0.174108
O O8 0.364829 0.396739 0.339075
O O9 0.366338 0.701991 0.698624
O O10 0.322253 0.898868 0.418462
O O11 0.430651 0.995509 0.916520
O O12 0.511306 0.571494 0.564830
#
# Coordination Sequence:
#
# PCOD9119543 Si02
#       6
#     2   2   2   2   2   2
#     4  12  24  43  71 102 145 193 242 293 360 427
#     4  12  24  42  64 104 146 188 246 296 346 424
#     4  12  24  43  71 102 145 193 242 293 360 427
#     4  12  26  47  77 109 144 194 243 299 368 447
#     4  12  26  47  77 109 144 194 243 299 368 447
#     4  12  28  50  78 108 150 190 242 316 378 448
#
# _framework density 25.369596999999999
#
# number of rings (size 3 to 8) (size 9 to 14) (size 15 to 20)
#    0.000    0.000    1.667    9.000    2.333    2.667 
#    0.000    0.000    0.000    0.000    0.000    0.000 
#    0.000    0.000    0.000    0.000    0.000    0.000 
#
# Total GULP energy -67255.197092 kJ/mol
# GULP energy per Si atom -5604.599758 kJ/mol
# Density = 2.531185 g / cm^3
# Si number density = 25.369597 Si / 1000 Ang^3
#
#
#
# Elastic Constant Matrix: (Units=GPa)
#
#
# Indices 1 2 3 4 5 6 
#
# 1 42.8020 22.7675 1.7862 0.0000 -9.0860 0.0000
# 2 22.7675 131.5625 14.0175 0.0000 1.3818 0.0000
# 3 1.7862 14.0175 76.2459 0.0000 -9.0909 0.0000
# 4 0.0000 0.0000 0.0000 56.3108 0.0000 6.4614
# 5 -9.0860 1.3818 -9.0909 0.0000 28.0455 0.0000
# 6 0.0000 0.0000 0.0000 6.4614 0.0000 32.2149
#
#
#
# Elastic Compliance Matrix: (Units=1/GPa)
#
#
# Indices 1 2 3 4 5 6 
#
# 1 0.028116 -0.005124 0.001456 0.000000 0.009833 0.000000
# 2 -0.005124 0.008707 -0.001799 0.000000 -0.002672 0.000000
# 3 0.001456 -0.001799 0.014021 0.000000 0.005105 0.000000
# 4 0.000000 0.000000 0.000000 0.018177 0.000000 -0.003646
# 5 0.009833 -0.002672 0.005105 0.000000 0.040628 0.000000
# 6 0.000000 0.000000 0.000000 -0.003646 0.000000 0.031773
#
#
# Mechanical properties :
#
#
# Convention : Reuss Voigt Hill
#
# Bulk Modulus (GPa) = 25.05719 36.41698 30.73709
# Shear Modulus (GPa) = 30.18229 37.45018 33.81623
#
# Velocity S-wave (km/s) = 3.45295 3.84628 3.65491
# Velocity P-wave (km/s) = 5.07892 5.84045 5.47295
#
# Compressibility (1/GPa) = 0.03990870
#
# Stress axis : x y z
#
# Youngs Moduli (GPa) = 35.56752 114.84414 71.32230
#
# Poissons Ratio (x) = 0.58845 -0.10383
# Poissons Ratio (y) = 0.18224 0.12834
# Poissons Ratio (z) = -0.05178 0.20665
#
# Static dielectric constant tensor:
#      x y z
#    x 2.013910 0.000000 0.029040 
#    y 0.000000 1.912650 0.000000 
#    z 0.029040 0.000000 2.035980 
# 
# From -- ./inp_files/4225.got.cif
#   From: 2010.05.17/outbox.cif.g08.bks.cpg/sg4_3_cif.got.tgz:4225.got - 2010.06.03 18:43:04.
