data_PCOD9119433
_publ_section_title
;
Structure prediction by ZEFSAII (Michael W. Deem and Ramdas Pophale) SiO2 
 PCOD9119433
Probable space group: P 21
;
_chemical_formula_sum "Si O2"
_cell_formula_units_Z 12
_cell_length_a 12.877669
_cell_length_b 9.116312
_cell_length_c 4.984410
_cell_angle_alpha 90.000000
_cell_angle_beta 60.464180
_cell_angle_gamma 90.000000
_cell_volume 509.111899
_symmetry_space_group_name_H-M "P 21"
_symmetry_group_IT_number 4
_symmetry_cell_setting 'monoclinic'
loop_
_space_group_symop_operation_xyz
x,y,z
-x,1/2+y,-z
loop_
_atom_site_type_symbol
_atom_site_label
_atom_site_fract_x
_atom_site_fract_y
_atom_site_fract_z
Si Si1 0.584594 0.141730 0.273888
Si Si2 0.845599 0.678998 0.797028
Si Si3 0.133258 0.422363 0.639068
Si Si4 0.360136 0.315363 0.701143
Si Si5 0.101930 0.983823 0.763630
Si Si6 0.263494 0.716436 0.416121
O O1 0.458214 0.221693 0.420824
O O2 0.633713 0.168234 0.509932
O O3 0.586970 0.964896 0.236382
O O4 0.676374 0.217521 0.951408
O O5 0.888776 0.829426 0.601460
O O6 0.894902 0.559432 0.528276
O O7 0.703499 0.710998 0.998964
O O8 0.874546 0.610940 0.048623
O O9 0.251387 0.366499 0.646340
O O10 0.162391 0.590885 0.536031
O O11 0.020404 0.413807 0.977534
O O12 0.204124 0.862003 0.608101
#
# Coordination Sequence:
#
# PCOD9119433 Si02
#       6
#     2   2   2   2   2   2
#     4  11  27  46  77 101 153 193 252 317 379 445
#     4  12  26  47  72 113 148 196 251 311 377 456
#     4  11  26  52  75 108 156 201 252 316 386 457
#     4  11  27  50  76 110 148 204 257 316 382 455
#     4  12  28  44  80 111 150 196 256 312 384 457
#     4  11  26  47  70 111 147 196 252 312 380 452
#
# _framework density 23.570454999999999
#
# number of rings (size 3 to 8) (size 9 to 14) (size 15 to 20)
#    0.000    0.667    3.333    2.000    9.333    1.333 
#    0.000    0.000    0.000    0.000    0.000    0.000 
#    0.000    0.000    0.000    0.000    0.000    0.000 
#
# Total GULP energy -67117.470105 kJ/mol
# GULP energy per Si atom -5593.122509 kJ/mol
# Density = 2.351681 g / cm^3
# Si number density = 23.570455 Si / 1000 Ang^3
#
#
#
# Elastic Constant Matrix: (Units=GPa)
#
#
# Indices 1 2 3 4 5 6 
#
# 1 45.2140 39.8905 22.5848 0.0000 -13.1714 0.0000
# 2 39.8905 108.5905 40.5470 0.0000 -22.4820 0.0000
# 3 22.5848 40.5470 140.4294 0.0000 -23.6536 0.0000
# 4 0.0000 0.0000 0.0000 55.1835 0.0000 -9.4234
# 5 -13.1714 -22.4820 -23.6536 0.0000 37.7861 0.0000
# 6 0.0000 0.0000 0.0000 -9.4234 0.0000 35.9096
#
#
#
# Elastic Compliance Matrix: (Units=1/GPa)
#
#
# Indices 1 2 3 4 5 6 
#
# 1 0.033803 -0.010949 -0.001551 0.000000 0.004298 0.000000
# 2 -0.010949 0.014702 -0.001849 0.000000 0.003774 0.000000
# 3 -0.001551 -0.001849 0.008527 0.000000 0.003697 0.000000
# 4 0.000000 0.000000 0.000000 0.018972 0.000000 0.004979
# 5 0.004298 0.003774 0.003697 0.000000 0.032523 0.000000
# 6 0.000000 0.000000 0.000000 0.004979 0.000000 0.029154
#
#
# Mechanical properties :
#
#
# Convention : Reuss Voigt Hill
#
# Bulk Modulus (GPa) = 35.29093 55.58648 45.43870
# Shear Modulus (GPa) = 28.43757 38.52326 33.48042
#
# Velocity S-wave (km/s) = 3.47723 4.04714 3.77296
# Velocity P-wave (km/s) = 5.57911 6.74340 6.18870
#
# Compressibility (1/GPa) = 0.02833589
#
# Stress axis : x y z
#
# Youngs Moduli (GPa) = 29.58276 68.01577 117.27439
#
# Poissons Ratio (x) = 0.74468 0.18193
# Poissons Ratio (y) = 0.32389 0.21679
# Poissons Ratio (z) = 0.04589 0.12573
#
# Static dielectric constant tensor:
#      x y z
#    x 1.907800 0.000000 0.010310 
#    y 0.000000 1.926090 0.000000 
#    z 0.010310 0.000000 1.845040 
# 
# From -- ./inp_files/3674.got.cif
#   From: 2010.05.17/outbox.cif.g08.bks.cpg/sg4_2_cif.got.tgz:3674.got - 2010.06.03 18:43:04.
