data_PCOD9119311
_publ_section_title
;
Structure prediction by ZEFSAII (Michael W. Deem and Ramdas Pophale) SiO2 
 PCOD9119311
Probable space group: P 21
;
_chemical_formula_sum "Si O2"
_cell_formula_units_Z 16
_cell_length_a 4.901228
_cell_length_b 22.809086
_cell_length_c 5.084806
_cell_angle_alpha 90.000000
_cell_angle_beta 96.896632
_cell_angle_gamma 90.000000
_cell_volume 564.330305
_symmetry_space_group_name_H-M "P 21"
_symmetry_group_IT_number 4
_symmetry_cell_setting 'monoclinic'
loop_
_space_group_symop_operation_xyz
x,y,z
-x,1/2+y,-z
loop_
_atom_site_type_symbol
_atom_site_label
_atom_site_fract_x
_atom_site_fract_y
_atom_site_fract_z
Si Si1 0.386382 0.498520 0.871230
Si Si2 0.326421 0.693109 0.424516
Si Si3 0.553798 0.396656 0.203312
Si Si4 0.903772 0.695243 0.849447
Si Si5 0.673572 0.600202 0.575480
Si Si6 0.915310 0.896655 0.463838
Si Si7 0.613615 0.794791 0.128771
Si Si8 0.903779 0.098068 0.849451
O O1 0.532778 0.545485 0.701867
O O2 0.189405 0.454805 0.691648
O O3 0.595191 0.455178 0.041892
O O4 0.223298 0.536951 0.062389
O O5 0.613020 0.672587 0.654431
O O6 0.467216 0.747826 0.298130
O O7 0.386972 0.620725 0.345567
O O8 0.123132 0.706289 0.643023
O O9 0.242331 0.396656 0.274271
O O10 0.595192 0.338134 0.041889
O O11 0.760856 0.396656 0.467383
O O12 0.925753 0.614227 0.848134
O O13 0.776697 0.756360 0.937607
O O14 0.074241 0.679084 0.151862
O O15 0.876860 0.587022 0.356973
O O16 0.810596 0.838505 0.308354
#
# Coordination Sequence:
#
# PCOD9119311 Si02
#       8
#     2   2   2   2   2   2   2   2
#     4  11  27  52  84 118 166 216 277 345 415 496
#     4  11  25  47  74 122 162 207 263 330 416 509
#     4  11  30  57  83 116 163 225 284 353 419 476
#     4  11  25  45  77 118 165 210 261 330 425 497
#     4  11  25  47  74 122 162 207 263 330 416 509
#     4  11  30  57  83 120 159 225 292 351 405 494
#     4  11  27  52  84 118 166 216 277 345 415 496
#     4  11  25  45  77 118 165 210 261 330 425 497
#
# _framework density 28.352191999999999
#
# number of rings (size 3 to 8) (size 9 to 14) (size 15 to 20)
#    0.000    1.000    2.500    0.750    3.500   10.000 
#    0.000    3.750    0.000    0.000    0.000    0.000 
#    0.000    0.000    0.000    0.000    0.000    0.000 
#
# Total GULP energy -89840.794598 kJ/mol
# GULP energy per Si atom -5615.049662 kJ/mol
# Density = 2.828766 g / cm^3
# Si number density = 28.352192 Si / 1000 Ang^3
#
#
#
# Elastic Constant Matrix: (Units=GPa)
#
#
# Indices 1 2 3 4 5 6 
#
# 1 130.3932 72.4035 34.4107 0.0000 -5.3475 0.0000
# 2 72.4035 273.6999 106.2747 0.0000 -6.0398 0.0000
# 3 34.4107 106.2747 196.3393 0.0000 -36.3088 0.0000
# 4 0.0000 0.0000 0.0000 70.7365 0.0000 -1.2829
# 5 -5.3475 -6.0398 -36.3088 0.0000 68.4871 0.0000
# 6 0.0000 0.0000 0.0000 -1.2829 0.0000 15.8654
#
#
#
# Elastic Compliance Matrix: (Units=1/GPa)
#
#
# Indices 1 2 3 4 5 6 
#
# 1 0.009018 -0.002265 -0.000289 0.000000 0.000351 0.000000
# 2 -0.002265 0.005260 -0.002658 0.000000 -0.001122 0.000000
# 3 -0.000289 -0.002658 0.007245 0.000000 0.003584 0.000000
# 4 0.000000 0.000000 0.000000 0.014158 0.000000 0.001145
# 5 0.000351 -0.001122 0.003584 0.000000 0.016430 0.000000
# 6 0.000000 0.000000 0.000000 0.001145 0.000000 0.063123
#
#
# Mechanical properties :
#
#
# Convention : Reuss Voigt Hill
#
# Bulk Modulus (GPa) = 90.10344 114.06780 102.08562
# Shear Modulus (GPa) = 38.65246 56.84071 47.74659
#
# Velocity S-wave (km/s) = 3.69629 4.48237 4.10817
# Velocity P-wave (km/s) = 7.07572 8.19198 7.65423
#
# Compressibility (1/GPa) = 0.01109836
#
# Stress axis : x y z
#
# Youngs Moduli (GPa) = 110.89187 190.11055 138.02106
#
# Poissons Ratio (x) = 0.43068 0.03993
# Poissons Ratio (y) = 0.25122 0.36681
# Poissons Ratio (z) = 0.03208 0.50524
#
# Static dielectric constant tensor:
#      x y z
#    x 2.258790 0.000000 0.210960 
#    y 0.000000 2.139930 0.000000 
#    z 0.210960 0.000000 2.137500 
# 
# From -- ./inp_files/603.got.cif
#   From: 2010.05.17/outbox.cif.g08.bks.cpg/sg4_1_cif.got.tgz:603.got - 2010.06.03 18:43:04.
