data_PCOD9119540
_publ_section_title
;
Structure prediction by ZEFSAII (Michael W. Deem and Ramdas Pophale) SiO2 
 PCOD9119540
Probable space group: P 21
;
_chemical_formula_sum "Si O2"
_cell_formula_units_Z 14
_cell_length_a 15.122183
_cell_length_b 5.611215
_cell_length_c 9.532510
_cell_angle_alpha 90.000000
_cell_angle_beta 139.886631
_cell_angle_gamma 90.000000
_cell_volume 521.156563
_symmetry_space_group_name_H-M "P 21"
_symmetry_group_IT_number 4
_symmetry_cell_setting 'monoclinic'
loop_
_space_group_symop_operation_xyz
x,y,z
-x,1/2+y,-z
loop_
_atom_site_type_symbol
_atom_site_label
_atom_site_fract_x
_atom_site_fract_y
_atom_site_fract_z
Si Si1 0.173611 0.518350 0.325880
Si Si2 0.046544 0.649419 0.881749
Si Si3 0.063709 0.389876 0.632412
Si Si4 0.673361 0.395140 0.804364
Si Si5 0.651260 0.683960 0.034778
Si Si6 0.652110 0.355181 0.269618
Si Si7 0.604359 0.672450 0.459257
O O1 0.236223 0.698810 0.514072
O O2 0.305368 0.405898 0.406254
O O3 0.089693 0.305267 0.296871
O O4 0.075257 0.607809 0.081435
O O5 0.044995 0.421374 0.778532
O O6 0.176195 0.800242 0.985986
O O7 0.001503 0.636665 0.495013
O O8 0.225865 0.367500 0.792786
O O9 0.645549 0.628666 0.863307
O O10 0.659087 0.466122 0.625763
O O11 0.553734 0.215546 0.701939
O O12 0.498711 0.740636 0.901998
O O13 0.690156 0.438264 0.161121
O O14 0.631444 0.596915 0.333830
#
# Coordination Sequence:
#
# PCOD9119540 Si02
#       7
#     2   2   2   2   2   2   2
#     4  12  28  53  79 121 168 219 285 357 423 516
#     4  12  28  51  83 123 168 222 286 350 437 511
#     4  12  31  57  88 124 174 228 281 361 430 524
#     4  12  23  47  82 124 164 218 291 353 428 512
#     4  12  28  51  83 123 168 222 286 350 437 511
#     4  12  28  53  79 121 168 219 285 357 423 516
#     4  12  24  48  80 116 162 218 276 358 428 500
#
# _framework density 26.863329
#
# number of rings (size 3 to 8) (size 9 to 14) (size 15 to 20)
#    0.000    0.000    2.857    6.000    2.000    5.714 
#    0.000    0.000    0.000    0.000    0.000    0.000 
#    0.000    0.000    0.000    0.000    0.000    0.000 
#
# Total GULP energy -78615.628436 kJ/mol
# GULP energy per Si atom -5615.402031 kJ/mol
# Density = 2.680219 g / cm^3
# Si number density = 26.863329 Si / 1000 Ang^3
#
#
#
# Elastic Constant Matrix: (Units=GPa)
#
#
# Indices 1 2 3 4 5 6 
#
# 1 100.2546 22.2025 47.7235 0.0000 23.3805 0.0000
# 2 22.2025 100.3502 56.9819 0.0000 16.9296 0.0000
# 3 47.7235 56.9819 143.7922 0.0000 12.4857 0.0000
# 4 0.0000 0.0000 0.0000 55.7760 0.0000 6.0849
# 5 23.3805 16.9296 12.4857 0.0000 32.3333 0.0000
# 6 0.0000 0.0000 0.0000 6.0849 0.0000 59.6486
#
#
#
# Elastic Compliance Matrix: (Units=1/GPa)
#
#
# Indices 1 2 3 4 5 6 
#
# 1 0.013823 0.000772 -0.004129 0.000000 -0.008805 0.000000
# 2 0.000772 0.013709 -0.005191 0.000000 -0.005731 0.000000
# 3 -0.004129 -0.005191 0.010230 0.000000 0.001753 0.000000
# 4 0.000000 0.000000 0.000000 0.018131 0.000000 -0.001850
# 5 -0.008805 -0.005731 0.001753 0.000000 0.039619 0.000000
# 6 0.000000 0.000000 0.000000 -0.001850 0.000000 0.016954
#
#
# Mechanical properties :
#
#
# Convention : Reuss Voigt Hill
#
# Bulk Modulus (GPa) = 48.39167 66.46808 57.42988
# Shear Modulus (GPa) = 36.64389 44.05086 40.34738
#
# Velocity S-wave (km/s) = 3.69736 4.05385 3.87970
# Velocity P-wave (km/s) = 6.02332 6.83436 6.44162
#
# Compressibility (1/GPa) = 0.02066471
#
# Stress axis : x y z
#
# Youngs Moduli (GPa) = 72.34573 72.94541 97.75506
#
# Poissons Ratio (x) = -0.05629 0.40362
# Poissons Ratio (y) = -0.05583 0.50745
# Poissons Ratio (z) = 0.29870 0.37866
#
# Static dielectric constant tensor:
#      x y z
#    x 2.006810 0.000000 0.002940 
#    y 0.000000 2.113340 0.000000 
#    z 0.002940 0.000000 2.071660 
# 
# From -- ./inp_files/9096.got.cif
#   From: 2010.05.17/outbox.cif.g08.bks.cpg/sg4_5_cif.got.tgz:9096.got - 2010.06.03 18:43:04.
