data_PCOD9119563
_publ_section_title
;
Structure prediction by ZEFSAII (Michael W. Deem and Ramdas Pophale) SiO2 
 PCOD9119563
Probable space group: P 21
;
_chemical_formula_sum "Si O2"
_cell_formula_units_Z 16
_cell_length_a 7.273845
_cell_length_b 6.968118
_cell_length_c 16.481175
_cell_angle_alpha 90.000000
_cell_angle_beta 103.906470
_cell_angle_gamma 90.000000
_cell_volume 810.863914
_symmetry_space_group_name_H-M "P 21"
_symmetry_group_IT_number 4
_symmetry_cell_setting 'monoclinic'
loop_
_space_group_symop_operation_xyz
x,y,z
-x,1/2+y,-z
loop_
_atom_site_type_symbol
_atom_site_label
_atom_site_fract_x
_atom_site_fract_y
_atom_site_fract_z
Si Si1 0.290230 0.897020 0.714347
Si Si2 0.714919 0.035073 0.497093
Si Si3 0.909477 0.729501 0.408598
Si Si4 0.959710 0.913817 0.106952
Si Si5 0.398717 0.281557 0.371477
Si Si6 0.988558 0.560633 0.706241
Si Si7 0.253565 0.736871 0.018273
Si Si8 0.662879 0.571111 0.102123
O O1 0.493022 0.841816 0.698614
O O2 0.309218 0.989399 0.804791
O O3 0.157324 0.710485 0.706482
O O4 0.191435 0.048552 0.643464
O O5 0.767310 0.845640 0.451339
O O6 0.655442 0.965154 0.579940
O O7 0.549105 0.154450 0.437681
O O8 0.907021 0.158574 0.522742
O O9 0.978480 0.875915 0.346521
O O10 0.804873 0.747346 0.102733
O O11 0.140905 0.823561 0.082148
O O12 0.006582 0.001380 0.199373
O O13 0.873172 0.076902 0.039698
O O14 0.209283 0.162277 0.335233
O O15 0.450120 0.644224 0.066767
O O16 0.294333 0.904925 0.958157
#
# Coordination Sequence:
#
# PCOD9119563 Si02
#       8
#     2   2   2   2   2   2   2   2
#     4  12  26  47  71 103 144 186 230 288 354 415
#     4  12  24  44  72 104 140 182 238 292 346 414
#     4  12  24  46  73  99 142 192 228 287 363 406
#     4  12  26  45  74 105 144 183 229 289 347 414
#     4  12  26  44  71 107 138 180 240 287 343 420
#     4  12  26  47  71 103 144 186 230 288 354 415
#     4  12  26  44  76 106 138 186 232 280 350 414
#     4  12  26  45  74 105 144 183 229 289 347 414
#
# _framework density 19.732043000000001
#
# number of rings (size 3 to 8) (size 9 to 14) (size 15 to 20)
#    0.000    0.000    7.500    3.000    0.000    6.000 
#    0.000    0.000    0.000    0.000    0.000    0.000 
#    0.000    0.000    0.000    0.000    0.000    0.000 
#
# Total GULP energy -89625.778205 kJ/mol
# GULP energy per Si atom -5601.611138 kJ/mol
# Density = 1.968713 g / cm^3
# Si number density = 19.732043 Si / 1000 Ang^3
#
#
#
# Elastic Constant Matrix: (Units=GPa)
#
#
# Indices 1 2 3 4 5 6 
#
# 1 58.6363 -3.7267 -3.4625 0.0000 -21.8668 0.0000
# 2 -3.7267 64.5553 0.8119 0.0000 -10.9885 0.0000
# 3 -3.4625 0.8119 47.1990 0.0000 -10.0224 0.0000
# 4 0.0000 0.0000 0.0000 64.5158 0.0000 -13.8497
# 5 -21.8668 -10.9885 -10.0224 0.0000 31.9607 0.0000
# 6 0.0000 0.0000 0.0000 -13.8497 0.0000 36.0203
#
#
#
# Elastic Compliance Matrix: (Units=1/GPa)
#
#
# Indices 1 2 3 4 5 6 
#
# 1 0.025682 0.005025 0.006316 0.000000 0.021280 0.000000
# 2 0.005025 0.017480 0.002222 0.000000 0.010145 0.000000
# 3 0.006316 0.002222 0.024311 0.000000 0.012709 0.000000
# 4 0.000000 0.000000 0.000000 0.016895 0.000000 0.006496
# 5 0.021280 0.010145 0.012709 0.000000 0.053321 0.000000
# 6 0.000000 0.000000 0.000000 0.006496 0.000000 0.030260
#
#
# Mechanical properties :
#
#
# Convention : Reuss Voigt Hill
#
# Bulk Modulus (GPa) = 10.57079 17.51510 14.04294
# Shear Modulus (GPa) = 29.01012 38.28389 33.64700
#
# Velocity S-wave (km/s) = 3.83848 4.40954 4.13388
# Velocity P-wave (km/s) = 5.00141 5.90094 5.46970
#
# Compressibility (1/GPa) = 0.09460035
#
# Stress axis : x y z
#
# Youngs Moduli (GPa) = 38.93719 57.20957 41.13420
#
# Poissons Ratio (x) = -0.28750 -0.25981
# Poissons Ratio (y) = -0.19568 -0.09141
# Poissons Ratio (z) = -0.24594 -0.12713
#
# Static dielectric constant tensor:
#      x y z
#    x 1.650540 0.000000 -0.011430 
#    y 0.000000 1.670400 0.000000 
#    z -0.011430 0.000000 1.659010 
# 
# From -- ./inp_files/4004.got.cif
#   From: 2010.05.17/outbox.cif.g08.bks.cpg/sg4_3_cif.got.tgz:4004.got - 2010.06.03 18:43:04.
