data_PCOD9119677
_publ_section_title
;
Structure prediction by ZEFSAII (Michael W. Deem and Ramdas Pophale) SiO2 
 PCOD9119677
Probable space group: P 21
;
_chemical_formula_sum "Si O2"
_cell_formula_units_Z 12
_cell_length_a 14.852455
_cell_length_b 5.575945
_cell_length_c 8.149110
_cell_angle_alpha 90.000000
_cell_angle_beta 137.268492
_cell_angle_gamma 90.000000
_cell_volume 457.949444
_symmetry_space_group_name_H-M "P 21"
_symmetry_group_IT_number 4
_symmetry_cell_setting 'monoclinic'
loop_
_space_group_symop_operation_xyz
x,y,z
-x,1/2+y,-z
loop_
_atom_site_type_symbol
_atom_site_label
_atom_site_fract_x
_atom_site_fract_y
_atom_site_fract_z
Si Si1 0.411128 0.887090 0.015176
Si Si2 0.181372 0.547692 0.760609
Si Si3 0.167693 0.990064 0.195778
Si Si4 0.004277 0.270186 0.746472
Si Si5 0.432087 0.016416 0.381090
Si Si6 0.708920 0.736969 0.369052
O O1 0.393269 0.071104 0.140820
O O2 0.567490 0.867855 0.193180
O O3 0.327367 0.661662 0.967749
O O4 0.340171 0.974414 0.754815
O O5 0.114877 0.461874 0.838816
O O6 0.200417 0.335420 0.654387
O O7 0.083251 0.726209 0.531931
O O8 0.207290 0.229221 0.353006
O O9 0.311142 0.911127 0.325721
O O10 0.083499 0.042875 0.921559
O O11 0.086968 0.843115 0.222130
O O12 0.526038 0.779341 0.496856
#
# Coordination Sequence:
#
# PCOD9119677 Si02
#       6
#     2   2   2   2   2   2
#     4  12  27  45  81 112 155 198 258 332 403 474
#     4  12  28  50  77 111 154 204 262 316 404 477
#     4  12  28  49  78 114 156 206 268 327 395 480
#     4  12  29  49  77 110 160 211 261 323 392 488
#     4  12  31  50  81 119 160 204 265 340 410 469
#     4  12  25  49  78 116 147 201 260 334 400 468
#
# _framework density 26.203769000000001
#
# number of rings (size 3 to 8) (size 9 to 14) (size 15 to 20)
#    0.000    0.000    5.000    3.000   14.000    0.000 
#    0.000    0.000    0.000    0.000    0.000    0.000 
#    0.000    0.000    0.000    0.000    0.000    0.000 
#
# Total GULP energy -67131.503788 kJ/mol
# GULP energy per Si atom -5594.291982 kJ/mol
# Density = 2.614413 g / cm^3
# Si number density = 26.203769 Si / 1000 Ang^3
#
#
#
# Elastic Constant Matrix: (Units=GPa)
#
#
# Indices 1 2 3 4 5 6 
#
# 1 143.2412 18.3305 -2.5722 0.0000 15.7256 0.0000
# 2 18.3305 54.2481 1.0766 0.0000 10.5452 0.0000
# 3 -2.5722 1.0766 68.2956 0.0000 -8.1118 0.0000
# 4 0.0000 0.0000 0.0000 26.5137 0.0000 -3.0978
# 5 15.7256 10.5452 -8.1118 0.0000 44.5203 0.0000
# 6 0.0000 0.0000 0.0000 -3.0978 0.0000 47.1441
#
#
#
# Elastic Compliance Matrix: (Units=1/GPa)
#
#
# Indices 1 2 3 4 5 6 
#
# 1 0.007487 -0.002117 0.000062 0.000000 -0.002132 0.000000
# 2 -0.002117 0.019972 -0.000887 0.000000 -0.004145 0.000000
# 3 0.000062 -0.000887 0.015006 0.000000 0.002922 0.000000
# 4 0.000000 0.000000 0.000000 0.038008 0.000000 0.002497
# 5 -0.002132 -0.004145 0.002922 0.000000 0.024729 0.000000
# 6 0.000000 0.000000 0.000000 0.002497 0.000000 0.021376
#
#
# Mechanical properties :
#
#
# Convention : Reuss Voigt Hill
#
# Bulk Modulus (GPa) = 27.33558 33.27273 30.30416
# Shear Modulus (GPa) = 34.56499 40.23228 37.39863
#
# Velocity S-wave (km/s) = 3.63586 3.92262 3.78196
# Velocity P-wave (km/s) = 5.29911 5.76552 5.53723
#
# Compressibility (1/GPa) = 0.03658236
#
# Stress axis : x y z
#
# Youngs Moduli (GPa) = 133.55980 50.06923 66.64165
#
# Poissons Ratio (x) = 0.10598 -0.00414
# Poissons Ratio (y) = 0.28271 0.05910
# Poissons Ratio (z) = -0.00830 0.04440
#
# Static dielectric constant tensor:
#      x y z
#    x 2.008820 0.000000 -0.020700 
#    y 0.000000 2.121890 0.000000 
#    z -0.020700 0.000000 2.175770 
# 
# From -- ./inp_files/5149.got.cif
#   From: 2010.05.17/outbox.cif.g08.bks.cpg/sg4_3_cif.got.tgz:5149.got - 2010.06.03 18:43:04.
