data_PCOD9119733
_publ_section_title
;
Structure prediction by ZEFSAII (Michael W. Deem and Ramdas Pophale) SiO2 
 PCOD9119733
Probable space group: P 21
;
_chemical_formula_sum "Si O2"
_cell_formula_units_Z 10
_cell_length_a 18.646261
_cell_length_b 5.415563
_cell_length_c 12.668144
_cell_angle_alpha 90.000000
_cell_angle_beta 19.335271
_cell_angle_gamma 90.000000
_cell_volume 423.546812
_symmetry_space_group_name_H-M "P 21"
_symmetry_group_IT_number 4
_symmetry_cell_setting 'monoclinic'
loop_
_space_group_symop_operation_xyz
x,y,z
-x,1/2+y,-z
loop_
_atom_site_type_symbol
_atom_site_label
_atom_site_fract_x
_atom_site_fract_y
_atom_site_fract_z
Si Si1 0.814816 0.689370 0.620352
Si Si2 0.571617 0.504983 0.753348
Si Si3 0.721404 0.373399 0.953557
Si Si4 0.521463 0.097259 0.528646
Si Si5 0.878680 0.279674 0.171446
O O1 0.730059 0.616230 0.622350
O O2 0.781746 0.477211 0.754511
O O3 0.065155 0.762293 0.287417
O O4 0.645477 0.901332 0.890775
O O5 0.713243 0.297233 0.498949
O O6 0.477942 0.689216 0.794238
O O7 0.637448 0.581036 0.150321
O O8 0.451490 0.320059 0.550937
O O9 0.753198 0.187672 0.243992
O O10 0.956018 0.556917 0.041070
#
# Coordination Sequence:
#
# PCOD9119733 Si02
#       5
#     2   2   2   2   2
#     4  12  26  48  82 112 154 208 260 322 408 466
#     4  12  26  50  79 116 157 206 266 331 391 477
#     4  12  26  50  79 116 157 206 266 331 391 477
#     4  12  28  53  81 114 158 209 264 327 392 469
#     4  12  28  53  81 114 158 209 264 327 392 469
#
# _framework density 23.610140999999999
#
# number of rings (size 3 to 8) (size 9 to 14) (size 15 to 20)
#    0.000    0.000    6.000    3.600    2.800    0.000 
#   14.400    0.000    0.000    0.000    0.000    0.000 
#    0.000    0.000    0.000    0.000    0.000    0.000 
#
# Total GULP energy -55950.211839 kJ/mol
# GULP energy per Si atom -5595.021184 kJ/mol
# Density = 2.355640 g / cm^3
# Si number density = 23.610141 Si / 1000 Ang^3
#
#
#
# Elastic Constant Matrix: (Units=GPa)
#
#
# Indices 1 2 3 4 5 6 
#
# 1 150.1514 52.6262 55.4569 0.0000 -31.4117 0.0000
# 2 52.6262 92.1479 44.7932 0.0000 -6.6219 0.0000
# 3 55.4569 44.7932 91.4557 0.0000 -18.9150 0.0000
# 4 0.0000 0.0000 0.0000 60.7329 0.0000 2.1391
# 5 -31.4117 -6.6219 -18.9150 0.0000 39.7903 0.0000
# 6 0.0000 0.0000 0.0000 2.1391 0.0000 58.3384
#
#
#
# Elastic Compliance Matrix: (Units=1/GPa)
#
#
# Indices 1 2 3 4 5 6 
#
# 1 0.010518 -0.004046 -0.003125 0.000000 0.006144 0.000000
# 2 -0.004046 0.015839 -0.006011 0.000000 -0.003415 0.000000
# 3 -0.003125 -0.006011 0.016698 0.000000 0.004470 0.000000
# 4 0.000000 0.000000 0.000000 0.016487 0.000000 -0.000605
# 5 0.006144 -0.003415 0.004470 0.000000 0.031538 0.000000
# 6 0.000000 0.000000 0.000000 -0.000605 0.000000 0.017164
#
#
# Mechanical properties :
#
#
# Convention : Reuss Voigt Hill
#
# Bulk Modulus (GPa) = 59.91385 71.05640 65.48512
# Shear Modulus (GPa) = 35.67073 43.83091 39.75082
#
# Velocity S-wave (km/s) = 3.89115 4.31332 4.10766
# Velocity P-wave (km/s) = 6.75422 7.41400 7.09178
#
# Compressibility (1/GPa) = 0.01669063
#
# Stress axis : x y z
#
# Youngs Moduli (GPa) = 95.07852 63.13470 59.88799
#
# Poissons Ratio (x) = 0.25544 0.18717
# Poissons Ratio (y) = 0.38468 0.35997
# Poissons Ratio (z) = 0.29716 0.37948
#
# Static dielectric constant tensor:
#      x y z
#    x 1.893810 0.000000 -0.018280 
#    y 0.000000 2.156340 0.000000 
#    z -0.018280 0.000000 1.873490 
# 
# From -- ./inp_files/5116.got.cif
#   From: 2010.05.17/outbox.cif.g08.bks.cpg/sg4_3_cif.got.tgz:5116.got - 2010.06.03 18:43:04.
