data_PCOD9119956
_publ_section_title
;
Structure prediction by ZEFSAII (Michael W. Deem and Ramdas Pophale) SiO2 
 PCOD9119956
Probable space group: C 2
;
_chemical_formula_sum "Si O2"
_cell_formula_units_Z 24
_cell_length_a 28.549759
_cell_length_b 5.345446
_cell_length_c 8.799835
_cell_angle_alpha 90.000000
_cell_angle_beta 75.781351
_cell_angle_gamma 90.000000
_cell_volume 1301.812570
_symmetry_space_group_name_H-M "C 2"
_symmetry_group_IT_number 5
_symmetry_cell_setting 'monoclinic'
loop_
_space_group_symop_operation_xyz
x,y,z
-x,y,-z
1/2+x,1/2+y,z
1/2-x,1/2+y,-z
loop_
_atom_site_type_symbol
_atom_site_label
_atom_site_fract_x
_atom_site_fract_y
_atom_site_fract_z
Si Si1 0.632282 0.295480 0.311736
Si Si2 0.771823 0.241886 0.406988
Si Si3 0.629645 0.795207 0.514797
Si Si4 0.977330 0.727641 0.689643
Si Si5 0.481968 0.727628 0.337318
Si Si6 0.733888 0.223923 0.095567
O O1 0.636126 0.561791 0.393909
O O2 0.579325 0.276274 0.280713
O O3 0.676632 0.265940 0.161894
O O4 0.635637 0.061416 0.425678
O O5 0.746559 0.482599 0.504549
O O6 0.828756 0.268411 0.393483
O O7 0.757294 0.239827 0.243545
O O8 0.574941 0.775659 0.617332
O O9 0.000000 0.707549 0.500000
O O10 0.989794 0.462726 0.752801
O O11 0.003625 0.962728 0.743590
O O12 0.500000 0.707698 0.500000
O O13 0.755137 0.451411 0.980515
#
# Coordination Sequence:
#
# PCOD9119956 Si02
#       6
#     4   4   4   4   4   4
#     4  12  20  33  58  82 119 151 192 239 300 343
#     4  12  23  40  62  88 116 153 205 261 301 341
#     4  12  19  32  55  88 115 147 184 245 307 338
#     4  10  16  28  46  82 118 139 175 239 303 336
#     4  10  16  26  46  78 125 135 171 230 309 345
#     4  12  26  43  59  84 121 167 205 241 294 367
#
# _framework density 18.435832999999999
#
# number of rings (size 3 to 8) (size 9 to 14) (size 15 to 20)
#    0.000    0.667   10.000    2.000    0.000    0.000 
#    0.000    0.000    0.000    0.000    0.000    7.000 
#    0.000    0.000    0.000    0.000    0.000    0.000 
#
# Total GULP energy -66986.128556 kJ/mol
# GULP energy per Si atom -5582.177380 kJ/mol
# Density = 1.839387 g / cm^3
# Si number density = 18.435833 Si / 1000 Ang^3
#
#
#
# Elastic Constant Matrix: (Units=GPa)
#
#
# Indices 1 2 3 4 5 6 
#
# 1 93.3914 -38.2169 14.1678 0.0000 -10.2738 0.0000
# 2 -38.2169 91.0310 -5.2357 0.0000 15.8152 0.0000
# 3 14.1678 -5.2357 23.5376 0.0000 5.1281 0.0000
# 4 0.0000 0.0000 0.0000 14.6731 0.0000 -9.9295
# 5 -10.2738 15.8152 5.1281 0.0000 19.0630 0.0000
# 6 0.0000 0.0000 0.0000 -9.9295 0.0000 26.0165
#
#
#
# Elastic Compliance Matrix: (Units=1/GPa)
#
#
# Indices 1 2 3 4 5 6 
#
# 1 0.014685 0.004463 -0.009310 0.000000 0.006716 0.000000
# 2 0.004463 0.014898 0.002971 0.000000 -0.010754 0.000000
# 3 -0.009310 0.002971 0.053516 0.000000 -0.021878 0.000000
# 4 0.000000 0.000000 0.000000 0.091883 0.000000 0.035068
# 5 0.006716 -0.010754 -0.021878 0.000000 0.070884 0.000000
# 6 0.000000 0.000000 0.000000 0.035068 0.000000 0.051821
#
#
# Mechanical properties :
#
#
# Convention : Reuss Voigt Hill
#
# Bulk Modulus (GPa) = 12.60295 16.59894 14.60095
# Shear Modulus (GPa) = 15.24903 27.76685 21.50794
#
# Velocity S-wave (km/s) = 2.87913 3.88511 3.41931
# Velocity P-wave (km/s) = 4.23125 5.39894 4.85036
#
# Compressibility (1/GPa) = 0.07934650
#
# Stress axis : x y z
#
# Youngs Moduli (GPa) = 68.09654 67.12324 18.68583
#
# Poissons Ratio (x) = -0.29956 0.17396
# Poissons Ratio (y) = -0.30390 -0.05551
# Poissons Ratio (z) = 0.63397 -0.19939
#
# Static dielectric constant tensor:
#      x y z
#    x 1.624270 0.000000 -0.027480 
#    y 0.000000 1.701170 0.000000 
#    z -0.027480 0.000000 1.542920 
# 
# From -- ./inp_files/31259.got.cif
#   From: 2010.05.17/outbox.cif.g08.bks.cpg/sg5_16_cif.got.tgz:31259.got - 2010.06.03 18:56:24.
