data_PCOD9119492
_publ_section_title
;
Structure prediction by ZEFSAII (Michael W. Deem and Ramdas Pophale) SiO2 
 PCOD9119492
Probable space group: P 21
;
_chemical_formula_sum "Si O2"
_cell_formula_units_Z 14
_cell_length_a 14.148074
_cell_length_b 5.011938
_cell_length_c 9.734803
_cell_angle_alpha 90.000000
_cell_angle_beta 52.934364
_cell_angle_gamma 90.000000
_cell_volume 550.812068
_symmetry_space_group_name_H-M "P 21"
_symmetry_group_IT_number 4
_symmetry_cell_setting 'monoclinic'
loop_
_space_group_symop_operation_xyz
x,y,z
-x,1/2+y,-z
loop_
_atom_site_type_symbol
_atom_site_label
_atom_site_fract_x
_atom_site_fract_y
_atom_site_fract_z
Si Si1 0.663469 0.816550 0.123805
Si Si2 0.460679 0.705590 0.116924
Si Si3 0.801214 0.314654 0.923369
Si Si4 0.266016 0.413550 0.624562
Si Si5 0.734998 0.422081 0.541457
Si Si6 0.004535 0.013220 0.579134
Si Si7 0.996702 0.981321 0.068478
O O1 0.531425 0.738650 0.197996
O O2 0.743931 0.606365 0.968291
O O3 0.690184 0.825003 0.263348
O O4 0.696117 0.108873 0.041255
O O5 0.328928 0.806308 0.267344
O O6 0.477095 0.413031 0.041833
O O7 0.896277 0.179662 0.739643
O O8 0.883825 0.343015 0.985564
O O9 0.291065 0.714642 0.558518
O O10 0.122090 0.405821 0.748699
O O11 0.309376 0.209570 0.470272
O O12 0.875227 0.446876 0.445027
O O13 0.042698 0.227887 0.429691
O O14 0.981501 0.796658 0.946160
#
# Coordination Sequence:
#
# PCOD9119492 Si02
#       7
#     2   2   2   2   2   2   2
#     4  12  27  45  76 111 141 198 243 298 368 441
#     4  12  30  55  76 101 142 196 256 309 364 438
#     4  12  24  42  69 108 149 186 241 293 368 437
#     4  12  24  44  73 111 149 184 242 301 375 448
#     4  12  28  48  74 106 148 194 240 310 376 429
#     4  12  28  44  70 109 153 198 249 306 370 441
#     4  12  21  38  64 106 150 186 217 283 367 444
#
# _framework density 25.417020999999998
#
# number of rings (size 3 to 8) (size 9 to 14) (size 15 to 20)
#    0.000    0.000    4.286    5.143    8.000    1.143 
#    0.000    0.000    0.000    0.000    0.000    0.000 
#    0.000    0.000    0.000    0.000    0.000    0.000 
#
# Total GULP energy -78306.156922 kJ/mol
# GULP energy per Si atom -5593.296923 kJ/mol
# Density = 2.535917 g / cm^3
# Si number density = 25.417021 Si / 1000 Ang^3
#
#
#
# Elastic Constant Matrix: (Units=GPa)
#
#
# Indices 1 2 3 4 5 6 
#
# 1 87.8027 23.6271 9.4883 0.0000 -0.6907 0.0000
# 2 23.6271 138.8838 1.4895 0.0000 2.6506 0.0000
# 3 9.4883 1.4895 76.4405 0.0000 -16.2078 0.0000
# 4 0.0000 0.0000 0.0000 44.3373 0.0000 7.8694
# 5 -0.6907 2.6506 -16.2078 0.0000 20.4077 0.0000
# 6 0.0000 0.0000 0.0000 7.8694 0.0000 30.0955
#
#
#
# Elastic Compliance Matrix: (Units=1/GPa)
#
#
# Indices 1 2 3 4 5 6 
#
# 1 0.012103 -0.002031 -0.001587 0.000000 -0.000587 0.000000
# 2 -0.002031 0.007569 -0.000142 0.000000 -0.001165 0.000000
# 3 -0.001587 -0.000142 0.015962 0.000000 0.012642 0.000000
# 4 0.000000 0.000000 0.000000 0.023652 0.000000 -0.006185
# 5 -0.000587 -0.001165 0.012642 0.000000 0.059173 0.000000
# 6 0.000000 0.000000 0.000000 -0.006185 0.000000 0.034845
#
#
# Mechanical properties :
#
#
# Convention : Reuss Voigt Hill
#
# Bulk Modulus (GPa) = 35.56971 41.37073 38.47022
# Shear Modulus (GPa) = 29.37791 36.86958 33.12374
#
# Velocity S-wave (km/s) = 3.40345 3.81279 3.61392
# Velocity P-wave (km/s) = 5.42858 5.97455 5.70809
#
# Compressibility (1/GPa) = 0.02811380
#
# Stress axis : x y z
#
# Youngs Moduli (GPa) = 82.62750 132.10941 62.64726
#
# Poissons Ratio (x) = 0.26827 0.09943
# Poissons Ratio (y) = 0.16779 0.00892
# Poissons Ratio (z) = 0.13114 0.01882
#
# Static dielectric constant tensor:
#      x y z
#    x 2.052400 0.000000 0.068570 
#    y 0.000000 1.985450 0.000000 
#    z 0.068570 0.000000 2.072830 
# 
# From -- ./inp_files/8564.got.cif
#   From: 2010.05.17/outbox.cif.g08.bks.cpg/sg4_5_cif.got.tgz:8564.got - 2010.06.03 18:43:04.
