data_PCOD9119128
_publ_section_title
;
Structure prediction by ZEFSAII (Michael W. Deem and Ramdas Pophale) SiO2 
 PCOD9119128
Probable space group: P 21
;
_chemical_formula_sum "Si O2"
_cell_formula_units_Z 14
_cell_length_a 6.801472
_cell_length_b 8.172941
_cell_length_c 15.201693
_cell_angle_alpha 90.000000
_cell_angle_beta 46.695023
_cell_angle_gamma 90.000000
_cell_volume 614.941039
_symmetry_space_group_name_H-M "P 21"
_symmetry_group_IT_number 4
_symmetry_cell_setting 'monoclinic'
loop_
_space_group_symop_operation_xyz
x,y,z
-x,1/2+y,-z
loop_
_atom_site_type_symbol
_atom_site_label
_atom_site_fract_x
_atom_site_fract_y
_atom_site_fract_z
Si Si1 0.700506 0.772650 0.022445
Si Si2 0.765713 0.539447 0.835700
Si Si3 0.730558 0.831977 0.274033
Si Si4 0.684808 0.586596 0.667288
Si Si5 0.155193 0.037499 0.868811
Si Si6 0.591834 0.337144 0.369842
Si Si7 0.280058 0.627481 0.518941
O O1 0.767044 0.669333 0.914188
O O2 0.442451 0.888246 0.087644
O O3 0.685113 0.629123 0.101338
O O4 0.933304 0.908960 0.971588
O O5 0.670676 0.628492 0.775010
O O6 0.054831 0.446198 0.742015
O O7 0.917169 0.699681 0.165570
O O8 0.495188 0.733649 0.397098
O O9 0.539327 0.945031 0.272213
O O10 0.609106 0.709579 0.613125
O O11 0.006874 0.565780 0.556370
O O12 0.300074 0.929838 0.749129
O O13 0.452232 0.464699 0.477623
O O14 0.783725 0.236871 0.376090
#
# Coordination Sequence:
#
# PCOD9119128 Si02
#       7
#     2   2   2   2   2   2   2
#     4  12  26  46  76 108 152 204 256 313 381 443
#     4  12  27  45  74 106 149 198 252 314 381 448
#     4  11  24  48  72 106 151 189 250 316 373 455
#     4  12  23  43  70 104 140 195 242 312 367 462
#     4  11  25  46  73 106 145 200 250 313 368 449
#     4  11  25  43  70 104 146 188 247 314 372 449
#     4  11  24  45  71 104 143 194 243 306 388 444
#
# _framework density 22.76641
#
# number of rings (size 3 to 8) (size 9 to 14) (size 15 to 20)
#    0.000    0.571    1.429    6.857    4.000    0.000 
#    5.143    0.000    0.000    0.000    0.000    0.000 
#    0.000    0.000    0.000    0.000    0.000    0.000 
#
# Total GULP energy -77960.710051 kJ/mol
# GULP energy per Si atom -5568.622147 kJ/mol
# Density = 2.271459 g / cm^3
# Si number density = 22.766410 Si / 1000 Ang^3
#
#
#
# Elastic Constant Matrix: (Units=GPa)
#
#
# Indices 1 2 3 4 5 6 
#
# 1 78.5484 50.7716 7.9636 0.0000 -7.3317 0.0000
# 2 50.7716 110.0284 30.6761 0.0000 -4.4987 0.0000
# 3 7.9636 30.6761 76.0919 0.0000 -2.3663 0.0000
# 4 0.0000 0.0000 0.0000 -31.9410 0.0000 15.4466
# 5 -7.3317 -4.4987 -2.3663 0.0000 39.7147 0.0000
# 6 0.0000 0.0000 0.0000 15.4466 0.0000 38.5336
#
#
#
# Elastic Compliance Matrix: (Units=1/GPa)
#
#
# Indices 1 2 3 4 5 6 
#
# 1 0.018578 -0.008956 0.001745 0.000000 0.002519 0.000000
# 2 -0.008956 0.014590 -0.004954 0.000000 -0.000296 0.000000
# 3 0.001745 -0.004954 0.014977 0.000000 0.000653 0.000000
# 4 0.000000 0.000000 0.000000 -0.026224 0.000000 0.010512
# 5 0.002519 -0.000296 0.000653 0.000000 0.025650 0.000000
# 6 0.000000 0.000000 0.000000 0.010512 0.000000 0.021737
#
#
# Mechanical properties :
#
#
# Convention : Reuss Voigt Hill
#
# Bulk Modulus (GPa) = 41.99104 49.27682 45.63393
# Shear Modulus (GPa) = 49.22318 20.94529 35.08424
#
# Velocity S-wave (km/s) = 4.65488 3.03645 3.92988
# Velocity P-wave (km/s) = 6.88294 5.82966 6.37808
#
# Compressibility (1/GPa) = 0.02381460
#
# Stress axis : x y z
#
# Youngs Moduli (GPa) = 53.82625 68.53833 66.76960
#
# Poissons Ratio (x) = 0.61384 -0.11649
# Poissons Ratio (y) = 0.48208 0.33077
# Poissons Ratio (z) = -0.09391 0.33953
#
# Static dielectric constant tensor:
#      x y z
#    x 1.823910 0.000000 0.039030 
#    y 0.000000 1.870650 0.000000 
#    z 0.039030 0.000000 1.999450 
# 
# From -- ./inp_files/2610.got.cif
#   From: 2010.05.17/outbox.cif.g08.bks.cpg/sg4_2_cif.got.tgz:2610.got - 2010.06.03 18:43:04.
