data_PCOD9119607
_publ_section_title
;
Structure prediction by ZEFSAII (Michael W. Deem and Ramdas Pophale) SiO2 
 PCOD9119607
Probable space group: P 21
;
_chemical_formula_sum "Si O2"
_cell_formula_units_Z 16
_cell_length_a 6.324632
_cell_length_b 8.673733
_cell_length_c 16.825509
_cell_angle_alpha 90.000000
_cell_angle_beta 48.122752
_cell_angle_gamma 90.000000
_cell_volume 687.256653
_symmetry_space_group_name_H-M "P 21"
_symmetry_group_IT_number 4
_symmetry_cell_setting 'monoclinic'
loop_
_space_group_symop_operation_xyz
x,y,z
-x,1/2+y,-z
loop_
_atom_site_type_symbol
_atom_site_label
_atom_site_fract_x
_atom_site_fract_y
_atom_site_fract_z
Si Si1 0.297389 0.947200 0.713998
Si Si2 0.253314 0.710209 0.383618
Si Si3 0.765906 0.517020 0.823411
Si Si4 0.773556 0.152862 0.789671
Si Si5 0.654827 0.749108 0.516007
Si Si6 0.767427 0.510949 0.002175
Si Si7 0.615454 0.949086 0.371770
Si Si8 0.697852 0.231654 0.127787
O O1 0.381092 0.827524 0.624717
O O2 0.297094 0.846473 0.796401
O O3 0.553206 0.070089 0.636447
O O4 0.009605 0.048052 0.775122
O O5 0.173157 0.651181 0.316889
O O6 0.453885 0.859488 0.342041
O O7 0.946572 0.760957 0.494174
O O8 0.742951 0.333520 0.816259
O O9 0.660785 0.536832 0.939550
O O10 0.596786 0.638636 0.811509
O O11 0.104237 0.532999 0.729845
O O12 0.464754 0.085370 0.882939
O O13 0.690942 0.826119 0.421097
O O14 0.585337 0.569966 0.534852
O O15 0.065340 0.598557 0.929165
O O16 0.775800 0.336220 0.031245
#
# Coordination Sequence:
#
# PCOD9119607 Si02
#       8
#     2   2   2   2   2   2   2   2
#     4  12  28  49  76 115 157 204 269 330 408 481
#     4  12  24  49  73 109 147 212 253 332 396 477
#     4  12  28  48  78 110 156 207 263 333 397 480
#     4  12  27  49  77 108 159 202 261 327 398 478
#     4  12  27  46  75 108 155 198 266 324 412 471
#     4  12  29  47  79 111 158 202 265 323 409 470
#     4  12  27  46  76 110 154 205 262 330 400 484
#     4  12  30  48  78 119 154 212 267 331 402 491
#
# _framework density 23.280967
#
# number of rings (size 3 to 8) (size 9 to 14) (size 15 to 20)
#    0.000    0.000    3.750    4.500   14.000    3.000 
#    0.000    0.000    0.000    0.000    0.000    0.000 
#    0.000    0.000    0.000    0.000    0.000    0.000 
#
# Total GULP energy -89344.228775 kJ/mol
# GULP energy per Si atom -5584.014298 kJ/mol
# Density = 2.322798 g / cm^3
# Si number density = 23.280967 Si / 1000 Ang^3
#
#
#
# Elastic Constant Matrix: (Units=GPa)
#
#
# Indices 1 2 3 4 5 6 
#
# 1 81.7793 54.7486 23.3209 0.0000 -9.3449 0.0000
# 2 54.7486 129.5703 33.4985 0.0000 -16.2579 0.0000
# 3 23.3209 33.4985 73.8572 0.0000 -5.5965 0.0000
# 4 0.0000 0.0000 0.0000 43.5652 0.0000 -11.9256
# 5 -9.3449 -16.2579 -5.5965 0.0000 38.2027 0.0000
# 6 0.0000 0.0000 0.0000 -11.9256 0.0000 56.2374
#
#
#
# Elastic Compliance Matrix: (Units=1/GPa)
#
#
# Indices 1 2 3 4 5 6 
#
# 1 0.017478 -0.006618 -0.002434 0.000000 0.001103 0.000000
# 2 -0.006618 0.011647 -0.002973 0.000000 0.002902 0.000000
# 3 -0.002434 -0.002973 0.015690 0.000000 0.000438 0.000000
# 4 0.000000 0.000000 0.000000 0.024369 0.000000 0.005168
# 5 0.001103 0.002902 0.000438 0.000000 0.027745 0.000000
# 6 0.000000 0.000000 0.000000 0.005168 0.000000 0.018878
#
#
# Mechanical properties :
#
#
# Convention : Reuss Voigt Hill
#
# Bulk Modulus (GPa) = 48.15600 56.48252 52.31926
# Shear Modulus (GPa) = 34.06513 39.17699 36.62106
#
# Velocity S-wave (km/s) = 3.82935 4.10663 3.97041
# Velocity P-wave (km/s) = 6.34677 6.84104 6.59854
#
# Compressibility (1/GPa) = 0.02076584
#
# Stress axis : x y z
#
# Youngs Moduli (GPa) = 57.21331 85.86000 63.73583
#
# Poissons Ratio (x) = 0.56820 0.15512
# Poissons Ratio (y) = 0.37862 0.18949
# Poissons Ratio (z) = 0.13925 0.25526
#
# Static dielectric constant tensor:
#      x y z
#    x 1.941870 0.000000 -0.026240 
#    y 0.000000 2.033400 0.000000 
#    z -0.026240 0.000000 1.868300 
# 
# From -- ./inp_files/2631.got.cif
#   From: 2010.05.17/outbox.cif.g08.bks.cpg/sg4_2_cif.got.tgz:2631.got - 2010.06.03 18:43:04.
