data_PCOD9119004
_publ_section_title
;
Structure prediction by ZEFSAII (Michael W. Deem and Ramdas Pophale) SiO2 
 PCOD9119004
Probable space group: P 21
;
_chemical_formula_sum "Si O2"
_cell_formula_units_Z 16
_cell_length_a 8.865551
_cell_length_b 12.601511
_cell_length_c 9.486382
_cell_angle_alpha 90.000000
_cell_angle_beta 140.045924
_cell_angle_gamma 90.000000
_cell_volume 680.583281
_symmetry_space_group_name_H-M "P 21"
_symmetry_group_IT_number 4
_symmetry_cell_setting 'monoclinic'
loop_
_space_group_symop_operation_xyz
x,y,z
-x,1/2+y,-z
loop_
_atom_site_type_symbol
_atom_site_label
_atom_site_fract_x
_atom_site_fract_y
_atom_site_fract_z
Si Si1 0.533187 0.912500 0.102474
Si Si2 0.334372 0.918962 0.462616
Si Si3 0.776430 0.072908 0.760829
Si Si4 0.255103 0.717068 0.988499
Si Si5 0.037078 0.550594 0.616549
Si Si6 0.963713 0.366608 0.992207
Si Si7 0.397683 0.296177 0.126482
Si Si8 0.169734 0.098766 0.825477
O O1 0.472529 0.796603 0.119736
O O2 0.770985 0.971633 0.317071
O O3 0.570112 0.889706 0.963274
O O4 0.309863 0.989700 0.958499
O O5 0.405386 0.822469 0.617517
O O6 0.542819 0.002029 0.578310
O O7 0.127876 0.983656 0.394588
O O8 0.268501 0.867735 0.267066
O O9 0.727592 0.152753 0.853479
O O10 0.917626 0.112572 0.724192
O O11 0.965891 0.988053 0.950606
O O12 0.178486 0.638750 0.808694
O O13 0.049548 0.802673 0.872888
O O14 0.883980 0.599772 0.379972
O O15 0.159593 0.310904 0.040406
O O16 0.351876 0.187228 0.012572
#
# Coordination Sequence:
#
# PCOD9119004 Si02
#       8
#     2   2   2   2   2   2   2   2
#     4  12  26  48  75 109 159 203 256 323 386 473
#     4  11  24  48  81 107 155 208 255 319 401 468
#     4  11  25  49  73 114 155 196 259 328 378 477
#     4  12  26  50  78 111 155 208 263 324 396 455
#     4  12  27  50  79 115 157 209 261 325 398 481
#     4  11  23  48  74 106 154 198 255 324 384 464
#     4  11  24  46  74 110 155 199 251 323 390 457
#     4  12  27  47  74 116 160 199 262 324 389 473
#
# _framework density 23.509246000000001
#
# number of rings (size 3 to 8) (size 9 to 14) (size 15 to 20)
#    0.000    0.500    6.250    1.500    3.500    3.000 
#    6.750    0.000    0.000    0.000    0.000    0.000 
#    0.000    0.000    0.000    0.000    0.000    0.000 
#
# Total GULP energy -89345.449928 kJ/mol
# GULP energy per Si atom -5584.090620 kJ/mol
# Density = 2.345574 g / cm^3
# Si number density = 23.509246 Si / 1000 Ang^3
#
#
#
# Elastic Constant Matrix: (Units=GPa)
#
#
# Indices 1 2 3 4 5 6 
#
# 1 117.9094 39.2157 12.8153 0.0000 19.8513 0.0000
# 2 39.2157 137.9512 49.1092 0.0000 2.1842 0.0000
# 3 12.8153 49.1092 68.0741 0.0000 11.5248 0.0000
# 4 0.0000 0.0000 0.0000 17.8785 0.0000 -14.1754
# 5 19.8513 2.1842 11.5248 0.0000 17.5651 0.0000
# 6 0.0000 0.0000 0.0000 -14.1754 0.0000 35.1684
#
#
#
# Elastic Compliance Matrix: (Units=1/GPa)
#
#
# Indices 1 2 3 4 5 6 
#
# 1 0.012215 -0.004504 0.003591 0.000000 -0.015601 0.000000
# 2 -0.004504 0.011649 -0.009193 0.000000 0.009673 0.000000
# 3 0.003591 -0.009193 0.023781 0.000000 -0.018518 0.000000
# 4 0.000000 0.000000 0.000000 0.082204 0.000000 0.033134
# 5 -0.015601 0.009673 -0.018518 0.000000 0.085510 0.000000
# 6 0.000000 0.000000 0.000000 0.033134 0.000000 0.041790
#
#
# Mechanical properties :
#
#
# Convention : Reuss Voigt Hill
#
# Bulk Modulus (GPa) = 36.45317 58.46833 47.46075
# Shear Modulus (GPa) = 17.45161 28.97537 23.21349
#
# Velocity S-wave (km/s) = 2.72753 3.51452 3.14573
# Velocity P-wave (km/s) = 5.04567 6.43378 5.78153
#
# Compressibility (1/GPa) = 0.02743246
#
# Stress axis : x y z
#
# Youngs Moduli (GPa) = 81.86445 85.84579 42.05006
#
# Poissons Ratio (x) = 0.38662 -0.15099
# Poissons Ratio (y) = 0.36869 0.38658
# Poissons Ratio (z) = -0.29395 0.78921
#
# Static dielectric constant tensor:
#      x y z
#    x 1.952490 0.000000 0.011850 
#    y 0.000000 1.948200 0.000000 
#    z 0.011850 0.000000 1.864280 
# 
# From -- ./inp_files/6502.got.cif
#   From: 2010.05.17/outbox.cif.g08.bks.cpg/sg4_4_cif.got.tgz:6502.got - 2010.06.03 18:43:04.
