data_PCOD9119006
_publ_section_title
;
Structure prediction by ZEFSAII (Michael W. Deem and Ramdas Pophale) SiO2 
 PCOD9119006
Probable space group: P 21
;
_chemical_formula_sum "Si O2"
_cell_formula_units_Z 16
_cell_length_a 4.970623
_cell_length_b 7.793677
_cell_length_c 16.061969
_cell_angle_alpha 90.000000
_cell_angle_beta 66.014648
_cell_angle_gamma 90.000000
_cell_volume 568.501468
_symmetry_space_group_name_H-M "P 21"
_symmetry_group_IT_number 4
_symmetry_cell_setting 'monoclinic'
loop_
_space_group_symop_operation_xyz
x,y,z
-x,1/2+y,-z
loop_
_atom_site_type_symbol
_atom_site_label
_atom_site_fract_x
_atom_site_fract_y
_atom_site_fract_z
Si Si1 0.819677 0.465790 0.628088
Si Si2 0.784761 0.224309 0.774922
Si Si3 0.932603 0.386380 0.918135
Si Si4 0.950626 0.874284 0.741335
Si Si5 0.486171 0.585620 0.523167
Si Si6 0.415621 0.660800 0.817073
Si Si7 0.208169 0.026461 0.897877
Si Si8 0.416028 0.390461 0.381510
O O1 0.852541 0.292899 0.675688
O O2 0.679130 0.451635 0.554226
O O3 0.579047 0.567115 0.715858
O O4 0.136897 0.560019 0.586142
O O5 0.823297 0.373063 0.837249
O O6 0.475172 0.130351 0.822864
O O7 0.988564 0.064194 0.773192
O O8 0.226086 0.503825 0.877636
O O9 0.974689 0.184216 0.935443
O O10 0.731728 0.474224 0.012869
O O11 0.714511 0.751628 0.814340
O O12 0.808945 0.903095 0.665690
O O13 0.278293 0.812435 0.689636
O O14 0.498082 0.558398 0.423068
O O15 0.648663 0.756871 0.536020
O O16 0.202134 0.833321 0.857652
#
# Coordination Sequence:
#
# PCOD9119006 Si02
#       8
#     2   2   2   2   2   2   2   2
#     4  12  25  47  74 110 149 203 255 321 385 468
#     4  11  29  44  76 113 150 206 262 325 394 479
#     4  12  25  50  77 113 160 208 264 334 406 478
#     4  11  27  47  77 111 154 205 265 317 394 465
#     4  12  27  45  75 108 153 200 257 315 402 460
#     4  11  23  48  76 108 153 201 262 331 382 476
#     4  11  26  47  76 113 151 207 270 323 409 477
#     4  12  26  48  73 110 152 206 253 326 390 475
#
# _framework density 28.144165000000001
#
# number of rings (size 3 to 8) (size 9 to 14) (size 15 to 20)
#    0.000    0.500    5.000    1.500    7.000    2.000 
#    2.250    0.000    0.000    0.000    0.000    0.000 
#    0.000    0.000    0.000    0.000    0.000    0.000 
#
# Total GULP energy -89318.912544 kJ/mol
# GULP energy per Si atom -5582.432034 kJ/mol
# Density = 2.808011 g / cm^3
# Si number density = 28.144165 Si / 1000 Ang^3
#
#
#
# Elastic Constant Matrix: (Units=GPa)
#
#
# Indices 1 2 3 4 5 6 
#
# 1 111.5585 33.2769 19.4646 0.0000 -0.8114 0.0000
# 2 33.2769 168.1702 8.8572 0.0000 6.1701 0.0000
# 3 19.4646 8.8572 60.4483 0.0000 9.4697 0.0000
# 4 0.0000 0.0000 0.0000 51.2569 0.0000 1.4142
# 5 -0.8114 6.1701 9.4697 0.0000 28.7588 0.0000
# 6 0.0000 0.0000 0.0000 1.4142 0.0000 37.2150
#
#
#
# Elastic Compliance Matrix: (Units=1/GPa)
#
#
# Indices 1 2 3 4 5 6 
#
# 1 0.010109 -0.001894 -0.003254 0.000000 0.001763 0.000000
# 2 -0.001894 0.006378 -0.000108 0.000000 -0.001386 0.000000
# 3 -0.003254 -0.000108 0.018576 0.000000 -0.006185 0.000000
# 4 0.000000 0.000000 0.000000 0.019530 0.000000 -0.000742
# 5 0.001763 -0.001386 -0.006185 0.000000 0.037156 0.000000
# 6 0.000000 0.000000 0.000000 -0.000742 0.000000 0.026899
#
#
# Mechanical properties :
#
#
# Convention : Reuss Voigt Hill
#
# Bulk Modulus (GPa) = 40.72961 51.48605 46.10783
# Shear Modulus (GPa) = 36.40548 42.01803 39.21175
#
# Velocity S-wave (km/s) = 3.60048 3.86807 3.73667
# Velocity P-wave (km/s) = 5.63807 6.18730 5.91906
#
# Compressibility (1/GPa) = 0.02455216
#
# Stress axis : x y z
#
# Youngs Moduli (GPa) = 98.91834 156.79872 53.83412
#
# Poissons Ratio (x) = 0.29693 0.17517
# Poissons Ratio (y) = 0.18732 0.00579
# Poissons Ratio (z) = 0.32188 0.01686
#
# Static dielectric constant tensor:
#      x y z
#    x 2.241570 0.000000 0.138380 
#    y 0.000000 2.402080 0.000000 
#    z 0.138380 0.000000 2.483330 
# 
# From -- ./inp_files/14694.got.cif
#   From: 2010.05.17/outbox.cif.g08.bks.cpg/sg4_8_cif.got.tgz:14694.got - 2010.06.03 18:43:04.
