data_PCOD9119786
_publ_section_title
;
Structure prediction by ZEFSAII (Michael W. Deem and Ramdas Pophale) SiO2 
 PCOD9119786
Probable space group: P 21
;
_chemical_formula_sum "Si O2"
_cell_formula_units_Z 16
_cell_length_a 15.658231
_cell_length_b 4.999046
_cell_length_c 22.109636
_cell_angle_alpha 90.000000
_cell_angle_beta 19.470695
_cell_angle_gamma 90.000000
_cell_volume 576.871253
_symmetry_space_group_name_H-M "P 21"
_symmetry_group_IT_number 4
_symmetry_cell_setting 'monoclinic'
loop_
_space_group_symop_operation_xyz
x,y,z
-x,1/2+y,-z
loop_
_atom_site_type_symbol
_atom_site_label
_atom_site_fract_x
_atom_site_fract_y
_atom_site_fract_z
Si Si1 0.281981 0.642240 0.272946
Si Si2 0.820108 0.793974 0.113697
Si Si3 0.415116 0.794018 0.018691
Si Si4 0.132567 0.532881 0.624641
Si Si5 0.166630 0.430287 0.472836
Si Si6 0.891225 0.430290 0.248237
Si Si7 0.396263 0.532881 0.860943
Si Si8 0.562275 0.142222 0.382799
O O1 0.122614 0.582406 0.439922
O O2 0.075123 0.733837 0.362288
O O3 0.476563 0.860260 0.170280
O O4 0.434992 0.398316 0.140888
O O5 0.672324 0.840546 0.149691
O O6 0.631474 0.898298 0.292647
O O7 0.060467 0.002434 0.956745
O O8 0.115728 0.840548 0.206285
O O9 0.508382 0.002476 0.008829
O O10 0.155879 0.614405 0.538860
O O11 0.079977 0.760486 0.709313
O O12 0.389195 0.360248 0.463965
O O13 0.422827 0.260489 0.287889
O O14 0.825485 0.233825 0.237107
O O15 0.627514 0.582404 0.435014
O O16 0.123071 0.614409 0.071664
#
# Coordination Sequence:
#
# PCOD9119786 Si02
#       8
#     2   2   2   2   2   2   2   2
#     4  12  28  48  77 116 162 217 271 346 413 504
#     4  12  30  52  83 119 164 215 280 341 414 497
#     4  12  30  52  83 119 164 215 280 341 414 497
#     4  12  28  49  77 121 159 224 267 349 414 504
#     4  12  28  49  79 114 165 214 284 338 425 497
#     4  12  28  49  79 114 165 214 284 338 425 497
#     4  12  28  49  77 121 159 224 267 349 414 504
#     4  12  28  48  77 116 162 217 271 346 413 504
#
# _framework density 27.735821999999999
#
# number of rings (size 3 to 8) (size 9 to 14) (size 15 to 20)
#    0.000    0.000    7.500    0.000   14.000    0.000 
#    0.000    0.000    0.000    0.000    0.000    0.000 
#    0.000    0.000    0.000    0.000    0.000    0.000 
#
# Total GULP energy -89798.995617 kJ/mol
# GULP energy per Si atom -5612.437226 kJ/mol
# Density = 2.767269 g / cm^3
# Si number density = 27.735822 Si / 1000 Ang^3
#
#
#
# Elastic Constant Matrix: (Units=GPa)
#
#
# Indices 1 2 3 4 5 6 
#
# 1 151.1470 26.6994 31.9101 0.0000 16.4161 0.0000
# 2 26.6994 60.5470 17.3831 0.0000 -11.7800 0.0000
# 3 31.9101 17.3831 165.7457 0.0000 2.0201 0.0000
# 4 0.0000 0.0000 0.0000 53.0263 0.0000 3.7728
# 5 16.4161 -11.7800 2.0201 0.0000 47.9516 0.0000
# 6 0.0000 0.0000 0.0000 3.7728 0.0000 50.0145
#
#
#
# Elastic Compliance Matrix: (Units=1/GPa)
#
#
# Indices 1 2 3 4 5 6 
#
# 1 0.007923 -0.003891 -0.001073 0.000000 -0.003623 0.000000
# 2 -0.003891 0.019856 -0.001410 0.000000 0.006269 0.000000
# 3 -0.001073 -0.001410 0.006391 0.000000 -0.000248 0.000000
# 4 0.000000 0.000000 0.000000 0.018960 0.000000 -0.001430
# 5 -0.003623 0.006269 -0.000248 0.000000 0.023645 0.000000
# 6 0.000000 0.000000 0.000000 -0.001430 0.000000 0.020102
#
#
# Mechanical properties :
#
#
# Convention : Reuss Voigt Hill
#
# Bulk Modulus (GPa) = 46.67898 58.82498 52.75198
# Shear Modulus (GPa) = 42.82023 50.29495 46.55759
#
# Velocity S-wave (km/s) = 3.93346 4.26297 4.10153
# Velocity P-wave (km/s) = 6.12339 6.74431 6.44133
#
# Compressibility (1/GPa) = 0.02142292
#
# Stress axis : x y z
#
# Youngs Moduli (GPa) = 126.20744 50.36168 156.47375
#
# Poissons Ratio (x) = 0.19595 0.16793
# Poissons Ratio (y) = 0.49105 0.22060
# Poissons Ratio (z) = 0.13545 0.07100
#
# Static dielectric constant tensor:
#      x y z
#    x 2.155150 0.000000 0.001190 
#    y 0.000000 2.199130 0.000000 
#    z 0.001190 0.000000 2.156100 
# 
# From -- ./inp_files/7304.got.cif
#   From: 2010.05.17/outbox.cif.g08.bks.cpg/sg4_4_cif.got.tgz:7304.got - 2010.06.03 18:43:04.
