data_PCOD9119089
_publ_section_title
;
Structure prediction by ZEFSAII (Michael W. Deem and Ramdas Pophale) SiO2 
 PCOD9119089
Probable space group: P 21
;
_chemical_formula_sum "Si O2"
_cell_formula_units_Z 16
_cell_length_a 11.949116
_cell_length_b 8.777549
_cell_length_c 9.528569
_cell_angle_alpha 90.000000
_cell_angle_beta 36.524605
_cell_angle_gamma 90.000000
_cell_volume 594.807247
_symmetry_space_group_name_H-M "P 21"
_symmetry_group_IT_number 4
_symmetry_cell_setting 'monoclinic'
loop_
_space_group_symop_operation_xyz
x,y,z
-x,1/2+y,-z
loop_
_atom_site_type_symbol
_atom_site_label
_atom_site_fract_x
_atom_site_fract_y
_atom_site_fract_z
Si Si1 0.985310 0.933610 0.216104
Si Si2 0.508154 0.102811 0.923440
Si Si3 0.635348 0.284785 0.039311
Si Si4 0.509878 0.122663 0.438428
Si Si5 0.750357 0.842206 0.185369
Si Si6 0.132775 0.249845 0.424054
Si Si7 0.993544 0.441519 0.317161
Si Si8 0.762071 0.221078 0.420167
O O1 0.906750 0.875458 0.146561
O O2 0.840382 0.873450 0.481056
O O3 0.948468 0.115321 0.253629
O O4 0.182744 0.863530 0.069099
O O5 0.600366 0.166743 0.689097
O O6 0.455434 0.927307 0.952353
O O7 0.647312 0.149949 0.910343
O O8 0.313760 0.184953 0.162759
O O9 0.512979 0.203385 0.284424
O O10 0.325441 0.172675 0.710066
O O11 0.690960 0.189525 0.337771
O O12 0.562563 0.945639 0.392825
O O13 0.830798 0.904466 0.958590
O O14 0.002773 0.332845 0.442069
O O15 0.036545 0.109624 0.599686
O O16 0.815219 0.391640 0.404471
#
# Coordination Sequence:
#
# PCOD9119089 Si02
#       8
#     2   2   2   2   2   2   2   2
#     4  11  25  48  73 103 144 192 245 308 370 436
#     4  12  25  44  72 105 143 192 247 307 369 434
#     4  12  26  46  73 104 146 192 243 306 370 437
#     4  11  25  47  75 108 147 191 244 307 367 436
#     4  11  26  48  78 111 147 193 248 305 370 440
#     4  12  25  44  70 103 147 194 243 305 366 437
#     4  12  26  45  72 108 150 197 246 300 369 444
#     4  11  24  44  71 106 144 189 248 304 369 440
#
# _framework density 26.899470999999998
#
# number of rings (size 3 to 8) (size 9 to 14) (size 15 to 20)
#    0.000    0.500    0.000    9.000    0.000    8.000 
#    0.000    1.250    0.000    0.000    0.000    0.000 
#    0.000    0.000    0.000    0.000    0.000    0.000 
#
# Total GULP energy -89680.098873 kJ/mol
# GULP energy per Si atom -5605.006180 kJ/mol
# Density = 2.683825 g / cm^3
# Si number density = 26.899471 Si / 1000 Ang^3
#
#
#
# Elastic Constant Matrix: (Units=GPa)
#
#
# Indices 1 2 3 4 5 6 
#
# 1 105.1067 22.3096 8.8533 0.0000 7.2844 0.0000
# 2 22.3096 79.7591 12.3610 0.0000 -7.1311 0.0000
# 3 8.8533 12.3610 102.1404 0.0000 3.6712 0.0000
# 4 0.0000 0.0000 0.0000 33.2590 0.0000 -6.7270
# 5 7.2844 -7.1311 3.6712 0.0000 44.9702 0.0000
# 6 0.0000 0.0000 0.0000 -6.7270 0.0000 44.1227
#
#
#
# Elastic Compliance Matrix: (Units=1/GPa)
#
#
# Indices 1 2 3 4 5 6 
#
# 1 0.010338 -0.003010 -0.000456 0.000000 -0.002115 0.000000
# 2 -0.003010 0.013866 -0.001518 0.000000 0.002810 0.000000
# 3 -0.000456 -0.001518 0.010049 0.000000 -0.000987 0.000000
# 4 0.000000 0.000000 0.000000 0.031024 0.000000 0.004730
# 5 -0.002115 0.002810 -0.000987 0.000000 0.023106 0.000000
# 6 0.000000 0.000000 0.000000 0.004730 0.000000 0.023385
#
#
# Mechanical properties :
#
#
# Convention : Reuss Voigt Hill
#
# Bulk Modulus (GPa) = 41.17720 41.56156 41.36938
# Shear Modulus (GPa) = 38.51147 40.70251 39.60699
#
# Velocity S-wave (km/s) = 3.78786 3.89412 3.84136
# Velocity P-wave (km/s) = 5.87125 5.97521 5.92346
#
# Compressibility (1/GPa) = 0.02428528
#
# Stress axis : x y z
#
# Youngs Moduli (GPa) = 96.73044 72.11743 99.51074
#
# Poissons Ratio (x) = 0.21708 0.04536
# Poissons Ratio (y) = 0.29117 0.15108
# Poissons Ratio (z) = 0.04409 0.10949
#
# Static dielectric constant tensor:
#      x y z
#    x 2.099350 0.000000 -0.069640 
#    y 0.000000 2.062720 0.000000 
#    z -0.069640 0.000000 2.120310 
# 
# From -- ./inp_files/7942.got.cif
#   From: 2010.05.17/outbox.cif.g08.bks.cpg/sg4_4_cif.got.tgz:7942.got - 2010.06.03 18:43:04.
