data_PCOD9119013
_publ_section_title
;
Structure prediction by ZEFSAII (Michael W. Deem and Ramdas Pophale) SiO2 
 PCOD9119013
Probable space group: P 21
;
_chemical_formula_sum "Si O2"
_cell_formula_units_Z 14
_cell_length_a 15.689851
_cell_length_b 8.432718
_cell_length_c 9.667976
_cell_angle_alpha 90.000000
_cell_angle_beta 23.125106
_cell_angle_gamma 90.000000
_cell_volume 502.374096
_symmetry_space_group_name_H-M "P 21"
_symmetry_group_IT_number 4
_symmetry_cell_setting 'monoclinic'
loop_
_space_group_symop_operation_xyz
x,y,z
-x,1/2+y,-z
loop_
_atom_site_type_symbol
_atom_site_label
_atom_site_fract_x
_atom_site_fract_y
_atom_site_fract_z
Si Si1 0.944120 0.321070 0.439225
Si Si2 0.862440 0.064340 0.371865
Si Si3 0.580884 0.958613 0.564786
Si Si4 0.241737 0.149271 0.344198
Si Si5 0.123745 0.837029 0.159776
Si Si6 0.285995 0.108970 0.583024
Si Si7 0.432045 0.304637 0.789835
O O1 0.842118 0.241831 0.456606
O O2 0.824150 0.488110 0.631223
O O3 0.896993 0.250663 0.660772
O O4 0.204856 0.328174 0.048134
O O5 0.973534 0.987318 0.341952
O O6 0.041709 0.052651 0.983199
O O7 0.647222 0.990375 0.628776
O O8 0.700756 0.786423 0.375197
O O9 0.570350 0.148218 0.537643
O O10 0.361853 0.903206 0.814951
O O11 0.355782 0.123791 0.319004
O O12 0.003414 0.215632 0.748127
O O13 0.354079 0.262111 0.063774
O O14 0.436920 0.967579 0.413176
#
# Coordination Sequence:
#
# PCOD9119013 Si02
#       7
#     2   2   2   2   2   2   2
#     4  11  23  49  79 113 157 202 267 343 390 472
#     4  12  28  51  76 116 168 209 270 335 410 489
#     4  12  26  50  79 114 157 213 273 317 420 471
#     4  11  24  45  80 112 159 203 260 342 392 472
#     4  11  23  51  75 113 155 207 265 333 402 474
#     4  12  30  48  75 122 162 212 266 338 402 484
#     4  11  26  48  80 114 156 214 273 324 408 480
#
# _framework density 27.867681000000001
#
# number of rings (size 3 to 8) (size 9 to 14) (size 15 to 20)
#    0.000    0.571    4.286    2.571    6.000    3.429 
#    2.571    0.000    0.000    0.000    0.000    0.000 
#    0.000    0.000    0.000    0.000    0.000    0.000 
#
# Total GULP energy -78064.600972 kJ/mol
# GULP energy per Si atom -5576.042927 kJ/mol
# Density = 2.780425 g / cm^3
# Si number density = 27.867681 Si / 1000 Ang^3
#
#
#
# Elastic Constant Matrix: (Units=GPa)
#
#
# Indices 1 2 3 4 5 6 
#
# 1 142.7144 35.7935 42.3588 0.0000 -0.4810 0.0000
# 2 35.7935 124.3677 37.9669 0.0000 -9.8548 0.0000
# 3 42.3588 37.9669 87.7767 0.0000 -9.2950 0.0000
# 4 0.0000 0.0000 0.0000 32.4063 0.0000 -23.8479
# 5 -0.4810 -9.8548 -9.2950 0.0000 50.8764 0.0000
# 6 0.0000 0.0000 0.0000 -23.8479 0.0000 39.9381
#
#
#
# Elastic Compliance Matrix: (Units=1/GPa)
#
#
# Indices 1 2 3 4 5 6 
#
# 1 0.008407 -0.001406 -0.003538 0.000000 -0.000839 0.000000
# 2 -0.001406 0.009558 -0.003325 0.000000 0.001231 0.000000
# 3 -0.003538 -0.003325 0.014752 0.000000 0.002018 0.000000
# 4 0.000000 0.000000 0.000000 0.055047 0.000000 0.032870
# 5 -0.000839 0.001231 0.002018 0.000000 0.020254 0.000000
# 6 0.000000 0.000000 0.000000 0.032870 0.000000 0.044666
#
#
# Mechanical properties :
#
#
# Convention : Reuss Voigt Hill
#
# Bulk Modulus (GPa) = 61.81062 65.23302 63.52182
# Shear Modulus (GPa) = 28.63443 40.56014 34.59729
#
# Velocity S-wave (km/s) = 3.20896 3.81918 3.52729
# Velocity P-wave (km/s) = 5.99651 6.55035 6.27954
#
# Compressibility (1/GPa) = 0.01617845
#
# Stress axis : x y z
#
# Youngs Moduli (GPa) = 118.95119 104.62423 67.78878
#
# Poissons Ratio (x) = 0.14711 0.23981
# Poissons Ratio (y) = 0.16725 0.22542
# Poissons Ratio (z) = 0.42080 0.34792
#
# Static dielectric constant tensor:
#      x y z
#    x 2.133530 0.000000 0.076170 
#    y 0.000000 2.403550 0.000000 
#    z 0.076170 0.000000 2.380190 
# 
# From -- ./inp_files/5480.got.cif
#   From: 2010.05.17/outbox.cif.g08.bks.cpg/sg4_3_cif.got.tgz:5480.got - 2010.06.03 18:43:04.
