data_PCOD9119451
_publ_section_title
;
Structure prediction by ZEFSAII (Michael W. Deem and Ramdas Pophale) SiO2 
 PCOD9119451
Probable space group: P 21
;
_chemical_formula_sum "Si O2"
_cell_formula_units_Z 16
_cell_length_a 14.643249
_cell_length_b 8.906427
_cell_length_c 14.362434
_cell_angle_alpha 90.000000
_cell_angle_beta 20.401031
_cell_angle_gamma 90.000000
_cell_volume 652.953984
_symmetry_space_group_name_H-M "P 21"
_symmetry_group_IT_number 4
_symmetry_cell_setting 'monoclinic'
loop_
_space_group_symop_operation_xyz
x,y,z
-x,1/2+y,-z
loop_
_atom_site_type_symbol
_atom_site_label
_atom_site_fract_x
_atom_site_fract_y
_atom_site_fract_z
Si Si1 0.278131 0.295290 0.567540
Si Si2 0.941923 0.056864 0.985020
Si Si3 0.325936 0.809221 0.662684
Si Si4 0.791508 0.136852 0.746920
Si Si5 0.582780 0.074682 0.149477
Si Si6 0.735653 0.484652 0.801153
Si Si7 0.956143 0.559001 0.793588
Si Si8 0.469316 0.760998 0.317902
O O1 0.511231 0.368481 0.404593
O O2 0.394897 0.207499 0.366476
O O3 0.178301 0.168208 0.733567
O O4 0.050921 0.410035 0.757272
O O5 0.758481 0.140034 0.233281
O O6 0.793567 0.048205 0.029314
O O7 0.063157 0.905038 0.904244
O O8 0.459825 0.814439 0.434461
O O9 0.757108 0.310589 0.755071
O O10 0.725880 0.117422 0.918387
O O11 0.079427 0.080209 0.444687
O O12 0.563601 0.040347 0.914885
O O13 0.452869 0.910083 0.269608
O O14 0.854606 0.509831 0.789692
O O15 0.215820 0.660374 0.540321
O O16 0.727105 0.661087 0.055764
#
# Coordination Sequence:
#
# PCOD9119451 Si02
#       8
#     2   2   2   2   2   2   2   2
#     4  11  28  47  78 107 164 209 266 326 402 473
#     4  11  26  49  74 105 158 208 270 325 401 474
#     4  11  28  47  73 116 153 216 273 332 391 474
#     4  12  30  53  89 117 166 203 271 332 405 492
#     4  11  28  52  77 114 156 218 258 330 411 477
#     4  12  30  55  82 125 156 211 265 332 410 485
#     4  12  31  51  79 117 162 208 262 334 402 475
#     4  12  29  50  80 115 161 209 273 329 392 478
#
# _framework density 24.504024999999999
#
# number of rings (size 3 to 8) (size 9 to 14) (size 15 to 20)
#    0.000    0.500    1.250    3.000   22.750    0.000 
#    0.000    0.000    0.000    0.000    0.000    0.000 
#    0.000    0.000    0.000    0.000    0.000    0.000 
#
# Total GULP energy -89799.894766 kJ/mol
# GULP energy per Si atom -5612.493423 kJ/mol
# Density = 2.444825 g / cm^3
# Si number density = 24.504025 Si / 1000 Ang^3
#
#
#
# Elastic Constant Matrix: (Units=GPa)
#
#
# Indices 1 2 3 4 5 6 
#
# 1 64.4838 18.6883 3.6172 0.0000 6.7337 0.0000
# 2 18.6883 99.0951 11.1284 0.0000 -0.5468 0.0000
# 3 3.6172 11.1284 86.9125 0.0000 -3.7715 0.0000
# 4 0.0000 0.0000 0.0000 56.2734 0.0000 0.0490
# 5 6.7337 -0.5468 -3.7715 0.0000 39.3156 0.0000
# 6 0.0000 0.0000 0.0000 0.0490 0.0000 24.1083
#
#
#
# Elastic Compliance Matrix: (Units=1/GPa)
#
#
# Indices 1 2 3 4 5 6 
#
# 1 0.016746 -0.003127 -0.000425 0.000000 -0.002952 0.000000
# 2 -0.003127 0.010822 -0.001231 0.000000 0.000568 0.000000
# 3 -0.000425 -0.001231 0.011732 0.000000 0.001181 0.000000
# 4 0.000000 0.000000 0.000000 0.017770 0.000000 -0.000036
# 5 -0.002952 0.000568 0.001181 0.000000 0.026062 0.000000
# 6 0.000000 0.000000 0.000000 -0.000036 0.000000 0.041480
#
#
# Mechanical properties :
#
#
# Convention : Reuss Voigt Hill
#
# Bulk Modulus (GPa) = 33.62923 35.26212 34.44567
# Shear Modulus (GPa) = 34.70063 38.40995 36.55529
#
# Velocity S-wave (km/s) = 3.76722 3.96346 3.86658
# Velocity P-wave (km/s) = 5.71632 5.94701 5.83280
#
# Compressibility (1/GPa) = 0.02973604
#
# Stress axis : x y z
#
# Youngs Moduli (GPa) = 59.71550 92.40139 85.23428
#
# Poissons Ratio (x) = 0.28891 0.03620
# Poissons Ratio (y) = 0.18671 0.10492
# Poissons Ratio (z) = 0.02536 0.11374
#
# Static dielectric constant tensor:
#      x y z
#    x 1.924100 0.000000 -0.014810 
#    y 0.000000 1.960480 0.000000 
#    z -0.014810 0.000000 1.930430 
# 
# From -- ./inp_files/14191.got.cif
#   From: 2010.05.17/outbox.cif.g08.bks.cpg/sg4_8_cif.got.tgz:14191.got - 2010.06.03 18:43:04.
