data_PCOD9119330
_publ_section_title
;
Structure prediction by ZEFSAII (Michael W. Deem and Ramdas Pophale) SiO2 
 PCOD9119330
Probable space group: P 21
;
_chemical_formula_sum "Si O2"
_cell_formula_units_Z 16
_cell_length_a 9.347744
_cell_length_b 5.129750
_cell_length_c 14.384770
_cell_angle_alpha 90.000000
_cell_angle_beta 119.493217
_cell_angle_gamma 90.000000
_cell_volume 600.387709
_symmetry_space_group_name_H-M "P 21"
_symmetry_group_IT_number 4
_symmetry_cell_setting 'monoclinic'
loop_
_space_group_symop_operation_xyz
x,y,z
-x,1/2+y,-z
loop_
_atom_site_type_symbol
_atom_site_label
_atom_site_fract_x
_atom_site_fract_y
_atom_site_fract_z
Si Si1 0.553562 0.817100 0.464709
Si Si2 0.152397 0.972645 0.470629
Si Si3 0.110169 0.790995 0.015390
Si Si4 0.330490 0.582094 0.238461
Si Si5 0.955314 0.086545 0.717404
Si Si6 0.512616 0.271161 0.149315
Si Si7 0.174550 0.696350 0.662167
Si Si8 0.267160 0.084878 0.911000
O O1 0.484574 0.611473 0.519358
O O2 0.743266 0.731988 0.516920
O O3 0.458569 0.736744 0.341912
O O4 0.228208 0.858707 0.589057
O O5 0.956417 0.997836 0.422548
O O6 0.145654 0.785467 0.379178
O O7 0.255620 0.768020 0.135891
O O8 0.002223 0.534760 0.993621
O O9 0.187359 0.834497 0.938496
O O10 0.415403 0.353806 0.208924
O O11 0.179372 0.481857 0.253439
O O12 0.059463 0.874847 0.692229
O O13 0.103355 0.228545 0.821996
O O14 0.666372 0.094177 0.232263
O O15 0.614522 0.509050 0.135414
O O16 0.382917 0.199121 0.028285
#
# Coordination Sequence:
#
# PCOD9119330 Si02
#       8
#     2   2   2   2   2   2   2   2
#     4  12  28  50  76 116 162 203 259 330 395 467
#     4  12  24  47  77 107 152 208 262 323 395 474
#     4  12  27  50  82 116 156 208 263 322 385 481
#     4  12  25  48  76 115 155 205 262 324 398 458
#     4  11  25  46  74 112 147 207 257 325 389 478
#     4  11  26  48  73 116 153 207 261 330 391 475
#     4  11  25  46  76 106 154 202 266 314 400 467
#     4  11  26  49  76 112 161 202 266 318 403 464
#
# _framework density 26.649446999999999
#
# number of rings (size 3 to 8) (size 9 to 14) (size 15 to 20)
#    0.000    0.500    5.000    2.250    1.750    4.000 
#    2.250    0.000    0.000    0.000    0.000    0.000 
#    0.000    0.000    0.000    0.000    0.000    0.000 
#
# Total GULP energy -89677.063834 kJ/mol
# GULP energy per Si atom -5604.816490 kJ/mol
# Density = 2.658879 g / cm^3
# Si number density = 26.649447 Si / 1000 Ang^3
#
#
#
# Elastic Constant Matrix: (Units=GPa)
#
#
# Indices 1 2 3 4 5 6 
#
# 1 177.3992 44.8826 15.9190 0.0000 13.4955 0.0000
# 2 44.8826 72.0032 -22.4569 0.0000 14.0698 0.0000
# 3 15.9190 -22.4569 214.9885 0.0000 21.7094 0.0000
# 4 0.0000 0.0000 0.0000 36.2868 0.0000 -1.1834
# 5 13.4955 14.0698 21.7094 0.0000 66.1818 0.0000
# 6 0.0000 0.0000 0.0000 -1.1834 0.0000 43.6295
#
#
#
# Elastic Compliance Matrix: (Units=1/GPa)
#
#
# Indices 1 2 3 4 5 6 
#
# 1 0.006892 -0.004579 -0.000977 0.000000 -0.000111 0.000000
# 2 -0.004579 0.018313 0.002638 0.000000 -0.003825 0.000000
# 3 -0.000977 0.002638 0.005208 0.000000 -0.002070 0.000000
# 4 0.000000 0.000000 0.000000 0.027583 0.000000 0.000748
# 5 -0.000111 -0.003825 -0.002070 0.000000 0.016625 0.000000
# 6 0.000000 0.000000 0.000000 0.000748 0.000000 0.022941
#
#
# Mechanical properties :
#
#
# Convention : Reuss Voigt Hill
#
# Bulk Modulus (GPa) = 40.68932 60.12003 50.40468
# Shear Modulus (GPa) = 44.80720 57.62268 51.21494
#
# Velocity S-wave (km/s) = 4.10488 4.65504 4.38859
# Velocity P-wave (km/s) = 6.14559 7.17643 6.68092
#
# Compressibility (1/GPa) = 0.02457647
#
# Stress axis : x y z
#
# Youngs Moduli (GPa) = 145.10292 54.60684 191.99811
#
# Poissons Ratio (x) = 0.25004 0.18765
# Poissons Ratio (y) = 0.66442 -0.50652
# Poissons Ratio (z) = 0.14182 -0.14406
#
# Static dielectric constant tensor:
#      x y z
#    x 2.082730 0.000000 0.008660 
#    y 0.000000 2.064360 0.000000 
#    z 0.008660 0.000000 2.101500 
# 
# From -- ./inp_files/10002.got.cif
#   From: 2010.05.17/outbox.cif.g08.bks.cpg/sg4_6_cif.got.tgz:10002.got - 2010.06.03 18:43:04.
