data_PCOD9119713
_publ_section_title
;
Structure prediction by ZEFSAII (Michael W. Deem and Ramdas Pophale) SiO2 
 PCOD9119713
Probable space group: P 21
;
_chemical_formula_sum "Si O2"
_cell_formula_units_Z 16
_cell_length_a 12.654768
_cell_length_b 5.152079
_cell_length_c 18.477966
_cell_angle_alpha 90.000000
_cell_angle_beta 31.418541
_cell_angle_gamma 90.000000
_cell_volume 628.010308
_symmetry_space_group_name_H-M "P 21"
_symmetry_group_IT_number 4
_symmetry_cell_setting 'monoclinic'
loop_
_space_group_symop_operation_xyz
x,y,z
-x,1/2+y,-z
loop_
_atom_site_type_symbol
_atom_site_label
_atom_site_fract_x
_atom_site_fract_y
_atom_site_fract_z
Si Si1 0.973037 0.903010 0.438433
Si Si2 0.677339 0.682658 0.514653
Si Si3 0.890624 0.883654 0.034072
Si Si4 0.766381 0.589603 0.972499
Si Si5 0.306994 0.563582 0.264263
Si Si6 0.570353 0.673049 0.324967
Si Si7 0.897152 0.669419 0.253207
Si Si8 0.118780 0.299125 0.238635
O O1 0.864169 0.662271 0.461636
O O2 0.208810 0.852058 0.319216
O O3 0.838384 0.950984 0.587752
O O4 0.983970 0.114803 0.368586
O O5 0.568773 0.408717 0.564936
O O6 0.744889 0.810037 0.399057
O O7 0.539952 0.907332 0.630124
O O8 0.678972 0.807680 0.194047
O O9 0.860948 0.821196 0.966570
O O10 0.045096 0.667568 0.976560
O O11 0.744124 0.646626 0.900100
O O12 0.931289 0.360798 0.876787
O O13 0.545488 0.533215 0.134219
O O14 0.256794 0.451950 0.214412
O O15 0.747917 0.590117 0.276459
O O16 0.988347 0.465631 0.257368
#
# Coordination Sequence:
#
# PCOD9119713 Si02
#       8
#     2   2   2   2   2   2   2   2
#     4  12  26  51  80 111 161 209 270 342 403 481
#     4  12  26  46  80 115 154 210 271 326 411 480
#     4  12  26  52  79 112 164 211 264 336 406 479
#     4  12  29  47  80 115 154 214 267 326 418 487
#     4  12  28  50  78 116 154 213 270 338 405 479
#     4  12  27  47  79 116 157 210 272 329 403 486
#     4  12  26  48  74 113 160 204 257 340 399 486
#     4  12  26  49  80 108 164 205 265 333 409 478
#
# _framework density 25.477288000000001
#
# number of rings (size 3 to 8) (size 9 to 14) (size 15 to 20)
#    0.000    0.000    5.000    3.750    5.250    1.000 
#    0.000    0.000    0.000    0.000    0.000    0.000 
#    0.000    0.000    0.000    0.000    0.000    0.000 
#
# Total GULP energy -89474.171770 kJ/mol
# GULP energy per Si atom -5592.135736 kJ/mol
# Density = 2.541930 g / cm^3
# Si number density = 25.477288 Si / 1000 Ang^3
#
#
#
# Elastic Constant Matrix: (Units=GPa)
#
#
# Indices 1 2 3 4 5 6 
#
# 1 118.1404 6.7903 30.3290 0.0000 21.0488 0.0000
# 2 6.7903 64.3426 14.5180 0.0000 -1.0842 0.0000
# 3 30.3290 14.5180 128.9699 0.0000 5.1890 0.0000
# 4 0.0000 0.0000 0.0000 36.6193 0.0000 3.2745
# 5 21.0488 -1.0842 5.1890 0.0000 54.9560 0.0000
# 6 0.0000 0.0000 0.0000 3.2745 0.0000 48.2150
#
#
#
# Elastic Compliance Matrix: (Units=1/GPa)
#
#
# Indices 1 2 3 4 5 6 
#
# 1 0.009655 -0.000613 -0.002060 0.000000 -0.003516 0.000000
# 2 -0.000613 0.015999 -0.001685 0.000000 0.000710 0.000000
# 3 -0.002060 -0.001685 0.008430 0.000000 -0.000040 0.000000
# 4 0.000000 0.000000 0.000000 0.027475 0.000000 -0.001866
# 5 -0.003516 0.000710 -0.000040 0.000000 0.019561 0.000000
# 6 0.000000 0.000000 0.000000 -0.001866 0.000000 0.020867
#
#
# Mechanical properties :
#
#
# Convention : Reuss Voigt Hill
#
# Bulk Modulus (GPa) = 39.42292 46.08083 42.75188
# Shear Modulus (GPa) = 41.96094 45.27911 43.62003
#
# Velocity S-wave (km/s) = 4.06272 4.22030 4.14226
# Velocity P-wave (km/s) = 6.12494 6.47103 6.30036
#
# Compressibility (1/GPa) = 0.02536595
#
# Stress axis : x y z
#
# Youngs Moduli (GPa) = 103.57370 62.50493 118.63080
#
# Poissons Ratio (x) = 0.03834 0.24438
# Poissons Ratio (y) = 0.06353 0.19993
# Poissons Ratio (z) = 0.21336 0.10534
#
# Static dielectric constant tensor:
#      x y z
#    x 1.998850 0.000000 0.006160 
#    y 0.000000 2.093650 0.000000 
#    z 0.006160 0.000000 2.139960 
# 
# From -- ./inp_files/15065.got.cif
#   From: 2010.05.17/outbox.cif.g08.bks.cpg/sg4_8_cif.got.tgz:15065.got - 2010.06.03 18:43:04.
