data_PCOD9119698
_publ_section_title
;
Structure prediction by ZEFSAII (Michael W. Deem and Ramdas Pophale) SiO2 
 PCOD9119698
Probable space group: P 21
;
_chemical_formula_sum "Si O2"
_cell_formula_units_Z 16
_cell_length_a 10.545506
_cell_length_b 6.943378
_cell_length_c 12.085217
_cell_angle_alpha 90.000000
_cell_angle_beta 64.132264
_cell_angle_gamma 90.000000
_cell_volume 796.233442
_symmetry_space_group_name_H-M "P 21"
_symmetry_group_IT_number 4
_symmetry_cell_setting 'monoclinic'
loop_
_space_group_symop_operation_xyz
x,y,z
-x,1/2+y,-z
loop_
_atom_site_type_symbol
_atom_site_label
_atom_site_fract_x
_atom_site_fract_y
_atom_site_fract_z
Si Si1 0.927491 0.891660 0.905979
Si Si2 0.516616 0.780069 0.829181
Si Si3 0.304913 0.752709 0.500000
Si Si4 0.961066 0.048799 0.288406
Si Si5 0.749473 0.456621 0.711593
Si Si6 0.422220 0.002708 0.655562
Si Si7 0.666530 0.113759 0.905978
Si Si8 0.154203 0.225349 0.829181
O O1 0.979184 0.701843 0.823099
O O2 0.810320 0.002709 0.879359
O O3 0.860735 0.833780 0.048692
O O4 0.059146 0.033559 0.872594
O O5 0.650691 0.643852 0.757270
O O6 0.445614 0.844000 0.741914
O O7 0.568260 0.971861 0.872593
O O8 0.409428 0.671640 0.951309
O O9 0.169268 0.643167 0.598458
O O10 0.267723 0.862254 0.401543
O O11 0.358121 0.902582 0.571962
O O12 0.430081 0.602834 0.428035
O O13 0.907961 0.861567 0.242730
O O14 0.089159 0.002711 0.321680
O O15 0.697718 0.303575 0.823097
O O16 0.312471 0.161415 0.741913
#
# Coordination Sequence:
#
# PCOD9119698 Si02
#       8
#     2   2   2   2   2   2   2   2
#     4  12  26  45  73 111 148 186 237 300 371 433
#     4  12  27  45  75 109 147 187 238 301 370 432
#     4  12  28  50  72 104 144 198 248 292 356 430
#     4  12  27  48  74 107 144 193 244 298 362 429
#     4  12  27  48  74 107 144 193 244 298 362 429
#     4  12  28  48  74 106 146 194 246 300 360 434
#     4  12  26  45  73 111 148 186 237 300 371 433
#     4  12  27  45  75 109 147 187 238 301 370 432
#
# _framework density 20.094608999999998
#
# number of rings (size 3 to 8) (size 9 to 14) (size 15 to 20)
#    0.000    0.000    7.500    1.500    8.750    3.000 
#    0.000    0.000    0.000    0.000    0.000    0.000 
#    0.000    0.000    0.000    0.000    0.000    0.000 
#
# Total GULP energy -89631.260667 kJ/mol
# GULP energy per Si atom -5601.953792 kJ/mol
# Density = 2.004887 g / cm^3
# Si number density = 20.094609 Si / 1000 Ang^3
#
#
#
# Elastic Constant Matrix: (Units=GPa)
#
#
# Indices 1 2 3 4 5 6 
#
# 1 120.9644 58.7829 76.0715 0.0000 0.0041 0.0000
# 2 58.7829 90.1006 49.0017 0.0000 0.0038 0.0000
# 3 76.0715 49.0017 145.5846 0.0000 0.0056 0.0000
# 4 0.0000 0.0000 0.0000 32.2970 0.0000 0.0003
# 5 0.0041 0.0038 0.0056 0.0000 32.4897 0.0000
# 6 0.0000 0.0000 0.0000 0.0003 0.0000 52.3447
#
#
#
# Elastic Compliance Matrix: (Units=1/GPa)
#
#
# Indices 1 2 3 4 5 6 
#
# 1 0.015092 -0.006803 -0.005596 0.000000 0.000000 0.000000
# 2 -0.006803 0.016652 -0.002050 0.000000 -0.000001 0.000000
# 3 -0.005596 -0.002050 0.010483 0.000000 -0.000001 0.000000
# 4 0.000000 0.000000 0.000000 0.030963 0.000000 0.000000
# 5 0.000000 -0.000001 -0.000001 0.000000 0.030779 0.000000
# 6 0.000000 0.000000 0.000000 0.000000 0.000000 0.019104
#
#
# Mechanical properties :
#
#
# Convention : Reuss Voigt Hill
#
# Bulk Modulus (GPa) = 75.02608 80.48462 77.75535
# Shear Modulus (GPa) = 31.96644 34.94585 33.45614
#
# Velocity S-wave (km/s) = 3.99281 4.17473 4.08478
# Velocity P-wave (km/s) = 7.65991 7.96101 7.81191
#
# Compressibility (1/GPa) = 0.01332870
#
# Stress axis : x y z
#
# Youngs Moduli (GPa) = 66.26014 60.05322 95.39147
#
# Poissons Ratio (x) = 0.40852 0.53384
# Poissons Ratio (y) = 0.45075 0.19557
# Poissons Ratio (z) = 0.37081 0.12312
#
# Static dielectric constant tensor:
#      x y z
#    x 1.677970 0.000000 0.000000 
#    y 0.000000 1.688070 0.000000 
#    z 0.000000 0.000000 1.671760 
# 
# From -- ./inp_files/9097.got.cif
#   From: 2010.05.17/outbox.cif.g08.bks.cpg/sg4_5_cif.got.tgz:9097.got - 2010.06.03 18:43:04.
