data_PCOD9119923
_publ_section_title
;
Structure prediction by ZEFSAII (Michael W. Deem and Ramdas Pophale) SiO2 
 PCOD9119923
Probable space group: C 2
;
_chemical_formula_sum "Si O2"
_cell_formula_units_Z 30
_cell_length_a 7.771127
_cell_length_b 14.894877
_cell_length_c 13.051119
_cell_angle_alpha 90.000000
_cell_angle_beta 55.007589
_cell_angle_gamma 90.000000
_cell_volume 1237.580533
_symmetry_space_group_name_H-M "C 2"
_symmetry_group_IT_number 5
_symmetry_cell_setting 'monoclinic'
loop_
_space_group_symop_operation_xyz
x,y,z
-x,y,-z
1/2+x,1/2+y,z
1/2-x,1/2+y,-z
loop_
_atom_site_type_symbol
_atom_site_label
_atom_site_fract_x
_atom_site_fract_y
_atom_site_fract_z
Si Si1 0.626037 0.377540 0.060751
Si Si2 0.202683 0.339155 0.673281
Si Si3 0.501917 0.193429 0.811268
Si Si4 0.464666 0.992998 0.847304
Si Si5 0.844786 0.010753 0.240821
Si Si6 0.000000 0.590988 0.500000
Si Si7 0.071267 0.190305 0.858738
Si Si8 0.841303 0.759340 0.431453
O O1 0.603285 0.271138 0.084643
O O2 0.495661 0.425575 0.195649
O O3 0.500000 0.393354 0.000000
O O4 0.844338 0.430824 0.971880
O O5 0.046608 0.273693 0.791680
O O6 0.185045 0.315394 0.558776
O O7 0.438833 0.312555 0.625048
O O8 0.151085 0.437730 0.730463
O O9 0.321740 0.178635 0.786748
O O10 0.687598 0.236740 0.679099
O O11 0.527684 0.095571 0.852501
O O12 0.294617 0.999275 0.813679
O O13 0.676985 0.031320 0.385337
O O14 0.995188 0.097024 0.168971
O O15 0.869252 0.661073 0.474207
O O16 0.000000 0.199454 0.000000
#
# Coordination Sequence:
#
# PCOD9119923 Si02
#       8
#     4   4   4   4   4   2   4   4
#     4  10  22  36  50  76 111 143 177 222 268 313
#     4   9  17  30  52  80 105 134 171 223 273 300
#     4  10  19  35  51  74 106 141 175 223 268 308
#     4  10  19  33  54  77 104 145 179 213 266 320
#     4  10  18  31  52  76 105 139 172 219 269 309
#     4  10  14  32  54  78 102 130 172 222 266 308
#     4  10  16  28  52  76 100 132 176 223 262 310
#     4   9  17  34  54  79 109 131 172 236 265 301
#
# _framework density 24.240846000000001
#
# number of rings (size 3 to 8) (size 9 to 14) (size 15 to 20)
#    0.000    2.400    5.333    2.800    0.000    1.067 
#    0.000    3.333    0.000    8.000    0.000    0.000 
#    0.000    0.000    0.000    0.000    0.000    0.000 
#
# Total GULP energy -83550.834533 kJ/mol
# GULP energy per Si atom -5570.055636 kJ/mol
# Density = 2.418567 g / cm^3
# Si number density = 24.240846 Si / 1000 Ang^3
#
#
#
# Elastic Constant Matrix: (Units=GPa)
#
#
# Indices 1 2 3 4 5 6 
#
# 1 33.8387 12.7887 6.3026 0.0000 3.5002 0.0000
# 2 12.7887 166.1074 100.4312 0.0000 -11.8249 0.0000
# 3 6.3026 100.4312 168.4954 0.0000 3.5066 0.0000
# 4 0.0000 0.0000 0.0000 46.7997 0.0000 4.5268
# 5 3.5002 -11.8249 3.5066 0.0000 11.6835 0.0000
# 6 0.0000 0.0000 0.0000 4.5268 0.0000 10.8389
#
#
#
# Elastic Compliance Matrix: (Units=1/GPa)
#
#
# Indices 1 2 3 4 5 6 
#
# 1 0.032554 -0.004750 0.001929 0.000000 -0.015139 0.000000
# 2 -0.004750 0.011858 -0.007215 0.000000 0.015590 0.000000
# 3 0.001929 -0.007215 0.010392 0.000000 -0.010999 0.000000
# 4 0.000000 0.000000 0.000000 0.022267 0.000000 -0.009300
# 5 -0.015139 0.015590 -0.010999 0.000000 0.109206 0.000000
# 6 0.000000 0.000000 0.000000 -0.009300 0.000000 0.096144
#
#
# Mechanical properties :
#
#
# Convention : Reuss Voigt Hill
#
# Bulk Modulus (GPa) = 28.79235 67.49851 48.14543
# Shear Modulus (GPa) = 15.92004 30.45903 23.18953
#
# Velocity S-wave (km/s) = 2.56548 3.54858 3.09630
# Velocity P-wave (km/s) = 4.54742 6.68546 5.71727
#
# Compressibility (1/GPa) = 0.03473145
#
# Stress axis : x y z
#
# Youngs Moduli (GPa) = 30.71827 84.33307 96.22949
#
# Poissons Ratio (x) = 0.40060 -0.18560
# Poissons Ratio (y) = 0.14592 0.69425
# Poissons Ratio (z) = -0.05925 0.60842
#
# Static dielectric constant tensor:
#      x y z
#    x 1.962330 0.000000 -0.010390 
#    y 0.000000 2.067540 0.000000 
#    z -0.010390 0.000000 2.042850 
# 
# From -- ./inp_files/60482.got.cif
#   From: 2010.05.17/outbox.cif.g08.bks.cpg/sg5_31_cif.got.tgz:60482.got - 2010.06.03 18:56:24.
