data_PCOD9119032
_publ_section_title
;
Structure prediction by ZEFSAII (Michael W. Deem and Ramdas Pophale) SiO2 
 PCOD9119032
Probable space group: P 21
;
_chemical_formula_sum "Si O2"
_cell_formula_units_Z 14
_cell_length_a 13.038114
_cell_length_b 4.925985
_cell_length_c 8.066410
_cell_angle_alpha 90.000000
_cell_angle_beta 102.955534
_cell_angle_gamma 90.000000
_cell_volume 504.881852
_symmetry_space_group_name_H-M "P 21"
_symmetry_group_IT_number 4
_symmetry_cell_setting 'monoclinic'
loop_
_space_group_symop_operation_xyz
x,y,z
-x,1/2+y,-z
loop_
_atom_site_type_symbol
_atom_site_label
_atom_site_fract_x
_atom_site_fract_y
_atom_site_fract_z
Si Si1 0.562970 0.604050 0.077212
Si Si2 0.244823 0.425900 0.348447
Si Si3 0.563441 0.566653 0.469134
Si Si4 0.024002 0.191840 0.910246
Si Si5 0.174083 0.742525 0.643578
Si Si6 0.249190 0.471487 0.982674
Si Si7 0.065652 0.059485 0.380564
O O1 0.580918 0.555912 0.278474
O O2 0.658320 0.763989 0.027478
O O3 0.531950 0.322361 0.979476
O O4 0.338039 0.209260 0.407841
O O5 0.234563 0.607692 0.510321
O O6 0.137158 0.253205 0.296231
O O7 0.259443 0.569721 0.175855
O O8 0.532936 0.272226 0.526297
O O9 0.953657 0.281843 0.728240
O O10 0.140327 0.304861 0.929242
O O11 0.972976 0.380597 0.035897
O O12 0.236972 0.694199 0.833330
O O13 0.142362 0.039818 0.568459
O O14 0.052621 0.641285 0.618253
#
# Coordination Sequence:
#
# PCOD9119032 Si02
#       7
#     2   2   2   2   2   2   2
#     4  12  27  52  79 114 151 193 258 322 381 456
#     4  12  24  48  72 106 152 196 251 308 383 448
#     4  12  28  52  79 113 149 200 255 319 385 454
#     4  11  24  45  70 111 156 195 254 299 370 455
#     4  11  24  45  68 107 150 193 256 303 372 452
#     4  11  25  47  72 110 147 202 245 311 380 447
#     4  11  24  41  74 105 153 201 249 312 369 448
#
# _framework density 27.72926
#
# number of rings (size 3 to 8) (size 9 to 14) (size 15 to 20)
#    0.000    0.571    4.286    3.429    2.000    2.286 
#    5.143    0.000    0.000    0.000    0.000    0.000 
#    0.000    0.000    0.000    0.000    0.000    0.000 
#
# Total GULP energy -78578.429749 kJ/mol
# GULP energy per Si atom -5612.744982 kJ/mol
# Density = 2.766615 g / cm^3
# Si number density = 27.729260 Si / 1000 Ang^3
#
#
#
# Elastic Constant Matrix: (Units=GPa)
#
#
# Indices 1 2 3 4 5 6 
#
# 1 120.7915 12.3734 30.9423 0.0000 -6.5056 0.0000
# 2 12.3734 86.9256 30.1149 0.0000 -5.4154 0.0000
# 3 30.9423 30.1149 211.7725 0.0000 -15.5210 0.0000
# 4 0.0000 0.0000 0.0000 52.5405 0.0000 -2.5734
# 5 -6.5056 -5.4154 -15.5210 0.0000 49.8180 0.0000
# 6 0.0000 0.0000 0.0000 -2.5734 0.0000 47.0126
#
#
#
# Elastic Compliance Matrix: (Units=1/GPa)
#
#
# Indices 1 2 3 4 5 6 
#
# 1 0.008682 -0.000810 -0.001102 0.000000 0.000702 0.000000
# 2 -0.000810 0.012207 -0.001564 0.000000 0.000734 0.000000
# 3 -0.001102 -0.001564 0.005201 0.000000 0.001307 0.000000
# 4 0.000000 0.000000 0.000000 0.019084 0.000000 0.001045
# 5 0.000702 0.000734 0.001307 0.000000 0.020652 0.000000
# 6 0.000000 0.000000 0.000000 0.001045 0.000000 0.021328
#
#
# Mechanical properties :
#
#
# Convention : Reuss Voigt Hill
#
# Bulk Modulus (GPa) = 52.25145 62.92786 57.58965
# Shear Modulus (GPa) = 49.75882 52.94482 51.35182
#
# Velocity S-wave (km/s) = 4.24069 4.37435 4.30804
# Velocity P-wave (km/s) = 6.54693 6.94667 6.74976
#
# Compressibility (1/GPa) = 0.01913823
#
# Stress axis : x y z
#
# Youngs Moduli (GPa) = 115.18338 81.92093 192.26498
#
# Poissons Ratio (x) = 0.06638 0.21184
# Poissons Ratio (y) = 0.09334 0.30064
# Poissons Ratio (z) = 0.12691 0.12810
#
# Static dielectric constant tensor:
#      x y z
#    x 2.160220 0.000000 -0.026730 
#    y 0.000000 2.156730 0.000000 
#    z -0.026730 0.000000 2.227170 
# 
# From -- ./inp_files/7402.got.cif
#   From: 2010.05.17/outbox.cif.g08.bks.cpg/sg4_4_cif.got.tgz:7402.got - 2010.06.03 18:43:04.
