data_PCOD9119146
_publ_section_title
;
Structure prediction by ZEFSAII (Michael W. Deem and Ramdas Pophale) SiO2 
 PCOD9119146
Probable space group: P 21
;
_chemical_formula_sum "Si O2"
_cell_formula_units_Z 16
_cell_length_a 8.960083
_cell_length_b 15.026153
_cell_length_c 5.686543
_cell_angle_alpha 90.000000
_cell_angle_beta 55.014373
_cell_angle_gamma 90.000000
_cell_volume 627.261959
_symmetry_space_group_name_H-M "P 21"
_symmetry_group_IT_number 4
_symmetry_cell_setting 'monoclinic'
loop_
_space_group_symop_operation_xyz
x,y,z
-x,1/2+y,-z
loop_
_atom_site_type_symbol
_atom_site_label
_atom_site_fract_x
_atom_site_fract_y
_atom_site_fract_z
Si Si1 0.056364 0.960030 0.299642
Si Si2 0.144403 0.786298 0.514699
Si Si3 0.602484 0.576378 0.888731
Si Si4 0.339893 0.496863 0.788307
Si Si5 0.656009 0.385672 0.282402
Si Si6 0.606159 0.767479 0.719494
Si Si7 0.791930 0.814551 0.053446
Si Si8 0.268385 0.598155 0.460618
O O1 0.061961 0.863258 0.421312
O O2 0.205373 0.028579 0.271505
O O3 0.162783 0.936841 0.960082
O O4 0.864153 0.012620 0.477046
O O5 0.307435 0.830928 0.514075
O O6 0.194277 0.686054 0.398894
O O7 0.985306 0.769257 0.849413
O O8 0.453387 0.509923 0.918867
O O9 0.607400 0.661627 0.720626
O O10 0.487092 0.605989 0.219323
O O11 0.491022 0.453481 0.477593
O O12 0.192802 0.421247 0.957240
O O13 0.261702 0.587011 0.749910
O O14 0.585980 0.317964 0.144531
O O15 0.710546 0.792151 0.382829
O O16 0.685166 0.792073 0.906482
#
# Coordination Sequence:
#
# PCOD9119146 Si02
#       8
#     2   2   2   2   2   2   2   2
#     4  12  26  48  76 111 157 205 257 328 393 465
#     4  12  27  48  75 111 158 202 266 322 396 469
#     4  12  25  47  73 108 155 201 262 324 390 464
#     4  11  24  45  75 106 152 204 259 322 392 466
#     4  11  24  45  77 107 149 209 255 322 400 463
#     4  11  27  47  80 109 154 203 266 322 391 466
#     4  11  27  49  75 113 150 209 257 325 392 466
#     4  12  28  47  75 117 151 207 266 325 390 473
#
# _framework density 25.507684999999999
#
# number of rings (size 3 to 8) (size 9 to 14) (size 15 to 20)
#    0.000    0.500    2.500    4.500   14.000    1.000 
#    6.750    0.000    0.000    0.000    0.000    0.000 
#    0.000    0.000    0.000    0.000    0.000    0.000 
#
# Total GULP energy -89275.905532 kJ/mol
# GULP energy per Si atom -5579.744096 kJ/mol
# Density = 2.544963 g / cm^3
# Si number density = 25.507685 Si / 1000 Ang^3
#
#
#
# Elastic Constant Matrix: (Units=GPa)
#
#
# Indices 1 2 3 4 5 6 
#
# 1 100.0744 2.6084 9.8462 0.0000 0.7129 0.0000
# 2 2.6084 56.3146 -3.6924 0.0000 15.5189 0.0000
# 3 9.8462 -3.6924 79.8155 0.0000 -2.0515 0.0000
# 4 0.0000 0.0000 0.0000 25.8645 0.0000 5.2588
# 5 0.7129 15.5189 -2.0515 0.0000 25.7325 0.0000
# 6 0.0000 0.0000 0.0000 5.2588 0.0000 32.6982
#
#
#
# Elastic Compliance Matrix: (Units=1/GPa)
#
#
# Indices 1 2 3 4 5 6 
#
# 1 0.010133 -0.000537 -0.001276 0.000000 -0.000059 0.000000
# 2 -0.000537 0.021360 0.000725 0.000000 -0.012809 0.000000
# 3 -0.001276 0.000725 0.012736 0.000000 0.000613 0.000000
# 4 0.000000 0.000000 0.000000 0.039970 0.000000 -0.006428
# 5 -0.000059 -0.012809 0.000613 0.000000 0.046637 0.000000
# 6 0.000000 0.000000 0.000000 -0.006428 0.000000 0.031617
#
#
# Mechanical properties :
#
#
# Convention : Reuss Voigt Hill
#
# Bulk Modulus (GPa) = 23.78015 28.19207 25.98611
# Shear Modulus (GPa) = 27.98854 32.02186 30.00520
#
# Velocity S-wave (km/s) = 3.31608 3.54698 3.43347
# Velocity P-wave (km/s) = 4.89948 5.27742 5.09195
#
# Compressibility (1/GPa) = 0.04205188
#
# Stress axis : x y z
#
# Youngs Moduli (GPa) = 98.69183 46.81724 78.51974
#
# Poissons Ratio (x) = 0.02513 0.10022
# Poissons Ratio (y) = 0.05298 -0.05694
# Poissons Ratio (z) = 0.12596 -0.03395
#
# Static dielectric constant tensor:
#      x y z
#    x 2.025980 0.000000 0.029620 
#    y 0.000000 2.103930 0.000000 
#    z 0.029620 0.000000 2.205410 
# 
# From -- ./inp_files/1841.got.cif
#   From: 2010.05.17/outbox.cif.g08.bks.cpg/sg4_1_cif.got.tgz:1841.got - 2010.06.03 18:43:04.
