data_PCOD9119123
_publ_section_title
;
Structure prediction by ZEFSAII (Michael W. Deem and Ramdas Pophale) SiO2 
 PCOD9119123
Probable space group: P 21
;
_chemical_formula_sum "Si O2"
_cell_formula_units_Z 14
_cell_length_a 17.061811
_cell_length_b 8.076849
_cell_length_c 6.661597
_cell_angle_alpha 90.000000
_cell_angle_beta 45.719660
_cell_angle_gamma 90.000000
_cell_volume 657.230073
_symmetry_space_group_name_H-M "P 21"
_symmetry_group_IT_number 4
_symmetry_cell_setting 'monoclinic'
loop_
_space_group_symop_operation_xyz
x,y,z
-x,1/2+y,-z
loop_
_atom_site_type_symbol
_atom_site_label
_atom_site_fract_x
_atom_site_fract_y
_atom_site_fract_z
Si Si1 0.843911 0.236600 0.908170
Si Si2 0.724379 0.802121 0.639995
Si Si3 0.969382 0.738259 0.750008
Si Si4 0.240042 0.098580 0.052170
Si Si5 0.424005 0.252499 0.479077
Si Si6 0.367257 0.543893 0.862605
Si Si7 0.076747 0.522947 0.888055
O O1 0.951917 0.218985 0.579959
O O2 0.801649 0.420814 0.941880
O O3 0.747803 0.118671 0.000638
O O4 0.870981 0.177630 0.084775
O O5 0.758878 0.645294 0.715058
O O6 0.645412 0.752305 0.600521
O O7 0.829602 0.903543 0.371396
O O8 0.658025 0.924425 0.905883
O O9 0.000010 0.593910 0.851751
O O10 0.845114 0.726271 0.898035
O O11 0.984696 0.911091 0.837615
O O12 0.358538 0.132822 0.748478
O O13 0.415586 0.431899 0.596866
O O14 0.546175 0.185553 0.236890
#
# Coordination Sequence:
#
# PCOD9119123 Si02
#       7
#     2   2   2   2   2   2   2
#     4  12  25  43  67 101 140 183 235 293 349 429
#     4  11  24  47  68 100 141 182 233 294 352 420
#     4  12  26  41  71 101 140 188 233 289 351 426
#     4  11  26  42  68 102 138 182 237 285 358 417
#     4  11  24  47  71  99 140 182 229 297 348 426
#     4  11  24  45  70 100 135 183 233 290 356 416
#     4  12  25  45  69 103 144 186 236 290 358 414
#
# _framework density 21.301521000000001
#
# number of rings (size 3 to 8) (size 9 to 14) (size 15 to 20)
#    0.000    0.571    4.286    3.429    6.000    4.571 
#    2.571    0.000    0.000    0.000    0.000    0.000 
#    0.000    0.000    0.000    0.000    0.000    0.000 
#
# Total GULP energy -78350.403576 kJ/mol
# GULP energy per Si atom -5596.457398 kJ/mol
# Density = 2.125304 g / cm^3
# Si number density = 21.301521 Si / 1000 Ang^3
#
#
#
# Elastic Constant Matrix: (Units=GPa)
#
#
# Indices 1 2 3 4 5 6 
#
# 1 64.5493 -2.8112 6.9960 0.0000 12.4286 0.0000
# 2 -2.8112 68.0473 -0.8637 0.0000 8.9889 0.0000
# 3 6.9960 -0.8637 56.4574 0.0000 -2.3923 0.0000
# 4 0.0000 0.0000 0.0000 26.5528 0.0000 -6.5300
# 5 12.4286 8.9889 -2.3923 0.0000 37.7149 0.0000
# 6 0.0000 0.0000 0.0000 -6.5300 0.0000 45.6392
#
#
#
# Elastic Compliance Matrix: (Units=1/GPa)
#
#
# Indices 1 2 3 4 5 6 
#
# 1 0.016984 0.001477 -0.002340 0.000000 -0.006098 0.000000
# 2 0.001477 0.015302 -0.000124 0.000000 -0.004142 0.000000
# 3 -0.002340 -0.000124 0.018083 0.000000 0.001948 0.000000
# 4 0.000000 0.000000 0.000000 0.039034 0.000000 0.005585
# 5 -0.006098 -0.004142 0.001948 0.000000 0.029635 0.000000
# 6 0.000000 0.000000 0.000000 0.005585 0.000000 0.022710
#
#
# Mechanical properties :
#
#
# Convention : Reuss Voigt Hill
#
# Bulk Modulus (GPa) = 20.66350 21.74404 21.20377
# Shear Modulus (GPa) = 31.27833 34.36356 32.82094
#
# Velocity S-wave (km/s) = 3.83608 4.02082 3.92953
# Velocity P-wave (km/s) = 5.41684 5.63790 5.52848
#
# Compressibility (1/GPa) = 0.04839452
#
# Stress axis : x y z
#
# Youngs Moduli (GPa) = 58.87868 65.34986 55.30021
#
# Poissons Ratio (x) = -0.09655 0.12942
# Poissons Ratio (y) = -0.08699 0.00688
# Poissons Ratio (z) = 0.13780 0.00814
#
# Static dielectric constant tensor:
#      x y z
#    x 1.745610 0.000000 0.017230 
#    y 0.000000 1.797710 0.000000 
#    z 0.017230 0.000000 1.751130 
# 
# From -- ./inp_files/2363.got.cif
#   From: 2010.05.17/outbox.cif.g08.bks.cpg/sg4_2_cif.got.tgz:2363.got - 2010.06.03 18:43:04.
