data_PCOD9119652
_publ_section_title
;
Structure prediction by ZEFSAII (Michael W. Deem and Ramdas Pophale) SiO2 
 PCOD9119652
Probable space group: P 21
;
_chemical_formula_sum "Si O2"
_cell_formula_units_Z 14
_cell_length_a 5.955748
_cell_length_b 9.006251
_cell_length_c 14.323326
_cell_angle_alpha 90.000000
_cell_angle_beta 130.170988
_cell_angle_gamma 90.000000
_cell_volume 587.066600
_symmetry_space_group_name_H-M "P 21"
_symmetry_group_IT_number 4
_symmetry_cell_setting 'monoclinic'
loop_
_space_group_symop_operation_xyz
x,y,z
-x,1/2+y,-z
loop_
_atom_site_type_symbol
_atom_site_label
_atom_site_fract_x
_atom_site_fract_y
_atom_site_fract_z
Si Si1 0.715611 0.152300 0.589118
Si Si2 0.561500 0.010800 0.147548
Si Si3 0.831760 0.332201 0.434203
Si Si4 0.627922 0.536825 0.231803
Si Si5 0.706619 0.319495 0.779186
Si Si6 0.611358 0.824268 0.988494
Si Si7 0.919224 0.557019 0.594825
O O1 0.729102 0.235509 0.493894
O O2 0.676350 0.269920 0.663173
O O3 0.430404 0.049278 0.504159
O O4 0.024067 0.067810 0.689360
O O5 0.401836 0.973932 0.202881
O O6 0.496684 0.169607 0.084131
O O7 0.483167 0.882376 0.052650
O O8 0.907017 0.010895 0.266636
O O9 0.600355 0.423551 0.311321
O O10 0.030389 0.454291 0.539317
O O11 0.996838 0.224848 0.407476
O O12 0.486253 0.691942 0.221974
O O13 0.471766 0.456698 0.104336
O O14 0.044021 0.305904 0.900359
#
# Coordination Sequence:
#
# PCOD9119652 Si02
#       7
#     2   2   2   2   2   2   2
#     4  12  26  47  80 108 153 198 247 315 390 442
#     4  12  27  49  75 112 150 195 261 313 366 462
#     4  12  25  47  71 111 157 190 248 308 375 455
#     4  12  26  52  74 110 152 197 257 315 367 461
#     4  12  25  51  76 105 148 200 253 313 382 434
#     4  12  27  50  76 106 150 206 252 311 380 437
#     4  12  26  46  76 112 150 200 248 311 382 451
#
# _framework density 23.847382
#
# number of rings (size 3 to 8) (size 9 to 14) (size 15 to 20)
#    0.000    0.000    4.286    6.000    2.000    2.286 
#   10.286    0.000    0.000    0.000    0.000    0.000 
#    0.000    0.000    0.000    0.000    0.000    0.000 
#
# Total GULP energy -78327.512195 kJ/mol
# GULP energy per Si atom -5594.822300 kJ/mol
# Density = 2.379310 g / cm^3
# Si number density = 23.847382 Si / 1000 Ang^3
#
#
#
# Elastic Constant Matrix: (Units=GPa)
#
#
# Indices 1 2 3 4 5 6 
#
# 1 61.1327 17.8927 33.3430 0.0000 -14.5561 0.0000
# 2 17.8927 95.1740 11.6842 0.0000 -12.0045 0.0000
# 3 33.3430 11.6842 130.5613 0.0000 -21.2957 0.0000
# 4 0.0000 0.0000 0.0000 63.3439 0.0000 -9.7818
# 5 -14.5561 -12.0045 -21.2957 0.0000 30.7808 0.0000
# 6 0.0000 0.0000 0.0000 -9.7818 0.0000 23.9958
#
#
#
# Elastic Compliance Matrix: (Units=1/GPa)
#
#
# Indices 1 2 3 4 5 6 
#
# 1 0.020790 -0.002653 -0.004100 0.000000 0.005960 0.000000
# 2 -0.002653 0.011401 0.000201 0.000000 0.003331 0.000000
# 3 -0.004100 0.000201 0.009451 0.000000 0.004678 0.000000
# 4 0.000000 0.000000 0.000000 0.016847 0.000000 0.006868
# 5 0.005960 0.003331 0.004678 0.000000 0.039842 0.000000
# 6 0.000000 0.000000 0.000000 0.006868 0.000000 0.044474
#
#
# Mechanical properties :
#
#
# Convention : Reuss Voigt Hill
#
# Bulk Modulus (GPa) = 35.04183 45.85640 40.44912
# Shear Modulus (GPa) = 30.22558 38.55398 34.38978
#
# Velocity S-wave (km/s) = 3.56400 4.02518 3.80159
# Velocity P-wave (km/s) = 5.62692 6.39325 6.02229
#
# Compressibility (1/GPa) = 0.02853732
#
# Stress axis : x y z
#
# Youngs Moduli (GPa) = 48.10086 87.70872 105.80481
#
# Poissons Ratio (x) = 0.23272 0.43377
# Poissons Ratio (y) = 0.12763 -0.02122
# Poissons Ratio (z) = 0.19720 -0.01759
#
# Static dielectric constant tensor:
#      x y z
#    x 1.965030 0.000000 -0.027770 
#    y 0.000000 1.972090 0.000000 
#    z -0.027770 0.000000 1.878810 
# 
# From -- ./inp_files/2375.got.cif
#   From: 2010.05.17/outbox.cif.g08.bks.cpg/sg4_2_cif.got.tgz:2375.got - 2010.06.03 18:43:04.
