data_PCOD9119664
_publ_section_title
;
Structure prediction by ZEFSAII (Michael W. Deem and Ramdas Pophale) SiO2 
 PCOD9119664
Probable space group: P 21
;
_chemical_formula_sum "Si O2"
_cell_formula_units_Z 16
_cell_length_a 13.647700
_cell_length_b 6.089961
_cell_length_c 14.961631
_cell_angle_alpha 90.000000
_cell_angle_beta 31.300122
_cell_angle_gamma 90.000000
_cell_volume 646.034882
_symmetry_space_group_name_H-M "P 21"
_symmetry_group_IT_number 4
_symmetry_cell_setting 'monoclinic'
loop_
_space_group_symop_operation_xyz
x,y,z
-x,1/2+y,-z
loop_
_atom_site_type_symbol
_atom_site_label
_atom_site_fract_x
_atom_site_fract_y
_atom_site_fract_z
Si Si1 0.171940 0.724760 0.984923
Si Si2 0.990475 0.058606 0.240269
Si Si3 0.369061 0.316309 0.986430
Si Si4 0.925143 0.376268 0.136678
Si Si5 0.883579 0.896166 0.500501
Si Si6 0.565101 0.586287 0.687965
Si Si7 0.263262 0.649011 0.212253
Si Si8 0.572056 0.581786 0.471028
O O1 0.110724 0.823265 0.937615
O O2 0.391736 0.760364 0.832577
O O3 0.131214 0.468577 0.998591
O O4 0.044406 0.819213 0.162649
O O5 0.893215 0.183404 0.233096
O O6 0.194282 0.162529 0.100928
O O7 0.869311 0.053511 0.424715
O O8 0.494324 0.387394 0.804121
O O9 0.524047 0.221404 0.933287
O O10 0.273906 0.522729 0.110479
O O11 0.781074 0.570423 0.269442
O O12 0.759090 0.683822 0.573488
O O13 0.104801 0.837596 0.334286
O O14 0.806534 0.994123 0.652218
O O15 0.574290 0.547301 0.575605
O O16 0.506119 0.838700 0.504898
#
# Coordination Sequence:
#
# PCOD9119664 Si02
#       8
#     2   2   2   2   2   2   2   2
#     4  12  25  48  71 110 149 206 251 311 373 453
#     4  12  27  45  77 111 147 197 255 313 374 472
#     4  12  26  47  76 107 146 190 255 313 385 471
#     4  12  27  44  75 104 159 202 256 308 382 451
#     4  12  27  47  77 108 150 193 255 320 397 469
#     4  12  27  46  76 113 151 200 259 313 377 466
#     4  12  26  50  74 106 147 192 242 323 403 462
#     4  12  31  49  76 113 165 210 259 321 389 456
#
# _framework density 24.766466000000001
#
# number of rings (size 3 to 8) (size 9 to 14) (size 15 to 20)
#    0.000    0.000    3.750    5.250   10.500    0.000 
#    0.000    0.000    0.000    0.000    0.000    0.000 
#    0.000    0.000    0.000    0.000    0.000    0.000 
#
# Total GULP energy -89477.902736 kJ/mol
# GULP energy per Si atom -5592.368921 kJ/mol
# Density = 2.471010 g / cm^3
# Si number density = 24.766466 Si / 1000 Ang^3
#
#
#
# Elastic Constant Matrix: (Units=GPa)
#
#
# Indices 1 2 3 4 5 6 
#
# 1 73.4210 32.9534 4.1787 0.0000 2.9508 0.0000
# 2 32.9534 68.9241 12.1049 0.0000 1.9413 0.0000
# 3 4.1787 12.1049 83.4774 0.0000 13.2906 0.0000
# 4 0.0000 0.0000 0.0000 58.1125 0.0000 -4.2660
# 5 2.9508 1.9413 13.2906 0.0000 57.8073 0.0000
# 6 0.0000 0.0000 0.0000 -4.2660 0.0000 45.6082
#
#
#
# Elastic Compliance Matrix: (Units=1/GPa)
#
#
# Indices 1 2 3 4 5 6 
#
# 1 0.017379 -0.008369 0.000457 0.000000 -0.000711 0.000000
# 2 -0.008369 0.018918 -0.002378 0.000000 0.000339 0.000000
# 3 0.000457 -0.002378 0.012759 0.000000 -0.002877 0.000000
# 4 0.000000 0.000000 0.000000 0.017327 0.000000 0.001621
# 5 -0.000711 0.000339 -0.002877 0.000000 0.017985 0.000000
# 6 0.000000 0.000000 0.000000 0.001621 0.000000 0.022077
#
#
# Mechanical properties :
#
#
# Convention : Reuss Voigt Hill
#
# Bulk Modulus (GPa) = 35.11821 36.03294 35.57557
# Shear Modulus (GPa) = 36.62476 44.07796 40.35136
#
# Velocity S-wave (km/s) = 3.84969 4.22328 4.04081
# Velocity P-wave (km/s) = 5.82844 6.19371 6.01385
#
# Compressibility (1/GPa) = 0.02847525
#
# Stress axis : x y z
#
# Youngs Moduli (GPa) = 57.54055 52.85876 78.37389
#
# Poissons Ratio (x) = 0.44239 -0.03581
# Poissons Ratio (y) = 0.48158 0.18640
# Poissons Ratio (z) = -0.02629 0.12571
#
# Static dielectric constant tensor:
#      x y z
#    x 1.985810 0.000000 -0.029780 
#    y 0.000000 2.027920 0.000000 
#    z -0.029780 0.000000 1.922140 
# 
# From -- ./inp_files/13487.got.cif
#   From: 2010.05.17/outbox.cif.g08.bks.cpg/sg4_7_cif.got.tgz:13487.got - 2010.06.03 18:43:04.
