data_PCOD9119174
_publ_section_title
;
Structure prediction by ZEFSAII (Michael W. Deem and Ramdas Pophale) SiO2 
 PCOD9119174
Probable space group: P 21
;
_chemical_formula_sum "Si O2"
_cell_formula_units_Z 16
_cell_length_a 13.874421
_cell_length_b 9.171006
_cell_length_c 10.344491
_cell_angle_alpha 90.000000
_cell_angle_beta 30.813026
_cell_angle_gamma 90.000000
_cell_volume 674.237461
_symmetry_space_group_name_H-M "P 21"
_symmetry_group_IT_number 4
_symmetry_cell_setting 'monoclinic'
loop_
_space_group_symop_operation_xyz
x,y,z
-x,1/2+y,-z
loop_
_atom_site_type_symbol
_atom_site_label
_atom_site_fract_x
_atom_site_fract_y
_atom_site_fract_z
Si Si1 0.302435 0.174610 0.661897
Si Si2 0.495814 0.120773 0.924414
Si Si3 0.347220 0.902706 0.293807
Si Si4 0.136051 0.615188 0.892235
Si Si5 0.558573 0.359610 0.523569
Si Si6 0.051491 0.551852 0.278083
Si Si7 0.315692 0.418124 0.466400
Si Si8 0.856388 0.821801 0.605227
O O1 0.368038 0.282308 0.699143
O O2 0.379542 0.261065 0.446192
O O3 0.399884 0.020516 0.577418
O O4 0.081363 0.153933 0.889915
O O5 0.661888 0.238253 0.749831
O O6 0.522188 0.030251 0.762643
O O7 0.307693 0.215087 0.153986
O O8 0.479745 0.000929 0.053409
O O9 0.433744 0.880179 0.333447
O O10 0.152003 0.986190 0.528947
O O11 0.269936 0.754142 0.715163
O O12 0.197177 0.494229 0.716532
O O13 0.154345 0.568017 0.021383
O O14 0.110732 0.440194 0.321881
O O15 0.024238 0.711197 0.373085
O O16 0.200935 0.392572 0.466592
#
# Coordination Sequence:
#
# PCOD9119174 Si02
#       8
#     2   2   2   2   2   2   2   2
#     4  12  27  51  78 114 160 202 256 326 389 475
#     4  11  24  46  77 103 151 208 254 319 385 458
#     4  11  24  49  73 109 156 203 259 316 387 464
#     4  12  26  54  83 112 162 207 258 335 393 461
#     4  12  27  49  78 119 152 207 267 317 401 466
#     4  11  27  51  77 116 157 207 259 323 394 465
#     4  12  25  51  79 114 156 204 261 325 395 465
#     4  11  26  51  77 111 156 206 266 315 394 466
#
# _framework density 23.730513999999999
#
# number of rings (size 3 to 8) (size 9 to 14) (size 15 to 20)
#    0.000    0.500    5.000    2.250    1.750    2.000 
#   11.250    0.000    0.000    0.000    0.000    0.000 
#    0.000    0.000    0.000    0.000    0.000    0.000 
#
# Total GULP energy -89551.366510 kJ/mol
# GULP energy per Si atom -5596.960407 kJ/mol
# Density = 2.367650 g / cm^3
# Si number density = 23.730514 Si / 1000 Ang^3
#
#
#
# Elastic Constant Matrix: (Units=GPa)
#
#
# Indices 1 2 3 4 5 6 
#
# 1 140.8087 47.7464 27.6306 0.0000 29.9747 0.0000
# 2 47.7464 155.1995 39.2999 0.0000 18.9269 0.0000
# 3 27.6306 39.2999 89.6684 0.0000 33.8211 0.0000
# 4 0.0000 0.0000 0.0000 51.7926 0.0000 6.6247
# 5 29.9747 18.9269 33.8211 0.0000 36.1945 0.0000
# 6 0.0000 0.0000 0.0000 6.6247 0.0000 50.5455
#
#
#
# Elastic Compliance Matrix: (Units=1/GPa)
#
#
# Indices 1 2 3 4 5 6 
#
# 1 0.009223 -0.002165 0.000866 0.000000 -0.007315 0.000000
# 2 -0.002165 0.007794 -0.002915 0.000000 0.000441 0.000000
# 3 0.000866 -0.002915 0.018313 0.000000 -0.016305 0.000000
# 4 0.000000 0.000000 0.000000 0.019637 0.000000 -0.002574
# 5 -0.007315 0.000441 -0.016305 0.000000 0.048692 0.000000
# 6 0.000000 0.000000 0.000000 -0.002574 0.000000 0.020121
#
#
# Mechanical properties :
#
#
# Convention : Reuss Voigt Hill
#
# Bulk Modulus (GPa) = 37.17215 68.33671 52.75443
# Shear Modulus (GPa) = 35.41705 45.77318 40.59511
#
# Velocity S-wave (km/s) = 3.86744 4.39666 4.14051
# Velocity P-wave (km/s) = 5.97001 7.39146 6.71843
#
# Compressibility (1/GPa) = 0.02690186
#
# Stress axis : x y z
#
# Youngs Moduli (GPa) = 108.42239 128.30981 54.60637
#
# Poissons Ratio (x) = 0.27774 -0.04728
# Poissons Ratio (y) = 0.23469 0.15919
# Poissons Ratio (z) = -0.09388 0.37405
#
# Static dielectric constant tensor:
#      x y z
#    x 1.919630 0.000000 -0.014970 
#    y 0.000000 1.960750 0.000000 
#    z -0.014970 0.000000 1.919570 
# 
# From -- ./inp_files/7957.got.cif
#   From: 2010.05.17/outbox.cif.g08.bks.cpg/sg4_4_cif.got.tgz:7957.got - 2010.06.03 18:43:04.
