data_PCOD9119634
_publ_section_title
;
Structure prediction by ZEFSAII (Michael W. Deem and Ramdas Pophale) SiO2 
 PCOD9119634
Probable space group: P 21
;
_chemical_formula_sum "Si O2"
_cell_formula_units_Z 16
_cell_length_a 24.078422
_cell_length_b 4.928781
_cell_length_c 14.469128
_cell_angle_alpha 90.000000
_cell_angle_beta 159.581433
_cell_angle_gamma 90.000000
_cell_volume 599.074312
_symmetry_space_group_name_H-M "P 21"
_symmetry_group_IT_number 4
_symmetry_cell_setting 'monoclinic'
loop_
_space_group_symop_operation_xyz
x,y,z
-x,1/2+y,-z
loop_
_atom_site_type_symbol
_atom_site_label
_atom_site_fract_x
_atom_site_fract_y
_atom_site_fract_z
Si Si1 0.511374 0.156590 0.949348
Si Si2 0.627609 0.684169 0.823517
Si Si3 0.612970 0.505813 0.437339
Si Si4 0.899852 0.205897 0.817248
Si Si5 0.929261 0.358954 0.343670
Si Si6 0.298476 0.397169 0.261574
Si Si7 0.138380 0.543823 0.511159
Si Si8 0.952645 0.555904 0.721732
O O1 0.681968 0.057567 0.177072
O O2 0.534914 0.433936 0.044247
O O3 0.410183 0.161241 0.696603
O O4 0.468406 0.536223 0.539387
O O5 0.705236 0.794508 0.850085
O O6 0.553041 0.904512 0.777012
O O7 0.752992 0.483469 0.067792
O O8 0.725546 0.249815 0.588034
O O9 0.701185 0.671405 0.656870
O O10 0.893965 0.354273 0.710161
O O11 0.973790 0.907815 0.934663
O O12 0.953701 0.055141 0.415204
O O13 0.004245 0.392364 0.360211
O O14 0.141942 0.580300 0.028356
O O15 0.140454 0.335383 0.428538
O O16 0.083782 0.852623 0.419283
#
# Coordination Sequence:
#
# PCOD9119634 Si02
#       8
#     2   2   2   2   2   2   2   2
#     4  12  29  53  80 113 155 205 270 330 397 460
#     4  12  28  47  80 112 165 207 260 323 393 473
#     4  12  28  49  76 115 155 208 260 327 391 474
#     4  12  25  44  71 107 149 192 248 311 379 454
#     4  12  29  50  77 113 150 205 266 318 384 460
#     4  12  27  47  77 116 162 209 256 321 401 471
#     4  12  26  48  77 105 149 202 253 321 381 456
#     4  12  26  48  76 111 151 200 259 315 388 466
#
# _framework density 26.707868999999999
#
# number of rings (size 3 to 8) (size 9 to 14) (size 15 to 20)
#    0.000    0.000    3.750    5.250    8.750    0.000 
#    0.000    0.000    0.000    0.000    0.000    0.000 
#    0.000    0.000    0.000    0.000    0.000    0.000 
#
# Total GULP energy -89632.740128 kJ/mol
# GULP energy per Si atom -5602.046258 kJ/mol
# Density = 2.664708 g / cm^3
# Si number density = 26.707869 Si / 1000 Ang^3
#
#
#
# Elastic Constant Matrix: (Units=GPa)
#
#
# Indices 1 2 3 4 5 6 
#
# 1 102.6728 28.4738 24.2133 0.0000 -7.4152 0.0000
# 2 28.4738 101.0964 16.0770 0.0000 -12.3170 0.0000
# 3 24.2133 16.0770 118.2728 0.0000 7.0589 0.0000
# 4 0.0000 0.0000 0.0000 43.6623 0.0000 -5.4816
# 5 -7.4152 -12.3170 7.0589 0.0000 42.0251 0.0000
# 6 0.0000 0.0000 0.0000 -5.4816 0.0000 38.2923
#
#
#
# Elastic Compliance Matrix: (Units=1/GPa)
#
#
# Indices 1 2 3 4 5 6 
#
# 1 0.011044 -0.002608 -0.001997 0.000000 0.001520 0.000000
# 2 -0.002608 0.011178 -0.001165 0.000000 0.003012 0.000000
# 3 -0.001997 -0.001165 0.009155 0.000000 -0.002232 0.000000
# 4 0.000000 0.000000 0.000000 0.023322 0.000000 0.003339
# 5 0.001520 0.003012 -0.002232 0.000000 0.025321 0.000000
# 6 0.000000 0.000000 0.000000 0.003339 0.000000 0.026593
#
#
# Mechanical properties :
#
#
# Convention : Reuss Voigt Hill
#
# Bulk Modulus (GPa) = 50.41086 51.06337 50.73711
# Shear Modulus (GPa) = 40.07498 41.68115 40.87806
#
# Velocity S-wave (km/s) = 3.87782 3.95477 3.91648
# Velocity P-wave (km/s) = 6.24227 6.32569 6.28412
#
# Compressibility (1/GPa) = 0.01983700
#
# Stress axis : x y z
#
# Youngs Moduli (GPa) = 90.55021 89.45922 109.22398
#
# Poissons Ratio (x) = 0.23328 0.21813
# Poissons Ratio (y) = 0.23613 0.12729
# Poissons Ratio (z) = 0.18084 0.10425
#
# Static dielectric constant tensor:
#      x y z
#    x 2.252720 0.000000 -0.066900 
#    y 0.000000 2.071090 0.000000 
#    z -0.066900 0.000000 2.065920 
# 
# From -- ./inp_files/7366.got.cif
#   From: 2010.05.17/outbox.cif.g08.bks.cpg/sg4_4_cif.got.tgz:7366.got - 2010.06.03 18:43:04.
