data_PCOD9119296
_publ_section_title
;
Structure prediction by ZEFSAII (Michael W. Deem and Ramdas Pophale) SiO2 
 PCOD9119296
Probable space group: P 21
;
_chemical_formula_sum "Si O2"
_cell_formula_units_Z 12
_cell_length_a 9.470562
_cell_length_b 11.136167
_cell_length_c 5.088248
_cell_angle_alpha 90.000000
_cell_angle_beta 118.929796
_cell_angle_gamma 90.000000
_cell_volume 469.670798
_symmetry_space_group_name_H-M "P 21"
_symmetry_group_IT_number 4
_symmetry_cell_setting 'monoclinic'
loop_
_space_group_symop_operation_xyz
x,y,z
-x,1/2+y,-z
loop_
_atom_site_type_symbol
_atom_site_label
_atom_site_fract_x
_atom_site_fract_y
_atom_site_fract_z
Si Si1 0.099222 0.694060 0.456400
Si Si2 0.360426 0.641089 0.098104
Si Si3 0.765102 0.374131 0.838335
Si Si4 0.123788 0.439116 0.257270
Si Si5 0.554648 0.597371 0.780245
Si Si6 0.761970 0.812993 0.149627
O O1 0.192087 0.806506 0.400067
O O2 0.099948 0.580190 0.265162
O O3 0.914374 0.725611 0.330680
O O4 0.189320 0.644885 0.793844
O O5 0.365867 0.786671 0.143289
O O6 0.418490 0.597155 0.434209
O O7 0.477975 0.574811 0.997546
O O8 0.689225 0.505885 0.794624
O O9 0.943539 0.382645 0.128894
O O10 0.244227 0.381579 0.579790
O O11 0.186215 0.405663 0.027451
O O12 0.624973 0.730432 0.899656
#
# Coordination Sequence:
#
# PCOD9119296 Si02
#       6
#     2   2   2   2   2   2
#     4  11  25  50  76 108 143 198 248 307 370 433
#     4  12  27  47  72 108 149 194 242 297 374 441
#     4  11  26  51  74 112 150 194 245 316 366 436
#     4  11  25  44  82 103 148 183 256 313 359 432
#     4  12  28  48  75 107 154 194 242 304 377 440
#     4  11  25  46  73 114 140 193 247 303 368 442
#
# _framework density 25.549810999999998
#
# number of rings (size 3 to 8) (size 9 to 14) (size 15 to 20)
#    0.000    0.667    5.000    1.000    4.667    4.000 
#    0.000    0.000    0.000    0.000    0.000    0.000 
#    0.000    0.000    0.000    0.000    0.000    0.000 
#
# Total GULP energy -67048.432049 kJ/mol
# GULP energy per Si atom -5587.369337 kJ/mol
# Density = 2.549166 g / cm^3
# Si number density = 25.549811 Si / 1000 Ang^3
#
#
#
# Elastic Constant Matrix: (Units=GPa)
#
#
# Indices 1 2 3 4 5 6 
#
# 1 65.1799 13.7442 39.8272 0.0000 -8.2105 0.0000
# 2 13.7442 76.0786 23.6601 0.0000 -12.1591 0.0000
# 3 39.8272 23.6601 137.8316 0.0000 -18.7846 0.0000
# 4 0.0000 0.0000 0.0000 36.0276 0.0000 4.1786
# 5 -8.2105 -12.1591 -18.7846 0.0000 40.2543 0.0000
# 6 0.0000 0.0000 0.0000 4.1786 0.0000 54.7417
#
#
#
# Elastic Compliance Matrix: (Units=1/GPa)
#
#
# Indices 1 2 3 4 5 6 
#
# 1 0.018901 -0.001689 -0.005036 0.000000 0.000995 0.000000
# 2 -0.001689 0.014457 -0.001544 0.000000 0.003302 0.000000
# 3 -0.005036 -0.001544 0.009368 0.000000 0.002878 0.000000
# 4 0.000000 0.000000 0.000000 0.028004 0.000000 -0.002138
# 5 0.000995 0.003302 0.002878 0.000000 0.027385 0.000000
# 6 0.000000 0.000000 0.000000 -0.002138 0.000000 0.018431
#
#
# Mechanical properties :
#
#
# Convention : Reuss Voigt Hill
#
# Bulk Modulus (GPa) = 38.18553 48.17257 43.17905
# Shear Modulus (GPa) = 35.25760 39.66196 37.45978
#
# Velocity S-wave (km/s) = 3.71881 3.94425 3.83318
# Velocity P-wave (km/s) = 5.78077 6.29588 6.04382
#
# Compressibility (1/GPa) = 0.02618793
#
# Stress axis : x y z
#
# Youngs Moduli (GPa) = 52.90774 69.16923 106.75118
#
# Poissons Ratio (x) = 0.11686 0.53759
# Poissons Ratio (y) = 0.08939 0.16477
# Poissons Ratio (z) = 0.26644 0.10676
#
# Static dielectric constant tensor:
#      x y z
#    x 2.096640 0.000000 -0.039190 
#    y 0.000000 2.088820 0.000000 
#    z -0.039190 0.000000 1.957790 
# 
# From -- ./inp_files/1365.got.cif
#   From: 2010.05.17/outbox.cif.g08.bks.cpg/sg4_1_cif.got.tgz:1365.got - 2010.06.03 18:43:04.
