data_PCOD9119418
_publ_section_title
;
Structure prediction by ZEFSAII (Michael W. Deem and Ramdas Pophale) SiO2 
 PCOD9119418
Probable space group: P 21
;
_chemical_formula_sum "Si O2"
_cell_formula_units_Z 14
_cell_length_a 11.460816
_cell_length_b 5.434741
_cell_length_c 8.218820
_cell_angle_alpha 90.000000
_cell_angle_beta 83.369068
_cell_angle_gamma 90.000000
_cell_volume 508.497613
_symmetry_space_group_name_H-M "P 21"
_symmetry_group_IT_number 4
_symmetry_cell_setting 'monoclinic'
loop_
_space_group_symop_operation_xyz
x,y,z
-x,1/2+y,-z
loop_
_atom_site_type_symbol
_atom_site_label
_atom_site_fract_x
_atom_site_fract_y
_atom_site_fract_z
Si Si1 0.959837 0.866730 0.726133
Si Si2 0.870113 0.721754 0.408281
Si Si3 0.742036 0.209860 0.704135
Si Si4 0.375333 0.060621 0.490034
Si Si5 0.844504 0.915233 0.086968
Si Si6 0.480017 0.396697 0.230693
Si Si7 0.714999 0.427095 0.023920
O O1 0.929639 0.699627 0.575659
O O2 0.867928 0.087293 0.690258
O O3 0.930981 0.842469 0.922637
O O4 0.089607 0.969981 0.683304
O O5 0.731762 0.748228 0.464459
O O6 0.902150 0.911593 0.257433
O O7 0.693220 0.311529 0.543247
O O8 0.643527 0.022835 0.789058
O O9 0.744536 0.437943 0.828381
O O10 0.452124 0.139564 0.323192
O O11 0.456178 0.043071 0.632939
O O12 0.754210 0.684495 0.096283
O O13 0.782359 0.177722 0.068693
O O14 0.576594 0.389681 0.076139
#
# Coordination Sequence:
#
# PCOD9119418 Si02
#       7
#     2   2   2   2   2   2   2
#     4  11  27  49  77 117 147 204 261 317 390 456
#     4  12  26  49  81 108 158 200 258 322 388 455
#     4  11  26  45  72 105 154 194 258 321 375 465
#     4  12  25  45  71 108 148 199 258 312 386 463
#     4  11  28  53  78 116 156 202 261 319 382 464
#     4  12  26  42  74 107 149 201 254 314 388 461
#     4  11  28  47  77 111 154 204 256 313 395 450
#
# _framework density 27.532084999999999
#
# number of rings (size 3 to 8) (size 9 to 14) (size 15 to 20)
#    0.000    0.571    4.286    1.714   10.000    5.714 
#    0.000    0.000    0.000    0.000    0.000    0.000 
#    0.000    0.000    0.000    0.000    0.000    0.000 
#
# Total GULP energy -78368.234125 kJ/mol
# GULP energy per Si atom -5597.731009 kJ/mol
# Density = 2.746942 g / cm^3
# Si number density = 27.532085 Si / 1000 Ang^3
#
#
#
# Elastic Constant Matrix: (Units=GPa)
#
#
# Indices 1 2 3 4 5 6 
#
# 1 97.2069 17.8692 42.9443 0.0000 -3.2814 0.0000
# 2 17.8692 88.9008 32.1767 0.0000 5.1058 0.0000
# 3 42.9443 32.1767 136.5577 0.0000 -12.5128 0.0000
# 4 0.0000 0.0000 0.0000 51.2069 0.0000 7.0446
# 5 -3.2814 5.1058 -12.5128 0.0000 63.3815 0.0000
# 6 0.0000 0.0000 0.0000 7.0446 0.0000 47.6802
#
#
#
# Elastic Compliance Matrix: (Units=1/GPa)
#
#
# Indices 1 2 3 4 5 6 
#
# 1 0.012054 -0.001151 -0.003517 0.000000 0.000022 0.000000
# 2 -0.001151 0.012567 -0.002747 0.000000 -0.001614 0.000000
# 3 -0.003517 -0.002747 0.009247 0.000000 0.001865 0.000000
# 4 0.000000 0.000000 0.000000 0.019934 0.000000 -0.002945
# 5 0.000022 -0.001614 0.001865 0.000000 0.016277 0.000000
# 6 0.000000 0.000000 0.000000 -0.002945 0.000000 0.021408
#
#
# Mechanical properties :
#
#
# Convention : Reuss Voigt Hill
#
# Bulk Modulus (GPa) = 52.52976 56.51621 54.52298
# Shear Modulus (GPa) = 44.38027 47.76540 46.07284
#
# Velocity S-wave (km/s) = 4.01926 4.16973 4.09519
# Velocity P-wave (km/s) = 6.37653 6.61469 6.49671
#
# Compressibility (1/GPa) = 0.01903683
#
# Stress axis : x y z
#
# Youngs Moduli (GPa) = 82.96304 79.57464 108.14118
#
# Poissons Ratio (x) = 0.09159 0.38037
# Poissons Ratio (y) = 0.09549 0.29707
# Poissons Ratio (z) = 0.29181 0.21859
#
# Static dielectric constant tensor:
#      x y z
#    x 2.071790 0.000000 0.034810 
#    y 0.000000 2.208950 0.000000 
#    z 0.034810 0.000000 2.170690 
# 
# From -- ./inp_files/7218.got.cif
#   From: 2010.05.17/outbox.cif.g08.bks.cpg/sg4_4_cif.got.tgz:7218.got - 2010.06.03 18:43:04.
