data_PCOD9119847
_publ_section_title
;
Structure prediction by ZEFSAII (Michael W. Deem and Ramdas Pophale) SiO2 
 PCOD9119847
Probable space group: P 21
;
_chemical_formula_sum "Si O2"
_cell_formula_units_Z 16
_cell_length_a 15.000000
_cell_length_b 9.000000
_cell_length_c 6.000000
_cell_angle_alpha 90.000000
_cell_angle_beta 50.000000
_cell_angle_gamma 90.000000
_cell_volume 620.495999
_symmetry_space_group_name_H-M "P 21"
_symmetry_group_IT_number 4
_symmetry_cell_setting 'monoclinic'
loop_
_space_group_symop_operation_xyz
x,y,z
-x,1/2+y,-z
loop_
_atom_site_type_symbol
_atom_site_label
_atom_site_fract_x
_atom_site_fract_y
_atom_site_fract_z
Si Si1 0.726315 0.000000 0.715019
Si Si2 0.144579 0.014085 0.910163
Si Si3 0.730565 0.474734 0.714147
Si Si4 0.907471 0.032081 0.054003
Si Si5 0.820817 0.247644 0.872770
Si Si6 0.526099 0.403117 0.762312
Si Si7 0.585843 0.657830 0.315699
Si Si8 0.812575 0.786516 0.910393
O O1 0.798979 0.858646 0.692679
O O2 0.791492 0.056543 0.390138
O O3 0.741357 0.118535 0.894894
O O4 0.594030 0.944718 0.918013
O O5 0.213010 0.065008 0.579795
O O6 0.142004 0.122607 0.124616
O O7 0.013080 0.004913 0.047288
O O8 0.211229 0.866722 0.884517
O O9 0.827498 0.362119 0.655692
O O10 0.627449 0.377162 0.774253
O O11 0.656038 0.572315 0.007061
O O12 0.921033 0.161017 0.846095
O O13 0.891425 0.886401 0.935943
O O14 0.551591 0.543711 0.560757
O O15 0.513283 0.256189 0.634052
O O16 0.683130 0.779398 0.228135
#
# Coordination Sequence:
#
# PCOD9119847 Si02
#       8
#     2   2   2   2   2   2   2   2
#     4  10  26  45  73 103 147 190 239 300 370 427
#     4  12  25  46  75 107 146 191 247 301 366 433
#     4  12  26  45  74 107 146 192 240 302 376 427
#     4  11  26  48  73 108 145 192 245 302 360 440
#     4  11  25  47  68 106 146 187 246 300 354 442
#     4  11  27  45  76 108 142 196 238 302 362 443
#     4  11  26  48  71 107 147 186 246 297 359 443
#     4  10  23  46  70 104 145 182 241 298 359 429
#
# _framework density 25.785823000000001
#
# number of rings (size 3 to 8) (size 9 to 14) (size 15 to 20)
#    0.000    1.000    2.500    1.500    8.750    6.000 
#    2.250    0.000    0.000    0.000    0.000    0.000 
#    0.000    0.000    0.000    0.000    0.000    0.000 
#
# Total GULP energy -89286.703759 kJ/mol
# GULP energy per Si atom -5580.418985 kJ/mol
# Density = 2.572713 g / cm^3
# Si number density = 25.785823 Si / 1000 Ang^3
#
#
#
# Elastic Constant Matrix: (Units=GPa)
#
#
# Indices 1 2 3 4 5 6 
#
# 1 96.0123 60.3345 37.5919 0.0000 3.2273 0.0000
# 2 60.3345 107.1204 -8.0846 0.0000 3.1132 0.0000
# 3 37.5919 -8.0846 60.7496 0.0000 -18.0328 0.0000
# 4 0.0000 0.0000 0.0000 22.1595 0.0000 18.6366
# 5 3.2273 3.1132 -18.0328 0.0000 16.0983 0.0000
# 6 0.0000 0.0000 0.0000 18.6366 0.0000 37.0548
#
#
#
# Elastic Compliance Matrix: (Units=1/GPa)
#
#
# Indices 1 2 3 4 5 6 
#
# 1 0.069517 -0.042224 -0.075430 0.000000 -0.090265 0.000000
# 2 -0.042224 0.035081 0.046886 0.000000 0.054200 0.000000
# 3 -0.075430 0.046886 0.106629 0.000000 0.125498 0.000000
# 4 0.000000 0.000000 0.000000 0.078209 0.000000 -0.039335
# 5 -0.090265 0.054200 0.125498 0.000000 0.210311 0.000000
# 6 0.000000 0.000000 0.000000 -0.039335 0.000000 0.046770
#
#
# Mechanical properties :
#
#
# Convention : Reuss Voigt Hill
#
# Bulk Modulus (GPa) = 14.34941 49.28511 31.81726
# Shear Modulus (GPa) = 7.02953 26.66521 16.84737
#
# Velocity S-wave (km/s) = 1.65289 3.21924 2.55886
# Velocity P-wave (km/s) = 3.03639 5.74219 4.59306
#
# Compressibility (1/GPa) = 0.06968929
#
# Stress axis : x y z
#
# Youngs Moduli (GPa) = 14.38502 28.50548 9.37828
#
# Poissons Ratio (x) = 1.20362 0.70741
# Poissons Ratio (y) = 0.60740 -0.43971
# Poissons Ratio (z) = 1.08507 -1.33650
#
# Static dielectric constant tensor:
#      x y z
#    x 2.113530 0.000000 -0.012880 
#    y 0.000000 2.135030 0.000000 
#    z -0.012880 0.000000 1.948660 
# 
# From -- ./inp_files/3682.got.cif
#   From: 2010.05.17/outbox.ucp.g08.bks.cvg/sg4_2_cif.got.tgz:3682.got - 2010.06.11 12:51:24.
