data_PCOD9119669
_publ_section_title
;
Structure prediction by ZEFSAII (Michael W. Deem and Ramdas Pophale) SiO2 
 PCOD9119669
Probable space group: P 21
;
_chemical_formula_sum "Si O2"
_cell_formula_units_Z 16
_cell_length_a 11.279223
_cell_length_b 12.082522
_cell_length_c 11.258050
_cell_angle_alpha 90.000000
_cell_angle_beta 154.203247
_cell_angle_gamma 90.000000
_cell_volume 667.680904
_symmetry_space_group_name_H-M "P 21"
_symmetry_group_IT_number 4
_symmetry_cell_setting 'monoclinic'
loop_
_space_group_symop_operation_xyz
x,y,z
-x,1/2+y,-z
loop_
_atom_site_type_symbol
_atom_site_label
_atom_site_fract_x
_atom_site_fract_y
_atom_site_fract_z
Si Si1 0.199169 0.713590 0.907389
Si Si2 0.265732 0.460983 0.991150
Si Si3 0.744468 0.256461 0.770290
Si Si4 0.613938 0.779438 0.075968
Si Si5 0.648351 0.547330 0.967411
Si Si6 0.883530 0.890573 0.515742
Si Si7 0.275322 0.140707 0.222937
Si Si8 0.713485 0.455861 0.593408
O O1 0.192846 0.582670 0.876293
O O2 0.927688 0.788387 0.647660
O O3 0.301483 0.733007 0.133305
O O4 0.402972 0.760995 0.992313
O O5 0.433269 0.380575 0.056269
O O6 0.971423 0.408640 0.754532
O O7 0.455764 0.474271 0.277927
O O8 0.578599 0.175239 0.533575
O O9 0.644831 0.375918 0.640186
O O10 0.064399 0.241377 0.032887
O O11 0.879195 0.824705 0.386527
O O12 0.623660 0.664428 0.013748
O O13 0.380135 0.470261 0.718929
O O14 0.731232 0.578715 0.907742
O O15 0.874492 0.475175 0.238052
O O16 0.179116 0.065960 0.246348
#
# Coordination Sequence:
#
# PCOD9119669 Si02
#       8
#     2   2   2   2   2   2   2   2
#     4  12  28  51  78 115 159 208 261 324 394 476
#     4  12  29  51  79 114 156 203 265 325 398 462
#     4  12  26  46  78 112 154 197 256 316 396 464
#     4  12  30  50  80 113 156 213 262 327 395 469
#     4  12  28  51  79 115 156 201 272 328 390 477
#     4  12  29  49  77 114 151 211 257 326 392 468
#     4  12  25  50  74 114 147 201 250 318 393 453
#     4  12  25  48  77 111 149 198 251 324 386 467
#
# _framework density 23.963543000000001
#
# number of rings (size 3 to 8) (size 9 to 14) (size 15 to 20)
#    0.000    0.000    3.750    4.500    8.750    1.000 
#    0.000    0.000    0.000    0.000    0.000    0.000 
#    0.000    0.000    0.000    0.000    0.000    0.000 
#
# Total GULP energy -89492.277584 kJ/mol
# GULP energy per Si atom -5593.267349 kJ/mol
# Density = 2.390900 g / cm^3
# Si number density = 23.963543 Si / 1000 Ang^3
#
#
#
# Elastic Constant Matrix: (Units=GPa)
#
#
# Indices 1 2 3 4 5 6 
#
# 1 64.5142 44.0605 44.0841 0.0000 -7.3366 0.0000
# 2 44.0605 156.9736 47.0973 0.0000 -16.6759 0.0000
# 3 44.0841 47.0973 142.9514 0.0000 -5.0725 0.0000
# 4 0.0000 0.0000 0.0000 46.0319 0.0000 -11.5833
# 5 -7.3366 -16.6759 -5.0725 0.0000 34.1093 0.0000
# 6 0.0000 0.0000 0.0000 -11.5833 0.0000 44.4230
#
#
#
# Elastic Compliance Matrix: (Units=1/GPa)
#
#
# Indices 1 2 3 4 5 6 
#
# 1 0.022453 -0.004494 -0.005379 0.000000 0.001833 0.000000
# 2 -0.004494 0.008317 -0.001251 0.000000 0.002913 0.000000
# 3 -0.005379 -0.001251 0.009051 0.000000 -0.000422 0.000000
# 4 0.000000 0.000000 0.000000 0.023250 0.000000 0.006062
# 5 0.001833 0.002913 -0.000422 0.000000 0.031073 0.000000
# 6 0.000000 0.000000 0.000000 0.006062 0.000000 0.024092
#
#
# Mechanical properties :
#
#
# Convention : Reuss Voigt Hill
#
# Bulk Modulus (GPa) = 56.90080 70.54701 63.72390
# Shear Modulus (GPa) = 34.16687 40.19266 37.17977
#
# Velocity S-wave (km/s) = 3.78005 4.09986 3.94320
# Velocity P-wave (km/s) = 6.54584 7.20521 6.88342
#
# Compressibility (1/GPa) = 0.01757445
#
# Stress axis : x y z
#
# Youngs Moduli (GPa) = 44.53668 120.24048 110.48259
#
# Poissons Ratio (x) = 0.54035 0.59425
# Poissons Ratio (y) = 0.20014 0.13819
# Poissons Ratio (z) = 0.23955 0.15040
#
# Static dielectric constant tensor:
#      x y z
#    x 1.905380 0.000000 0.021140 
#    y 0.000000 1.945400 0.000000 
#    z 0.021140 0.000000 1.946280 
# 
# From -- ./inp_files/12294.got.cif
#   From: 2010.05.17/outbox.cif.g08.bks.cpg/sg4_7_cif.got.tgz:12294.got - 2010.06.03 18:43:04.
