data_PCOD9119998
_publ_section_title
;
Structure prediction by ZEFSAII (Michael W. Deem and Ramdas Pophale) SiO2 
 PCOD9119998
Probable space group: C 2
;
_chemical_formula_sum "Si O2"
_cell_formula_units_Z 24
_cell_length_a 14.712679
_cell_length_b 7.715817
_cell_length_c 10.148315
_cell_angle_alpha 90.000000
_cell_angle_beta 116.508995
_cell_angle_gamma 90.000000
_cell_volume 1030.919609
_symmetry_space_group_name_H-M "C 2"
_symmetry_group_IT_number 5
_symmetry_cell_setting 'monoclinic'
loop_
_space_group_symop_operation_xyz
x,y,z
-x,y,-z
1/2+x,1/2+y,z
1/2-x,1/2+y,-z
loop_
_atom_site_type_symbol
_atom_site_label
_atom_site_fract_x
_atom_site_fract_y
_atom_site_fract_z
Si Si1 0.502677 0.476580 0.220063
Si Si2 0.759961 0.635895 0.813699
Si Si3 0.328852 0.268316 0.138298
Si Si4 0.857355 0.095146 0.883715
Si Si5 0.441371 0.966832 0.835475
Si Si6 0.953690 0.304375 0.338148
O O1 0.448411 0.302859 0.233873
O O2 0.606164 0.463683 0.205403
O O3 0.508536 0.620673 0.336705
O O4 0.421136 0.552635 0.057756
O O5 0.720063 0.449516 0.842995
O O6 0.841715 0.584583 0.755550
O O7 0.662191 0.748706 0.714989
O O8 0.808681 0.731438 0.971510
O O9 0.261426 0.122321 0.166553
O O10 0.898995 0.279371 0.856517
O O11 0.518796 0.924596 0.768391
O O12 0.500000 0.040800 0.000000
O O13 0.000000 0.379903 0.500000
#
# Coordination Sequence:
#
# PCOD9119998 Si02
#       6
#     4   4   4   4   4   4
#     4   9  16  28  51  79 109 142 189 226 283 341
#     4  10  20  32  58  89 118 148 202 236 300 355
#     4  10  16  30  51  81 115 139 178 245 282 335
#     4   9  14  29  49  73 112 137 173 233 285 322
#     4  10  17  34  60  82 118 146 191 254 292 334
#     4  10  18  33  59  80 116 166 192 228 297 355
#
# _framework density 23.280186
#
# number of rings (size 3 to 8) (size 9 to 14) (size 15 to 20)
#    0.000    2.333    6.667    1.000    0.000    0.000 
#    3.000    0.000   11.000    0.000    0.000   10.500 
#    0.000    0.000    0.000    0.000    0.000    0.000 
#
# Total GULP energy -66956.634907 kJ/mol
# GULP energy per Si atom -5579.719576 kJ/mol
# Density = 2.322720 g / cm^3
# Si number density = 23.280186 Si / 1000 Ang^3
#
#
#
# Elastic Constant Matrix: (Units=GPa)
#
#
# Indices 1 2 3 4 5 6 
#
# 1 180.7937 31.5919 26.3392 0.0000 5.8777 0.0000
# 2 31.5919 100.0776 5.4408 0.0000 8.6143 0.0000
# 3 26.3392 5.4408 43.6105 0.0000 -8.5704 0.0000
# 4 0.0000 0.0000 0.0000 4.8446 0.0000 2.7812
# 5 5.8777 8.6143 -8.5704 0.0000 11.8486 0.0000
# 6 0.0000 0.0000 0.0000 2.7812 0.0000 45.0356
#
#
#
# Elastic Compliance Matrix: (Units=1/GPa)
#
#
# Indices 1 2 3 4 5 6 
#
# 1 0.006695 -0.001320 -0.005063 0.000000 -0.006024 0.000000
# 2 -0.001320 0.011350 -0.002462 0.000000 -0.009378 0.000000
# 3 -0.005063 -0.002462 0.031638 0.000000 0.027186 0.000000
# 4 0.000000 0.000000 0.000000 0.214004 0.000000 -0.013216
# 5 -0.006024 -0.009378 0.027186 0.000000 0.113869 0.000000
# 6 0.000000 0.000000 0.000000 -0.013216 0.000000 0.023021
#
#
# Mechanical properties :
#
#
# Convention : Reuss Voigt Hill
#
# Bulk Modulus (GPa) = 31.25590 50.13617 40.69603
# Shear Modulus (GPa) = 11.65692 29.75308 20.70500
#
# Velocity S-wave (km/s) = 2.24011 3.57885 2.98549
# Velocity P-wave (km/s) = 4.48842 6.21774 5.42246
#
# Compressibility (1/GPa) = 0.03199396
#
# Stress axis : x y z
#
# Youngs Moduli (GPa) = 149.36070 88.10649 31.60787
#
# Poissons Ratio (x) = 0.11628 0.16002
# Poissons Ratio (y) = 0.19712 0.07781
# Poissons Ratio (z) = 0.75619 0.21691
#
# Static dielectric constant tensor:
#      x y z
#    x 2.000430 0.000000 0.001680 
#    y 0.000000 1.952960 0.000000 
#    z 0.001680 0.000000 1.803920 
# 
# From -- ./inp_files/44005.got.cif
#   From: 2010.05.17/outbox.cif.g08.bks.cpg/sg5_23_cif.got.tgz:44005.got - 2010.06.03 18:56:24.
