data_PCOD9119164
_publ_section_title
;
Structure prediction by ZEFSAII (Michael W. Deem and Ramdas Pophale) SiO2 
 PCOD9119164
Probable space group: P 21
;
_chemical_formula_sum "Si O2"
_cell_formula_units_Z 16
_cell_length_a 11.424059
_cell_length_b 9.163620
_cell_length_c 7.204100
_cell_angle_alpha 90.000000
_cell_angle_beta 53.184156
_cell_angle_gamma 90.000000
_cell_volume 603.759832
_symmetry_space_group_name_H-M "P 21"
_symmetry_group_IT_number 4
_symmetry_cell_setting 'monoclinic'
loop_
_space_group_symop_operation_xyz
x,y,z
-x,1/2+y,-z
loop_
_atom_site_type_symbol
_atom_site_label
_atom_site_fract_x
_atom_site_fract_y
_atom_site_fract_z
Si Si1 0.369132 0.946700 0.559673
Si Si2 0.121859 0.750365 0.780820
Si Si3 0.572612 0.328785 0.891984
Si Si4 0.192559 0.190855 0.789382
Si Si5 0.189512 0.615443 0.185288
Si Si6 0.303409 0.503063 0.672863
Si Si7 0.305227 0.142327 0.098444
Si Si8 0.033331 0.322210 0.446727
O O1 0.236274 0.855591 0.780425
O O2 0.418551 0.855305 0.335879
O O3 0.278717 0.084796 0.572165
O O4 0.522227 0.989165 0.507580
O O5 0.227185 0.621367 0.618834
O O6 0.057936 0.828852 0.660425
O O7 0.979975 0.680909 0.014060
O O8 0.669339 0.192788 0.863751
O O9 0.628896 0.481695 0.925747
O O10 0.409714 0.270372 0.076698
O O11 0.228239 0.352553 0.699337
O O12 0.276676 0.159234 0.903897
O O13 0.115890 0.478148 0.364288
O O14 0.077373 0.755274 0.296152
O O15 0.247915 0.550552 0.932842
O O16 0.147522 0.189023 0.322443
#
# Coordination Sequence:
#
# PCOD9119164 Si02
#       8
#     2   2   2   2   2   2   2   2
#     4  12  25  48  71 107 145 198 248 315 378 457
#     4  11  25  47  74 104 148 195 253 309 386 454
#     4  12  25  47  75 107 155 202 251 314 386 450
#     4  11  25  47  73 103 152 192 255 316 373 459
#     4  12  25  48  76 108 152 197 252 318 380 463
#     4  12  25  49  72 108 148 197 252 318 377 456
#     4  11  24  46  72 109 150 198 255 314 375 457
#     4  11  24  48  71 110 148 195 250 314 383 454
#
# _framework density 26.500603000000002
#
# number of rings (size 3 to 8) (size 9 to 14) (size 15 to 20)
#    0.000    0.500    5.000    3.750    1.750    0.000 
#    6.750    0.000    0.000    0.000    0.000    0.000 
#    0.000    0.000    0.000    0.000    0.000    0.000 
#
# Total GULP energy -89491.274172 kJ/mol
# GULP energy per Si atom -5593.204636 kJ/mol
# Density = 2.644029 g / cm^3
# Si number density = 26.500603 Si / 1000 Ang^3
#
#
#
# Elastic Constant Matrix: (Units=GPa)
#
#
# Indices 1 2 3 4 5 6 
#
# 1 125.2257 43.9260 29.4544 0.0000 -41.1180 0.0000
# 2 43.9260 129.3429 6.9048 0.0000 -38.4784 0.0000
# 3 29.4544 6.9048 92.1669 0.0000 -29.5228 0.0000
# 4 0.0000 0.0000 0.0000 47.5126 0.0000 -11.1072
# 5 -41.1180 -38.4784 -29.5228 0.0000 38.5942 0.0000
# 6 0.0000 0.0000 0.0000 -11.1072 0.0000 64.0075
#
#
#
# Elastic Compliance Matrix: (Units=1/GPa)
#
#
# Indices 1 2 3 4 5 6 
#
# 1 0.012300 -0.000336 0.000245 0.000000 0.012957 0.000000
# 2 -0.000336 0.011959 0.003862 0.000000 0.014520 0.000000
# 3 0.000245 0.003862 0.015629 0.000000 0.016067 0.000000
# 4 0.000000 0.000000 0.000000 0.021937 0.000000 0.003807
# 5 0.012957 0.014520 0.016067 0.000000 0.066481 0.000000
# 6 0.000000 0.000000 0.000000 0.003807 0.000000 0.016284
#
#
# Mechanical properties :
#
#
# Convention : Reuss Voigt Hill
#
# Bulk Modulus (GPa) = 21.08366 56.36733 38.72549
# Shear Modulus (GPa) = 32.71029 47.78624 40.24826
#
# Velocity S-wave (km/s) = 3.51710 4.25103 3.90136
# Velocity P-wave (km/s) = 4.94637 6.73880 5.91092
#
# Compressibility (1/GPa) = 0.04743009
#
# Stress axis : x y z
#
# Youngs Moduli (GPa) = 81.29915 83.62136 63.98452
#
# Poissons Ratio (x) = 0.02807 -0.01565
# Poissons Ratio (y) = 0.02729 -0.24713
# Poissons Ratio (z) = -0.01989 -0.32297
#
# Static dielectric constant tensor:
#      x y z
#    x 2.080610 0.000000 0.063690 
#    y 0.000000 2.140360 0.000000 
#    z 0.063690 0.000000 2.099230 
# 
# From -- ./inp_files/8000.got.cif
#   From: 2010.05.17/outbox.cif.g08.bks.cpg/sg4_4_cif.got.tgz:8000.got - 2010.06.03 18:43:04.
