data_PCOD9119187
_publ_section_title
;
Structure prediction by ZEFSAII (Michael W. Deem and Ramdas Pophale) SiO2 
 PCOD9119187
Probable space group: P 21
;
_chemical_formula_sum "Si O2"
_cell_formula_units_Z 14
_cell_length_a 4.901141
_cell_length_b 12.763534
_cell_length_c 9.498579
_cell_angle_alpha 90.000000
_cell_angle_beta 78.178660
_cell_angle_gamma 90.000000
_cell_volume 581.589841
_symmetry_space_group_name_H-M "P 21"
_symmetry_group_IT_number 4
_symmetry_cell_setting 'monoclinic'
loop_
_space_group_symop_operation_xyz
x,y,z
-x,1/2+y,-z
loop_
_atom_site_type_symbol
_atom_site_label
_atom_site_fract_x
_atom_site_fract_y
_atom_site_fract_z
Si Si1 0.024453 0.900610 0.085067
Si Si2 0.088325 0.004428 0.373423
Si Si3 0.740084 0.841692 0.739402
Si Si4 0.499335 0.595666 0.479601
Si Si5 0.622069 0.531786 0.168420
Si Si6 0.313949 0.817889 0.539005
Si Si7 0.534005 0.758788 0.043702
O O1 0.056830 0.977573 0.213743
O O2 0.219975 0.799271 0.087146
O O3 0.721558 0.850131 0.096458
O O4 0.149205 0.963875 0.939059
O O5 0.226706 0.904683 0.436162
O O6 0.299882 0.094216 0.405280
O O7 0.779438 0.030284 0.459760
O O8 0.581141 0.834931 0.608183
O O9 0.058627 0.815577 0.675711
O O10 0.652762 0.957804 0.802563
O O11 0.624152 0.764265 0.870823
O O12 0.673424 0.553221 0.328379
O O13 0.380123 0.709444 0.456293
O O14 0.578442 0.643868 0.100704
#
# Coordination Sequence:
#
# PCOD9119187 Si02
#       7
#     2   2   2   2   2   2   2
#     4  11  27  47  72 107 152 186 245 306 360 440
#     4  12  25  49  69 112 143 193 241 309 367 441
#     4  11  24  47  70 110 145 194 233 319 361 442
#     4  12  27  42  77 107 143 198 244 296 381 443
#     4  11  25  49  75 107 147 199 241 304 371 448
#     4  12  24  45  73 103 153 182 251 299 373 435
#     4  11  26  45  74 106 143 194 249 295 373 435
#
# _framework density 24.071946000000001
#
# number of rings (size 3 to 8) (size 9 to 14) (size 15 to 20)
#    0.000    0.571    2.857    4.286    4.000    6.857 
#    0.000    0.000    0.000    0.000    0.000    0.000 
#    0.000    0.000    0.000    0.000    0.000    0.000 
#
# Total GULP energy -78389.317308 kJ/mol
# GULP energy per Si atom -5599.236951 kJ/mol
# Density = 2.401716 g / cm^3
# Si number density = 24.071946 Si / 1000 Ang^3
#
#
#
# Elastic Constant Matrix: (Units=GPa)
#
#
# Indices 1 2 3 4 5 6 
#
# 1 75.9812 15.8130 17.1246 0.0000 11.4397 0.0000
# 2 15.8130 89.7951 41.4662 0.0000 -6.0404 0.0000
# 3 17.1246 41.4662 100.9986 0.0000 7.7018 0.0000
# 4 0.0000 0.0000 0.0000 37.8923 0.0000 1.0796
# 5 11.4397 -6.0404 7.7018 0.0000 31.3621 0.0000
# 6 0.0000 0.0000 0.0000 1.0796 0.0000 21.0296
#
#
#
# Elastic Compliance Matrix: (Units=1/GPa)
#
#
# Indices 1 2 3 4 5 6 
#
# 1 0.014761 -0.002490 -0.001053 0.000000 -0.005605 0.000000
# 2 -0.002490 0.014702 -0.006012 0.000000 0.005216 0.000000
# 3 -0.001053 -0.006012 0.012847 0.000000 -0.003929 0.000000
# 4 0.000000 0.000000 0.000000 0.026429 0.000000 -0.001357
# 5 -0.005605 0.005216 -0.003929 0.000000 0.035900 0.000000
# 6 0.000000 0.000000 0.000000 -0.001357 0.000000 0.047622
#
#
# Mechanical properties :
#
#
# Convention : Reuss Voigt Hill
#
# Bulk Modulus (GPa) = 43.10243 46.17584 44.63913
# Shear Modulus (GPa) = 27.91681 30.88153 29.39917
#
# Velocity S-wave (km/s) = 3.40917 3.58562 3.49851
# Velocity P-wave (km/s) = 5.78283 6.03045 5.90794
#
# Compressibility (1/GPa) = 0.02320055
#
# Stress axis : x y z
#
# Youngs Moduli (GPa) = 67.74784 68.01804 77.83672
#
# Poissons Ratio (x) = 0.16938 0.08195
# Poissons Ratio (y) = 0.16870 0.46793
# Poissons Ratio (z) = 0.07133 0.40890
#
# Static dielectric constant tensor:
#      x y z
#    x 1.854450 0.000000 0.020630 
#    y 0.000000 1.956400 0.000000 
#    z 0.020630 0.000000 1.913480 
# 
# From -- ./inp_files/4592.got.cif
#   From: 2010.05.17/outbox.cif.g08.bks.cpg/sg4_3_cif.got.tgz:4592.got - 2010.06.03 18:43:04.
