data_PCOD9119584
_publ_section_title
;
Structure prediction by ZEFSAII (Michael W. Deem and Ramdas Pophale) SiO2 
 PCOD9119584
Probable space group: P 21
;
_chemical_formula_sum "Si O2"
_cell_formula_units_Z 14
_cell_length_a 8.956944
_cell_length_b 8.094983
_cell_length_c 8.683920
_cell_angle_alpha 90.000000
_cell_angle_beta 59.354725
_cell_angle_gamma 90.000000
_cell_volume 541.703304
_symmetry_space_group_name_H-M "P 21"
_symmetry_group_IT_number 4
_symmetry_cell_setting 'monoclinic'
loop_
_space_group_symop_operation_xyz
x,y,z
-x,1/2+y,-z
loop_
_atom_site_type_symbol
_atom_site_label
_atom_site_fract_x
_atom_site_fract_y
_atom_site_fract_z
Si Si1 0.357651 0.877460 0.401560
Si Si2 0.913578 0.111700 0.457875
Si Si3 0.606474 0.302583 0.982994
Si Si4 0.110551 0.094540 0.669002
Si Si5 0.291333 0.406228 0.628173
Si Si6 0.823974 0.003029 0.008586
Si Si7 0.734806 0.652382 0.915066
O O1 0.175789 0.785824 0.527227
O O2 0.389171 0.844228 0.204431
O O3 0.524069 0.836219 0.417251
O O4 0.297864 0.054161 0.497124
O O5 0.978997 0.091834 0.595718
O O6 0.087569 0.100773 0.263941
O O7 0.750482 0.991150 0.511465
O O8 0.732696 0.151078 0.960506
O O9 0.656225 0.481999 0.026738
O O10 0.415951 0.228442 0.115839
O O11 0.136673 0.276842 0.717561
O O12 0.025509 0.003364 0.858142
O O13 0.238829 0.538643 0.786269
O O14 0.768345 0.814248 0.001104
#
# Coordination Sequence:
#
# PCOD9119584 Si02
#       7
#     2   2   2   2   2   2   2
#     4  12  24  48  73 114 156 204 266 329 398 469
#     4  12  26  48  78 110 154 215 263 324 411 478
#     4  12  24  46  79 117 164 206 262 327 394 486
#     4  12  26  49  79 109 159 208 269 333 398 488
#     4  12  29  50  73 116 158 205 271 339 404 479
#     4  12  27  48  77 117 157 209 266 327 405 474
#     4  12  24  45  75 113 156 211 263 317 396 478
#
# _framework density 25.844407
#
# number of rings (size 3 to 8) (size 9 to 14) (size 15 to 20)
#    0.000    0.000    7.143    2.571    2.000    0.000 
#    2.571    0.000    0.000    0.000    0.000    0.000 
#    0.000    0.000    0.000    0.000    0.000    0.000 
#
# Total GULP energy -78148.735189 kJ/mol
# GULP energy per Si atom -5582.052514 kJ/mol
# Density = 2.578558 g / cm^3
# Si number density = 25.844407 Si / 1000 Ang^3
#
#
#
# Elastic Constant Matrix: (Units=GPa)
#
#
# Indices 1 2 3 4 5 6 
#
# 1 141.4974 44.0609 30.2932 0.0000 4.9431 0.0000
# 2 44.0609 114.9196 7.1880 0.0000 7.1192 0.0000
# 3 30.2932 7.1880 42.2956 0.0000 -18.1776 0.0000
# 4 0.0000 0.0000 0.0000 30.8414 0.0000 -5.5426
# 5 4.9431 7.1192 -18.1776 0.0000 21.1138 0.0000
# 6 0.0000 0.0000 0.0000 -5.5426 0.0000 50.4927
#
#
#
# Elastic Compliance Matrix: (Units=1/GPa)
#
#
# Indices 1 2 3 4 5 6 
#
# 1 0.011163 -0.002650 -0.013150 0.000000 -0.013041 0.000000
# 2 -0.002650 0.010075 -0.001600 0.000000 -0.004154 0.000000
# 3 -0.013150 -0.001600 0.055378 0.000000 0.051295 0.000000
# 4 0.000000 0.000000 0.000000 0.033076 0.000000 0.003631
# 5 -0.013041 -0.004154 0.051295 0.000000 0.095978 0.000000
# 6 0.000000 0.000000 0.000000 0.003631 0.000000 0.020203
#
#
# Mechanical properties :
#
#
# Convention : Reuss Voigt Hill
#
# Bulk Modulus (GPa) = 23.91300 51.31075 37.61187
# Shear Modulus (GPa) = 18.20751 34.96762 26.58756
#
# Velocity S-wave (km/s) = 2.65713 3.68231 3.21090
# Velocity P-wave (km/s) = 4.32279 6.16247 5.32272
#
# Compressibility (1/GPa) = 0.04181825
#
# Stress axis : x y z
#
# Youngs Moduli (GPa) = 89.58044 99.25526 18.05755
#
# Poissons Ratio (x) = 0.26299 0.23745
# Poissons Ratio (y) = 0.23736 0.02889
# Poissons Ratio (z) = 1.17796 0.15879
#
# Static dielectric constant tensor:
#      x y z
#    x 2.024210 0.000000 -0.000330 
#    y 0.000000 2.280240 0.000000 
#    z -0.000330 0.000000 2.064250 
# 
# From -- ./inp_files/5233.got.cif
#   From: 2010.05.17/outbox.cif.g08.bks.cpg/sg4_3_cif.got.tgz:5233.got - 2010.06.03 18:43:04.
