data_PCOD9119286
_publ_section_title
;
Structure prediction by ZEFSAII (Michael W. Deem and Ramdas Pophale) SiO2 
 PCOD9119286
Probable space group: P 21
;
_chemical_formula_sum "Si O2"
_cell_formula_units_Z 16
_cell_length_a 12.594389
_cell_length_b 11.678063
_cell_length_c 12.394188
_cell_angle_alpha 90.000000
_cell_angle_beta 21.943803
_cell_angle_gamma 90.000000
_cell_volume 681.217223
_symmetry_space_group_name_H-M "P 21"
_symmetry_group_IT_number 4
_symmetry_cell_setting 'monoclinic'
loop_
_space_group_symop_operation_xyz
x,y,z
-x,1/2+y,-z
loop_
_atom_site_type_symbol
_atom_site_label
_atom_site_fract_x
_atom_site_fract_y
_atom_site_fract_z
Si Si1 0.971623 0.794680 0.296068
Si Si2 0.554007 0.457920 0.515488
Si Si3 0.853315 0.964790 0.744325
Si Si4 0.211118 0.141344 0.060802
Si Si5 0.552529 0.135056 0.200054
Si Si6 0.015154 0.982246 0.075516
Si Si7 0.714605 0.450314 0.839293
Si Si8 0.698733 0.293489 0.564850
O O1 0.697886 0.724061 0.591766
O O2 0.924140 0.903343 0.262923
O O3 0.135429 0.841372 0.246921
O O4 0.177515 0.714722 0.030240
O O5 0.582485 0.558795 0.577655
O O6 0.266759 0.495583 0.727958
O O7 0.583725 0.345277 0.561461
O O8 0.771700 0.434674 0.214581
O O9 0.065941 0.010612 0.450850
O O10 0.085494 0.885531 0.586789
O O11 0.582337 0.916394 0.934609
O O12 0.693382 0.051121 0.977307
O O13 0.889043 0.179959 0.384069
O O14 0.328704 0.042110 0.025761
O O15 0.409257 0.251217 0.891488
O O16 0.183117 0.090500 0.966991
#
# Coordination Sequence:
#
# PCOD9119286 Si02
#       8
#     2   2   2   2   2   2   2   2
#     4  11  25  45  70 101 136 178 232 288 345 415
#     4  12  25  43  67  98 139 179 223 282 342 408
#     4  12  25  45  69 100 141 185 233 290 352 416
#     4  11  25  45  70 101 136 178 232 288 345 415
#     4  12  25  44  68  99 139 181 229 285 346 415
#     4  11  25  44  69 102 135 176 227 281 342 410
#     4  11  25  46  71 100 139 182 235 297 350 414
#     4  12  25  44  68  99 139 181 229 285 346 415
#
# _framework density 23.487369000000001
#
# number of rings (size 3 to 8) (size 9 to 14) (size 15 to 20)
#    0.000    0.500    0.000    9.000    0.000   14.000 
#    0.000    2.500    0.000    0.000    0.000    0.000 
#    0.000    0.000    0.000    0.000    0.000    0.000 
#
# Total GULP energy -89275.450482 kJ/mol
# GULP energy per Si atom -5579.715655 kJ/mol
# Density = 2.343391 g / cm^3
# Si number density = 23.487369 Si / 1000 Ang^3
#
#
#
# Elastic Constant Matrix: (Units=GPa)
#
#
# Indices 1 2 3 4 5 6 
#
# 1 113.7539 39.8246 40.5120 0.0000 -22.7331 0.0000
# 2 39.8246 57.9004 28.1581 0.0000 -16.8731 0.0000
# 3 40.5120 28.1581 125.1174 0.0000 -17.7013 0.0000
# 4 0.0000 0.0000 0.0000 -117.2035 0.0000 130.5869
# 5 -22.7331 -16.8731 -17.7013 0.0000 32.8527 0.0000
# 6 0.0000 0.0000 0.0000 130.5869 0.0000 -93.5604
#
#
#
# Elastic Compliance Matrix: (Units=1/GPa)
#
#
# Indices 1 2 3 4 5 6 
#
# 1 0.012635 -0.006439 -0.002028 0.000000 0.004344 0.000000
# 2 -0.006439 0.024978 -0.002546 0.000000 0.007002 0.000000
# 3 -0.002028 -0.002546 0.009568 0.000000 0.002445 0.000000
# 4 0.000000 0.000000 0.000000 0.015370 0.000000 0.021452
# 5 0.004344 0.007002 0.002445 0.000000 0.038358 0.000000
# 6 0.000000 0.000000 0.000000 0.021452 0.000000 0.019254
#
#
# Mechanical properties :
#
#
# Convention : Reuss Voigt Hill
#
# Bulk Modulus (GPa) = 39.75104 57.08458 48.41781
# Shear Modulus (GPa) = 33.20646 -23.03047 5.08799
#
# Velocity S-wave (km/s) = 3.76413 -3.13477 1.47342
# Velocity P-wave (km/s) = 5.98772 3.35482 4.85322
#
# Compressibility (1/GPa) = 0.02515658
#
# Stress axis : x y z
#
# Youngs Moduli (GPa) = 79.14348 40.03474 104.51653
#
# Poissons Ratio (x) = 0.25778 0.21192
# Poissons Ratio (y) = 0.50959 0.26611
# Poissons Ratio (z) = 0.16047 0.10193
#
# Static dielectric constant tensor:
#      x y z
#    x 1.980230 0.000000 0.005470 
#    y 0.000000 1.959870 0.000000 
#    z 0.005470 0.000000 1.853260 
# 
# From -- ./inp_files/12259.got.cif
#   From: 2010.05.17/outbox.cif.g08.bks.cpg/sg4_7_cif.got.tgz:12259.got - 2010.06.03 18:43:04.
