data_PCOD9119092
_publ_section_title
;
Structure prediction by ZEFSAII (Michael W. Deem and Ramdas Pophale) SiO2 
 PCOD9119092
Probable space group: P 21
;
_chemical_formula_sum "Si O2"
_cell_formula_units_Z 16
_cell_length_a 8.543766
_cell_length_b 5.014408
_cell_length_c 13.929004
_cell_angle_alpha 90.000000
_cell_angle_beta 85.328000
_cell_angle_gamma 90.000000
_cell_volume 594.762595
_symmetry_space_group_name_H-M "P 21"
_symmetry_group_IT_number 4
_symmetry_cell_setting 'monoclinic'
loop_
_space_group_symop_operation_xyz
x,y,z
-x,1/2+y,-z
loop_
_atom_site_type_symbol
_atom_site_label
_atom_site_fract_x
_atom_site_fract_y
_atom_site_fract_z
Si Si1 0.838205 0.560960 0.447765
Si Si2 0.121265 0.309156 0.354140
Si Si3 0.568291 0.174818 0.441955
Si Si4 0.553143 0.828514 0.757532
Si Si5 0.113850 0.397579 0.730602
Si Si6 0.598860 0.854144 0.148921
Si Si7 0.918656 0.080788 0.887111
Si Si8 0.212517 0.084069 0.020943
O O1 0.815765 0.639855 0.558486
O O2 0.743301 0.288916 0.440310
O O3 0.794918 0.757729 0.362115
O O4 0.022716 0.531687 0.415910
O O5 0.269900 0.388358 0.283908
O O6 0.994444 0.135890 0.301501
O O7 0.469825 0.398385 0.505721
O O8 0.521304 0.195109 0.333742
O O9 0.519480 0.604535 0.840599
O O10 0.470342 0.104694 0.788539
O O11 0.240498 0.460750 0.807568
O O12 0.993390 0.188732 0.785764
O O13 0.647567 0.721280 0.045435
O O14 0.068212 0.073455 0.951386
O O15 0.789273 0.289403 0.934232
O O16 0.845513 0.790580 0.896407
#
# Coordination Sequence:
#
# PCOD9119092 Si02
#       8
#     2   2   2   2   2   2   2   2
#     4  12  26  42  65  91 134 182 232 274 334 396
#     4  12  28  42  65  94 140 185 229 282 335 400
#     4  12  26  43  68  95 132 176 232 287 334 391
#     4  12  26  43  67  99 134 181 227 280 336 400
#     4  11  25  42  67 100 133 181 227 282 337 412
#     4  11  24  44  72 102 135 171 229 285 343 408
#     4   9  19  35  64  99 133 162 213 275 342 401
#     4   9  18  37  64 100 131 162 207 283 347 392
#
# _framework density 26.901491
#
# number of rings (size 3 to 8) (size 9 to 14) (size 15 to 20)
#    0.000    1.000    3.750    2.250    7.000    2.000 
#    0.000    0.000    0.000    3.000    0.000    0.000 
#    0.000    0.000    0.000    0.000    0.000    0.000 
#
# Total GULP energy -89736.562704 kJ/mol
# GULP energy per Si atom -5608.535169 kJ/mol
# Density = 2.684026 g / cm^3
# Si number density = 26.901491 Si / 1000 Ang^3
#
#
#
# Elastic Constant Matrix: (Units=GPa)
#
#
# Indices 1 2 3 4 5 6 
#
# 1 92.4613 9.1157 36.0021 0.0000 -18.5695 0.0000
# 2 9.1157 80.5374 8.3323 0.0000 -4.3583 0.0000
# 3 36.0021 8.3323 129.0254 0.0000 -13.4897 0.0000
# 4 0.0000 0.0000 0.0000 46.0872 0.0000 -16.8783
# 5 -18.5695 -4.3583 -13.4897 0.0000 45.0622 0.0000
# 6 0.0000 0.0000 0.0000 -16.8783 0.0000 49.5727
#
#
#
# Elastic Compliance Matrix: (Units=1/GPa)
#
#
# Indices 1 2 3 4 5 6 
#
# 1 0.012987 -0.000914 -0.003112 0.000000 0.004332 0.000000
# 2 -0.000914 0.012608 -0.000486 0.000000 0.000697 0.000000
# 3 -0.003112 -0.000486 0.008786 0.000000 0.001301 0.000000
# 4 0.000000 0.000000 0.000000 0.024789 0.000000 0.008440
# 5 0.004332 0.000697 0.001301 0.000000 0.024433 0.000000
# 6 0.000000 0.000000 0.000000 0.008440 0.000000 0.023046
#
#
# Mechanical properties :
#
#
# Convention : Reuss Voigt Hill
#
# Bulk Modulus (GPa) = 39.43600 45.43604 42.43602
# Shear Modulus (GPa) = 40.28165 44.71604 42.49884
#
# Velocity S-wave (km/s) = 3.87379 4.08145 3.97898
# Velocity P-wave (km/s) = 5.89064 6.25599 6.07606
#
# Compressibility (1/GPa) = 0.02535754
#
# Stress axis : x y z
#
# Youngs Moduli (GPa) = 76.99955 79.31436 113.81571
#
# Poissons Ratio (x) = 0.07246 0.35418
# Poissons Ratio (y) = 0.07035 0.05536
# Poissons Ratio (z) = 0.23961 0.03858
#
# Static dielectric constant tensor:
#      x y z
#    x 2.184130 0.000000 0.046040 
#    y 0.000000 2.079130 0.000000 
#    z 0.046040 0.000000 2.095170 
# 
# From -- ./inp_files/8859.got.cif
#   From: 2010.05.17/outbox.cif.g08.bks.cpg/sg4_5_cif.got.tgz:8859.got - 2010.06.03 18:43:04.
