data_PCOD9119765
_publ_section_title
;
Structure prediction by ZEFSAII (Michael W. Deem and Ramdas Pophale) SiO2 
 PCOD9119765
Probable space group: P 21
;
_chemical_formula_sum "Si O2"
_cell_formula_units_Z 14
_cell_length_a 13.291103
_cell_length_b 8.458986
_cell_length_c 14.103740
_cell_angle_alpha 90.000000
_cell_angle_beta 20.273924
_cell_angle_gamma 90.000000
_cell_volume 549.449592
_symmetry_space_group_name_H-M "P 21"
_symmetry_group_IT_number 4
_symmetry_cell_setting 'monoclinic'
loop_
_space_group_symop_operation_xyz
x,y,z
-x,1/2+y,-z
loop_
_atom_site_type_symbol
_atom_site_label
_atom_site_fract_x
_atom_site_fract_y
_atom_site_fract_z
Si Si1 0.908200 0.153440 0.382944
Si Si2 0.366926 0.333211 0.857638
Si Si3 0.062423 0.424616 0.970965
Si Si4 0.830074 0.449074 0.681793
Si Si5 0.764029 0.100233 0.819928
Si Si6 0.582091 0.931983 0.520683
Si Si7 0.805578 0.591685 0.385465
O O1 0.631446 0.239001 0.672115
O O2 0.084557 0.045422 0.298758
O O3 0.742998 0.047896 0.450810
O O4 0.108832 0.287038 0.157750
O O5 0.546004 0.487627 0.661472
O O6 0.225278 0.277947 0.880553
O O7 0.764941 0.410585 0.176016
O O8 0.960338 0.514762 0.156557
O O9 0.300642 0.483941 0.686301
O O10 0.769522 0.270025 0.764340
O O11 0.094221 0.471778 0.375866
O O12 0.557567 0.538605 0.876430
O O13 0.951720 0.116653 0.748661
O O14 0.694424 0.759116 0.448190
#
# Coordination Sequence:
#
# PCOD9119765 Si02
#       7
#     2   2   2   2   2   2   2
#     4  12  27  51  74 114 153 203 260 331 390 472
#     4  12  27  45  78 106 159 201 258 316 399 464
#     4  12  28  44  76 113 153 207 253 315 389 469
#     4  12  29  53  81 118 154 211 266 332 405 473
#     4  12  30  51  84 116 160 207 267 335 401 479
#     4  12  29  47  77 107 163 199 266 314 390 467
#     4  12  30  51  78 116 160 208 266 325 398 476
#
# _framework density 25.480043999999999
#
# number of rings (size 3 to 8) (size 9 to 14) (size 15 to 20)
#    0.000    0.000    4.286    2.571   16.000    0.000 
#    0.000    0.000    0.000    0.000    0.000    0.000 
#    0.000    0.000    0.000    0.000    0.000    0.000 
#
# Total GULP energy -78357.640962 kJ/mol
# GULP energy per Si atom -5596.974354 kJ/mol
# Density = 2.542205 g / cm^3
# Si number density = 25.480044 Si / 1000 Ang^3
#
#
#
# Elastic Constant Matrix: (Units=GPa)
#
#
# Indices 1 2 3 4 5 6 
#
# 1 136.7634 29.0024 22.2767 0.0000 -11.3945 0.0000
# 2 29.0024 115.9690 17.4346 0.0000 -3.3010 0.0000
# 3 22.2767 17.4346 135.5395 0.0000 -23.9592 0.0000
# 4 0.0000 0.0000 0.0000 24.4747 0.0000 -3.0289
# 5 -11.3945 -3.3010 -23.9592 0.0000 47.5478 0.0000
# 6 0.0000 0.0000 0.0000 -3.0289 0.0000 40.9980
#
#
#
# Elastic Compliance Matrix: (Units=1/GPa)
#
#
# Indices 1 2 3 4 5 6 
#
# 1 0.007947 -0.001824 -0.000831 0.000000 0.001359 0.000000
# 2 -0.001824 0.009212 -0.000932 0.000000 -0.000267 0.000000
# 3 -0.000831 -0.000932 0.008330 0.000000 0.003933 0.000000
# 4 0.000000 0.000000 0.000000 0.041236 0.000000 0.003046
# 5 0.001359 -0.000267 0.003933 0.000000 0.023321 0.000000
# 6 0.000000 0.000000 0.000000 0.003046 0.000000 0.024617
#
#
# Mechanical properties :
#
#
# Convention : Reuss Voigt Hill
#
# Bulk Modulus (GPa) = 54.60440 58.41104 56.50772
# Shear Modulus (GPa) = 39.08043 43.90796 41.49419
#
# Velocity S-wave (km/s) = 3.92058 4.15568 4.03984
# Velocity P-wave (km/s) = 6.47853 6.78235 6.63218
#
# Compressibility (1/GPa) = 0.01831354
#
# Stress axis : x y z
#
# Youngs Moduli (GPa) = 125.82872 108.55782 120.05078
#
# Poissons Ratio (x) = 0.19799 0.09981
# Poissons Ratio (y) = 0.22949 0.11194
# Poissons Ratio (z) = 0.10461 0.10122
#
# Static dielectric constant tensor:
#      x y z
#    x 2.037020 0.000000 -0.075350 
#    y 0.000000 2.097670 0.000000 
#    z -0.075350 0.000000 2.049350 
# 
# From -- ./inp_files/14152.got.cif
#   From: 2010.05.17/outbox.cif.g08.bks.cpg/sg4_8_cif.got.tgz:14152.got - 2010.06.03 18:43:04.
