data_PCOD9119112
_publ_section_title
;
Structure prediction by ZEFSAII (Michael W. Deem and Ramdas Pophale) SiO2 
 PCOD9119112
Probable space group: P 21
;
_chemical_formula_sum "Si O2"
_cell_formula_units_Z 16
_cell_length_a 5.122488
_cell_length_b 12.721372
_cell_length_c 9.127950
_cell_angle_alpha 90.000000
_cell_angle_beta 78.996161
_cell_angle_gamma 90.000000
_cell_volume 583.887360
_symmetry_space_group_name_H-M "P 21"
_symmetry_group_IT_number 4
_symmetry_cell_setting 'monoclinic'
loop_
_space_group_symop_operation_xyz
x,y,z
-x,1/2+y,-z
loop_
_atom_site_type_symbol
_atom_site_label
_atom_site_fract_x
_atom_site_fract_y
_atom_site_fract_z
Si Si1 0.675383 0.638710 0.207110
Si Si2 0.843053 0.131542 0.442160
Si Si3 0.432845 0.554795 0.793764
Si Si4 0.417398 0.765723 0.976150
Si Si5 0.556046 0.797336 0.428658
Si Si6 0.847630 0.811248 0.710132
Si Si7 0.106455 0.975023 0.049563
Si Si8 0.256750 0.980367 0.558301
O O1 0.484716 0.705578 0.119941
O O2 0.766054 0.735690 0.303830
O O3 0.854427 0.565675 0.080262
O O4 0.969217 0.551995 0.493076
O O5 0.697203 0.220051 0.551260
O O6 0.029618 0.195402 0.310215
O O7 0.604122 0.085040 0.371578
O O8 0.368341 0.667429 0.876053
O O9 0.695071 0.511763 0.842543
O O10 0.192202 0.478104 0.861906
O O11 0.669439 0.823278 0.872254
O O12 0.197955 0.856458 0.003841
O O13 0.675188 0.812876 0.578561
O O14 0.415905 0.908840 0.423647
O O15 0.080944 0.895247 0.668911
O O16 0.411134 0.048013 0.666423
#
# Coordination Sequence:
#
# PCOD9119112 Si02
#       8
#     2   2   2   2   2   2   2   2
#     4  11  26  49  76 115 160 201 270 330 399 476
#     4  11  24  44  76 107 155 199 264 320 402 474
#     4  11  26  49  76 114 156 205 267 324 398 483
#     4  11  26  51  81 111 159 211 266 332 402 487
#     4  11  25  47  75 112 152 203 262 324 400 485
#     4  11  24  49  75 110 154 210 265 323 407 483
#     4  11  28  47  79 116 157 212 259 336 400 470
#     4  11  27  44  80 113 153 213 259 339 402 472
#
# _framework density 27.402543000000001
#
# number of rings (size 3 to 8) (size 9 to 14) (size 15 to 20)
#    0.000    1.000    2.500    2.250    8.750    4.000 
#    0.000    0.000    0.000    0.000    0.000    0.000 
#    0.000    0.000    0.000    0.000    0.000    0.000 
#
# Total GULP energy -89546.420081 kJ/mol
# GULP energy per Si atom -5596.651255 kJ/mol
# Density = 2.734017 g / cm^3
# Si number density = 27.402543 Si / 1000 Ang^3
#
#
#
# Elastic Constant Matrix: (Units=GPa)
#
#
# Indices 1 2 3 4 5 6 
#
# 1 72.8413 18.7174 6.6483 0.0000 11.9693 0.0000
# 2 18.7174 153.0259 14.8604 0.0000 13.1676 0.0000
# 3 6.6483 14.8604 131.8846 0.0000 8.8161 0.0000
# 4 0.0000 0.0000 0.0000 40.5132 0.0000 -4.1363
# 5 11.9693 13.1676 8.8161 0.0000 42.6973 0.0000
# 6 0.0000 0.0000 0.0000 -4.1363 0.0000 58.8858
#
#
#
# Elastic Compliance Matrix: (Units=1/GPa)
#
#
# Indices 1 2 3 4 5 6 
#
# 1 0.014727 -0.001458 -0.000337 0.000000 -0.003609 0.000000
# 2 -0.001458 0.006909 -0.000598 0.000000 -0.001598 0.000000
# 3 -0.000337 -0.000598 0.007755 0.000000 -0.001322 0.000000
# 4 0.000000 0.000000 0.000000 0.024862 0.000000 0.001746
# 5 -0.003609 -0.001598 -0.001322 0.000000 0.025198 0.000000
# 6 0.000000 0.000000 0.000000 0.001746 0.000000 0.017105
#
#
# Mechanical properties :
#
#
# Convention : Reuss Voigt Hill
#
# Bulk Modulus (GPa) = 40.64233 48.68934 44.66583
# Shear Modulus (GPa) = 45.64406 49.58763 47.61585
#
# Velocity S-wave (km/s) = 4.08571 4.25855 4.17303
# Velocity P-wave (km/s) = 6.09271 6.47975 6.28921
#
# Compressibility (1/GPa) = 0.02460489
#
# Stress axis : x y z
#
# Youngs Moduli (GPa) = 67.90275 144.74281 128.94639
#
# Poissons Ratio (x) = 0.21104 0.04343
# Poissons Ratio (y) = 0.09901 0.07712
# Poissons Ratio (z) = 0.02287 0.08657
#
# Static dielectric constant tensor:
#      x y z
#    x 2.176180 0.000000 -0.060080 
#    y 0.000000 2.137250 0.000000 
#    z -0.060080 0.000000 2.226340 
# 
# From -- ./inp_files/2047.got.cif
#   From: 2010.05.17/outbox.cif.g08.bks.cpg/sg4_2_cif.got.tgz:2047.got - 2010.06.03 18:43:04.
