data_PCOD9119302
_publ_section_title
;
Structure prediction by ZEFSAII (Michael W. Deem and Ramdas Pophale) SiO2 
 PCOD9119302
Probable space group: P 21
;
_chemical_formula_sum "Si O2"
_cell_formula_units_Z 14
_cell_length_a 9.220259
_cell_length_b 8.406233
_cell_length_c 7.925258
_cell_angle_alpha 90.000000
_cell_angle_beta 108.782862
_cell_angle_gamma 90.000000
_cell_volume 581.555616
_symmetry_space_group_name_H-M "P 21"
_symmetry_group_IT_number 4
_symmetry_cell_setting 'monoclinic'
loop_
_space_group_symop_operation_xyz
x,y,z
-x,1/2+y,-z
loop_
_atom_site_type_symbol
_atom_site_label
_atom_site_fract_x
_atom_site_fract_y
_atom_site_fract_z
Si Si1 0.628151 0.934530 0.224962
Si Si2 0.536248 0.899355 0.815199
Si Si3 0.732461 0.603399 0.390853
Si Si4 0.062168 0.483959 0.548508
Si Si5 0.945687 0.348241 0.858220
Si Si6 0.654636 0.565855 0.743877
Si Si7 0.840216 0.985203 0.783372
O O1 0.687206 0.754803 0.264695
O O2 0.487289 0.946644 0.299211
O O3 0.571041 0.960849 0.015361
O O4 0.772169 0.046480 0.326373
O O5 0.587329 0.715654 0.821595
O O6 0.363563 0.949007 0.705593
O O7 0.657701 0.983189 0.736369
O O8 0.914265 0.587586 0.451098
O O9 0.685730 0.624172 0.567355
O O10 0.999979 0.391758 0.689888
O O11 0.106987 0.420728 0.379066
O O12 0.806514 0.468987 0.855001
O O13 0.893264 0.166106 0.834111
O O14 0.081580 0.378514 0.042008
#
# Coordination Sequence:
#
# PCOD9119302 Si02
#       7
#     2   2   2   2   2   2   2
#     4  12  25  47  71 107 146 189 250 305 366 439
#     4  12  26  46  72 109 147 194 241 307 372 438
#     4  11  25  46  73 105 140 193 249 300 370 439
#     4  11  26  46  74 105 147 192 242 303 363 439
#     4  11  26  46  72 114 140 197 244 308 365 441
#     4  11  25  45  74 101 147 189 250 298 372 435
#     4  12  25  46  76 103 155 188 248 301 374 431
#
# _framework density 24.073363000000001
#
# number of rings (size 3 to 8) (size 9 to 14) (size 15 to 20)
#    0.000    0.571    1.429    6.000    4.000    8.000 
#    0.000    0.000    0.000    0.000    0.000    0.000 
#    0.000    0.000    0.000    0.000    0.000    0.000 
#
# Total GULP energy -78299.865562 kJ/mol
# GULP energy per Si atom -5592.847540 kJ/mol
# Density = 2.401857 g / cm^3
# Si number density = 24.073363 Si / 1000 Ang^3
#
#
#
# Elastic Constant Matrix: (Units=GPa)
#
#
# Indices 1 2 3 4 5 6 
#
# 1 88.3940 14.2751 10.8085 0.0000 0.9828 0.0000
# 2 14.2751 63.6874 12.6009 0.0000 0.3765 0.0000
# 3 10.8085 12.6009 104.7085 0.0000 -4.9836 0.0000
# 4 0.0000 0.0000 0.0000 23.9452 0.0000 -6.8745
# 5 0.9828 0.3765 -4.9836 0.0000 41.2243 0.0000
# 6 0.0000 0.0000 0.0000 -6.8745 0.0000 35.5502
#
#
#
# Elastic Compliance Matrix: (Units=1/GPa)
#
#
# Indices 1 2 3 4 5 6 
#
# 1 0.011830 -0.002463 -0.000943 0.000000 -0.000373 0.000000
# 2 -0.002463 0.016603 -0.001758 0.000000 -0.000306 0.000000
# 3 -0.000943 -0.001758 0.009918 0.000000 0.001238 0.000000
# 4 0.000000 0.000000 0.000000 0.044217 0.000000 0.008550
# 5 -0.000373 -0.000306 0.001238 0.000000 0.024419 0.000000
# 6 0.000000 0.000000 0.000000 0.008550 0.000000 0.029783
#
#
# Mechanical properties :
#
#
# Convention : Reuss Voigt Hill
#
# Bulk Modulus (GPa) = 35.68378 36.90654 36.29516
# Shear Modulus (GPa) = 31.96132 34.75097 33.35614
#
# Velocity S-wave (km/s) = 3.64766 3.80352 3.72641
# Velocity P-wave (km/s) = 5.70927 5.88670 5.79866
#
# Compressibility (1/GPa) = 0.02802394
#
# Stress axis : x y z
#
# Youngs Moduli (GPa) = 84.52986 60.22840 100.82545
#
# Poissons Ratio (x) = 0.14834 0.09503
# Poissons Ratio (y) = 0.20819 0.17729
# Poissons Ratio (z) = 0.07967 0.10591
#
# Static dielectric constant tensor:
#      x y z
#    x 1.895660 0.000000 0.047440 
#    y 0.000000 1.979360 0.000000 
#    z 0.047440 0.000000 1.880790 
# 
# From -- ./inp_files/5260.got.cif
#   From: 2010.05.17/outbox.cif.g08.bks.cpg/sg4_3_cif.got.tgz:5260.got - 2010.06.03 18:43:04.
