data_PCOD9119927
_publ_section_title
;
Structure prediction by ZEFSAII (Michael W. Deem and Ramdas Pophale) SiO2 
 PCOD9119927
Probable space group: C 2
;
_chemical_formula_sum "Si O2"
_cell_formula_units_Z 24
_cell_length_a 28.878396
_cell_length_b 7.401464
_cell_length_c 5.278374
_cell_angle_alpha 90.000000
_cell_angle_beta 79.324882
_cell_angle_gamma 90.000000
_cell_volume 1108.686776
_symmetry_space_group_name_H-M "C 2"
_symmetry_group_IT_number 5
_symmetry_cell_setting 'monoclinic'
loop_
_space_group_symop_operation_xyz
x,y,z
-x,y,-z
1/2+x,1/2+y,z
1/2-x,1/2+y,-z
loop_
_atom_site_type_symbol
_atom_site_label
_atom_site_fract_x
_atom_site_fract_y
_atom_site_fract_z
Si Si1 0.525858 0.598170 0.722285
Si Si2 0.782395 0.675828 0.104154
Si Si3 0.485119 0.188116 0.762582
Si Si4 0.268035 0.571752 0.355779
Si Si5 0.869143 0.039408 0.358973
Si Si6 0.877132 0.800180 0.851307
O O1 0.500000 0.662568 0.500000
O O2 0.516237 0.376827 0.732794
O O3 0.581168 0.637698 0.650354
O O4 0.500000 0.661043 0.000000
O O5 0.763728 0.557955 0.358822
O O6 0.776830 0.872423 0.236021
O O7 0.753709 0.667648 0.869638
O O8 0.836837 0.656561 0.966451
O O9 0.500000 0.084657 0.500000
O O10 0.430138 0.229254 0.801255
O O11 0.500000 0.090780 0.000000
O O12 0.319407 0.642425 0.393914
O O13 0.865604 0.894521 0.593659
O O14 0.875579 0.946416 0.078659
#
# Coordination Sequence:
#
# PCOD9119927 Si02
#       6
#     4   4   4   4   4   4
#     4  10  15  24  40  68 106 139 165 208 283 351
#     4  11  23  39  57  81 112 154 196 239 280 332
#     4  10  15  24  40  68 106 139 165 208 283 351
#     4  11  23  39  57  81 112 154 196 239 280 332
#     4  11  18  29  48  73 106 149 174 219 282 340
#     4  11  18  29  48  73 106 149 174 219 282 340
#
# _framework density 21.647231000000001
#
# number of rings (size 3 to 8) (size 9 to 14) (size 15 to 20)
#    0.000    1.333    6.667    5.000    0.000    0.000 
#    0.000    0.000    0.000    0.000    0.000    0.000 
#    0.000   20.000    0.000    0.000    0.000    0.000 
#
# Total GULP energy -66914.789036 kJ/mol
# GULP energy per Si atom -5576.232420 kJ/mol
# Density = 2.159796 g / cm^3
# Si number density = 21.647231 Si / 1000 Ang^3
#
#
#
# Elastic Constant Matrix: (Units=GPa)
#
#
# Indices 1 2 3 4 5 6 
#
# 1 167.5482 6.9398 55.2396 0.0000 -9.8635 0.0000
# 2 6.9398 29.0731 4.7407 0.0000 -0.1912 0.0000
# 3 55.2396 4.7407 174.3681 0.0000 3.1563 0.0000
# 4 0.0000 0.0000 0.0000 10.1669 0.0000 4.4460
# 5 -9.8635 -0.1912 3.1563 0.0000 45.2357 0.0000
# 6 0.0000 0.0000 0.0000 4.4460 0.0000 6.0472
#
#
#
# Elastic Compliance Matrix: (Units=1/GPa)
#
#
# Indices 1 2 3 4 5 6 
#
# 1 0.006829 -0.001267 -0.002158 0.000000 0.001634 0.000000
# 2 -0.001267 0.034786 -0.000543 0.000000 -0.000091 0.000000
# 3 -0.002158 -0.000543 0.006450 0.000000 -0.000923 0.000000
# 4 0.000000 0.000000 0.000000 0.144968 0.000000 -0.106584
# 5 0.001634 -0.000091 -0.000923 0.000000 0.022527 0.000000
# 6 0.000000 0.000000 0.000000 -0.106584 0.000000 0.243727
#
#
# Mechanical properties :
#
#
# Convention : Reuss Voigt Hill
#
# Bulk Modulus (GPa) = 24.91990 56.09219 40.50605
# Shear Modulus (GPa) = 10.40365 32.56125 21.48245
#
# Velocity S-wave (km/s) = 2.19464 3.88258 3.15364
# Velocity P-wave (km/s) = 4.23777 6.78730 5.65801
#
# Compressibility (1/GPa) = 0.04012857
#
# Stress axis : x y z
#
# Youngs Moduli (GPa) = 146.43938 28.74687 155.03258
#
# Poissons Ratio (x) = 0.03643 0.33463
# Poissons Ratio (y) = 0.18559 0.08412
# Poissons Ratio (z) = 0.31609 0.01560
#
# Static dielectric constant tensor:
#      x y z
#    x 1.827840 0.000000 0.002690 
#    y 0.000000 1.837290 0.000000 
#    z 0.002690 0.000000 1.812330 
# 
# From -- ./inp_files/10694.got.cif
#   From: 2010.05.17/outbox.cif.g08.bks.cpg/sg5_6_cif.got.tgz:10694.got - 2010.06.03 18:56:24.
