data_PCOD9119554
_publ_section_title
;
Structure prediction by ZEFSAII (Michael W. Deem and Ramdas Pophale) SiO2 
 PCOD9119554
Probable space group: P 21
;
_chemical_formula_sum "Si O2"
_cell_formula_units_Z 16
_cell_length_a 11.510265
_cell_length_b 5.609966
_cell_length_c 13.116317
_cell_angle_alpha 90.000000
_cell_angle_beta 53.093819
_cell_angle_gamma 90.000000
_cell_volume 677.237565
_symmetry_space_group_name_H-M "P 21"
_symmetry_group_IT_number 4
_symmetry_cell_setting 'monoclinic'
loop_
_space_group_symop_operation_xyz
x,y,z
-x,1/2+y,-z
loop_
_atom_site_type_symbol
_atom_site_label
_atom_site_fract_x
_atom_site_fract_y
_atom_site_fract_z
Si Si1 0.369319 0.788820 0.664365
Si Si2 0.421087 0.196466 0.022905
Si Si3 0.066157 0.353115 0.930617
Si Si4 0.883173 0.987505 0.305690
Si Si5 0.882084 0.796286 0.710207
Si Si6 0.357016 0.167570 0.823857
Si Si7 0.890019 0.632190 0.474959
Si Si8 0.596078 0.434533 0.578250
O O1 0.255592 0.606189 0.674397
O O2 0.507083 0.674604 0.648346
O O3 0.418292 0.925028 0.536472
O O4 0.295623 0.954479 0.786919
O O5 0.278791 0.270387 0.162305
O O6 0.510520 0.448565 0.969099
O O7 0.383763 0.121113 0.927040
O O8 0.060658 0.310717 0.811594
O O9 0.232564 0.366021 0.881500
O O10 0.000047 0.615914 0.983561
O O11 0.842423 0.853698 0.430736
O O12 0.008996 0.171052 0.268125
O O13 0.893962 0.675617 0.592581
O O14 0.953037 0.053512 0.650068
O O15 0.504253 0.240182 0.687675
O O16 0.763913 0.439483 0.519584
#
# Coordination Sequence:
#
# PCOD9119554 Si02
#       8
#     2   2   2   2   2   2   2   2
#     4  12  24  45  73 120 156 205 257 332 405 488
#     4  12  33  56  83 118 163 221 280 337 405 492
#     4  12  28  48  74 112 153 208 262 324 404 486
#     4  12  26  46  76 113 157 201 265 333 401 482
#     4  12  28  51  80 113 161 210 281 333 412 483
#     4  12  28  47  78 110 159 210 264 330 413 488
#     4  12  27  46  78 114 154 212 270 342 405 475
#     4  12  24  43  76 114 159 201 263 331 407 486
#
# _framework density 23.625387
#
# number of rings (size 3 to 8) (size 9 to 14) (size 15 to 20)
#    0.000    0.000    5.000    3.750    8.750    1.000 
#    0.000    0.000    0.000    0.000    0.000    0.000 
#    0.000    0.000    0.000    0.000    0.000    0.000 
#
# Total GULP energy -89461.701987 kJ/mol
# GULP energy per Si atom -5591.356374 kJ/mol
# Density = 2.357162 g / cm^3
# Si number density = 23.625387 Si / 1000 Ang^3
#
#
#
# Elastic Constant Matrix: (Units=GPa)
#
#
# Indices 1 2 3 4 5 6 
#
# 1 68.0427 25.8153 38.9741 0.0000 4.3776 0.0000
# 2 25.8153 86.6082 31.5096 0.0000 -9.5948 0.0000
# 3 38.9741 31.5096 116.0040 0.0000 3.3150 0.0000
# 4 0.0000 0.0000 0.0000 41.6064 0.0000 -1.0191
# 5 4.3776 -9.5948 3.3150 0.0000 50.7860 0.0000
# 6 0.0000 0.0000 0.0000 -1.0191 0.0000 38.2834
#
#
#
# Elastic Compliance Matrix: (Units=1/GPa)
#
#
# Indices 1 2 3 4 5 6 
#
# 1 0.019454 -0.004078 -0.005368 0.000000 -0.002097 0.000000
# 2 -0.004078 0.014034 -0.002533 0.000000 0.003168 0.000000
# 3 -0.005368 -0.002533 0.011133 0.000000 -0.000742 0.000000
# 4 0.000000 0.000000 0.000000 0.024050 0.000000 0.000640
# 5 -0.002097 0.003168 -0.000742 0.000000 0.020518 0.000000
# 6 0.000000 0.000000 0.000000 0.000640 0.000000 0.026138
#
#
# Mechanical properties :
#
#
# Convention : Reuss Voigt Hill
#
# Bulk Modulus (GPa) = 48.39435 51.47254 49.93345
# Shear Modulus (GPa) = 34.20619 37.75890 35.98255
#
# Velocity S-wave (km/s) = 3.80920 4.00213 3.90686
# Velocity P-wave (km/s) = 6.31468 6.57193 6.44459
#
# Compressibility (1/GPa) = 0.02066357
#
# Stress axis : x y z
#
# Youngs Moduli (GPa) = 51.40451 71.25525 89.82207
#
# Poissons Ratio (x) = 0.29056 0.48219
# Poissons Ratio (y) = 0.20961 0.22748
# Poissons Ratio (z) = 0.27596 0.18046
#
# Static dielectric constant tensor:
#      x y z
#    x 1.853380 0.000000 -0.047580 
#    y 0.000000 2.021490 0.000000 
#    z -0.047580 0.000000 1.935110 
# 
# From -- ./inp_files/11595.got.cif
#   From: 2010.05.17/outbox.cif.g08.bks.cpg/sg4_6_cif.got.tgz:11595.got - 2010.06.03 18:43:04.
