data_PCOD9119680
_publ_section_title
;
Structure prediction by ZEFSAII (Michael W. Deem and Ramdas Pophale) SiO2 
 PCOD9119680
Probable space group: P 21
;
_chemical_formula_sum "Si O2"
_cell_formula_units_Z 16
_cell_length_a 12.845458
_cell_length_b 7.783149
_cell_length_c 6.635738
_cell_angle_alpha 90.000000
_cell_angle_beta 81.482397
_cell_angle_gamma 90.000000
_cell_volume 656.111219
_symmetry_space_group_name_H-M "P 21"
_symmetry_group_IT_number 4
_symmetry_cell_setting 'monoclinic'
loop_
_space_group_symop_operation_xyz
x,y,z
-x,1/2+y,-z
loop_
_atom_site_type_symbol
_atom_site_label
_atom_site_fract_x
_atom_site_fract_y
_atom_site_fract_z
Si Si1 0.246254 0.622670 0.310193
Si Si2 0.619121 0.937382 0.410207
Si Si3 0.448353 0.157698 0.267533
Si Si4 0.789510 0.896909 0.037577
Si Si5 0.015895 0.518614 0.803742
Si Si6 0.634793 0.383748 0.020615
Si Si7 0.161986 0.013933 0.844894
Si Si8 0.950985 0.325421 0.458178
O O1 0.316895 0.577080 0.480678
O O2 0.310874 0.749246 0.146681
O O3 0.139491 0.711957 0.411597
O O4 0.223921 0.450170 0.188653
O O5 0.615997 0.769353 0.551521
O O6 0.679387 0.915725 0.183330
O O7 0.506392 0.011261 0.382231
O O8 0.392046 0.055432 0.101339
O O9 0.533273 0.291498 0.147038
O O10 0.827977 0.711340 0.096065
O O11 0.876879 0.025594 0.103097
O O12 0.026022 0.397573 0.607179
O O13 0.992242 0.705234 0.719615
O O14 0.921791 0.447303 0.965854
O O15 0.724131 0.429337 0.158932
O O16 0.109640 0.975202 0.645560
#
# Coordination Sequence:
#
# PCOD9119680 Si02
#       8
#     2   2   2   2   2   2   2   2
#     4  12  25  50  74 106 152 192 245 310 374 436
#     4  12  27  49  74 110 147 196 248 309 370 449
#     4  12  28  46  79 110 149 197 253 307 378 444
#     4  12  28  46  77 108 152 195 248 305 374 443
#     4  12  27  47  74 110 151 196 249 304 373 447
#     4  12  26  49  76 109 147 195 246 313 376 442
#     4  12  28  46  76 108 153 194 247 310 371 445
#     4  12  27  45  76 111 149 199 250 300 372 446
#
# _framework density 24.386109999999999
#
# number of rings (size 3 to 8) (size 9 to 14) (size 15 to 20)
#    0.000    0.000    3.750    5.250   10.500    2.000 
#    0.000    0.000    0.000    0.000    0.000    0.000 
#    0.000    0.000    0.000    0.000    0.000    0.000 
#
# Total GULP energy -89688.991517 kJ/mol
# GULP energy per Si atom -5605.561970 kJ/mol
# Density = 2.433061 g / cm^3
# Si number density = 24.386110 Si / 1000 Ang^3
#
#
#
# Elastic Constant Matrix: (Units=GPa)
#
#
# Indices 1 2 3 4 5 6 
#
# 1 61.9041 3.3734 17.1925 0.0000 6.2863 0.0000
# 2 3.3734 78.0294 22.0356 0.0000 -3.6209 0.0000
# 3 17.1925 22.0356 80.2898 0.0000 3.0099 0.0000
# 4 0.0000 0.0000 0.0000 50.9952 0.0000 6.7483
# 5 6.2863 -3.6209 3.0099 0.0000 40.5594 0.0000
# 6 0.0000 0.0000 0.0000 6.7483 0.0000 49.0349
#
#
#
# Elastic Compliance Matrix: (Units=1/GPa)
#
#
# Indices 1 2 3 4 5 6 
#
# 1 0.017413 0.000177 -0.003687 0.000000 -0.002409 0.000000
# 2 0.000177 0.013989 -0.003934 0.000000 0.001513 0.000000
# 3 -0.003687 -0.003934 0.014356 0.000000 -0.000845 0.000000
# 4 0.000000 0.000000 0.000000 0.019973 0.000000 -0.002749
# 5 -0.002409 0.001513 -0.000845 0.000000 0.025226 0.000000
# 6 0.000000 0.000000 0.000000 -0.002749 0.000000 0.020772
#
#
# Mechanical properties :
#
#
# Convention : Reuss Voigt Hill
#
# Bulk Modulus (GPa) = 32.39431 33.93625 33.16528
# Shear Modulus (GPa) = 36.52090 39.95934 38.24012
#
# Velocity S-wave (km/s) = 3.87410 4.05237 3.96423
# Velocity P-wave (km/s) = 5.77272 5.98682 5.88074
#
# Compressibility (1/GPa) = 0.03086962
#
# Stress axis : x y z
#
# Youngs Moduli (GPa) = 57.42838 71.48366 69.65882
#
# Poissons Ratio (x) = -0.01262 0.25682
# Poissons Ratio (y) = -0.01014 0.27403
# Poissons Ratio (z) = 0.21173 0.28121
#
# Static dielectric constant tensor:
#      x y z
#    x 1.888890 0.000000 -0.024390 
#    y 0.000000 1.968390 0.000000 
#    z -0.024390 0.000000 1.879720 
# 
# From -- ./inp_files/2588.got.cif
#   From: 2010.05.17/outbox.cif.g08.bks.cpg/sg4_2_cif.got.tgz:2588.got - 2010.06.03 18:43:04.
