data_PCOD9119211
_publ_section_title
;
Structure prediction by ZEFSAII (Michael W. Deem and Ramdas Pophale) SiO2 
 PCOD9119211
Probable space group: P 21
;
_chemical_formula_sum "Si O2"
_cell_formula_units_Z 14
_cell_length_a 5.691239
_cell_length_b 18.638023
_cell_length_c 5.577492
_cell_angle_alpha 90.000000
_cell_angle_beta 104.357301
_cell_angle_gamma 90.000000
_cell_volume 573.146321
_symmetry_space_group_name_H-M "P 21"
_symmetry_group_IT_number 4
_symmetry_cell_setting 'monoclinic'
loop_
_space_group_symop_operation_xyz
x,y,z
-x,1/2+y,-z
loop_
_atom_site_type_symbol
_atom_site_label
_atom_site_fract_x
_atom_site_fract_y
_atom_site_fract_z
Si Si1 0.926217 0.246630 0.565957
Si Si2 0.493678 0.938992 0.152903
Si Si3 0.111349 0.463432 0.338925
Si Si4 0.266381 0.567217 0.026452
Si Si5 0.821797 0.535169 0.633179
Si Si6 0.880985 0.330403 0.051692
Si Si7 0.555469 0.667101 0.366714
O O1 0.894257 0.282953 0.296074
O O2 0.669980 0.206235 0.560781
O O3 0.188864 0.206690 0.613654
O O4 0.948165 0.295903 0.812396
O O5 0.673797 0.940400 0.425628
O O6 0.265285 0.987195 0.171328
O O7 0.390345 0.863063 0.048832
O O8 0.611130 0.990272 0.987059
O O9 0.141302 0.544514 0.243554
O O10 0.875360 0.476747 0.444151
O O11 0.057616 0.396955 0.154126
O O12 0.439590 0.634559 0.093234
O O13 0.066071 0.575474 0.773101
O O14 0.626578 0.594354 0.523167
#
# Coordination Sequence:
#
# PCOD9119211 Si02
#       7
#     2   2   2   2   2   2   2
#     4  12  34  54  82 110 168 230 268 324 382 494
#     4  11  25  43  82 116 153 197 259 340 414 463
#     4  11  24  47  76 121 152 199 256 344 410 467
#     4  11  25  43  82 116 153 197 259 340 414 463
#     4  11  24  47  76 121 152 199 256 344 410 467
#     4  12  29  55  76 116 161 216 276 324 400 484
#     4  12  29  55  76 116 161 216 276 324 400 484
#
# _framework density 24.426573999999999
#
# number of rings (size 3 to 8) (size 9 to 14) (size 15 to 20)
#    0.000    0.571    2.857    2.571   12.000    1.143 
#    0.000    0.000    0.000    0.000    0.000    0.000 
#    0.000    0.000    0.000    0.000    0.000    0.000 
#
# Total GULP energy -78201.914486 kJ/mol
# GULP energy per Si atom -5585.851035 kJ/mol
# Density = 2.437098 g / cm^3
# Si number density = 24.426574 Si / 1000 Ang^3
#
#
#
# Elastic Constant Matrix: (Units=GPa)
#
#
# Indices 1 2 3 4 5 6 
#
# 1 116.3810 48.8821 21.8443 0.0000 11.0879 0.0000
# 2 48.8821 83.6846 39.5295 0.0000 4.4457 0.0000
# 3 21.8443 39.5295 102.8246 0.0000 19.2658 0.0000
# 4 0.0000 0.0000 0.0000 38.8148 0.0000 11.4874
# 5 11.0879 4.4457 19.2658 0.0000 39.4007 0.0000
# 6 0.0000 0.0000 0.0000 11.4874 0.0000 55.4873
#
#
#
# Elastic Compliance Matrix: (Units=1/GPa)
#
#
# Indices 1 2 3 4 5 6 
#
# 1 0.011673 -0.007024 0.000757 0.000000 -0.002863 0.000000
# 2 -0.007024 0.018880 -0.006316 0.000000 0.002935 0.000000
# 3 0.000757 -0.006316 0.013099 0.000000 -0.005905 0.000000
# 4 0.000000 0.000000 0.000000 0.027445 0.000000 -0.005682
# 5 -0.002863 0.002935 -0.005905 0.000000 0.028742 0.000000
# 6 0.000000 0.000000 0.000000 -0.005682 0.000000 0.019198
#
#
# Mechanical properties :
#
#
# Convention : Reuss Voigt Hill
#
# Bulk Modulus (GPa) = 54.09462 58.15579 56.12521
# Shear Modulus (GPa) = 33.25214 39.58285 36.41750
#
# Velocity S-wave (km/s) = 3.69360 4.02989 3.86540
# Velocity P-wave (km/s) = 6.35485 6.74637 6.55353
#
# Compressibility (1/GPa) = 0.01848613
#
# Stress axis : x y z
#
# Youngs Moduli (GPa) = 85.66498 52.96617 76.34158
#
# Poissons Ratio (x) = 0.37204 -0.05777
# Poissons Ratio (y) = 0.60172 0.48216
# Poissons Ratio (z) = -0.06482 0.33452
#
# Static dielectric constant tensor:
#      x y z
#    x 2.014450 0.000000 0.004370 
#    y 0.000000 1.934170 0.000000 
#    z 0.004370 0.000000 1.957660 
# 
# From -- ./inp_files/372.got.cif
#   From: 2010.05.17/outbox.cif.g08.bks.cpg/sg4_1_cif.got.tgz:372.got - 2010.06.03 18:43:04.
