data_PCOD9119237
_publ_section_title
;
Structure prediction by ZEFSAII (Michael W. Deem and Ramdas Pophale) SiO2 
 PCOD9119237
Probable space group: P 21
;
_chemical_formula_sum "Si O2"
_cell_formula_units_Z 14
_cell_length_a 5.333013
_cell_length_b 9.214578
_cell_length_c 11.394797
_cell_angle_alpha 90.000000
_cell_angle_beta 88.062754
_cell_angle_gamma 90.000000
_cell_volume 559.636967
_symmetry_space_group_name_H-M "P 21"
_symmetry_group_IT_number 4
_symmetry_cell_setting 'monoclinic'
loop_
_space_group_symop_operation_xyz
x,y,z
-x,1/2+y,-z
loop_
_atom_site_type_symbol
_atom_site_label
_atom_site_fract_x
_atom_site_fract_y
_atom_site_fract_z
Si Si1 0.187382 0.267610 0.554545
Si Si2 0.110316 0.766402 0.668910
Si Si3 0.011119 0.956653 0.868954
Si Si4 0.490559 0.901542 0.004040
Si Si5 0.841508 0.771495 0.167287
Si Si6 0.495422 0.041447 0.408779
Si Si7 0.791466 0.529473 0.804616
O O1 0.160259 0.254152 0.693218
O O2 0.339969 0.129444 0.505754
O O3 0.328980 0.421477 0.536798
O O4 0.957359 0.274209 0.467353
O O5 0.080863 0.919262 0.732965
O O6 0.356728 0.667132 0.665479
O O7 0.914541 0.673336 0.750839
O O8 0.035007 0.128508 0.887218
O O9 0.241690 0.875969 0.931900
O O10 0.733731 0.916425 0.917851
O O11 0.576762 0.790627 0.105076
O O12 0.410809 0.039016 0.088322
O O13 0.994731 0.921534 0.150777
O O14 0.329781 0.963434 0.311889
#
# Coordination Sequence:
#
# PCOD9119237 Si02
#       7
#     2   2   2   2   2   2   2
#     4  11  27  46  78 111 153 202 261 323 390 468
#     4  11  28  49  74 114 158 204 254 326 397 462
#     4  12  33  47  82 117 159 201 268 322 383 471
#     4  12  28  51  77 114 157 205 256 323 389 456
#     4  12  28  50  81 116 153 207 263 325 388 466
#     4  11  26  45  78 109 156 205 253 322 390 466
#     4  11  24  48  78 107 152 206 255 313 399 457
#
# _framework density 25.016214999999999
#
# number of rings (size 3 to 8) (size 9 to 14) (size 15 to 20)
#    0.000    0.571    4.286    0.000   14.000    1.143 
#    0.000    0.000    0.000    0.000    0.000    0.000 
#    0.000    0.000    0.000    0.000    0.000    0.000 
#
# Total GULP energy -78266.522257 kJ/mol
# GULP energy per Si atom -5590.465875 kJ/mol
# Density = 2.495928 g / cm^3
# Si number density = 25.016215 Si / 1000 Ang^3
#
#
#
# Elastic Constant Matrix: (Units=GPa)
#
#
# Indices 1 2 3 4 5 6 
#
# 1 103.1966 8.7984 41.2325 0.0000 0.3512 0.0000
# 2 8.7984 65.7164 10.0804 0.0000 2.4112 0.0000
# 3 41.2325 10.0804 126.2129 0.0000 -16.3164 0.0000
# 4 0.0000 0.0000 0.0000 45.9882 0.0000 -2.7110
# 5 0.3512 2.4112 -16.3164 0.0000 25.6272 0.0000
# 6 0.0000 0.0000 0.0000 -2.7110 0.0000 28.4435
#
#
#
# Elastic Compliance Matrix: (Units=1/GPa)
#
#
# Indices 1 2 3 4 5 6 
#
# 1 0.011361 -0.000814 -0.003985 0.000000 -0.002616 0.000000
# 2 -0.000814 0.015604 -0.001274 0.000000 -0.002268 0.000000
# 3 -0.003985 -0.001274 0.010188 0.000000 0.006661 0.000000
# 4 0.000000 0.000000 0.000000 0.021868 0.000000 0.002084
# 5 -0.002616 -0.002268 0.006661 0.000000 0.043511 0.000000
# 6 0.000000 0.000000 0.000000 0.002084 0.000000 0.035356
#
#
# Mechanical properties :
#
#
# Convention : Reuss Voigt Hill
#
# Bulk Modulus (GPa) = 39.98621 46.14983 43.06802
# Shear Modulus (GPa) = 31.57212 35.67943 33.62578
#
# Velocity S-wave (km/s) = 3.55641 3.78067 3.67026
# Velocity P-wave (km/s) = 5.73436 6.12748 5.93418
#
# Compressibility (1/GPa) = 0.02500862
#
# Stress axis : x y z
#
# Youngs Moduli (GPa) = 88.02365 64.08441 98.15814
#
# Poissons Ratio (x) = 0.05215 0.39112
# Poissons Ratio (y) = 0.07163 0.12502
# Poissons Ratio (z) = 0.35074 0.08162
#
# Static dielectric constant tensor:
#      x y z
#    x 2.000550 0.000000 -0.007940 
#    y 0.000000 1.992350 0.000000 
#    z -0.007940 0.000000 1.974260 
# 
# From -- ./inp_files/10286.got.cif
#   From: 2010.05.17/outbox.cif.g08.bks.cpg/sg4_6_cif.got.tgz:10286.got - 2010.06.03 18:43:04.
