data_PCOD9119184
_publ_section_title
;
Structure prediction by ZEFSAII (Michael W. Deem and Ramdas Pophale) SiO2 
 PCOD9119184
Probable space group: P 21
;
_chemical_formula_sum "Si O2"
_cell_formula_units_Z 10
_cell_length_a 9.290187
_cell_length_b 7.500027
_cell_length_c 6.453520
_cell_angle_alpha 90.000000
_cell_angle_beta 91.377743
_cell_angle_gamma 90.000000
_cell_volume 449.529682
_symmetry_space_group_name_H-M "P 21"
_symmetry_group_IT_number 4
_symmetry_cell_setting 'monoclinic'
loop_
_space_group_symop_operation_xyz
x,y,z
-x,1/2+y,-z
loop_
_atom_site_type_symbol
_atom_site_label
_atom_site_fract_x
_atom_site_fract_y
_atom_site_fract_z
Si Si1 0.371172 0.154620 0.204132
Si Si2 0.051587 0.959001 0.787770
Si Si3 0.658591 0.295767 0.037810
Si Si4 0.204782 0.443557 0.946499
Si Si5 0.168536 0.283906 0.540077
O O1 0.523632 0.251141 0.178610
O O2 0.297888 0.186918 0.423215
O O3 0.266851 0.260285 0.040537
O O4 0.378414 0.949869 0.129102
O O5 0.201119 0.861313 0.834147
O O6 0.944254 0.857273 0.629562
O O7 0.085639 0.146131 0.683743
O O8 0.960883 0.973173 0.996631
O O9 0.706444 0.105038 0.947500
O O10 0.222734 0.435426 0.700126
#
# Coordination Sequence:
#
# PCOD9119184 Si02
#       5
#     2   2   2   2   2
#     4  11  26  46  69 103 143 193 236 285 355 430
#     4  11  25  41  74 103 145 184 237 301 352 419
#     4  12  24  47  73  99 148 190 229 299 353 419
#     4  11  24  47  69 103 144 182 240 295 358 410
#     4  11  25  45  69 112 138 189 244 288 360 428
#
# _framework density 22.245474000000002
#
# number of rings (size 3 to 8) (size 9 to 14) (size 15 to 20)
#    0.000    0.800    4.000    2.400    8.400    1.600 
#    0.000    0.000    0.000    0.000    0.000    0.000 
#    0.000    0.000    0.000    0.000    0.000    0.000 
#
# Total GULP energy -55919.524328 kJ/mol
# GULP energy per Si atom -5591.952433 kJ/mol
# Density = 2.219484 g / cm^3
# Si number density = 22.245474 Si / 1000 Ang^3
#
#
#
# Elastic Constant Matrix: (Units=GPa)
#
#
# Indices 1 2 3 4 5 6 
#
# 1 128.8794 27.8812 35.4630 0.0000 -30.2930 0.0000
# 2 27.8812 115.6916 28.6994 0.0000 -18.7617 0.0000
# 3 35.4630 28.6994 91.0799 0.0000 -23.8901 0.0000
# 4 0.0000 0.0000 0.0000 29.8924 0.0000 1.8032
# 5 -30.2930 -18.7617 -23.8901 0.0000 26.1689 0.0000
# 6 0.0000 0.0000 0.0000 1.8032 0.0000 41.9501
#
#
#
# Elastic Compliance Matrix: (Units=1/GPa)
#
#
# Indices 1 2 3 4 5 6 
#
# 1 0.010788 -0.000523 -0.001129 0.000000 0.011083 0.000000
# 2 -0.000523 0.009995 -0.001611 0.000000 0.005090 0.000000
# 3 -0.001129 -0.001611 0.014832 0.000000 0.011079 0.000000
# 4 0.000000 0.000000 0.000000 0.033540 0.000000 -0.001442
# 5 0.011083 0.005090 0.011079 0.000000 0.064807 0.000000
# 6 0.000000 0.000000 0.000000 -0.001442 0.000000 0.023900
#
#
# Mechanical properties :
#
#
# Convention : Reuss Voigt Hill
#
# Bulk Modulus (GPa) = 34.37468 57.74869 46.06169
# Shear Modulus (GPa) = 28.72194 35.84276 32.28235
#
# Velocity S-wave (km/s) = 3.59714 4.01838 3.81358
# Velocity P-wave (km/s) = 5.72176 6.89536 6.33579
#
# Compressibility (1/GPa) = 0.02909118
#
# Stress axis : x y z
#
# Youngs Moduli (GPa) = 92.69703 100.05343 67.41952
#
# Poissons Ratio (x) = 0.05228 0.07610
# Poissons Ratio (y) = 0.04844 0.10859
# Poissons Ratio (z) = 0.10463 0.16116
#
# Static dielectric constant tensor:
#      x y z
#    x 1.816280 0.000000 0.010060 
#    y 0.000000 1.884430 0.000000 
#    z 0.010060 0.000000 1.816160 
# 
# From -- ./inp_files/953.got.cif
#   From: 2010.05.17/outbox.cif.g08.bks.cpg/sg4_1_cif.got.tgz:953.got - 2010.06.03 18:43:04.
