data_PCOD9119104
_publ_section_title
;
Structure prediction by ZEFSAII (Michael W. Deem and Ramdas Pophale) SiO2 
 PCOD9119104
Probable space group: P 21
;
_chemical_formula_sum "Si O2"
_cell_formula_units_Z 14
_cell_length_a 8.368846
_cell_length_b 11.495228
_cell_length_c 7.900496
_cell_angle_alpha 90.000000
_cell_angle_beta 130.286533
_cell_angle_gamma 90.000000
_cell_volume 579.775399
_symmetry_space_group_name_H-M "P 21"
_symmetry_group_IT_number 4
_symmetry_cell_setting 'monoclinic'
loop_
_space_group_symop_operation_xyz
x,y,z
-x,1/2+y,-z
loop_
_atom_site_type_symbol
_atom_site_label
_atom_site_fract_x
_atom_site_fract_y
_atom_site_fract_z
Si Si1 0.979924 0.650550 0.496483
Si Si2 0.464074 0.282340 0.776419
Si Si3 0.913381 0.200210 0.087700
Si Si4 0.004769 0.960676 0.783935
Si Si5 0.396619 0.793468 0.755361
Si Si6 0.554787 0.954022 0.563019
Si Si7 0.297727 0.110148 0.177097
O O1 0.748443 0.707800 0.340499
O O2 0.044661 0.611379 0.730638
O O3 0.994840 0.540165 0.382198
O O4 0.160934 0.744325 0.569818
O O5 0.434442 0.371897 0.599811
O O6 0.671810 0.207116 0.874250
O O7 0.532577 0.333657 0.008320
O O8 0.976747 0.323277 0.217048
O O9 0.089605 0.184512 0.068000
O O10 0.797045 0.986594 0.750574
O O11 0.207427 0.997969 0.025788
O O12 0.458301 0.885048 0.653523
O O13 0.539904 0.680595 0.821140
O O14 0.416032 0.065719 0.423634
#
# Coordination Sequence:
#
# PCOD9119104 Si02
#       7
#     2   2   2   2   2   2   2
#     4  11  24  44  74 104 144 188 246 300 366 434
#     4  11  24  46  73 100 148 189 240 314 356 434
#     4  11  26  46  70 109 146 190 246 302 367 441
#     4  12  24  43  74 104 143 193 242 300 369 435
#     4  11  25  45  74 107 140 193 247 299 369 437
#     4  12  26  48  71 105 150 193 247 306 363 434
#     4  12  25  46  72 107 147 192 246 305 368 435
#
# _framework density 24.147283000000002
#
# number of rings (size 3 to 8) (size 9 to 14) (size 15 to 20)
#    0.000    0.571    7.143    0.000    2.000    4.571 
#    2.571    0.000    0.000    0.000    0.000    0.000 
#    0.000    0.000    0.000    0.000    0.000    0.000 
#
# Total GULP energy -78284.718755 kJ/mol
# GULP energy per Si atom -5591.765625 kJ/mol
# Density = 2.409232 g / cm^3
# Si number density = 24.147283 Si / 1000 Ang^3
#
#
#
# Elastic Constant Matrix: (Units=GPa)
#
#
# Indices 1 2 3 4 5 6 
#
# 1 149.7901 40.1843 36.1635 0.0000 37.0621 0.0000
# 2 40.1843 46.2323 20.5343 0.0000 2.2588 0.0000
# 3 36.1635 20.5343 99.3626 0.0000 19.2927 0.0000
# 4 0.0000 0.0000 0.0000 39.1509 0.0000 -6.3608
# 5 37.0621 2.2588 19.2927 0.0000 56.1180 0.0000
# 6 0.0000 0.0000 0.0000 -6.3608 0.0000 35.9800
#
#
#
# Elastic Compliance Matrix: (Units=1/GPa)
#
#
# Indices 1 2 3 4 5 6 
#
# 1 0.010833 -0.008707 -0.000881 0.000000 -0.006501 0.000000
# 2 -0.008707 0.030846 -0.004373 0.000000 0.006012 0.000000
# 3 -0.000881 -0.004373 0.011938 0.000000 -0.003346 0.000000
# 4 0.000000 0.000000 0.000000 0.026297 0.000000 0.004649
# 5 -0.006501 0.006012 -0.003346 0.000000 0.023022 0.000000
# 6 0.000000 0.000000 0.000000 0.004649 0.000000 0.028615
#
#
# Mechanical properties :
#
#
# Convention : Reuss Voigt Hill
#
# Bulk Modulus (GPa) = 38.91735 54.34990 46.63362
# Shear Modulus (GPa) = 29.75491 39.48332 34.61911
#
# Velocity S-wave (km/s) = 3.51412 4.04803 3.79048
# Velocity P-wave (km/s) = 5.71113 6.66373 6.20573
#
# Compressibility (1/GPa) = 0.02569548
#
# Stress axis : x y z
#
# Youngs Moduli (GPa) = 92.30959 32.41868 83.76390
#
# Poissons Ratio (x) = 0.28227 0.07380
# Poissons Ratio (y) = 0.80374 0.36631
# Poissons Ratio (z) = 0.08133 0.14177
#
# Static dielectric constant tensor:
#      x y z
#    x 1.969950 0.000000 -0.035680 
#    y 0.000000 1.919850 0.000000 
#    z -0.035680 0.000000 1.928810 
# 
# From -- ./inp_files/5883.got.cif
#   From: 2010.05.17/outbox.cif.g08.bks.cpg/sg4_3_cif.got.tgz:5883.got - 2010.06.03 18:43:04.
