data_PCOD9119341
_publ_section_title
;
Structure prediction by ZEFSAII (Michael W. Deem and Ramdas Pophale) SiO2 
 PCOD9119341
Probable space group: P 21
;
_chemical_formula_sum "Si O2"
_cell_formula_units_Z 16
_cell_length_a 9.637580
_cell_length_b 12.972464
_cell_length_c 5.217621
_cell_angle_alpha 90.000000
_cell_angle_beta 81.932413
_cell_angle_gamma 90.000000
_cell_volume 645.867554
_symmetry_space_group_name_H-M "P 21"
_symmetry_group_IT_number 4
_symmetry_cell_setting 'monoclinic'
loop_
_space_group_symop_operation_xyz
x,y,z
-x,1/2+y,-z
loop_
_atom_site_type_symbol
_atom_site_label
_atom_site_fract_x
_atom_site_fract_y
_atom_site_fract_z
Si Si1 0.155916 0.657900 0.440388
Si Si2 0.388969 0.927524 0.943438
Si Si3 0.401353 0.305286 0.825348
Si Si4 0.853848 0.290936 0.065475
Si Si5 0.523400 0.097357 0.616676
Si Si6 0.014039 0.955783 0.666918
Si Si7 0.259472 0.069460 0.338613
Si Si8 0.216184 0.301194 0.376055
O O1 0.110080 0.707635 0.724284
O O2 0.314368 0.620722 0.460245
O O3 0.072964 0.561309 0.338303
O O4 0.150313 0.743087 0.215694
O O5 0.468733 0.880859 0.166257
O O6 0.282097 0.016841 0.059475
O O7 0.302963 0.834793 0.841943
O O8 0.502477 0.986766 0.749755
O O9 0.463275 0.189817 0.808539
O O10 0.321497 0.318866 0.582083
O O11 0.293885 0.321283 0.086687
O O12 0.954661 0.389993 0.082843
O O13 0.414620 0.092956 0.408861
O O14 0.916517 0.873444 0.547172
O O15 0.165773 0.987197 0.516588
O O16 0.183708 0.179158 0.374608
#
# Coordination Sequence:
#
# PCOD9119341 Si02
#       8
#     2   2   2   2   2   2   2   2
#     4  12  30  51  80 117 157 205 269 322 390 471
#     4  12  25  45  78 111 155 203 255 321 400 452
#     4  11  26  45  76 110 154 196 258 325 382 459
#     4  12  29  50  78 115 158 208 257 321 389 474
#     4  11  25  46  77 111 151 199 260 325 385 457
#     4  12  28  52  79 113 159 212 258 320 391 473
#     4  11  26  47  76 110 156 202 258 317 392 462
#     4  11  27  50  72 113 154 205 257 315 389 464
#
# _framework density 24.772881000000002
#
# number of rings (size 3 to 8) (size 9 to 14) (size 15 to 20)
#    0.000    0.500    3.750    2.250    8.750    8.000 
#    0.000    0.000    0.000    0.000    0.000    0.000 
#    0.000    0.000    0.000    0.000    0.000    0.000 
#
# Total GULP energy -89496.619706 kJ/mol
# GULP energy per Si atom -5593.538732 kJ/mol
# Density = 2.471650 g / cm^3
# Si number density = 24.772881 Si / 1000 Ang^3
#
#
#
# Elastic Constant Matrix: (Units=GPa)
#
#
# Indices 1 2 3 4 5 6 
#
# 1 128.8095 40.6807 19.6167 0.0000 18.1045 0.0000
# 2 40.6807 121.4316 29.4722 0.0000 13.5464 0.0000
# 3 19.6167 29.4722 83.3728 0.0000 4.5083 0.0000
# 4 0.0000 0.0000 0.0000 36.3236 0.0000 11.2697
# 5 18.1045 13.5464 4.5083 0.0000 25.9776 0.0000
# 6 0.0000 0.0000 0.0000 11.2697 0.0000 61.3366
#
#
#
# Elastic Compliance Matrix: (Units=1/GPa)
#
#
# Indices 1 2 3 4 5 6 
#
# 1 0.009383 -0.002298 -0.001117 0.000000 -0.005147 0.000000
# 2 -0.002298 0.010045 -0.002840 0.000000 -0.003144 0.000000
# 3 -0.001117 -0.002840 0.013263 0.000000 -0.000042 0.000000
# 4 0.000000 0.000000 0.000000 0.029195 0.000000 -0.005364
# 5 -0.005147 -0.003144 -0.000042 0.000000 0.043728 0.000000
# 6 0.000000 0.000000 0.000000 -0.005364 0.000000 0.017289
#
#
# Mechanical properties :
#
#
# Convention : Reuss Voigt Hill
#
# Bulk Modulus (GPa) = 49.55237 57.01700 53.28468
# Shear Modulus (GPa) = 35.17648 40.98384 38.08016
#
# Velocity S-wave (km/s) = 3.77232 4.07182 3.92493
# Velocity P-wave (km/s) = 6.24660 6.72103 6.48815
#
# Compressibility (1/GPa) = 0.02018067
#
# Stress axis : x y z
#
# Youngs Moduli (GPa) = 106.57934 99.55230 75.39532
#
# Poissons Ratio (x) = 0.22877 0.08421
# Poissons Ratio (y) = 0.24492 0.21414
# Poissons Ratio (z) = 0.11905 0.28275
#
# Static dielectric constant tensor:
#      x y z
#    x 1.993380 0.000000 -0.012290 
#    y 0.000000 1.975000 0.000000 
#    z -0.012290 0.000000 1.929460 
# 
# From -- ./inp_files/1407.got.cif
#   From: 2010.05.17/outbox.cif.g08.bks.cpg/sg4_1_cif.got.tgz:1407.got - 2010.06.03 18:43:04.
