data_PCOD9119305
_publ_section_title
;
Structure prediction by ZEFSAII (Michael W. Deem and Ramdas Pophale) SiO2 
 PCOD9119305
Probable space group: P 21
;
_chemical_formula_sum "Si O2"
_cell_formula_units_Z 16
_cell_length_a 17.816314
_cell_length_b 5.198082
_cell_length_c 9.451104
_cell_angle_alpha 90.000000
_cell_angle_beta 138.627685
_cell_angle_gamma 90.000000
_cell_volume 578.511104
_symmetry_space_group_name_H-M "P 21"
_symmetry_group_IT_number 4
_symmetry_cell_setting 'monoclinic'
loop_
_space_group_symop_operation_xyz
x,y,z
-x,1/2+y,-z
loop_
_atom_site_type_symbol
_atom_site_label
_atom_site_fract_x
_atom_site_fract_y
_atom_site_fract_z
Si Si1 0.400844 0.545940 0.792991
Si Si2 0.192084 0.530855 0.038717
Si Si3 0.644312 0.359543 0.039534
Si Si4 0.998941 0.333139 0.407739
Si Si5 0.637031 0.342548 0.528685
Si Si6 0.930873 0.664313 0.922064
Si Si7 0.210020 0.155281 0.541888
Si Si8 0.615904 0.679843 0.739688
O O1 0.380402 0.581079 0.931530
O O2 0.366725 0.782248 0.642385
O O3 0.315818 0.320025 0.637253
O O4 0.530424 0.494554 0.940253
O O5 0.257706 0.693206 0.251873
O O6 0.124892 0.295968 0.019742
O O7 0.293172 0.397289 0.093299
O O8 0.105788 0.707120 0.827944
O O9 0.750741 0.461855 0.279226
O O10 0.647792 0.435618 0.882280
O O11 0.981036 0.620157 0.440096
O O12 0.114752 0.329656 0.482248
O O13 0.633588 0.620343 0.598605
O O14 0.515213 0.236472 0.415058
O O15 0.848081 0.556727 0.683108
O O16 0.007296 0.415214 0.057883
#
# Coordination Sequence:
#
# PCOD9119305 Si02
#       8
#     2   2   2   2   2   2   2   2
#     4  11  25  45  75 113 157 202 261 317 397 472
#     4  12  27  49  80 109 152 204 262 325 395 471
#     4  11  26  46  71 113 156 206 252 323 392 485
#     4  12  32  54  77 113 157 212 269 330 393 465
#     4  11  25  45  74 114 154 204 259 322 392 477
#     4  12  30  52  79 116 152 208 270 332 388 460
#     4  12  27  49  77 111 151 205 261 323 395 468
#     4  11  26  46  73 113 159 203 256 318 400 472
#
# _framework density 27.657205000000001
#
# number of rings (size 3 to 8) (size 9 to 14) (size 15 to 20)
#    0.000    0.500    5.000    0.750   12.250    2.000 
#    0.000    0.000    0.000    0.000    0.000    0.000 
#    0.000    0.000    0.000    0.000    0.000    0.000 
#
# Total GULP energy -89701.973498 kJ/mol
# GULP energy per Si atom -5606.373344 kJ/mol
# Density = 2.759426 g / cm^3
# Si number density = 27.657205 Si / 1000 Ang^3
#
#
#
# Elastic Constant Matrix: (Units=GPa)
#
#
# Indices 1 2 3 4 5 6 
#
# 1 96.9256 25.9628 37.3241 0.0000 -11.6391 0.0000
# 2 25.9628 90.9612 20.8853 0.0000 12.2315 0.0000
# 3 37.3241 20.8853 132.7824 0.0000 9.5260 0.0000
# 4 0.0000 0.0000 0.0000 53.9196 0.0000 -1.5895
# 5 -11.6391 12.2315 9.5260 0.0000 46.7424 0.0000
# 6 0.0000 0.0000 0.0000 -1.5895 0.0000 53.0669
#
#
#
# Elastic Compliance Matrix: (Units=1/GPa)
#
#
# Indices 1 2 3 4 5 6 
#
# 1 0.013238 -0.003641 -0.003504 0.000000 0.004963 0.000000
# 2 -0.003641 0.012742 -0.000686 0.000000 -0.004101 0.000000
# 3 -0.003504 -0.000686 0.008803 0.000000 -0.002487 0.000000
# 4 0.000000 0.000000 0.000000 0.018563 0.000000 0.000556
# 5 0.004963 -0.004101 -0.002487 0.000000 0.024210 0.000000
# 6 0.000000 0.000000 0.000000 0.000556 0.000000 0.018861
#
#
# Mechanical properties :
#
#
# Convention : Reuss Voigt Hill
#
# Bulk Modulus (GPa) = 52.30569 54.33486 53.32028
# Shear Modulus (GPa) = 42.21082 46.51224 44.36153
#
# Velocity S-wave (km/s) = 3.91092 4.10535 4.00931
# Velocity P-wave (km/s) = 6.27271 6.49310 6.38386
#
# Compressibility (1/GPa) = 0.01911838
#
# Stress axis : x y z
#
# Youngs Moduli (GPa) = 75.53968 78.47997 113.60301
#
# Poissons Ratio (x) = 0.28577 0.39812
# Poissons Ratio (y) = 0.27506 0.07798
# Poissons Ratio (z) = 0.26473 0.05387
#
# Static dielectric constant tensor:
#      x y z
#    x 2.154440 0.000000 0.020870 
#    y 0.000000 2.178480 0.000000 
#    z 0.020870 0.000000 2.120550 
# 
# From -- ./inp_files/9547.got.cif
#   From: 2010.05.17/outbox.cif.g08.bks.cpg/sg4_5_cif.got.tgz:9547.got - 2010.06.03 18:43:04.
