data_PCOD9119235
_publ_section_title
;
Structure prediction by ZEFSAII (Michael W. Deem and Ramdas Pophale) SiO2 
 PCOD9119235
Probable space group: P 21
;
_chemical_formula_sum "Si O2"
_cell_formula_units_Z 16
_cell_length_a 10.887211
_cell_length_b 8.618920
_cell_length_c 10.196670
_cell_angle_alpha 90.000000
_cell_angle_beta 135.956699
_cell_angle_gamma 90.000000
_cell_volume 665.179333
_symmetry_space_group_name_H-M "P 21"
_symmetry_group_IT_number 4
_symmetry_cell_setting 'monoclinic'
loop_
_space_group_symop_operation_xyz
x,y,z
-x,1/2+y,-z
loop_
_atom_site_type_symbol
_atom_site_label
_atom_site_fract_x
_atom_site_fract_y
_atom_site_fract_z
Si Si1 0.981310 0.003570 0.599137
Si Si2 0.478458 0.817622 0.481446
Si Si3 0.136338 0.003090 0.199317
Si Si4 0.062370 0.648096 0.709874
Si Si5 0.200118 0.310773 0.113883
Si Si6 0.570185 0.033613 0.351779
Si Si7 0.340647 0.127874 0.918415
Si Si8 0.390658 0.453626 0.006226
O O1 0.999552 0.048985 0.461480
O O2 0.779139 0.033084 0.483751
O O3 0.134067 0.102504 0.787946
O O4 0.030432 0.826354 0.659130
O O5 0.675709 0.868604 0.673616
O O6 0.456895 0.657510 0.547167
O O7 0.307697 0.917984 0.388310
O O8 0.492988 0.864620 0.338377
O O9 0.182164 0.127234 0.122554
O O10 0.042200 0.097760 0.241840
O O11 0.994329 0.880654 0.038440
O O12 0.266048 0.599859 0.883606
O O13 0.311750 0.377786 0.077489
O O14 0.466319 0.088391 0.140396
O O15 0.365002 0.305547 0.892309
O O16 0.411450 0.013297 0.858840
#
# Coordination Sequence:
#
# PCOD9119235 Si02
#       8
#     2   2   2   2   2   2   2   2
#     4  12  28  48  80 111 161 198 256 327 383 467
#     4  12  26  49  76 106 155 206 252 316 380 459
#     4  11  27  46  78 110 159 203 259 313 382 457
#     4  11  26  49  75 118 152 205 256 311 396 457
#     4  11  26  49  73 117 151 207 256 316 379 460
#     4  12  29  50  77 116 155 197 268 308 393 457
#     4  12  26  49  76 114 158 205 254 330 382 460
#     4  11  24  48  77 112 157 201 257 313 389 453
#
# _framework density 24.053664000000001
#
# number of rings (size 3 to 8) (size 9 to 14) (size 15 to 20)
#    0.000    0.500    3.750    2.250    8.750    3.000 
#    4.500    0.000    0.000    0.000    0.000    0.000 
#    0.000    0.000    0.000    0.000    0.000    0.000 
#
# Total GULP energy -89363.826770 kJ/mol
# GULP energy per Si atom -5585.239173 kJ/mol
# Density = 2.399892 g / cm^3
# Si number density = 24.053664 Si / 1000 Ang^3
#
#
#
# Elastic Constant Matrix: (Units=GPa)
#
#
# Indices 1 2 3 4 5 6 
#
# 1 103.8553 11.0763 16.1970 0.0000 15.1767 0.0000
# 2 11.0763 66.7773 4.4469 0.0000 8.4935 0.0000
# 3 16.1970 4.4469 60.0381 0.0000 19.2948 0.0000
# 4 0.0000 0.0000 0.0000 39.2271 0.0000 5.0435
# 5 15.1767 8.4935 19.2948 0.0000 37.6256 0.0000
# 6 0.0000 0.0000 0.0000 5.0435 0.0000 22.8193
#
#
#
# Elastic Compliance Matrix: (Units=1/GPa)
#
#
# Indices 1 2 3 4 5 6 
#
# 1 0.010480 -0.001234 -0.001756 0.000000 -0.003048 0.000000
# 2 -0.001234 0.015563 0.000179 0.000000 -0.003107 0.000000
# 3 -0.001756 0.000179 0.020237 0.000000 -0.009710 0.000000
# 4 0.000000 0.000000 0.000000 0.026238 0.000000 -0.005799
# 5 -0.003048 -0.003107 -0.009710 0.000000 0.033488 0.000000
# 6 0.000000 0.000000 0.000000 -0.005799 0.000000 0.045104
#
#
# Mechanical properties :
#
#
# Convention : Reuss Voigt Hill
#
# Bulk Modulus (GPa) = 24.59580 32.67904 28.63742
# Shear Modulus (GPa) = 29.36252 33.19775 31.28013
#
# Velocity S-wave (km/s) = 3.49765 3.71907 3.61006
# Velocity P-wave (km/s) = 5.15355 5.66192 5.41371
#
# Compressibility (1/GPa) = 0.04065734
#
# Stress axis : x y z
#
# Youngs Moduli (GPa) = 95.42293 64.25463 49.41411
#
# Poissons Ratio (x) = 0.07927 0.08679
# Poissons Ratio (y) = 0.11772 -0.00883
# Poissons Ratio (z) = 0.16759 -0.01148
#
# Static dielectric constant tensor:
#      x y z
#    x 2.004930 0.000000 -0.020090 
#    y 0.000000 1.938300 0.000000 
#    z -0.020090 0.000000 1.947010 
# 
# From -- ./inp_files/12051.got.cif
#   From: 2010.05.17/outbox.cif.g08.bks.cpg/sg4_7_cif.got.tgz:12051.got - 2010.06.03 18:43:04.
