data_PCOD9119732
_publ_section_title
;
Structure prediction by ZEFSAII (Michael W. Deem and Ramdas Pophale) SiO2 
 PCOD9119732
Probable space group: P 21
;
_chemical_formula_sum "Si O2"
_cell_formula_units_Z 16
_cell_length_a 9.113086
_cell_length_b 5.250372
_cell_length_c 24.850880
_cell_angle_alpha 90.000000
_cell_angle_beta 149.718088
_cell_angle_gamma 90.000000
_cell_volume 599.580575
_symmetry_space_group_name_H-M "P 21"
_symmetry_group_IT_number 4
_symmetry_cell_setting 'monoclinic'
loop_
_space_group_symop_operation_xyz
x,y,z
-x,1/2+y,-z
loop_
_atom_site_type_symbol
_atom_site_label
_atom_site_fract_x
_atom_site_fract_y
_atom_site_fract_z
Si Si1 0.747887 0.939410 0.272313
Si Si2 0.236224 0.711298 0.138722
Si Si3 0.604520 0.863844 0.903375
Si Si4 0.828251 0.157466 0.670912
Si Si5 0.788869 0.825630 0.555919
Si Si6 0.780951 0.873404 0.766485
Si Si7 0.640259 0.165866 0.065420
Si Si8 0.113319 0.959293 0.561649
O O1 0.527060 0.850343 0.250224
O O2 0.895334 0.797677 0.267366
O O3 0.533704 0.156731 0.180176
O O4 0.038148 0.061464 0.389949
O O5 0.376187 0.612179 0.127202
O O6 0.154887 0.498943 0.155617
O O7 0.937390 0.840008 0.028151
O O8 0.420296 0.811681 0.897978
O O9 0.533597 0.318817 0.569602
O O10 0.782056 0.921306 0.615021
O O11 0.850922 0.060416 0.738667
O O12 0.999531 0.000231 0.586646
O O13 0.435893 0.844547 0.657179
O O14 0.013167 0.645873 0.834228
O O15 0.506116 0.386456 0.983394
O O16 0.914108 0.727378 0.476982
#
# Coordination Sequence:
#
# PCOD9119732 Si02
#       8
#     2   2   2   2   2   2   2   2
#     4  12  26  48  82 108 158 206 268 324 400 466
#     4  12  27  49  80 116 157 207 269 326 398 478
#     4  12  27  49  80 114 155 213 263 331 393 483
#     4  12  27  49  80 116 157 207 269 326 398 478
#     4  12  27  49  80 114 155 213 263 331 393 483
#     4  12  28  50  80 118 160 214 262 336 404 468
#     4  12  30  51  81 119 162 209 268 332 395 474
#     4  12  30  51  81 119 162 209 268 332 395 474
#
# _framework density 26.685317999999999
#
# number of rings (size 3 to 8) (size 9 to 14) (size 15 to 20)
#    0.000    0.000    5.000    3.750   10.500    3.000 
#    0.000    0.000    0.000    0.000    0.000    0.000 
#    0.000    0.000    0.000    0.000    0.000    0.000 
#
# Total GULP energy -89531.538256 kJ/mol
# GULP energy per Si atom -5595.721141 kJ/mol
# Density = 2.662458 g / cm^3
# Si number density = 26.685318 Si / 1000 Ang^3
#
#
#
# Elastic Constant Matrix: (Units=GPa)
#
#
# Indices 1 2 3 4 5 6 
#
# 1 100.4481 -6.3840 22.2304 0.0000 18.2023 0.0000
# 2 -6.3840 50.3795 10.2161 0.0000 9.0295 0.0000
# 3 22.2304 10.2161 136.3783 0.0000 51.1023 0.0000
# 4 0.0000 0.0000 0.0000 38.1726 0.0000 6.4119
# 5 18.2023 9.0295 51.1023 0.0000 59.3474 0.0000
# 6 0.0000 0.0000 0.0000 6.4119 0.0000 38.4003
#
#
#
# Elastic Compliance Matrix: (Units=1/GPa)
#
#
# Indices 1 2 3 4 5 6 
#
# 1 0.010797 0.002057 -0.000821 0.000000 -0.002918 0.000000
# 2 0.002057 0.020825 -0.000696 0.000000 -0.003200 0.000000
# 3 -0.000821 -0.000696 0.010902 0.000000 -0.009030 0.000000
# 4 0.000000 0.000000 0.000000 0.026953 0.000000 -0.004500
# 5 -0.002918 -0.003200 -0.009030 0.000000 0.026007 0.000000
# 6 0.000000 0.000000 0.000000 -0.004500 0.000000 0.026793
#
#
# Mechanical properties :
#
#
# Convention : Reuss Voigt Hill
#
# Bulk Modulus (GPa) = 22.93359 37.70344 30.31851
# Shear Modulus (GPa) = 36.83789 44.59362 40.71576
#
# Velocity S-wave (km/s) = 3.71948 4.09233 3.91035
# Velocity P-wave (km/s) = 5.20180 6.04063 5.63684
#
# Compressibility (1/GPa) = 0.04360416
#
# Stress axis : x y z
#
# Youngs Moduli (GPa) = 92.62256 48.01971 91.72603
#
# Poissons Ratio (x) = -0.09880 0.07528
# Poissons Ratio (y) = -0.19057 0.06387
# Poissons Ratio (z) = 0.07602 0.03344
#
# Static dielectric constant tensor:
#      x y z
#    x 2.102770 0.000000 -0.099700 
#    y 0.000000 2.245640 0.000000 
#    z -0.099700 0.000000 1.840320 
# 
# From -- ./inp_files/9464.got.cif
#   From: 2010.05.17/outbox.cif.g08.bks.cpg/sg4_5_cif.got.tgz:9464.got - 2010.06.03 18:43:04.
