data_PCOD9119385
_publ_section_title
;
Structure prediction by ZEFSAII (Michael W. Deem and Ramdas Pophale) SiO2 
 PCOD9119385
Probable space group: P 21
;
_chemical_formula_sum "Si O2"
_cell_formula_units_Z 14
_cell_length_a 8.860205
_cell_length_b 9.529343
_cell_length_c 8.359935
_cell_angle_alpha 90.000000
_cell_angle_beta 128.821476
_cell_angle_gamma 90.000000
_cell_volume 549.926351
_symmetry_space_group_name_H-M "P 21"
_symmetry_group_IT_number 4
_symmetry_cell_setting 'monoclinic'
loop_
_space_group_symop_operation_xyz
x,y,z
-x,1/2+y,-z
loop_
_atom_site_type_symbol
_atom_site_label
_atom_site_fract_x
_atom_site_fract_y
_atom_site_fract_z
Si Si1 0.274899 0.851220 0.796137
Si Si2 0.961472 0.675156 0.116964
Si Si3 0.876235 0.815613 0.376239
Si Si4 0.676770 0.017857 0.719046
Si Si5 0.796592 0.409979 0.893811
Si Si6 0.599930 0.761657 0.481620
Si Si7 0.634883 0.050027 0.050314
O O1 0.103297 0.843497 0.555255
O O2 0.434482 0.970535 0.883348
O O3 0.382651 0.702286 0.884624
O O4 0.175836 0.875095 0.901459
O O5 0.152171 0.579991 0.274846
O O6 0.858876 0.711601 0.214312
O O7 0.049837 0.818701 0.103965
O O8 0.835269 0.576650 0.915848
O O9 0.770560 0.759838 0.464814
O O10 0.766552 0.956552 0.252302
O O11 0.652840 0.854172 0.670698
O O12 0.486068 0.107646 0.552796
O O13 0.727835 0.056129 0.935504
O O14 0.582672 0.352391 0.710990
#
# Coordination Sequence:
#
# PCOD9119385 Si02
#       7
#     2   2   2   2   2   2   2
#     4  12  29  49  81 116 156 205 262 326 393 467
#     4  11  26  48  72 111 153 209 255 324 388 463
#     4  12  29  46  83 116 156 201 267 322 394 466
#     4  11  26  50  73 110 156 205 261 316 391 465
#     4  11  25  49  74 110 160 200 262 320 389 465
#     4  11  26  49  76 113 151 205 261 323 391 465
#     4  12  27  53  77 118 158 207 260 325 394 465
#
# _framework density 25.457953
#
# number of rings (size 3 to 8) (size 9 to 14) (size 15 to 20)
#    0.000    0.571    4.286    1.714   12.000    3.429 
#    0.000    0.000    0.000    0.000    0.000    0.000 
#    0.000    0.000    0.000    0.000    0.000    0.000 
#
# Total GULP energy -78496.455185 kJ/mol
# GULP energy per Si atom -5606.889656 kJ/mol
# Density = 2.540001 g / cm^3
# Si number density = 25.457953 Si / 1000 Ang^3
#
#
#
# Elastic Constant Matrix: (Units=GPa)
#
#
# Indices 1 2 3 4 5 6 
#
# 1 101.2305 47.3121 17.9930 0.0000 20.4329 0.0000
# 2 47.3121 144.2101 15.1636 0.0000 16.6696 0.0000
# 3 17.9930 15.1636 65.9711 0.0000 25.3660 0.0000
# 4 0.0000 0.0000 0.0000 36.4126 0.0000 0.5135
# 5 20.4329 16.6696 25.3660 0.0000 38.7546 0.0000
# 6 0.0000 0.0000 0.0000 0.5135 0.0000 34.4072
#
#
#
# Elastic Compliance Matrix: (Units=1/GPa)
#
#
# Indices 1 2 3 4 5 6 
#
# 1 0.012596 -0.003514 -0.000876 0.000000 -0.004556 0.000000
# 2 -0.003514 0.008297 -0.000386 0.000000 -0.001464 0.000000
# 3 -0.000876 -0.000386 0.020371 0.000000 -0.012706 0.000000
# 4 0.000000 0.000000 0.000000 0.027469 0.000000 -0.000410
# 5 -0.004556 -0.001464 -0.012706 0.000000 0.037151 0.000000
# 6 0.000000 0.000000 0.000000 -0.000410 0.000000 0.029070
#
#
# Mechanical properties :
#
#
# Convention : Reuss Voigt Hill
#
# Bulk Modulus (GPa) = 31.53288 52.48324 42.00806
# Shear Modulus (GPa) = 32.24224 37.31107 34.77665
#
# Velocity S-wave (km/s) = 3.56264 3.83246 3.70001
# Velocity P-wave (km/s) = 5.41630 6.34382 5.89832
#
# Compressibility (1/GPa) = 0.03171293
#
# Stress axis : x y z
#
# Youngs Moduli (GPa) = 79.39025 120.52763 49.08917
#
# Poissons Ratio (x) = 0.42350 0.04300
# Poissons Ratio (y) = 0.27895 0.01895
# Poissons Ratio (z) = 0.06953 0.04652
#
# Static dielectric constant tensor:
#      x y z
#    x 1.994830 0.000000 0.035300 
#    y 0.000000 2.035510 0.000000 
#    z 0.035300 0.000000 2.012590 
# 
# From -- ./inp_files/5841.got.cif
#   From: 2010.05.17/outbox.cif.g08.bks.cpg/sg4_3_cif.got.tgz:5841.got - 2010.06.03 18:43:04.
