data_PCOD9119160
_publ_section_title
;
Structure prediction by ZEFSAII (Michael W. Deem and Ramdas Pophale) SiO2 
 PCOD9119160
Probable space group: P 21
;
_chemical_formula_sum "Si O2"
_cell_formula_units_Z 16
_cell_length_a 6.748434
_cell_length_b 10.321420
_cell_length_c 14.980021
_cell_angle_alpha 90.000000
_cell_angle_beta 137.675302
_cell_angle_gamma 90.000000
_cell_volume 702.560399
_symmetry_space_group_name_H-M "P 21"
_symmetry_group_IT_number 4
_symmetry_cell_setting 'monoclinic'
loop_
_space_group_symop_operation_xyz
x,y,z
-x,1/2+y,-z
loop_
_atom_site_type_symbol
_atom_site_label
_atom_site_fract_x
_atom_site_fract_y
_atom_site_fract_z
Si Si1 0.297862 0.782560 0.194992
Si Si2 0.334669 0.352701 0.270598
Si Si3 0.248360 0.058180 0.655661
Si Si4 0.441234 0.468508 0.857087
Si Si5 0.614638 0.145428 0.481688
Si Si6 0.761118 0.403718 0.639798
Si Si7 0.729171 0.445339 0.140639
Si Si8 0.322926 0.233736 0.080696
O O1 0.534951 0.673887 0.297059
O O2 0.399507 0.848427 0.136873
O O3 0.288022 0.886387 0.270850
O O4 0.972582 0.723399 0.075550
O O5 0.637410 0.433595 0.360686
O O6 0.395525 0.220346 0.342597
O O7 0.244694 0.320859 0.139695
O O8 0.068390 0.429019 0.227184
O O9 0.910990 0.097008 0.531897
O O10 0.290476 0.029241 0.775849
O O11 0.554018 0.597334 0.846685
O O12 0.095640 0.445079 0.734853
O O13 0.542917 0.490428 0.993222
O O14 0.701634 0.261571 0.578345
O O15 0.454275 0.017542 0.465551
O O16 0.582975 0.307124 0.115700
#
# Coordination Sequence:
#
# PCOD9119160 Si02
#       8
#     2   2   2   2   2   2   2   2
#     4  12  26  47  73 111 146 192 247 316 385 447
#     4  11  25  48  72 105 148 194 243 308 377 450
#     4  11  28  44  73 106 144 198 250 302 380 446
#     4  12  25  44  77 107 148 190 249 312 386 454
#     4  12  28  50  77 105 154 207 256 310 373 458
#     4  12  29  51  74 113 153 204 260 315 379 455
#     4  11  24  46  71 108 144 188 239 307 384 449
#     4  11  25  42  75 109 143 187 244 316 380 453
#
# _framework density 22.773844
#
# number of rings (size 3 to 8) (size 9 to 14) (size 15 to 20)
#    0.000    0.500    3.750    3.000   10.500    3.000 
#    0.000    0.000    0.000    0.000    0.000    0.000 
#    0.000    0.000    0.000    0.000    0.000    0.000 
#
# Total GULP energy -89554.921651 kJ/mol
# GULP energy per Si atom -5597.182603 kJ/mol
# Density = 2.272201 g / cm^3
# Si number density = 22.773844 Si / 1000 Ang^3
#
#
#
# Elastic Constant Matrix: (Units=GPa)
#
#
# Indices 1 2 3 4 5 6 
#
# 1 82.6738 30.2098 30.4444 0.0000 16.0779 0.0000
# 2 30.2098 94.8742 19.0188 0.0000 30.1539 0.0000
# 3 30.4444 19.0188 90.2424 0.0000 31.6983 0.0000
# 4 0.0000 0.0000 0.0000 33.2315 0.0000 -2.6110
# 5 16.0779 30.1539 31.6983 0.0000 36.4401 0.0000
# 6 0.0000 0.0000 0.0000 -2.6110 0.0000 34.9610
#
#
#
# Elastic Compliance Matrix: (Units=1/GPa)
#
#
# Indices 1 2 3 4 5 6 
#
# 1 0.015119 -0.004114 -0.004444 0.000000 0.000599 0.000000
# 2 -0.004114 0.015593 0.002875 0.000000 -0.013588 0.000000
# 3 -0.004444 0.002875 0.017455 0.000000 -0.015601 0.000000
# 4 0.000000 0.000000 0.000000 0.030270 0.000000 0.002261
# 5 0.000599 -0.013588 -0.015601 0.000000 0.051993 0.000000
# 6 0.000000 0.000000 0.000000 0.002261 0.000000 0.028772
#
#
# Mechanical properties :
#
#
# Convention : Reuss Voigt Hill
#
# Bulk Modulus (GPa) = 27.17380 47.45960 37.31670
# Shear Modulus (GPa) = 27.34711 33.46766 30.40739
#
# Velocity S-wave (km/s) = 3.46903 3.83765 3.65799
# Velocity P-wave (km/s) = 5.29184 6.36565 5.85342
#
# Compressibility (1/GPa) = 0.03680015
#
# Stress axis : x y z
#
# Youngs Moduli (GPa) = 66.14228 64.13253 57.29083
#
# Poissons Ratio (x) = 0.26382 0.25460
# Poissons Ratio (y) = 0.27209 -0.16469
# Poissons Ratio (z) = 0.29394 -0.18436
#
# Static dielectric constant tensor:
#      x y z
#    x 1.819640 0.000000 -0.046750 
#    y 0.000000 1.859010 0.000000 
#    z -0.046750 0.000000 1.831960 
# 
# From -- ./inp_files/13430.got.cif
#   From: 2010.05.17/outbox.cif.g08.bks.cpg/sg4_7_cif.got.tgz:13430.got - 2010.06.03 18:43:04.
