data_PCOD9119749
_publ_section_title
;
Structure prediction by ZEFSAII (Michael W. Deem and Ramdas Pophale) SiO2 
 PCOD9119749
Probable space group: P 21
;
_chemical_formula_sum "Si O2"
_cell_formula_units_Z 8
_cell_length_a 9.483791
_cell_length_b 4.973563
_cell_length_c 6.985011
_cell_angle_alpha 90.000000
_cell_angle_beta 68.389967
_cell_angle_gamma 90.000000
_cell_volume 306.312792
_symmetry_space_group_name_H-M "P 21"
_symmetry_group_IT_number 4
_symmetry_cell_setting 'monoclinic'
loop_
_space_group_symop_operation_xyz
x,y,z
-x,1/2+y,-z
loop_
_atom_site_type_symbol
_atom_site_label
_atom_site_fract_x
_atom_site_fract_y
_atom_site_fract_z
Si Si1 0.808593 0.020740 0.595721
Si Si2 0.999986 0.270761 0.854559
Si Si3 0.468817 0.208303 0.120799
Si Si4 0.531184 0.333092 0.589606
O O1 0.693711 0.252775 0.586987
O O2 0.892421 0.918169 0.361374
O O3 0.693701 0.788696 0.719295
O O4 0.892369 0.123324 0.746288
O O5 0.954550 0.520767 0.022727
O O6 0.562899 0.020703 0.218558
O O7 0.549087 0.483568 0.030940
O O8 0.549068 0.557789 0.419946
#
# Coordination Sequence:
#
# PCOD9119749 Si02
#       4
#     2   2   2   2
#     4  12  30  58  90 126 186 216 294 378 412 530
#     4  12  32  56  92 128 168 240 296 354 440 512
#     4  12  26  50  80 120 168 224 273 345 436 511
#     4  12  26  50  80 120 168 224 273 345 436 511
#
# _framework density 26.117094000000002
#
# number of rings (size 3 to 8) (size 9 to 14) (size 15 to 20)
#    0.000    0.000    5.000    1.500   10.500    2.000 
#   13.500    0.000    0.000    0.000    0.000    0.000 
#    0.000    0.000    0.000    0.000    0.000    0.000 
#
# Total GULP energy -44534.638227 kJ/mol
# GULP energy per Si atom -5566.829778 kJ/mol
# Density = 2.605765 g / cm^3
# Si number density = 26.117094 Si / 1000 Ang^3
#
#
#
# Elastic Constant Matrix: (Units=GPa)
#
#
# Indices 1 2 3 4 5 6 
#
# 1 106.9786 68.4416 64.9977 0.0000 32.4912 0.0000
# 2 68.4416 267.5955 91.9635 0.0000 17.4116 0.0000
# 3 64.9977 91.9635 195.2026 0.0000 32.6929 0.0000
# 4 0.0000 0.0000 0.0000 79.7671 0.0000 24.6670
# 5 32.4912 17.4116 32.6929 0.0000 43.1366 0.0000
# 6 0.0000 0.0000 0.0000 24.6670 0.0000 46.3589
#
#
#
# Elastic Compliance Matrix: (Units=1/GPa)
#
#
# Indices 1 2 3 4 5 6 
#
# 1 0.014938 -0.002443 -0.002409 0.000000 -0.008439 0.000000
# 2 -0.002443 0.004861 -0.001668 0.000000 0.001142 0.000000
# 3 -0.002409 -0.001668 0.007209 0.000000 -0.002976 0.000000
# 4 0.000000 0.000000 0.000000 0.015006 0.000000 -0.007984
# 5 -0.008439 0.001142 -0.002976 0.000000 0.031333 0.000000
# 6 0.000000 0.000000 0.000000 -0.007984 0.000000 0.025819
#
#
# Mechanical properties :
#
#
# Convention : Reuss Voigt Hill
#
# Bulk Modulus (GPa) = 71.59855 113.39804 92.49830
# Shear Modulus (GPa) = 42.78543 56.81078 49.79810
#
# Velocity S-wave (km/s) = 4.05188 4.66900 4.37134
# Velocity P-wave (km/s) = 7.02597 8.51936 7.80845
#
# Compressibility (1/GPa) = 0.01396676
#
# Stress axis : x y z
#
# Youngs Moduli (GPa) = 66.94378 205.73028 138.71082
#
# Poissons Ratio (x) = 0.50269 0.33421
# Poissons Ratio (y) = 0.16357 0.23133
# Poissons Ratio (z) = 0.16129 0.34310
#
# Static dielectric constant tensor:
#      x y z
#    x 2.211320 0.000000 0.304730 
#    y 0.000000 2.049740 0.000000 
#    z 0.304730 0.000000 2.623970 
# 
# From -- ./inp_files/8879.got.cif
#   From: 2010.05.17/outbox.cif.g08.bks.cpg/sg4_5_cif.got.tgz:8879.got - 2010.06.03 18:43:04.
