data_PCOD9119366
_publ_section_title
;
Structure prediction by ZEFSAII (Michael W. Deem and Ramdas Pophale) SiO2 
 PCOD9119366
Probable space group: P 21
;
_chemical_formula_sum "Si O2"
_cell_formula_units_Z 14
_cell_length_a 17.368854
_cell_length_b 4.808547
_cell_length_c 10.601384
_cell_angle_alpha 90.000000
_cell_angle_beta 36.967925
_cell_angle_gamma 90.000000
_cell_volume 532.460990
_symmetry_space_group_name_H-M "P 21"
_symmetry_group_IT_number 4
_symmetry_cell_setting 'monoclinic'
loop_
_space_group_symop_operation_xyz
x,y,z
-x,1/2+y,-z
loop_
_atom_site_type_symbol
_atom_site_label
_atom_site_fract_x
_atom_site_fract_y
_atom_site_fract_z
Si Si1 0.795842 0.023330 0.064029
Si Si2 0.796161 0.225333 0.533152
Si Si3 0.528267 0.201896 0.290862
Si Si4 0.013038 0.115286 0.575267
Si Si5 0.018173 0.143645 0.067461
Si Si6 0.565262 0.955667 0.965694
Si Si7 0.644995 0.244155 0.481494
O O1 0.662337 0.112802 0.175686
O O2 0.763277 0.133483 0.246080
O O3 0.905325 0.132290 0.825527
O O4 0.863289 0.469528 0.523846
O O5 0.581240 0.512288 0.502121
O O6 0.706083 0.033065 0.735078
O O7 0.702611 0.321308 0.542318
O O8 0.910625 0.066989 0.310629
O O9 0.466334 0.508047 0.367285
O O10 0.543312 0.077953 0.131653
O O11 0.033021 0.399804 0.473761
O O12 0.147972 0.216062 0.974996
O O13 0.977136 0.432314 0.054172
O O14 0.466512 0.133105 0.008349
#
# Coordination Sequence:
#
# PCOD9119366 Si02
#       7
#     2   2   2   2   2   2   2
#     4  11  27  48  77 108 151 194 248 309 384 443
#     4  11  25  47  77 107 149 195 255 306 372 447
#     4  12  26  46  71 109 149 193 245 305 376 444
#     4  11  28  51  76 110 150 201 252 316 370 442
#     4  11  26  45  72 105 144 193 243 310 368 440
#     4  12  24  43  69 102 141 192 239 296 362 436
#     4  12  26  46  74 111 148 194 244 310 370 452
#
# _framework density 26.293005000000001
#
# number of rings (size 3 to 8) (size 9 to 14) (size 15 to 20)
#    0.000    0.571    4.286    1.714    2.000   13.714 
#    0.000    0.000    0.000    0.000    0.000    0.000 
#    0.000    0.000    0.000    0.000    0.000    0.000 
#
# Total GULP energy -78401.138233 kJ/mol
# GULP energy per Si atom -5600.081302 kJ/mol
# Density = 2.623316 g / cm^3
# Si number density = 26.293005 Si / 1000 Ang^3
#
#
#
# Elastic Constant Matrix: (Units=GPa)
#
#
# Indices 1 2 3 4 5 6 
#
# 1 152.2594 32.9153 39.0941 0.0000 -22.9051 0.0000
# 2 32.9153 112.2810 25.5214 0.0000 -13.7332 0.0000
# 3 39.0941 25.5214 177.5077 0.0000 -9.9770 0.0000
# 4 0.0000 0.0000 0.0000 36.1793 0.0000 -8.4697
# 5 -22.9051 -13.7332 -9.9770 0.0000 58.5437 0.0000
# 6 0.0000 0.0000 0.0000 -8.4697 0.0000 36.8706
#
#
#
# Elastic Compliance Matrix: (Units=1/GPa)
#
#
# Indices 1 2 3 4 5 6 
#
# 1 0.007616 -0.001645 -0.001307 0.000000 0.002371 0.000000
# 2 -0.001645 0.009789 -0.000961 0.000000 0.001489 0.000000
# 3 -0.001307 -0.000961 0.006077 0.000000 0.000298 0.000000
# 4 0.000000 0.000000 0.000000 0.029211 0.000000 0.006710
# 5 0.002371 0.001489 0.000298 0.000000 0.018409 0.000000
# 6 0.000000 0.000000 0.000000 0.006710 0.000000 0.028663
#
#
# Mechanical properties :
#
#
# Convention : Reuss Voigt Hill
#
# Bulk Modulus (GPa) = 63.88565 70.78998 67.33781
# Shear Modulus (GPa) = 44.32193 49.28655 46.80424
#
# Velocity S-wave (km/s) = 4.11017 4.33426 4.22370
# Velocity P-wave (km/s) = 6.84653 7.21316 7.03224
#
# Compressibility (1/GPa) = 0.01565297
#
# Stress axis : x y z
#
# Youngs Moduli (GPa) = 131.30584 102.15350 164.56798
#
# Poissons Ratio (x) = 0.16808 0.21517
# Poissons Ratio (y) = 0.21605 0.15821
# Poissons Ratio (z) = 0.17168 0.09821
#
# Static dielectric constant tensor:
#      x y z
#    x 2.153280 0.000000 0.002010 
#    y 0.000000 2.063440 0.000000 
#    z 0.002010 0.000000 2.026400 
# 
# From -- ./inp_files/11776.got.cif
#   From: 2010.05.17/outbox.cif.g08.bks.cpg/sg4_6_cif.got.tgz:11776.got - 2010.06.03 18:43:04.
