data_PCOD9119743
_publ_section_title
;
Structure prediction by ZEFSAII (Michael W. Deem and Ramdas Pophale) SiO2 
 PCOD9119743
Probable space group: P 21
;
_chemical_formula_sum "Si O2"
_cell_formula_units_Z 14
_cell_length_a 9.367246
_cell_length_b 5.284810
_cell_length_c 16.575713
_cell_angle_alpha 90.000000
_cell_angle_beta 135.397368
_cell_angle_gamma 90.000000
_cell_volume 576.189767
_symmetry_space_group_name_H-M "P 21"
_symmetry_group_IT_number 4
_symmetry_cell_setting 'monoclinic'
loop_
_space_group_symop_operation_xyz
x,y,z
-x,1/2+y,-z
loop_
_atom_site_type_symbol
_atom_site_label
_atom_site_fract_x
_atom_site_fract_y
_atom_site_fract_z
Si Si1 0.489759 0.437220 0.785805
Si Si2 0.093258 0.776847 0.003624
Si Si3 0.033922 0.412272 0.564990
Si Si4 0.997227 0.823243 0.783517
Si Si5 0.582167 0.142336 0.076667
Si Si6 0.800149 0.202941 0.608625
Si Si7 0.589283 0.535834 0.644117
O O1 0.667921 0.245452 0.882694
O O2 0.261460 0.340151 0.683616
O O3 0.483320 0.634432 0.856644
O O4 0.552368 0.540305 0.723853
O O5 0.988451 0.504072 0.972262
O O6 0.052959 0.885812 0.898058
O O7 0.035797 0.683668 0.521807
O O8 0.883696 0.416267 0.581314
O O9 0.764686 0.733148 0.692109
O O10 0.173345 0.627675 0.830953
O O11 0.991550 0.038291 0.713696
O O12 0.511774 0.400618 0.006220
O O13 0.692624 0.288166 0.647978
O O14 0.623868 0.070261 0.486259
#
# Coordination Sequence:
#
# PCOD9119743 Si02
#       7
#     2   2   2   2   2   2   2
#     4  12  28  50  85 117 162 207 270 328 395 482
#     4  12  28  49  78 117 155 204 265 333 394 468
#     4  12  31  52  81 118 161 211 265 326 398 472
#     4  12  28  48  80 111 157 211 263 328 401 472
#     4  12  31  52  79 119 162 212 263 325 407 477
#     4  12  28  48  79 114 161 211 266 324 399 473
#     4  12  26  49  80 114 156 210 268 326 394 468
#
# _framework density 24.297554000000002
#
# number of rings (size 3 to 8) (size 9 to 14) (size 15 to 20)
#    0.000    0.000    5.714    1.714   12.000    2.286 
#    2.571    0.000    0.000    0.000    0.000    0.000 
#    0.000    0.000    0.000    0.000    0.000    0.000 
#
# Total GULP energy -78350.933974 kJ/mol
# GULP energy per Si atom -5596.495284 kJ/mol
# Density = 2.424225 g / cm^3
# Si number density = 24.297554 Si / 1000 Ang^3
#
#
#
# Elastic Constant Matrix: (Units=GPa)
#
#
# Indices 1 2 3 4 5 6 
#
# 1 131.8069 24.7627 30.4159 0.0000 -18.7086 0.0000
# 2 24.7627 81.5348 30.9735 0.0000 -9.3772 0.0000
# 3 30.4159 30.9735 120.7063 0.0000 -8.5280 0.0000
# 4 0.0000 0.0000 0.0000 26.2557 0.0000 9.6778
# 5 -18.7086 -9.3772 -8.5280 0.0000 56.1619 0.0000
# 6 0.0000 0.0000 0.0000 9.6778 0.0000 26.7102
#
#
#
# Elastic Compliance Matrix: (Units=1/GPa)
#
#
# Indices 1 2 3 4 5 6 
#
# 1 0.008607 -0.001755 -0.001553 0.000000 0.002338 0.000000
# 2 -0.001755 0.014121 -0.003089 0.000000 0.001304 0.000000
# 3 -0.001553 -0.003089 0.009498 0.000000 0.000409 0.000000
# 4 0.000000 0.000000 0.000000 0.043958 0.000000 -0.015927
# 5 0.002338 0.001304 0.000409 0.000000 0.018864 0.000000
# 6 0.000000 0.000000 0.000000 -0.015927 0.000000 0.043210
#
#
# Mechanical properties :
#
#
# Convention : Reuss Voigt Hill
#
# Bulk Modulus (GPa) = 51.46470 56.26136 53.86303
# Shear Modulus (GPa) = 31.74017 38.35196 35.04606
#
# Velocity S-wave (km/s) = 3.61821 3.97725 3.80197
# Velocity P-wave (km/s) = 6.21951 6.65559 6.44124
#
# Compressibility (1/GPa) = 0.01943079
#
# Stress axis : x y z
#
# Youngs Moduli (GPa) = 116.18602 70.81547 105.29034
#
# Poissons Ratio (x) = 0.12428 0.16354
# Poissons Ratio (y) = 0.20391 0.32526
# Poissons Ratio (z) = 0.18047 0.21876
#
# Static dielectric constant tensor:
#      x y z
#    x 1.959500 0.000000 0.002640 
#    y 0.000000 1.979290 0.000000 
#    z 0.002640 0.000000 1.903230 
# 
# From -- ./inp_files/7062.got.cif
#   From: 2010.05.17/outbox.cif.g08.bks.cpg/sg4_4_cif.got.tgz:7062.got - 2010.06.03 18:43:04.
