data_PCOD9119108
_publ_section_title
;
Structure prediction by ZEFSAII (Michael W. Deem and Ramdas Pophale) SiO2 
 PCOD9119108
Probable space group: P 21
;
_chemical_formula_sum "Si O2"
_cell_formula_units_Z 14
_cell_length_a 5.192696
_cell_length_b 12.987924
_cell_length_c 9.378794
_cell_angle_alpha 90.000000
_cell_angle_beta 79.007457
_cell_angle_gamma 90.000000
_cell_volume 620.922208
_symmetry_space_group_name_H-M "P 21"
_symmetry_group_IT_number 4
_symmetry_cell_setting 'monoclinic'
loop_
_space_group_symop_operation_xyz
x,y,z
-x,1/2+y,-z
loop_
_atom_site_type_symbol
_atom_site_label
_atom_site_fract_x
_atom_site_fract_y
_atom_site_fract_z
Si Si1 0.967037 0.237830 0.279054
Si Si2 0.452987 0.101064 0.313510
Si Si3 0.208955 0.400228 0.438929
Si Si4 0.874578 0.576666 0.366530
Si Si5 0.681957 0.406855 0.181285
Si Si6 0.545755 0.397909 0.875240
Si Si7 0.114667 0.308393 0.741138
O O1 0.725707 0.159628 0.308586
O O2 0.900771 0.316831 0.157940
O O3 0.234256 0.173144 0.259089
O O4 0.988430 0.318974 0.407896
O O5 0.333857 0.073914 0.481583
O O6 0.489521 0.003260 0.208460
O O7 0.463653 0.375003 0.320219
O O8 0.235701 0.377729 0.600956
O O9 0.119386 0.514641 0.407412
O O10 0.796962 0.511028 0.235454
O O11 0.912588 0.693046 0.314562
O O12 0.549645 0.418620 0.043060
O O13 0.319279 0.320473 0.848085
O O14 0.830582 0.352555 0.807466
#
# Coordination Sequence:
#
# PCOD9119108 Si02
#       7
#     2   2   2   2   2   2   2
#     4  11  24  44  75 102 140 185 240 292 360 414
#     4  12  24  45  76 109 137 186 248 297 355 422
#     4  11  24  48  75 108 140 188 240 300 354 429
#     4  11  26  42  81 106 143 186 248 297 358 423
#     4  11  27  48  71 105 154 189 236 292 371 431
#     4  12  30  47  68 107 151 190 235 301 360 435
#     4  12  27  48  74 105 143 188 247 297 358 420
#
# _framework density 22.547105999999999
#
# number of rings (size 3 to 8) (size 9 to 14) (size 15 to 20)
#    0.000    0.571    4.286    1.714   12.000    2.286 
#    0.000    0.000    0.000    0.000    0.000    0.000 
#    0.000    0.000    0.000    0.000    0.000    0.000 
#
# Total GULP energy -78347.473905 kJ/mol
# GULP energy per Si atom -5596.248136 kJ/mol
# Density = 2.249579 g / cm^3
# Si number density = 22.547106 Si / 1000 Ang^3
#
#
#
# Elastic Constant Matrix: (Units=GPa)
#
#
# Indices 1 2 3 4 5 6 
#
# 1 109.4028 47.4985 44.3034 0.0000 6.1139 0.0000
# 2 47.4985 105.8151 22.9622 0.0000 19.2957 0.0000
# 3 44.3034 22.9622 86.0420 0.0000 21.6213 0.0000
# 4 0.0000 0.0000 0.0000 7.2607 0.0000 10.6362
# 5 6.1139 19.2957 21.6213 0.0000 38.5908 0.0000
# 6 0.0000 0.0000 0.0000 10.6362 0.0000 44.5340
#
#
#
# Elastic Compliance Matrix: (Units=1/GPa)
#
#
# Indices 1 2 3 4 5 6 
#
# 1 0.014140 -0.005664 -0.006888 0.000000 0.004451 0.000000
# 2 -0.005664 0.012888 0.001014 0.000000 -0.006115 0.000000
# 3 -0.006888 0.001014 0.017169 0.000000 -0.009035 0.000000
# 4 0.000000 0.000000 0.000000 0.211849 0.000000 -0.050597
# 5 0.004451 -0.006115 -0.009035 0.000000 0.033327 0.000000
# 6 0.000000 0.000000 0.000000 -0.050597 0.000000 0.034539
#
#
# Mechanical properties :
#
#
# Convention : Reuss Voigt Hill
#
# Bulk Modulus (GPa) = 47.34812 58.97646 53.16229
# Shear Modulus (GPa) = 14.12317 30.51015 22.31666
#
# Velocity S-wave (km/s) = 2.50548 3.68254 3.14949
# Velocity P-wave (km/s) = 5.42357 6.65547 6.07085
#
# Compressibility (1/GPa) = 0.02112016
#
# Stress axis : x y z
#
# Youngs Moduli (GPa) = 70.72024 77.59088 58.24614
#
# Poissons Ratio (x) = 0.43950 0.40118
# Poissons Ratio (y) = 0.40058 -0.05904
# Poissons Ratio (z) = 0.48710 -0.07865
#
# Static dielectric constant tensor:
#      x y z
#    x 1.867160 0.000000 0.010030 
#    y 0.000000 1.848980 0.000000 
#    z 0.010030 0.000000 1.831030 
# 
# From -- ./inp_files/1377.got.cif
#   From: 2010.05.17/outbox.cif.g08.bks.cpg/sg4_1_cif.got.tgz:1377.got - 2010.06.03 18:43:04.
