data_PCOD9119208
_publ_section_title
;
Structure prediction by ZEFSAII (Michael W. Deem and Ramdas Pophale) SiO2 
 PCOD9119208
Probable space group: P 21
;
_chemical_formula_sum "Si O2"
_cell_formula_units_Z 16
_cell_length_a 15.804344
_cell_length_b 8.293097
_cell_length_c 9.177083
_cell_angle_alpha 90.000000
_cell_angle_beta 147.864574
_cell_angle_gamma 90.000000
_cell_volume 639.802656
_symmetry_space_group_name_H-M "P 21"
_symmetry_group_IT_number 4
_symmetry_cell_setting 'monoclinic'
loop_
_space_group_symop_operation_xyz
x,y,z
-x,1/2+y,-z
loop_
_atom_site_type_symbol
_atom_site_label
_atom_site_fract_x
_atom_site_fract_y
_atom_site_fract_z
Si Si1 0.064766 0.867290 0.685431
Si Si2 0.674771 0.186125 0.800700
Si Si3 0.663329 0.098227 0.448961
Si Si4 0.153075 0.856825 0.487815
Si Si5 0.166615 0.180768 0.001651
Si Si6 0.383818 0.146548 0.850660
Si Si7 0.705173 0.881721 0.048463
Si Si8 0.609500 0.763193 0.441656
O O1 0.157578 0.832456 0.669383
O O2 0.885877 0.883786 0.370204
O O3 0.089420 0.028620 0.813131
O O4 0.142032 0.735226 0.903310
O O5 0.652458 0.167637 0.596089
O O6 0.539662 0.304433 0.670835
O O7 0.653657 0.029459 0.873020
O O8 0.751224 0.225102 0.470111
O O9 0.721085 0.915472 0.560781
O O10 0.497885 0.056184 0.127922
O O11 0.969154 0.818267 0.177196
O O12 0.227495 0.037633 0.589594
O O13 0.291736 0.238587 0.063685
O O14 0.269256 0.148289 0.293843
O O15 0.377678 0.318392 0.926851
O O16 0.453473 0.181210 0.795233
#
# Coordination Sequence:
#
# PCOD9119208 Si02
#       8
#     2   2   2   2   2   2   2   2
#     4  11  25  46  78 106 147 200 249 307 378 455
#     4  12  28  47  77 111 154 197 260 313 380 455
#     4  12  28  49  73 108 155 200 253 317 377 457
#     4  11  27  48  74 110 152 193 252 311 375 457
#     4  11  25  49  73 110 151 193 256 307 380 450
#     4  12  27  46  77 107 153 200 251 310 385 452
#     4  11  24  47  76 107 147 202 244 312 380 452
#     4  12  30  46  76 109 151 205 251 315 385 444
#
# _framework density 25.007709999999999
#
# number of rings (size 3 to 8) (size 9 to 14) (size 15 to 20)
#    0.000    0.500    2.500    4.500   12.250    2.000 
#    0.000    0.000    0.000    0.000    0.000    0.000 
#    0.000    0.000    0.000    0.000    0.000    0.000 
#
# Total GULP energy -89261.171457 kJ/mol
# GULP energy per Si atom -5578.823216 kJ/mol
# Density = 2.495079 g / cm^3
# Si number density = 25.007710 Si / 1000 Ang^3
#
#
#
# Elastic Constant Matrix: (Units=GPa)
#
#
# Indices 1 2 3 4 5 6 
#
# 1 99.8463 18.6698 61.6696 0.0000 -28.4882 0.0000
# 2 18.6698 60.1294 17.0980 0.0000 -14.8992 0.0000
# 3 61.6696 17.0980 147.4186 0.0000 -32.8536 0.0000
# 4 0.0000 0.0000 0.0000 30.9861 0.0000 2.9480
# 5 -28.4882 -14.8992 -32.8536 0.0000 38.1396 0.0000
# 6 0.0000 0.0000 0.0000 2.9480 0.0000 15.9561
#
#
#
# Elastic Compliance Matrix: (Units=1/GPa)
#
#
# Indices 1 2 3 4 5 6 
#
# 1 0.015087 -0.001731 -0.004641 0.000000 0.006596 0.000000
# 2 -0.001731 0.018664 -0.000129 0.000000 0.005887 0.000000
# 3 -0.004641 -0.000129 0.009846 0.000000 0.004965 0.000000
# 4 0.000000 0.000000 0.000000 0.032850 0.000000 -0.006069
# 5 0.006596 0.005887 0.004965 0.000000 0.037723 0.000000
# 6 0.000000 0.000000 0.000000 -0.006069 0.000000 0.063793
#
#
# Mechanical properties :
#
#
# Convention : Reuss Voigt Hill
#
# Bulk Modulus (GPa) = 32.68300 55.80768 44.24534
# Shear Modulus (GPa) = 24.85560 31.01348 27.93454
#
# Velocity S-wave (km/s) = 3.15607 3.52541 3.34584
# Velocity P-wave (km/s) = 5.13600 6.23987 5.71465
#
# Compressibility (1/GPa) = 0.03059695
#
# Stress axis : x y z
#
# Youngs Moduli (GPa) = 66.28111 53.58041 101.56218
#
# Poissons Ratio (x) = 0.09272 0.47133
# Poissons Ratio (y) = 0.11470 0.01307
# Poissons Ratio (z) = 0.30760 0.00689
#
# Static dielectric constant tensor:
#      x y z
#    x 2.115410 0.000000 0.042890 
#    y 0.000000 2.079560 0.000000 
#    z 0.042890 0.000000 2.030290 
# 
# From -- ./inp_files/5863.got.cif
#   From: 2010.05.17/outbox.cif.g08.bks.cpg/sg4_3_cif.got.tgz:5863.got - 2010.06.03 18:43:04.
