data_PCOD9119673
_publ_section_title
;
Structure prediction by ZEFSAII (Michael W. Deem and Ramdas Pophale) SiO2 
 PCOD9119673
Probable space group: P 21
;
_chemical_formula_sum "Si O2"
_cell_formula_units_Z 14
_cell_length_a 11.507192
_cell_length_b 8.395723
_cell_length_c 9.171431
_cell_angle_alpha 90.000000
_cell_angle_beta 38.855149
_cell_angle_gamma 90.000000
_cell_volume 555.874816
_symmetry_space_group_name_H-M "P 21"
_symmetry_group_IT_number 4
_symmetry_cell_setting 'monoclinic'
loop_
_space_group_symop_operation_xyz
x,y,z
-x,1/2+y,-z
loop_
_atom_site_type_symbol
_atom_site_label
_atom_site_fract_x
_atom_site_fract_y
_atom_site_fract_z
Si Si1 0.569218 0.836700 0.790848
Si Si2 0.057911 0.526371 0.872885
Si Si3 0.726153 0.086878 0.865037
Si Si4 0.845777 0.582747 0.553176
Si Si5 0.359925 0.384270 0.765100
Si Si6 0.794856 0.374991 0.349436
Si Si7 0.262834 0.048921 0.006910
O O1 0.718234 0.708977 0.591836
O O2 0.675870 0.953381 0.795849
O O3 0.443807 0.941299 0.806143
O O4 0.411146 0.733106 0.025927
O O5 0.235805 0.426562 0.747245
O O6 0.125830 0.703898 0.772576
O O7 0.915988 0.506008 0.146019
O O8 0.926843 0.472854 0.868071
O O9 0.940669 0.128919 0.647480
O O10 0.682914 0.015415 0.067563
O O11 0.826582 0.415852 0.487653
O O12 0.764254 0.575560 0.795035
O O13 0.578627 0.382333 0.525754
O O14 0.295879 0.216058 0.894678
#
# Coordination Sequence:
#
# PCOD9119673 Si02
#       7
#     2   2   2   2   2   2   2
#     4  12  26  47  78 122 167 215 277 352 422 497
#     4  12  29  55  83 123 173 226 285 346 425 521
#     4  12  25  48  81 122 170 217 284 344 428 507
#     4  12  27  51  85 121 171 220 282 364 427 499
#     4  12  26  56  82 122 171 226 283 351 418 514
#     4  12  29  55  87 118 172 226 289 354 427 505
#     4  12  28  52  84 126 172 220 286 355 425 507
#
# _framework density 25.185525999999999
#
# number of rings (size 3 to 8) (size 9 to 14) (size 15 to 20)
#    0.000    0.000    7.143    0.000    6.000    2.286 
#    2.571    0.000    0.000    0.000    0.000    0.000 
#    0.000    0.000    0.000    0.000    0.000    0.000 
#
# Total GULP energy -78544.062554 kJ/mol
# GULP energy per Si atom -5610.290182 kJ/mol
# Density = 2.512820 g / cm^3
# Si number density = 25.185526 Si / 1000 Ang^3
#
#
#
# Elastic Constant Matrix: (Units=GPa)
#
#
# Indices 1 2 3 4 5 6 
#
# 1 157.8151 45.7743 73.4824 0.0000 -34.4820 0.0000
# 2 45.7743 121.7184 60.9893 0.0000 -9.0063 0.0000
# 3 73.4824 60.9893 144.5809 0.0000 -44.0394 0.0000
# 4 0.0000 0.0000 0.0000 30.0914 0.0000 -0.4170
# 5 -34.4820 -9.0063 -44.0394 0.0000 59.2368 0.0000
# 6 0.0000 0.0000 0.0000 -0.4170 0.0000 32.7174
#
#
#
# Elastic Compliance Matrix: (Units=1/GPa)
#
#
# Indices 1 2 3 4 5 6 
#
# 1 0.008765 -0.001614 -0.002967 0.000000 0.002651 0.000000
# 2 -0.001614 0.010936 -0.004619 0.000000 -0.002710 0.000000
# 3 -0.002967 -0.004619 0.012453 0.000000 0.006829 0.000000
# 4 0.000000 0.000000 0.000000 0.033238 0.000000 0.000424
# 5 0.002651 -0.002710 0.006829 0.000000 0.023090 0.000000
# 6 0.000000 0.000000 0.000000 0.000424 0.000000 0.030570
#
#
# Mechanical properties :
#
#
# Convention : Reuss Voigt Hill
#
# Bulk Modulus (GPa) = 72.69406 87.17849 79.93627
# Shear Modulus (GPa) = 35.20253 40.66702 37.93477
#
# Velocity S-wave (km/s) = 3.74268 4.02269 3.88521
# Velocity P-wave (km/s) = 6.89949 7.50105 7.20655
#
# Compressibility (1/GPa) = 0.01375628
#
# Stress axis : x y z
#
# Youngs Moduli (GPa) = 114.08762 91.43856 80.30396
#
# Poissons Ratio (x) = 0.14755 0.23822
# Poissons Ratio (y) = 0.18410 0.37090
# Poissons Ratio (z) = 0.33844 0.42233
#
# Static dielectric constant tensor:
#      x y z
#    x 2.002680 0.000000 0.040670 
#    y 0.000000 2.022460 0.000000 
#    z 0.040670 0.000000 1.958070 
# 
# From -- ./inp_files/7915.got.cif
#   From: 2010.05.17/outbox.cif.g08.bks.cpg/sg4_4_cif.got.tgz:7915.got - 2010.06.03 18:43:04.
