data_PCOD9119547
_publ_section_title
;
Structure prediction by ZEFSAII (Michael W. Deem and Ramdas Pophale) SiO2 
 PCOD9119547
Probable space group: P 21
;
_chemical_formula_sum "Si O2"
_cell_formula_units_Z 14
_cell_length_a 24.972218
_cell_length_b 4.832219
_cell_length_c 9.986293
_cell_angle_alpha 90.000000
_cell_angle_beta 27.238707
_cell_angle_gamma 90.000000
_cell_volume 551.553559
_symmetry_space_group_name_H-M "P 21"
_symmetry_group_IT_number 4
_symmetry_cell_setting 'monoclinic'
loop_
_space_group_symop_operation_xyz
x,y,z
-x,1/2+y,-z
loop_
_atom_site_type_symbol
_atom_site_label
_atom_site_fract_x
_atom_site_fract_y
_atom_site_fract_z
Si Si1 0.497480 0.747910 0.594223
Si Si2 0.910321 0.584286 0.507694
Si Si3 0.040870 0.294691 0.985489
Si Si4 0.293724 0.340795 0.672813
Si Si5 0.140928 0.857888 0.087219
Si Si6 0.687981 0.578724 0.823301
Si Si7 0.300320 0.548878 0.381155
O O1 0.465567 0.449537 0.609469
O O2 0.604456 0.736621 0.457892
O O3 0.391583 0.908657 0.898411
O O4 0.862345 0.464111 0.753364
O O5 0.803471 0.670176 0.649349
O O6 0.009071 0.803089 0.331648
O O7 0.979966 0.365270 0.260779
O O8 0.170163 0.420592 0.688662
O O9 0.971245 0.478054 0.029344
O O10 0.350046 0.486447 0.417380
O O11 0.212841 0.573655 0.920508
O O12 0.208970 0.076748 0.842807
O O13 0.637587 0.852172 0.865624
O O14 0.706972 0.355724 0.660836
#
# Coordination Sequence:
#
# PCOD9119547 Si02
#       7
#     2   2   2   2   2   2   2
#     4  12  27  52  79 106 144 196 247 306 368 433
#     4  12  26  44  68 105 145 186 245 291 363 436
#     4  12  24  42  67  98 146 194 233 291 355 442
#     4  12  27  49  74 106 151 191 250 303 369 438
#     4  12  28  44  72 108 149 197 239 308 365 436
#     4  12  27  45  75 105 143 187 243 301 361 438
#     4  12  25  44  69 108 140 189 237 300 367 425
#
# _framework density 25.382847000000002
#
# number of rings (size 3 to 8) (size 9 to 14) (size 15 to 20)
#    0.000    0.000    4.286    5.143    2.000    5.714 
#    0.000    0.000    0.000    0.000    0.000    0.000 
#    0.000    0.000    0.000    0.000    0.000    0.000 
#
# Total GULP energy -78524.643050 kJ/mol
# GULP energy per Si atom -5608.903075 kJ/mol
# Density = 2.532507 g / cm^3
# Si number density = 25.382847 Si / 1000 Ang^3
#
#
#
# Elastic Constant Matrix: (Units=GPa)
#
#
# Indices 1 2 3 4 5 6 
#
# 1 104.9433 19.9671 11.3141 0.0000 16.0102 0.0000
# 2 19.9671 100.0537 -12.3306 0.0000 4.7536 0.0000
# 3 11.3141 -12.3306 49.6280 0.0000 15.7655 0.0000
# 4 0.0000 0.0000 0.0000 40.8278 0.0000 5.6908
# 5 16.0102 4.7536 15.7655 0.0000 49.9782 0.0000
# 6 0.0000 0.0000 0.0000 5.6908 0.0000 23.0306
#
#
#
# Elastic Compliance Matrix: (Units=1/GPa)
#
#
# Indices 1 2 3 4 5 6 
#
# 1 0.010573 -0.002261 -0.002183 0.000000 -0.002483 0.000000
# 2 -0.002261 0.010975 0.003716 0.000000 -0.001492 0.000000
# 3 -0.002183 0.003716 0.023851 0.000000 -0.007178 0.000000
# 4 0.000000 0.000000 0.000000 0.025367 0.000000 -0.006268
# 5 -0.002483 -0.001492 -0.007178 0.000000 0.023210 0.000000
# 6 0.000000 0.000000 0.000000 -0.006268 0.000000 0.044969
#
#
# Mechanical properties :
#
#
# Convention : Reuss Voigt Hill
#
# Bulk Modulus (GPa) = 22.75702 32.50290 27.62996
# Shear Modulus (GPa) = 32.24761 38.47894 35.36328
#
# Velocity S-wave (km/s) = 3.56820 3.89773 3.73660
# Velocity P-wave (km/s) = 5.09520 5.75233 5.43371
#
# Compressibility (1/GPa) = 0.04394249
#
# Stress axis : x y z
#
# Youngs Moduli (GPa) = 94.57666 91.11835 41.92663
#
# Poissons Ratio (x) = 0.20603 0.09154
# Poissons Ratio (y) = 0.21385 -0.15581
# Poissons Ratio (z) = 0.20650 -0.33861
#
# Static dielectric constant tensor:
#      x y z
#    x 2.028500 0.000000 0.032640 
#    y 0.000000 1.938590 0.000000 
#    z 0.032640 0.000000 2.039470 
# 
# From -- ./inp_files/9954.got.cif
#   From: 2010.05.17/outbox.cif.g08.bks.cpg/sg4_5_cif.got.tgz:9954.got - 2010.06.03 18:43:04.
