data_PCOD9119269
_publ_section_title
;
Structure prediction by ZEFSAII (Michael W. Deem and Ramdas Pophale) SiO2 
 PCOD9119269
Probable space group: P 21
;
_chemical_formula_sum "Si O2"
_cell_formula_units_Z 14
_cell_length_a 5.055915
_cell_length_b 10.842040
_cell_length_c 9.126143
_cell_angle_alpha 90.000000
_cell_angle_beta 81.982805
_cell_angle_gamma 90.000000
_cell_volume 495.373165
_symmetry_space_group_name_H-M "P 21"
_symmetry_group_IT_number 4
_symmetry_cell_setting 'monoclinic'
loop_
_space_group_symop_operation_xyz
x,y,z
-x,1/2+y,-z
loop_
_atom_site_type_symbol
_atom_site_label
_atom_site_fract_x
_atom_site_fract_y
_atom_site_fract_z
Si Si1 0.750056 0.701030 0.727834
Si Si2 0.228868 0.848461 0.708475
Si Si3 0.981723 0.548631 0.492330
Si Si4 0.510864 0.073714 0.006599
Si Si5 0.364108 0.692796 0.248909
Si Si6 0.290613 0.435090 0.735120
Si Si7 0.828791 0.337370 0.969073
O O1 0.529394 0.804190 0.711750
O O2 0.722589 0.654120 0.895082
O O3 0.049840 0.737267 0.659292
O O4 0.730462 0.592066 0.611364
O O5 0.075435 0.859032 0.876268
O O6 0.162329 0.956966 0.607712
O O7 0.143742 0.641462 0.372455
O O8 0.186304 0.478240 0.584804
O O9 0.680523 0.049906 0.152490
O O10 0.422515 0.926929 0.020003
O O11 0.445706 0.087147 0.827760
O O12 0.492281 0.821362 0.288049
O O13 0.274227 0.700351 0.074062
O O14 0.037263 0.365061 0.828234
#
# Coordination Sequence:
#
# PCOD9119269 Si02
#       7
#     2   2   2   2   2   2   2
#     4  12  28  54  82 118 170 220 277 352 434 498
#     4  12  30  52  86 121 165 224 294 344 419 532
#     4  12  30  53  80 127 174 228 279 369 452 510
#     4  11  24  50  84 114 163 228 279 357 418 510
#     4  11  27  51  83 121 168 233 287 358 435 513
#     4  11  26  50  81 121 176 216 298 355 430 526
#     4  11  25  50  80 122 154 225 296 349 408 525
#
# _framework density 28.261524999999999
#
# number of rings (size 3 to 8) (size 9 to 14) (size 15 to 20)
#    0.000    0.571    2.857    2.571    6.000    8.000 
#    0.000    0.000    0.000    0.000    0.000    0.000 
#    0.000    0.000    0.000    0.000    0.000    0.000 
#
# Total GULP energy -78141.858882 kJ/mol
# GULP energy per Si atom -5581.561349 kJ/mol
# Density = 2.819720 g / cm^3
# Si number density = 28.261525 Si / 1000 Ang^3
#
#
#
# Elastic Constant Matrix: (Units=GPa)
#
#
# Indices 1 2 3 4 5 6 
#
# 1 81.3035 31.3137 35.7633 0.0000 -5.4099 0.0000
# 2 31.3137 98.7399 60.5405 0.0000 -2.9953 0.0000
# 3 35.7633 60.5405 202.1198 0.0000 -18.4529 0.0000
# 4 0.0000 0.0000 0.0000 57.2114 0.0000 -8.0401
# 5 -5.4099 -2.9953 -18.4529 0.0000 46.8865 0.0000
# 6 0.0000 0.0000 0.0000 -8.0401 0.0000 40.7614
#
#
#
# Elastic Compliance Matrix: (Units=1/GPa)
#
#
# Indices 1 2 3 4 5 6 
#
# 1 0.014381 -0.003703 -0.001354 0.000000 0.000890 0.000000
# 2 -0.003703 0.013382 -0.003437 0.000000 -0.000925 0.000000
# 3 -0.001354 -0.003437 0.006413 0.000000 0.002148 0.000000
# 4 0.000000 0.000000 0.000000 0.017977 0.000000 0.003546
# 5 0.000890 -0.000925 0.002148 0.000000 0.022217 0.000000
# 6 0.000000 0.000000 0.000000 0.003546 0.000000 0.025232
#
#
# Mechanical properties :
#
#
# Convention : Reuss Voigt Hill
#
# Bulk Modulus (GPa) = 58.18835 70.82204 64.50520
# Shear Modulus (GPa) = 40.87634 45.94158 43.40896
#
# Velocity S-wave (km/s) = 3.80723 4.03623 3.92340
# Velocity P-wave (km/s) = 6.32144 6.84365 6.58772
#
# Compressibility (1/GPa) = 0.01718557
#
# Stress axis : x y z
#
# Youngs Moduli (GPa) = 69.53733 74.72964 155.93732
#
# Poissons Ratio (x) = 0.27676 0.21114
# Poissons Ratio (y) = 0.25753 0.53601
# Poissons Ratio (z) = 0.09416 0.25687
#
# Static dielectric constant tensor:
#      x y z
#    x 2.756930 0.000000 0.224340 
#    y 0.000000 2.440340 0.000000 
#    z 0.224340 0.000000 2.262840 
# 
# From -- ./inp_files/4619.got.cif
#   From: 2010.05.17/outbox.cif.g08.bks.cpg/sg4_3_cif.got.tgz:4619.got - 2010.06.03 18:43:04.
