data_PCOD9119948
_publ_section_title
;
Structure prediction by ZEFSAII (Michael W. Deem and Ramdas Pophale) SiO2 
 PCOD9119948
Probable space group: C 2
;
_chemical_formula_sum "Si O2"
_cell_formula_units_Z 28
_cell_length_a 27.779324
_cell_length_b 5.628141
_cell_length_c 11.390895
_cell_angle_alpha 90.000000
_cell_angle_beta 42.894062
_cell_angle_gamma 90.000000
_cell_volume 1212.174420
_symmetry_space_group_name_H-M "C 2"
_symmetry_group_IT_number 5
_symmetry_cell_setting 'monoclinic'
loop_
_space_group_symop_operation_xyz
x,y,z
-x,y,-z
1/2+x,1/2+y,z
1/2-x,1/2+y,-z
loop_
_atom_site_type_symbol
_atom_site_label
_atom_site_fract_x
_atom_site_fract_y
_atom_site_fract_z
Si Si1 0.418480 0.387610 0.607824
Si Si2 0.542742 0.388420 0.797356
Si Si3 0.580370 0.888422 0.797592
Si Si4 0.594886 0.387738 0.097597
Si Si5 0.917457 0.387612 0.607673
Si Si6 0.779247 0.387759 0.997592
Si Si7 0.343153 0.887743 0.105706
O O1 0.500000 0.387580 0.500000
O O2 0.387120 0.387689 0.796717
O O3 0.402589 0.635819 0.575033
O O4 0.402607 0.139400 0.574976
O O5 0.582998 0.638489 0.726026
O O6 0.487519 0.387958 0.789094
O O7 0.583142 0.138612 0.726018
O O8 0.500000 0.388540 0.000000
O O9 0.500000 0.888543 0.000000
O O10 0.642987 0.887898 0.781028
O O11 0.622565 0.633272 0.992460
O O12 0.622482 0.142071 0.992651
O O13 0.862610 0.387685 0.813854
O O14 0.000000 0.387583 0.500000
O O15 0.773135 0.387845 0.149939
O O16 0.750009 0.637747 0.999955
#
# Coordination Sequence:
#
# PCOD9119948 Si02
#       7
#     4   4   4   4   4   4   4
#     4  10  19  31  48  71  97 132 177 217 257 306
#     4  10  16  24  40  65  95 122 162 205 247 325
#     4  10  16  28  40  68  94 127 167 204 255 321
#     4  12  17  28  46  68  96 134 173 201 269 318
#     4  10  20  36  55  72  95 137 183 227 268 303
#     4  12  24  37  51  76 108 146 187 222 259 321
#     4  12  20  30  49  66 101 142 173 204 267 324
#
# _framework density 23.098986
#
# number of rings (size 3 to 8) (size 9 to 14) (size 15 to 20)
#    0.000    1.143    8.571    1.714    0.000    0.000 
#    0.000    0.000    0.000    0.000    0.000    0.000 
#    0.000    0.000    0.000  136.286    0.000    0.000 
#
# Total GULP energy -77940.755216 kJ/mol
# GULP energy per Si atom -5567.196801 kJ/mol
# Density = 2.304641 g / cm^3
# Si number density = 23.098986 Si / 1000 Ang^3
#
#
#
# Elastic Constant Matrix: (Units=GPa)
#
#
# Indices 1 2 3 4 5 6 
#
# 1 140.6790 62.2226 0.2208 0.0000 2.3164 0.0000
# 2 62.2226 321.8729 1.1618 -0.0001 0.6982 0.0002
# 3 0.2208 1.1618 43.9655 0.0000 -4.0746 0.0000
# 4 0.0000 -0.0001 0.0000 12.6194 0.0000 -13.5139
# 5 2.3164 0.6982 -4.0746 0.0000 26.2566 0.0000
# 6 0.0000 0.0002 0.0000 -13.5139 0.0000 34.9078
#
#
#
# Elastic Compliance Matrix: (Units=1/GPa)
#
#
# Indices 1 2 3 4 5 6 
#
# 1 0.007784 -0.001503 -0.000060 0.000000 -0.000656 0.000000
# 2 -0.001503 0.003398 -0.000079 0.000000 0.000030 0.000000
# 3 -0.000060 -0.000079 0.023080 0.000000 0.003589 0.000000
# 4 0.000000 0.000000 0.000000 0.135359 0.000000 0.052402
# 5 -0.000656 0.000030 0.003589 0.000000 0.038700 0.000000
# 6 0.000000 0.000000 0.000000 0.052402 0.000000 0.048933
#
#
# Mechanical properties :
#
#
# Convention : Reuss Voigt Hill
#
# Bulk Modulus (GPa) = 32.28270 70.41418 51.34844
# Shear Modulus (GPa) = 18.45940 44.28425 31.37182
#
# Velocity S-wave (km/s) = 2.82998 4.38328 3.68930
# Velocity P-wave (km/s) = 4.96835 7.49449 6.35814
#
# Compressibility (1/GPa) = 0.03097634
#
# Stress axis : x y z
#
# Youngs Moduli (GPa) = 128.46669 294.32397 43.32726
#
# Poissons Ratio (x) = 0.44241 0.00261
# Poissons Ratio (y) = 0.19310 0.00344
# Poissons Ratio (z) = 0.00773 0.02339
#
# Static dielectric constant tensor:
#      x y z
#    x 1.886870 0.000000 -0.004270 
#    y 0.000000 1.914190 0.000000 
#    z -0.004270 0.000000 1.979090 
# 
# From -- ./inp_files/57984.got.cif
#   From: 2010.05.17/outbox.cif.g08.bks.cpg/sg5_29_cif.got.tgz:57984.got - 2010.06.03 18:56:24.
