data_PCOD9119075
_publ_section_title
;
Structure prediction by ZEFSAII (Michael W. Deem and Ramdas Pophale) SiO2 
 PCOD9119075
Probable space group: P 21
;
_chemical_formula_sum "Si O2"
_cell_formula_units_Z 14
_cell_length_a 8.723215
_cell_length_b 5.128972
_cell_length_c 12.165269
_cell_angle_alpha 90.000000
_cell_angle_beta 107.310935
_cell_angle_gamma 90.000000
_cell_volume 519.633781
_symmetry_space_group_name_H-M "P 21"
_symmetry_group_IT_number 4
_symmetry_cell_setting 'monoclinic'
loop_
_space_group_symop_operation_xyz
x,y,z
-x,1/2+y,-z
loop_
_atom_site_type_symbol
_atom_site_label
_atom_site_fract_x
_atom_site_fract_y
_atom_site_fract_z
Si Si1 0.368212 0.022500 0.183106
Si Si2 0.506929 0.831969 0.602611
Si Si3 0.110638 0.384253 0.023117
Si Si4 0.260119 0.044465 0.702286
Si Si5 0.731627 0.216833 0.645835
Si Si6 0.017532 0.808058 0.471937
Si Si7 0.685581 0.036494 0.142304
O O1 0.486439 0.105954 0.307445
O O2 0.279527 0.791414 0.228989
O O3 0.489882 0.997668 0.106264
O O4 0.237030 0.242326 0.130839
O O5 0.416461 0.043241 0.659206
O O6 0.405442 0.813106 0.470918
O O7 0.691973 0.910596 0.623429
O O8 0.225342 0.508479 0.954139
O O9 0.996012 0.626677 0.034104
O O10 0.115768 0.044064 0.580526
O O11 0.268442 0.806560 0.789082
O O12 0.250869 0.295757 0.773789
O O13 0.892045 0.320761 0.626091
O O14 0.108719 0.556053 0.552335
#
# Coordination Sequence:
#
# PCOD9119075 Si02
#       7
#     2   2   2   2   2   2   2
#     4  11  28  49  82 113 151 211 260 323 400 462
#     4  11  24  43  74 110 152 199 254 311 368 468
#     4  12  31  55  82 118 157 201 269 341 405 469
#     4  11  24  47  72 114 151 206 255 312 388 461
#     4  12  25  44  74 109 160 200 258 310 376 467
#     4  12  28  43  69 109 162 210 250 305 385 461
#     4  11  26  51  81 109 153 199 266 328 390 466
#
# _framework density 26.942053999999999
#
# number of rings (size 3 to 8) (size 9 to 14) (size 15 to 20)
#    0.000    0.571    4.286    1.714   10.000    4.571 
#    0.000    0.000    0.000    0.000    0.000    0.000 
#    0.000    0.000    0.000    0.000    0.000    0.000 
#
# Total GULP energy -78088.343203 kJ/mol
# GULP energy per Si atom -5577.738800 kJ/mol
# Density = 2.688073 g / cm^3
# Si number density = 26.942054 Si / 1000 Ang^3
#
#
#
# Elastic Constant Matrix: (Units=GPa)
#
#
# Indices 1 2 3 4 5 6 
#
# 1 116.0274 42.8656 40.6877 0.0000 -2.6831 0.0000
# 2 42.8656 197.1584 37.1713 0.0000 2.3313 0.0000
# 3 40.6877 37.1713 81.1380 0.0000 0.5722 0.0000
# 4 0.0000 0.0000 0.0000 44.1373 0.0000 -2.6445
# 5 -2.6831 2.3313 0.5722 0.0000 39.8022 0.0000
# 6 0.0000 0.0000 0.0000 -2.6445 0.0000 45.4190
#
#
#
# Elastic Compliance Matrix: (Units=1/GPa)
#
#
# Indices 1 2 3 4 5 6 
#
# 1 0.010858 -0.001470 -0.004777 0.000000 0.000887 0.000000
# 2 -0.001470 0.005754 -0.001896 0.000000 -0.000409 0.000000
# 3 -0.004777 -0.001896 0.015592 0.000000 -0.000435 0.000000
# 4 0.000000 0.000000 0.000000 0.022736 0.000000 0.001324
# 5 0.000887 -0.000409 -0.000435 0.000000 0.025214 0.000000
# 6 0.000000 0.000000 0.000000 0.001324 0.000000 0.022094
#
#
# Mechanical properties :
#
#
# Convention : Reuss Voigt Hill
#
# Bulk Modulus (GPa) = 62.82796 70.64143 66.73469
# Shear Modulus (GPa) = 40.37445 44.11164 42.24304
#
# Velocity S-wave (km/s) = 3.87533 4.05072 3.96400
# Velocity P-wave (km/s) = 6.58745 6.93934 6.76569
#
# Compressibility (1/GPa) = 0.01591648
#
# Stress axis : x y z
#
# Youngs Moduli (GPa) = 92.10066 173.79144 64.13576
#
# Poissons Ratio (x) = 0.25555 0.30640
# Poissons Ratio (y) = 0.13543 0.12159
# Poissons Ratio (z) = 0.44000 0.32947
#
# Static dielectric constant tensor:
#      x y z
#    x 2.175220 0.000000 0.016590 
#    y 0.000000 2.356460 0.000000 
#    z 0.016590 0.000000 2.174860 
# 
# From -- ./inp_files/10664.got.cif
#   From: 2010.05.17/outbox.cif.g08.bks.cpg/sg4_6_cif.got.tgz:10664.got - 2010.06.03 18:43:04.
