data_PCOD9119386
_publ_section_title
;
Structure prediction by ZEFSAII (Michael W. Deem and Ramdas Pophale) SiO2 
 PCOD9119386
Probable space group: P 21
;
_chemical_formula_sum "Si O2"
_cell_formula_units_Z 14
_cell_length_a 7.811466
_cell_length_b 14.273626
_cell_length_c 5.615349
_cell_angle_alpha 90.000000
_cell_angle_beta 60.481539
_cell_angle_gamma 90.000000
_cell_volume 544.830221
_symmetry_space_group_name_H-M "P 21"
_symmetry_group_IT_number 4
_symmetry_cell_setting 'monoclinic'
loop_
_space_group_symop_operation_xyz
x,y,z
-x,1/2+y,-z
loop_
_atom_site_type_symbol
_atom_site_label
_atom_site_fract_x
_atom_site_fract_y
_atom_site_fract_z
Si Si1 0.870803 0.186760 0.136328
Si Si2 0.039816 0.110838 0.521088
Si Si3 0.429068 0.996322 0.719051
Si Si4 0.646323 0.877398 0.240262
Si Si5 0.411421 0.178077 0.476061
Si Si6 0.943726 0.383578 0.899758
Si Si7 0.827803 0.917759 0.667790
O O1 0.639719 0.170505 0.259758
O O2 0.944043 0.144744 0.337254
O O3 0.905645 0.298487 0.103054
O O4 0.967875 0.152913 0.823850
O O5 0.268210 0.140349 0.369735
O O6 0.983670 0.002002 0.597841
O O7 0.468577 0.944377 0.435493
O O8 0.637777 0.975872 0.697754
O O9 0.384547 0.103975 0.708581
O O10 0.246964 0.946856 0.971240
O O11 0.628123 0.783505 0.406694
O O12 0.853451 0.932246 0.151759
O O13 0.698392 0.854359 0.935489
O O14 0.028232 0.351559 0.587032
#
# Coordination Sequence:
#
# PCOD9119386 Si02
#       7
#     2   2   2   2   2   2   2
#     4  12  28  52  79 121 159 216 273 344 406 507
#     4  12  29  52  85 117 167 214 283 341 416 496
#     4  11  25  49  77 117 157 214 275 339 411 497
#     4  11  25  49  74 113 163 213 275 342 409 492
#     4  12  26  51  84 117 160 220 277 339 421 493
#     4  11  26  47  73 112 160 208 266 340 411 479
#     4  11  27  48  78 117 168 213 277 345 416 494
#
# _framework density 25.696081
#
# number of rings (size 3 to 8) (size 9 to 14) (size 15 to 20)
#    0.000    0.571    4.286    1.714    6.000    5.714 
#    0.000    0.000    0.000    0.000    0.000    0.000 
#    0.000    0.000    0.000    0.000    0.000    0.000 
#
# Total GULP energy -78143.002952 kJ/mol
# GULP energy per Si atom -5581.643068 kJ/mol
# Density = 2.563760 g / cm^3
# Si number density = 25.696081 Si / 1000 Ang^3
#
#
#
# Elastic Constant Matrix: (Units=GPa)
#
#
# Indices 1 2 3 4 5 6 
#
# 1 133.7371 30.0581 40.9461 0.0000 -29.1941 0.0000
# 2 30.0581 71.5972 12.6292 0.0000 0.3938 0.0000
# 3 40.9461 12.6292 115.6573 0.0000 -14.7354 0.0000
# 4 0.0000 0.0000 0.0000 33.6782 0.0000 -7.6948
# 5 -29.1941 0.3938 -14.7354 0.0000 35.9116 0.0000
# 6 0.0000 0.0000 0.0000 -7.6948 0.0000 33.3635
#
#
#
# Elastic Compliance Matrix: (Units=1/GPa)
#
#
# Indices 1 2 3 4 5 6 
#
# 1 0.010875 -0.004188 -0.002385 0.000000 0.007908 0.000000
# 2 -0.004188 0.015878 -0.000746 0.000000 -0.003885 0.000000
# 3 -0.002385 -0.000746 0.009841 0.000000 0.002107 0.000000
# 4 0.000000 0.000000 0.000000 0.031345 0.000000 0.007229
# 5 0.007908 -0.003885 0.002107 0.000000 0.035182 0.000000
# 6 0.000000 0.000000 0.000000 0.007229 0.000000 0.031640
#
#
# Mechanical properties :
#
#
# Convention : Reuss Voigt Hill
#
# Bulk Modulus (GPa) = 45.54803 54.25095 49.89949
# Shear Modulus (GPa) = 31.90422 36.41454 34.15938
#
# Velocity S-wave (km/s) = 3.52746 3.76856 3.65000
# Velocity P-wave (km/s) = 5.86129 6.33201 6.10119
#
# Compressibility (1/GPa) = 0.02195484
#
# Stress axis : x y z
#
# Youngs Moduli (GPa) = 91.95090 62.97865 101.61999
#
# Poissons Ratio (x) = 0.26378 0.24239
# Poissons Ratio (y) = 0.38513 0.07581
# Poissons Ratio (z) = 0.21933 0.04698
#
# Static dielectric constant tensor:
#      x y z
#    x 2.278630 0.000000 0.323580 
#    y 0.000000 2.018750 0.000000 
#    z 0.323580 0.000000 2.354840 
# 
# From -- ./inp_files/1900.got.cif
#   From: 2010.05.17/outbox.cif.g08.bks.cpg/sg4_1_cif.got.tgz:1900.got - 2010.06.03 18:43:04.
