data_PCOD9119085
_publ_section_title
;
Structure prediction by ZEFSAII (Michael W. Deem and Ramdas Pophale) SiO2 
 PCOD9119085
Probable space group: P 21
;
_chemical_formula_sum "Si O2"
_cell_formula_units_Z 16
_cell_length_a 9.227117
_cell_length_b 7.302877
_cell_length_c 9.835546
_cell_angle_alpha 90.000000
_cell_angle_beta 79.348618
_cell_angle_gamma 90.000000
_cell_volume 651.343935
_symmetry_space_group_name_H-M "P 21"
_symmetry_group_IT_number 4
_symmetry_cell_setting 'monoclinic'
loop_
_space_group_symop_operation_xyz
x,y,z
-x,1/2+y,-z
loop_
_atom_site_type_symbol
_atom_site_label
_atom_site_fract_x
_atom_site_fract_y
_atom_site_fract_z
Si Si1 0.309950 0.248010 0.094985
Si Si2 0.179269 0.603755 0.172589
Si Si3 0.374524 0.697826 0.909252
Si Si4 0.172559 0.736332 0.692628
Si Si5 0.304844 0.709823 0.401720
Si Si6 0.391729 0.289102 0.798000
Si Si7 0.121315 0.170154 0.670596
Si Si8 0.126727 0.078539 0.364699
O O1 0.190406 0.410836 0.094143
O O2 0.471799 0.305649 0.123257
O O3 0.237494 0.133242 0.225914
O O4 0.347146 0.169270 0.939267
O O5 0.229787 0.559621 0.317949
O O6 0.026145 0.705483 0.215978
O O7 0.304107 0.715817 0.071186
O O8 0.241837 0.731589 0.828977
O O9 0.416578 0.488671 0.860460
O O10 0.299848 0.681172 0.562574
O O11 0.034495 0.609320 0.674536
O O12 0.132440 0.949372 0.682128
O O13 0.465912 0.737975 0.313819
O O14 0.195609 0.883001 0.395950
O O15 0.255623 0.272069 0.718537
O O16 0.119479 0.194983 0.507364
#
# Coordination Sequence:
#
# PCOD9119085 Si02
#       8
#     2   2   2   2   2   2   2   2
#     4  11  24  46  67  96 139 179 225 277 338 405
#     4  11  24  44  70  96 134 180 222 279 339 396
#     4  11  26  43  67 102 136 179 225 277 343 401
#     4  11  26  43  67 102 136 179 225 277 343 401
#     4  11  24  44  70  96 134 180 222 279 339 396
#     4  11  26  43  68 104 135 177 227 279 340 404
#     4  11  26  43  68 104 135 177 227 279 340 404
#     4  11  24  46  67  96 139 179 225 277 338 405
#
# _framework density 24.564595000000001
#
# number of rings (size 3 to 8) (size 9 to 14) (size 15 to 20)
#    0.000    1.000    5.000    0.000    7.000    2.000 
#    0.000    0.000    0.000    0.000    0.000    0.000 
#    0.000    0.000    0.000    0.000    0.000    0.000 
#
# Total GULP energy -89331.801263 kJ/mol
# GULP energy per Si atom -5583.237579 kJ/mol
# Density = 2.450869 g / cm^3
# Si number density = 24.564595 Si / 1000 Ang^3
#
#
#
# Elastic Constant Matrix: (Units=GPa)
#
#
# Indices 1 2 3 4 5 6 
#
# 1 148.3646 21.4377 60.3396 0.0000 -7.8372 0.0000
# 2 21.4377 45.7578 15.9674 0.0000 -9.3789 0.0000
# 3 60.3396 15.9674 117.5056 0.0000 -16.7357 0.0000
# 4 0.0000 0.0000 0.0000 31.1129 0.0000 0.6489
# 5 -7.8372 -9.3789 -16.7357 0.0000 52.3997 0.0000
# 6 0.0000 0.0000 0.0000 0.6489 0.0000 30.7854
#
#
#
# Elastic Compliance Matrix: (Units=1/GPa)
#
#
# Indices 1 2 3 4 5 6 
#
# 1 0.008835 -0.002769 -0.004236 0.000000 -0.000527 0.000000
# 2 -0.002769 0.024354 -0.001389 0.000000 0.003501 0.000000
# 3 -0.004236 -0.001389 0.011261 0.000000 0.002714 0.000000
# 4 0.000000 0.000000 0.000000 0.032155 0.000000 -0.000678
# 5 -0.000527 0.003501 0.002714 0.000000 0.020499 0.000000
# 6 0.000000 0.000000 0.000000 -0.000678 0.000000 0.032497
#
#
# Mechanical properties :
#
#
# Convention : Reuss Voigt Hill
#
# Bulk Modulus (GPa) = 36.15012 56.34639 46.24825
# Shear Modulus (GPa) = 32.13191 37.11848 34.62519
#
# Velocity S-wave (km/s) = 3.62063 3.89145 3.75848
# Velocity P-wave (km/s) = 5.67688 6.57107 6.14027
#
# Compressibility (1/GPa) = 0.02766243
#
# Stress axis : x y z
#
# Youngs Moduli (GPa) = 113.18541 41.06123 88.80581
#
# Poissons Ratio (x) = 0.11371 0.37615
# Poissons Ratio (y) = 0.31344 0.12332
# Poissons Ratio (z) = 0.47941 0.05702
#
# Static dielectric constant tensor:
#      x y z
#    x 1.914120 0.000000 0.000340 
#    y 0.000000 2.086700 0.000000 
#    z 0.000340 0.000000 1.938380 
# 
# From -- ./inp_files/5591.got.cif
#   From: 2010.05.17/outbox.cif.g08.bks.cpg/sg4_3_cif.got.tgz:5591.got - 2010.06.03 18:43:04.
