data_PCOD9119976
_publ_section_title
;
Structure prediction by ZEFSAII (Michael W. Deem and Ramdas Pophale) SiO2 
 PCOD9119976
Probable space group: C 2
;
_chemical_formula_sum "Si O2"
_cell_formula_units_Z 30
_cell_length_a 19.298327
_cell_length_b 8.076606
_cell_length_c 21.641306
_cell_angle_alpha 90.000000
_cell_angle_beta 150.543270
_cell_angle_gamma 90.000000
_cell_volume 1658.787035
_symmetry_space_group_name_H-M "C 2"
_symmetry_group_IT_number 5
_symmetry_cell_setting 'monoclinic'
loop_
_space_group_symop_operation_xyz
x,y,z
-x,y,-z
1/2+x,1/2+y,z
1/2-x,1/2+y,-z
loop_
_atom_site_type_symbol
_atom_site_label
_atom_site_fract_x
_atom_site_fract_y
_atom_site_fract_z
Si Si1 0.577091 0.407220 0.494093
Si Si2 0.500000 0.943253 0.500000
Si Si3 0.691303 0.538847 0.277219
Si Si4 0.417041 0.713105 0.326486
Si Si5 0.396600 0.217476 0.862547
Si Si6 0.703184 0.123173 0.515397
Si Si7 0.545301 0.866054 0.313614
Si Si8 0.896081 0.410422 0.776264
O O1 0.500000 0.394766 0.500000
O O2 0.493253 0.536958 0.387665
O O3 0.597566 0.237517 0.473230
O O4 0.737750 0.462198 0.632008
O O5 0.504676 0.826164 0.443232
O O6 0.352783 0.038373 0.377874
O O7 0.612272 0.383614 0.186014
O O8 0.713816 0.516595 0.368385
O O9 0.623633 0.721024 0.214447
O O10 0.261169 0.695115 0.232836
O O11 0.425517 0.797224 0.266023
O O12 0.439558 0.053008 0.857447
O O13 0.500000 0.241995 0.000000
O O14 0.825189 0.236300 0.582065
O O15 0.612734 0.028566 0.395580
O O16 0.514443 0.894589 0.217456
#
# Coordination Sequence:
#
# PCOD9119976 Si02
#       8
#     4   2   4   4   4   4   4   4
#     4  10  17  30  52  86 118 148 180 235 302 350
#     4  10  16  28  56  86 114 140 176 232 298 352
#     4   9  20  33  55  86 112 145 183 240 288 352
#     4  11  19  33  57  82 118 148 197 243 285 359
#     4  11  24  41  62  79 108 159 213 252 285 320
#     4  10  21  28  53  84 125 153 175 220 302 380
#     4  10  20  33  51  86 123 152 181 224 303 375
#     4  10  22  36  58  85 123 148 183 243 299 364
#
# _framework density 18.085504
#
# number of rings (size 3 to 8) (size 9 to 14) (size 15 to 20)
#    0.000    2.133    3.333    2.400    5.600    0.533 
#    0.000    0.000    5.867    0.000    0.000    0.000 
#    0.000    0.000    0.000    0.000    0.000    0.000 
#
# Total GULP energy -83599.006363 kJ/mol
# GULP energy per Si atom -5573.267091 kJ/mol
# Density = 1.804434 g / cm^3
# Si number density = 18.085504 Si / 1000 Ang^3
#
#
#
# Elastic Constant Matrix: (Units=GPa)
#
#
# Indices 1 2 3 4 5 6 
#
# 1 83.0964 26.9291 4.0134 0.0000 -23.7940 0.0000
# 2 26.9291 99.2480 42.5293 0.0000 -22.1534 0.0000
# 3 4.0134 42.5293 46.8052 0.0000 -14.3642 0.0000
# 4 0.0000 0.0000 0.0000 19.6366 0.0000 -12.6071
# 5 -23.7940 -22.1534 -14.3642 0.0000 15.2336 0.0000
# 6 0.0000 0.0000 0.0000 -12.6071 0.0000 31.2009
#
#
#
# Elastic Compliance Matrix: (Units=1/GPa)
#
#
# Indices 1 2 3 4 5 6 
#
# 1 0.028268 -0.002302 0.017155 0.000000 0.056980 0.000000
# 2 -0.002302 0.019073 -0.013684 0.000000 0.011237 0.000000
# 3 0.017155 -0.013684 0.048471 0.000000 0.052599 0.000000
# 4 0.000000 0.000000 0.000000 0.068764 0.000000 0.027785
# 5 0.056980 0.011237 0.052599 0.000000 0.220583 0.000000
# 6 0.000000 0.000000 0.000000 0.027785 0.000000 0.043277
#
#
# Mechanical properties :
#
#
# Convention : Reuss Voigt Hill
#
# Bulk Modulus (GPa) = 10.18871 41.78811 25.98841
# Shear Modulus (GPa) = 10.89766 23.59275 17.24520
#
# Velocity S-wave (km/s) = 2.45738 3.61572 3.09129
# Velocity P-wave (km/s) = 3.70101 6.37081 5.20983
#
# Compressibility (1/GPa) = 0.09814786
#
# Stress axis : x y z
#
# Youngs Moduli (GPa) = 35.37612 52.43127 20.63102
#
# Poissons Ratio (x) = 0.12072 -0.35393
# Poissons Ratio (y) = 0.08145 0.28232
# Poissons Ratio (z) = -0.60688 0.71748
#
# Static dielectric constant tensor:
#      x y z
#    x 1.681530 0.000000 -0.022820 
#    y 0.000000 1.677500 0.000000 
#    z -0.022820 0.000000 1.576450 
# 
# From -- ./inp_files/48274.got.cif
#   From: 2010.05.17/outbox.cif.g08.bks.cpg/sg5_25_cif.got.tgz:48274.got - 2010.06.03 18:56:24.
