data_PCOD9119467
_publ_section_title
;
Structure prediction by ZEFSAII (Michael W. Deem and Ramdas Pophale) SiO2 
 PCOD9119467
Probable space group: P 21
;
_chemical_formula_sum "Si O2"
_cell_formula_units_Z 16
_cell_length_a 18.689033
_cell_length_b 8.566916
_cell_length_c 10.227817
_cell_angle_alpha 90.000000
_cell_angle_beta 26.325982
_cell_angle_gamma 90.000000
_cell_volume 726.216399
_symmetry_space_group_name_H-M "P 21"
_symmetry_group_IT_number 4
_symmetry_cell_setting 'monoclinic'
loop_
_space_group_symop_operation_xyz
x,y,z
-x,1/2+y,-z
loop_
_atom_site_type_symbol
_atom_site_label
_atom_site_fract_x
_atom_site_fract_y
_atom_site_fract_z
Si Si1 0.603888 0.993510 0.943130
Si Si2 0.722153 0.675220 0.125981
Si Si3 0.023757 0.185220 0.065490
Si Si4 0.419083 0.503789 0.709997
Si Si5 0.873557 0.194650 0.854862
Si Si6 0.701574 0.333204 0.676959
Si Si7 0.105279 0.344246 0.685826
Si Si8 0.147025 0.976198 0.316200
O O1 0.740565 0.881483 0.656336
O O2 0.632190 0.165378 0.836702
O O3 0.430874 0.924501 0.188492
O O4 0.620361 0.004601 0.071688
O O5 0.603626 0.548782 0.384855
O O6 0.629645 0.837767 0.267933
O O7 0.879840 0.693974 0.956729
O O8 0.769604 0.610178 0.906754
O O9 0.867092 0.295773 0.330087
O O10 0.134920 0.237145 0.763167
O O11 0.957942 0.010878 0.160612
O O12 0.305983 0.633747 0.827078
O O13 0.872746 0.326046 0.744022
O O14 0.966762 0.264688 0.825662
O O15 0.975534 0.045162 0.640058
O O16 0.749819 0.429912 0.726908
#
# Coordination Sequence:
#
# PCOD9119467 Si02
#       8
#     2   2   2   2   2   2   2   2
#     4  11  27  49  69 108 144 187 242 296 360 434
#     4  12  28  47  72 107 145 186 244 302 366 430
#     4  11  27  49  69 108 144 187 242 296 360 434
#     4  12  28  47  72 107 145 186 244 302 366 430
#     4  12  24  45  75 105 143 192 240 294 362 433
#     4  11  27  46  74 104 142 191 239 296 363 430
#     4  11  27  46  74 104 142 191 239 296 363 430
#     4  12  24  45  75 105 143 192 240 294 362 433
#
# _framework density 22.032
#
# number of rings (size 3 to 8) (size 9 to 14) (size 15 to 20)
#    0.000    0.500    2.500    4.500   10.500    0.000 
#    0.000    0.000    0.000    0.000    0.000    0.000 
#    0.000    0.000    0.000    0.000    0.000    0.000 
#
# Total GULP energy -89665.626412 kJ/mol
# GULP energy per Si atom -5604.101651 kJ/mol
# Density = 2.198185 g / cm^3
# Si number density = 22.032000 Si / 1000 Ang^3
#
#
#
# Elastic Constant Matrix: (Units=GPa)
#
#
# Indices 1 2 3 4 5 6 
#
# 1 70.0601 23.8040 4.4143 0.0000 -12.3263 0.0000
# 2 23.8040 50.8237 3.4693 0.0000 -15.7758 0.0000
# 3 4.4143 3.4693 74.7808 0.0000 -12.6043 0.0000
# 4 0.0000 0.0000 0.0000 37.0553 0.0000 -0.5643
# 5 -12.3263 -15.7758 -12.6043 0.0000 33.2512 0.0000
# 6 0.0000 0.0000 0.0000 -0.5643 0.0000 45.9114
#
#
#
# Elastic Compliance Matrix: (Units=1/GPa)
#
#
# Indices 1 2 3 4 5 6 
#
# 1 0.017229 -0.007149 -0.000193 0.000000 0.002922 0.000000
# 2 -0.007149 0.026089 0.000909 0.000000 0.010072 0.000000
# 3 -0.000193 0.000909 0.014317 0.000000 0.005787 0.000000
# 4 0.000000 0.000000 0.000000 0.026992 0.000000 0.000332
# 5 0.002922 0.010072 0.005787 0.000000 0.038129 0.000000
# 6 0.000000 0.000000 0.000000 0.000332 0.000000 0.021785
#
#
# Mechanical properties :
#
#
# Convention : Reuss Voigt Hill
#
# Bulk Modulus (GPa) = 22.33700 28.78218 25.55959
# Shear Modulus (GPa) = 29.01425 34.17539 31.59482
#
# Velocity S-wave (km/s) = 3.63287 3.94276 3.79098
# Velocity P-wave (km/s) = 5.26853 5.81544 5.54873
#
# Compressibility (1/GPa) = 0.04476877
#
# Stress axis : x y z
#
# Youngs Moduli (GPa) = 58.04262 38.33093 69.84697
#
# Poissons Ratio (x) = 0.27404 0.01347
# Poissons Ratio (y) = 0.41496 -0.06351
# Poissons Ratio (z) = 0.01119 -0.03486
#
# Static dielectric constant tensor:
#      x y z
#    x 1.748170 0.000000 -0.004330 
#    y 0.000000 1.797770 0.000000 
#    z -0.004330 0.000000 1.806280 
# 
# From -- ./inp_files/5410.got.cif
#   From: 2010.05.17/outbox.cif.g08.bks.cpg/sg4_3_cif.got.tgz:5410.got - 2010.06.03 18:43:04.
