data_PCOD9119122
_publ_section_title
;
Structure prediction by ZEFSAII (Michael W. Deem and Ramdas Pophale) SiO2 
 PCOD9119122
Probable space group: P 21
;
_chemical_formula_sum "Si O2"
_cell_formula_units_Z 16
_cell_length_a 7.034991
_cell_length_b 5.162494
_cell_length_c 22.766890
_cell_angle_alpha 90.000000
_cell_angle_beta 131.516394
_cell_angle_gamma 90.000000
_cell_volume 619.117366
_symmetry_space_group_name_H-M "P 21"
_symmetry_group_IT_number 4
_symmetry_cell_setting 'monoclinic'
loop_
_space_group_symop_operation_xyz
x,y,z
-x,1/2+y,-z
loop_
_atom_site_type_symbol
_atom_site_label
_atom_site_fract_x
_atom_site_fract_y
_atom_site_fract_z
Si Si1 0.161773 0.553890 0.359856
Si Si2 0.352902 0.520172 0.277067
Si Si3 0.685687 0.879209 0.294196
Si Si4 0.620516 0.202907 0.043218
Si Si5 0.440075 0.954635 0.124927
Si Si6 0.183966 0.739211 0.574339
Si Si7 0.352824 0.389448 0.519281
Si Si8 0.841174 0.920295 0.889359
O O1 0.166049 0.471562 0.292752
O O2 0.263572 0.377274 0.433907
O O3 0.376000 0.779056 0.409086
O O4 0.883641 0.651962 0.318670
O O5 0.412111 0.810946 0.267684
O O6 0.625634 0.447246 0.359312
O O7 0.283996 0.392743 0.201489
O O8 0.626229 0.995333 0.218645
O O9 0.816060 0.041267 0.371356
O O10 0.864889 0.363128 0.067940
O O11 0.604904 0.033936 0.100965
O O12 0.435780 0.455756 0.010992
O O13 0.288631 0.681908 0.108669
O O14 0.231694 0.178474 0.085624
O O15 0.322896 0.668624 0.542258
O O16 0.889855 0.763535 0.498498
#
# Coordination Sequence:
#
# PCOD9119122 Si02
#       8
#     2   2   2   2   2   2   2   2
#     4  12  24  41  63  98 132 188 246 306 378 450
#     4  11  24  45  69  98 139 186 246 311 370 439
#     4  11  24  45  69  98 139 186 246 311 370 439
#     4  12  28  51  83 124 168 206 256 320 388 482
#     4  11  26  49  82 117 158 208 261 317 387 463
#     4  12  22  44  64  90 138 182 234 318 372 446
#     4  12  24  38  62  94 134 184 244 302 386 454
#     4  11  26  49  82 117 158 208 261 317 387 463
#
# _framework density 25.843243000000001
#
# number of rings (size 3 to 8) (size 9 to 14) (size 15 to 20)
#    0.000    0.500    3.750    4.500    0.000    9.000 
#    0.000    0.000    0.000    0.000    0.000    0.000 
#    0.000    0.000    0.000    0.000    0.000    0.000 
#
# Total GULP energy -89127.841681 kJ/mol
# GULP energy per Si atom -5570.490105 kJ/mol
# Density = 2.578442 g / cm^3
# Si number density = 25.843243 Si / 1000 Ang^3
#
#
#
# Elastic Constant Matrix: (Units=GPa)
#
#
# Indices 1 2 3 4 5 6 
#
# 1 144.2558 36.9145 18.1756 0.0000 -24.4789 0.0000
# 2 36.9145 102.5943 11.4937 0.0000 -6.9340 0.0000
# 3 18.1756 11.4937 68.4594 0.0000 -12.9877 0.0000
# 4 0.0000 0.0000 0.0000 30.4295 0.0000 -4.1270
# 5 -24.4789 -6.9340 -12.9877 0.0000 40.3455 0.0000
# 6 0.0000 0.0000 0.0000 -4.1270 0.0000 49.2114
#
#
#
# Elastic Compliance Matrix: (Units=1/GPa)
#
#
# Indices 1 2 3 4 5 6 
#
# 1 0.008474 -0.002644 -0.000976 0.000000 0.004373 0.000000
# 2 -0.002644 0.010818 -0.001135 0.000000 -0.000110 0.000000
# 3 -0.000976 -0.001135 0.015877 0.000000 0.004324 0.000000
# 4 0.000000 0.000000 0.000000 0.033241 0.000000 0.002788
# 5 0.004373 -0.000110 0.004324 0.000000 0.028812 0.000000
# 6 0.000000 0.000000 0.000000 0.002788 0.000000 0.020554
#
#
# Mechanical properties :
#
#
# Convention : Reuss Voigt Hill
#
# Bulk Modulus (GPa) = 38.97414 49.83081 44.40248
# Shear Modulus (GPa) = 36.80804 40.57899 38.69351
#
# Velocity S-wave (km/s) = 3.77806 3.96687 3.87362
# Velocity P-wave (km/s) = 5.84340 6.34864 6.10125
#
# Compressibility (1/GPa) = 0.02565804
#
# Stress axis : x y z
#
# Youngs Moduli (GPa) = 118.01182 92.43674 62.98330
#
# Poissons Ratio (x) = 0.24441 0.06149
# Poissons Ratio (y) = 0.31203 0.07150
# Poissons Ratio (z) = 0.11521 0.10494
#
# Static dielectric constant tensor:
#      x y z
#    x 2.074550 0.000000 -0.031590 
#    y 0.000000 2.300790 0.000000 
#    z -0.031590 0.000000 2.127250 
# 
# From -- ./inp_files/15454.got.cif
#   From: 2010.05.17/outbox.cif.g08.bks.cpg/sg4_8_cif.got.tgz:15454.got - 2010.06.03 18:43:04.
