data_PCOD9119059
_publ_section_title
;
Structure prediction by ZEFSAII (Michael W. Deem and Ramdas Pophale) SiO2 
 PCOD9119059
Probable space group: P 21
;
_chemical_formula_sum "Si O2"
_cell_formula_units_Z 10
_cell_length_a 12.338341
_cell_length_b 5.216493
_cell_length_c 5.628822
_cell_angle_alpha 90.000000
_cell_angle_beta 96.415317
_cell_angle_gamma 90.000000
_cell_volume 360.018524
_symmetry_space_group_name_H-M "P 21"
_symmetry_group_IT_number 4
_symmetry_cell_setting 'monoclinic'
loop_
_space_group_symop_operation_xyz
x,y,z
-x,1/2+y,-z
loop_
_atom_site_type_symbol
_atom_site_label
_atom_site_fract_x
_atom_site_fract_y
_atom_site_fract_z
Si Si1 0.962107 0.972430 0.103570
Si Si2 0.569130 0.779994 0.283765
Si Si3 0.763854 0.098475 0.308740
Si Si4 0.160483 0.093496 0.420807
Si Si5 0.639374 0.530818 0.804876
O O1 0.833819 0.017185 0.097189
O O2 0.033100 0.062529 0.346397
O O3 0.992120 0.677579 0.073111
O O4 0.634878 0.050083 0.277277
O O5 0.599127 0.675765 0.552726
O O6 0.439039 0.785404 0.230199
O O7 0.613107 0.642471 0.056884
O O8 0.809847 0.882666 0.502456
O O9 0.797215 0.384133 0.382194
O O10 0.232227 0.012894 0.208406
#
# Coordination Sequence:
#
# PCOD9119059 Si02
#       5
#     2   2   2   2   2
#     4  12  24  40  66 100 138 182 234 290 352 418
#     4  11  24  43  69 103 142 186 236 290 351 417
#     4  11  24  44  68  97 137 184 234 288 350 417
#     4  11  24  44  68  97 137 184 234 288 350 417
#     4  11  24  43  69 103 142 186 236 290 351 417
#
# _framework density 27.776349
#
# number of rings (size 3 to 8) (size 9 to 14) (size 15 to 20)
#    0.000    0.800    0.000    7.200    0.000    8.000 
#    0.000    0.000    0.000    0.000    0.000    0.000 
#    0.000    0.000    0.000    0.000    0.000    0.000 
#
# Total GULP energy -55958.856425 kJ/mol
# GULP energy per Si atom -5595.885643 kJ/mol
# Density = 2.771313 g / cm^3
# Si number density = 27.776349 Si / 1000 Ang^3
#
#
#
# Elastic Constant Matrix: (Units=GPa)
#
#
# Indices 1 2 3 4 5 6 
#
# 1 95.3372 32.1309 23.0205 0.0000 -23.7496 0.0000
# 2 32.1309 71.4758 58.2930 0.0000 5.9138 0.0000
# 3 23.0205 58.2930 142.0978 0.0000 -6.8175 0.0000
# 4 0.0000 0.0000 0.0000 59.0115 0.0000 4.6002
# 5 -23.7496 5.9138 -6.8175 0.0000 53.4309 0.0000
# 6 0.0000 0.0000 0.0000 4.6002 0.0000 47.5118
#
#
#
# Elastic Compliance Matrix: (Units=1/GPa)
#
#
# Indices 1 2 3 4 5 6 
#
# 1 0.014961 -0.008562 0.001462 0.000000 0.007784 0.000000
# 2 -0.008562 0.026576 -0.009900 0.000000 -0.008010 0.000000
# 3 0.001462 -0.009900 0.011013 0.000000 0.003151 0.000000
# 4 0.000000 0.000000 0.000000 0.017075 0.000000 -0.001653
# 5 0.007784 -0.008010 0.003151 0.000000 0.023464 0.000000
# 6 0.000000 0.000000 0.000000 -0.001653 0.000000 0.021207
#
#
# Mechanical properties :
#
#
# Convention : Reuss Voigt Hill
#
# Bulk Modulus (GPa) = 53.90563 59.53328 56.71946
# Shear Modulus (GPa) = 32.36696 45.02194 38.69445
#
# Velocity S-wave (km/s) = 3.41731 4.03037 3.73644
# Velocity P-wave (km/s) = 5.91776 6.56797 6.25132
#
# Compressibility (1/GPa) = 0.01855094
#
# Stress axis : x y z
#
# Youngs Moduli (GPa) = 66.84194 37.62776 90.80299
#
# Poissons Ratio (x) = 0.32216 -0.13276
# Poissons Ratio (y) = 0.57229 0.89892
# Poissons Ratio (z) = -0.09773 0.37250
#
# Static dielectric constant tensor:
#      x y z
#    x 2.157130 0.000000 -0.020100 
#    y 0.000000 2.178900 0.000000 
#    z -0.020100 0.000000 2.214510 
# 
# From -- ./inp_files/2290.got.cif
#   From: 2010.05.17/outbox.cif.g08.bks.cpg/sg4_2_cif.got.tgz:2290.got - 2010.06.03 18:43:04.
