data_PCOD9119971
_publ_section_title
;
Structure prediction by ZEFSAII (Michael W. Deem and Ramdas Pophale) SiO2 
 PCOD9119971
Probable space group: C 2
;
_chemical_formula_sum "Si O2"
_cell_formula_units_Z 28
_cell_length_a 17.595204
_cell_length_b 8.126357
_cell_length_c 8.295567
_cell_angle_alpha 90.000000
_cell_angle_beta 109.521836
_cell_angle_gamma 90.000000
_cell_volume 1117.954642
_symmetry_space_group_name_H-M "C 2"
_symmetry_group_IT_number 5
_symmetry_cell_setting 'monoclinic'
loop_
_space_group_symop_operation_xyz
x,y,z
-x,y,-z
1/2+x,1/2+y,z
1/2-x,1/2+y,-z
loop_
_atom_site_type_symbol
_atom_site_label
_atom_site_fract_x
_atom_site_fract_y
_atom_site_fract_z
Si Si1 0.910912 0.187110 0.147560
Si Si2 0.000000 0.456678 0.000000
Si Si3 0.265275 0.113749 0.862822
Si Si4 0.118666 0.411485 0.344570
Si Si5 0.700062 0.305524 0.440640
Si Si6 0.211855 0.731770 0.799008
Si Si7 0.627754 0.561705 0.184341
Si Si8 0.500000 0.784171 0.500000
O O1 0.819974 0.194428 0.145848
O O2 0.943220 0.350725 0.082086
O O3 0.962573 0.166690 0.340752
O O4 0.918241 0.046894 0.016674
O O5 0.068496 0.523771 0.176995
O O6 0.284006 0.182743 0.698149
O O7 0.249537 0.916811 0.847658
O O8 0.322337 0.174242 0.051704
O O9 0.213403 0.393529 0.461153
O O10 0.105417 0.232698 0.251109
O O11 0.067947 0.399962 0.471490
O O12 0.670294 0.240130 0.593529
O O13 0.633573 0.426308 0.322097
O O14 0.280849 0.596197 0.811238
#
# Coordination Sequence:
#
# PCOD9119971 Si02
#       8
#     4   2   4   4   4   4   4   2
#     4   9  17  29  48  74 108 143 182 238 284 329
#     4   8  16  30  48  72 112 140 188 240 288 322
#     4  11  20  34  52  81 117 146 193 231 283 353
#     4   9  17  30  50  77 111 146 189 234 291 329
#     4  11  20  34  54  81 123 151 183 236 298 353
#     4  10  21  33  52  77 117 156 183 231 286 346
#     4   9  19  34  49  78 119 146 177 230 294 355
#     4  10  16  28  50  76 110 140 192 246 280 314
#
# _framework density 25.045738
#
# number of rings (size 3 to 8) (size 9 to 14) (size 15 to 20)
#    0.000    2.286    1.429    4.286    0.000    0.000 
#    0.000    0.000    0.000    0.000    0.000    1.000 
#   38.571   41.143    0.000    0.000    0.000    0.000 
#
# Total GULP energy -77934.187317 kJ/mol
# GULP energy per Si atom -5566.727666 kJ/mol
# Density = 2.498873 g / cm^3
# Si number density = 25.045738 Si / 1000 Ang^3
#
#
#
# Elastic Constant Matrix: (Units=GPa)
#
#
# Indices 1 2 3 4 5 6 
#
# 1 63.3910 9.0981 26.7064 0.0000 8.2975 0.0000
# 2 9.0981 67.3246 55.6293 0.0000 -7.5165 0.0000
# 3 26.7064 55.6293 252.1882 0.0000 -11.0653 0.0000
# 4 0.0000 0.0000 0.0000 38.9244 0.0000 1.7675
# 5 8.2975 -7.5165 -11.0653 0.0000 34.1600 0.0000
# 6 0.0000 0.0000 0.0000 1.7675 0.0000 14.1058
#
#
#
# Elastic Compliance Matrix: (Units=1/GPa)
#
#
# Indices 1 2 3 4 5 6 
#
# 1 0.017390 -0.001484 -0.001738 0.000000 -0.005114 0.000000
# 2 -0.001484 0.018547 -0.003793 0.000000 0.003213 0.000000
# 3 -0.001738 -0.003793 0.005040 0.000000 0.001220 0.000000
# 4 0.000000 0.000000 0.000000 0.025838 0.000000 -0.003238
# 5 -0.005114 0.003213 0.001220 0.000000 0.031618 0.000000
# 6 0.000000 0.000000 0.000000 -0.003238 0.000000 0.071298
#
#
# Mechanical properties :
#
#
# Convention : Reuss Voigt Hill
#
# Bulk Modulus (GPa) = 37.11341 62.86349 49.98845
# Shear Modulus (GPa) = 25.94111 36.86940 31.40525
#
# Velocity S-wave (km/s) = 3.22180 3.84094 3.54491
# Velocity P-wave (km/s) = 5.35634 6.69510 6.06279
#
# Compressibility (1/GPa) = 0.02694444
#
# Stress axis : x y z
#
# Youngs Moduli (GPa) = 57.50449 53.91756 198.42778
#
# Poissons Ratio (x) = 0.08004 0.34497
# Poissons Ratio (y) = 0.08536 0.75264
# Poissons Ratio (z) = 0.09997 0.20451
#
# Static dielectric constant tensor:
#      x y z
#    x 2.082850 0.000000 0.022030 
#    y 0.000000 2.078540 0.000000 
#    z 0.022030 0.000000 2.112670 
# 
# From -- ./inp_files/30483.got.cif
#   From: 2010.05.17/outbox.cif.g08.bks.cpg/sg5_16_cif.got.tgz:30483.got - 2010.06.03 18:56:24.
