data_PCOD9119188
_publ_section_title
;
Structure prediction by ZEFSAII (Michael W. Deem and Ramdas Pophale) SiO2 
 PCOD9119188
Probable space group: P 21
;
_chemical_formula_sum "Si O2"
_cell_formula_units_Z 16
_cell_length_a 9.385553
_cell_length_b 6.103315
_cell_length_c 21.860641
_cell_angle_alpha 90.000000
_cell_angle_beta 146.054183
_cell_angle_gamma 90.000000
_cell_volume 699.263220
_symmetry_space_group_name_H-M "P 21"
_symmetry_group_IT_number 4
_symmetry_cell_setting 'monoclinic'
loop_
_space_group_symop_operation_xyz
x,y,z
-x,1/2+y,-z
loop_
_atom_site_type_symbol
_atom_site_label
_atom_site_fract_x
_atom_site_fract_y
_atom_site_fract_z
Si Si1 0.745923 0.846550 0.389396
Si Si2 0.046088 0.006951 0.615174
Si Si3 0.524079 0.180260 0.219106
Si Si4 0.392226 0.402963 0.446831
Si Si5 0.683790 0.024567 0.712284
Si Si6 0.980881 0.710450 0.910678
Si Si7 0.472322 0.972200 0.080627
Si Si8 0.857805 0.811779 0.115201
O O1 0.916049 0.754454 0.394096
O O2 0.546860 0.663536 0.341808
O O3 0.917224 0.901052 0.508840
O O4 0.595770 0.049957 0.306449
O O5 0.325442 0.906558 0.725943
O O6 0.869037 0.951126 0.609343
O O7 0.614308 0.056510 0.190795
O O8 0.216486 0.181895 0.104393
O O9 0.474388 0.150923 0.496741
O O10 0.387277 0.382830 0.371666
O O11 0.906008 0.188704 0.769861
O O12 0.824640 0.884409 0.814167
O O13 0.022021 0.499048 0.883905
O O14 0.263097 0.792833 0.025836
O O15 0.669783 0.891298 0.100727
O O16 0.309146 0.159673 0.988767
#
# Coordination Sequence:
#
# PCOD9119188 Si02
#       8
#     2   2   2   2   2   2   2   2
#     4  12  25  48  71 104 147 199 244 310 381 454
#     4  12  28  46  73 105 152 195 253 307 381 450
#     4  12  28  44  74 108 144 193 251 312 373 464
#     4  12  31  48  77 112 154 204 258 318 374 459
#     4  11  26  46  72 103 144 199 245 304 387 452
#     4  11  25  46  70  99 146 188 241 309 382 457
#     4  11  27  45  72 105 140 187 251 305 387 452
#     4  11  24  47  71 100 141 193 235 311 379 462
#
# _framework density 22.881228
#
# number of rings (size 3 to 8) (size 9 to 14) (size 15 to 20)
#    0.000    0.500    6.250    0.000   12.250    1.000 
#    0.000    0.000    0.000    0.000    0.000    0.000 
#    0.000    0.000    0.000    0.000    0.000    0.000 
#
# Total GULP energy -89378.559090 kJ/mol
# GULP energy per Si atom -5586.159943 kJ/mol
# Density = 2.282915 g / cm^3
# Si number density = 22.881228 Si / 1000 Ang^3
#
#
#
# Elastic Constant Matrix: (Units=GPa)
#
#
# Indices 1 2 3 4 5 6 
#
# 1 108.2910 8.0541 6.0516 0.0000 16.1200 0.0000
# 2 8.0541 46.8288 1.2849 0.0000 13.9481 0.0000
# 3 6.0516 1.2849 45.2731 0.0000 -1.7676 0.0000
# 4 0.0000 0.0000 0.0000 31.4539 0.0000 8.5961
# 5 16.1200 13.9481 -1.7676 0.0000 44.0913 0.0000
# 6 0.0000 0.0000 0.0000 8.5961 0.0000 44.2463
#
#
#
# Elastic Compliance Matrix: (Units=1/GPa)
#
#
# Indices 1 2 3 4 5 6 
#
# 1 0.009878 -0.000626 -0.001438 0.000000 -0.003471 0.000000
# 2 -0.000626 0.023657 -0.000872 0.000000 -0.007290 0.000000
# 3 -0.001438 -0.000872 0.022371 0.000000 0.001699 0.000000
# 4 0.000000 0.000000 0.000000 0.033575 0.000000 -0.006523
# 5 -0.003471 -0.007290 0.001699 0.000000 0.026324 0.000000
# 6 0.000000 0.000000 0.000000 -0.006523 0.000000 0.023868
#
#
# Mechanical properties :
#
#
# Convention : Reuss Voigt Hill
#
# Bulk Modulus (GPa) = 19.98622 25.68601 22.83612
# Shear Modulus (GPa) = 30.82156 36.29178 33.55667
#
# Velocity S-wave (km/s) = 3.67416 3.98690 3.83372
# Velocity P-wave (km/s) = 5.17233 5.69596 5.44045
#
# Compressibility (1/GPa) = 0.05003448
#
# Stress axis : x y z
#
# Youngs Moduli (GPa) = 101.23517 42.27026 44.69976
#
# Poissons Ratio (x) = 0.02644 0.06429
# Poissons Ratio (y) = 0.06333 0.03900
# Poissons Ratio (z) = 0.14559 0.03688
#
# Static dielectric constant tensor:
#      x y z
#    x 1.846160 0.000000 0.059130 
#    y 0.000000 1.921700 0.000000 
#    z 0.059130 0.000000 1.866870 
# 
# From -- ./inp_files/7288.got.cif
#   From: 2010.05.17/outbox.cif.g08.bks.cpg/sg4_4_cif.got.tgz:7288.got - 2010.06.03 18:43:04.
