data_PCOD9119806
_publ_section_title
;
Structure prediction by ZEFSAII (Michael W. Deem and Ramdas Pophale) SiO2 
 PCOD9119806
Probable space group: P 21
;
_chemical_formula_sum "Si O2"
_cell_formula_units_Z 14
_cell_length_a 9.000000
_cell_length_b 9.000000
_cell_length_c 12.000000
_cell_angle_alpha 90.000000
_cell_angle_beta 130.000000
_cell_angle_gamma 90.000000
_cell_volume 744.595199
_symmetry_space_group_name_H-M "P 21"
_symmetry_group_IT_number 4
_symmetry_cell_setting 'monoclinic'
loop_
_space_group_symop_operation_xyz
x,y,z
-x,1/2+y,-z
loop_
_atom_site_type_symbol
_atom_site_label
_atom_site_fract_x
_atom_site_fract_y
_atom_site_fract_z
Si Si1 0.456481 0.610760 0.895596
Si Si2 0.562572 0.196514 0.683635
Si Si3 0.639348 0.503721 0.589972
Si Si4 0.730353 0.698557 0.842916
Si Si5 0.103002 0.515122 0.043956
Si Si6 0.382682 0.279668 0.820517
Si Si7 0.081263 0.482926 0.766892
O O1 0.533437 0.661308 0.052447
O O2 0.830283 0.831279 0.241338
O O3 0.561293 0.708742 0.853052
O O4 0.498527 0.436363 0.891573
O O5 0.593818 0.346760 0.627328
O O6 0.503094 0.062919 0.573296
O O7 0.752542 0.141354 0.841142
O O8 0.405756 0.228715 0.705061
O O9 0.647031 0.628949 0.690001
O O10 0.854380 0.496470 0.641470
O O11 0.837797 0.855452 0.877719
O O12 0.888639 0.578303 0.962107
O O13 0.116627 0.491253 0.916978
O O14 0.221753 0.609493 0.783025
#
# Coordination Sequence:
#
# PCOD9119806 Si02
#       7
#     2   2   2   2   2   2   2
#     4  10  19  36  65  91 123 153 198 254 311 358
#     4  12  23  42  61  87 124 168 205 259 310 368
#     4  11  24  41  61  87 126 165 208 254 306 372
#     4  11  21  37  62  93 125 158 203 260 309 368
#     4  11  21  35  63  94 119 160 207 257 308 362
#     4  10  20  38  62  91 123 159 196 257 312 363
#     4   9  20  37  62  89 120 151 203 255 300 365
#
# _framework density 18.802163
#
# number of rings (size 3 to 8) (size 9 to 14) (size 15 to 20)
#    0.857    0.571    4.286    2.571    0.000    0.000 
#    0.000    4.286    3.143    0.000    0.000    0.000 
#    0.000    0.000    0.000    0.000    0.000    0.000 
#
# Total GULP energy -78031.719410 kJ/mol
# GULP energy per Si atom -5573.694244 kJ/mol
# Density = 1.875937 g / cm^3
# Si number density = 18.802163 Si / 1000 Ang^3
#
#
#
# Elastic Constant Matrix: (Units=GPa)
#
#
# Indices 1 2 3 4 5 6 
#
# 1 94.1689 -1.6013 16.7005 0.0000 0.7313 0.0000
# 2 -1.6013 62.1803 3.4726 0.0000 -10.3615 0.0000
# 3 16.7005 3.4726 54.1924 0.0000 -3.2955 0.0000
# 4 0.0000 0.0000 0.0000 26.3420 0.0000 -5.2871
# 5 0.7313 -10.3615 -3.2955 0.0000 14.6587 0.0000
# 6 0.0000 0.0000 0.0000 -5.2871 0.0000 27.2315
#
#
#
# Elastic Compliance Matrix: (Units=1/GPa)
#
#
# Indices 1 2 3 4 5 6 
#
# 1 0.011265 0.000297 -0.003561 0.000000 -0.001153 0.000000
# 2 0.000297 0.018245 -0.000484 0.000000 0.012773 0.000000
# 3 -0.003561 -0.000484 0.019842 0.000000 0.004296 0.000000
# 4 0.000000 0.000000 0.000000 0.039502 0.000000 0.007669
# 5 -0.001153 0.012773 0.004296 0.000000 0.078271 0.000000
# 6 0.000000 0.000000 0.000000 0.007669 0.000000 0.038211
#
#
# Mechanical properties :
#
#
# Convention : Reuss Voigt Hill
#
# Bulk Modulus (GPa) = 23.89070 27.52056 25.70563
# Shear Modulus (GPa) = 22.04747 26.44444 24.24595
#
# Velocity S-wave (km/s) = 3.42804 3.75435 3.59490
# Velocity P-wave (km/s) = 5.32941 5.78465 5.56169
#
# Compressibility (1/GPa) = 0.04185729
#
# Stress axis : x y z
#
# Youngs Moduli (GPa) = 88.77316 54.80830 50.39732
#
# Poissons Ratio (x) = -0.01627 0.17944
# Poissons Ratio (y) = -0.02635 0.02439
# Poissons Ratio (z) = 0.31608 0.02652
#
# Static dielectric constant tensor:
#      x y z
#    x 1.671740 0.000000 0.008860 
#    y 0.000000 1.657190 0.000000 
#    z 0.008860 0.000000 1.636860 
# 
# From -- ./inp_files/8050.got.cif
#   From: 2010.05.17/outbox.ucp.g08.bks.cvg/sg4_5_cif.got.tgz:8050.got - 2010.06.11 12:51:24.
