data_PCOD9119594
_publ_section_title
;
Structure prediction by ZEFSAII (Michael W. Deem and Ramdas Pophale) SiO2 
 PCOD9119594
Probable space group: P 21
;
_chemical_formula_sum "Si O2"
_cell_formula_units_Z 16
_cell_length_a 17.136435
_cell_length_b 5.671649
_cell_length_c 11.708376
_cell_angle_alpha 90.000000
_cell_angle_beta 32.282608
_cell_angle_gamma 90.000000
_cell_volume 607.778880
_symmetry_space_group_name_H-M "P 21"
_symmetry_group_IT_number 4
_symmetry_cell_setting 'monoclinic'
loop_
_space_group_symop_operation_xyz
x,y,z
-x,1/2+y,-z
loop_
_atom_site_type_symbol
_atom_site_label
_atom_site_fract_x
_atom_site_fract_y
_atom_site_fract_z
Si Si1 0.351400 0.368250 0.697328
Si Si2 0.832672 0.471511 0.200303
Si Si3 0.439056 0.025139 0.751095
Si Si4 0.105758 0.390037 0.501429
Si Si5 0.583922 0.389450 0.880380
Si Si6 0.293165 0.649452 0.463051
Si Si7 0.058481 0.654723 0.108304
Si Si8 0.192517 0.038885 0.224428
O O1 0.274402 0.176060 0.708574
O O2 0.416549 0.293106 0.739025
O O3 0.497256 0.423315 0.444188
O O4 0.215569 0.531407 0.904107
O O5 0.762821 0.236705 0.344472
O O6 0.946151 0.541172 0.157723
O O7 0.915330 0.409391 0.981058
O O8 0.565235 0.990625 0.686822
O O9 0.283911 0.975407 0.997957
O O10 0.188535 0.519694 0.502884
O O11 0.206380 0.286823 0.275929
O O12 0.019298 0.175865 0.673680
O O13 0.975353 0.530232 0.602946
O O14 0.646832 0.380816 0.674483
O O15 0.726647 0.372257 0.784669
O O16 0.503021 0.640489 0.997810
#
# Coordination Sequence:
#
# PCOD9119594 Si02
#       8
#     2   2   2   2   2   2   2   2
#     4  12  28  48  76 120 159 208 272 335 418 499
#     4  12  24  47  78 117 158 211 260 336 418 494
#     4  12  28  48  79 115 161 209 270 340 420 493
#     4  12  29  51  79 122 162 219 284 339 422 502
#     4  12  27  50  83 120 165 218 280 340 420 500
#     4  12  26  49  80 115 161 214 275 342 412 499
#     4  12  25  46  80 115 162 208 268 338 407 501
#     4  12  29  51  81 116 166 217 273 352 415 504
#
# _framework density 26.325362999999999
#
# number of rings (size 3 to 8) (size 9 to 14) (size 15 to 20)
#    0.000    0.000    3.750    5.250    7.000    1.000 
#    0.000    0.000    0.000    0.000    0.000    0.000 
#    0.000    0.000    0.000    0.000    0.000    0.000 
#
# Total GULP energy -89368.791042 kJ/mol
# GULP energy per Si atom -5585.549440 kJ/mol
# Density = 2.626544 g / cm^3
# Si number density = 26.325363 Si / 1000 Ang^3
#
#
#
# Elastic Constant Matrix: (Units=GPa)
#
#
# Indices 1 2 3 4 5 6 
#
# 1 132.0413 22.4267 13.2502 0.0000 -15.2538 0.0000
# 2 22.4267 67.6746 27.0501 0.0000 -8.9910 0.0000
# 3 13.2502 27.0501 80.4362 0.0000 -16.5551 0.0000
# 4 0.0000 0.0000 0.0000 49.4963 0.0000 1.0769
# 5 -15.2538 -8.9910 -16.5551 0.0000 30.9413 0.0000
# 6 0.0000 0.0000 0.0000 1.0769 0.0000 54.5080
#
#
#
# Elastic Compliance Matrix: (Units=1/GPa)
#
#
# Indices 1 2 3 4 5 6 
#
# 1 0.008366 -0.002361 0.000139 0.000000 0.003513 0.000000
# 2 -0.002361 0.017863 -0.005382 0.000000 0.001147 0.000000
# 3 0.000139 -0.005382 0.015633 0.000000 0.006869 0.000000
# 4 0.000000 0.000000 0.000000 0.020212 0.000000 -0.000399
# 5 0.003513 0.001147 0.006869 0.000000 0.038059 0.000000
# 6 0.000000 0.000000 0.000000 -0.000399 0.000000 0.018354
#
#
# Mechanical properties :
#
#
# Convention : Reuss Voigt Hill
#
# Bulk Modulus (GPa) = 37.51925 45.06735 41.29330
# Shear Modulus (GPa) = 35.06778 41.48413 38.27596
#
# Velocity S-wave (km/s) = 3.65374 3.97397 3.81722
# Velocity P-wave (km/s) = 5.66417 6.18168 5.92857
#
# Compressibility (1/GPa) = 0.02665298
#
# Stress axis : x y z
#
# Youngs Moduli (GPa) = 119.52707 55.98245 63.96712
#
# Poissons Ratio (x) = 0.13219 -0.00888
# Poissons Ratio (y) = 0.28224 0.34428
# Poissons Ratio (z) = -0.01660 0.30130
#
# Static dielectric constant tensor:
#      x y z
#    x 2.007680 0.000000 -0.066800 
#    y 0.000000 2.247770 0.000000 
#    z -0.066800 0.000000 2.227830 
# 
# From -- ./inp_files/12796.got.cif
#   From: 2010.05.17/outbox.cif.g08.bks.cpg/sg4_7_cif.got.tgz:12796.got - 2010.06.03 18:43:04.
