data_PCOD9119295
_publ_section_title
;
Structure prediction by ZEFSAII (Michael W. Deem and Ramdas Pophale) SiO2 
 PCOD9119295
Probable space group: P 21
;
_chemical_formula_sum "Si O2"
_cell_formula_units_Z 14
_cell_length_a 16.153029
_cell_length_b 4.887246
_cell_length_c 9.881947
_cell_angle_alpha 90.000000
_cell_angle_beta 42.533814
_cell_angle_gamma 90.000000
_cell_volume 527.379910
_symmetry_space_group_name_H-M "P 21"
_symmetry_group_IT_number 4
_symmetry_cell_setting 'monoclinic'
loop_
_space_group_symop_operation_xyz
x,y,z
-x,1/2+y,-z
loop_
_atom_site_type_symbol
_atom_site_label
_atom_site_fract_x
_atom_site_fract_y
_atom_site_fract_z
Si Si1 0.147371 0.898290 0.331560
Si Si2 0.442236 0.021023 0.636677
Si Si3 0.305662 0.402405 0.073465
Si Si4 0.016710 0.234827 0.709434
Si Si5 0.765472 0.129367 0.134069
Si Si6 0.432705 0.855977 0.270124
Si Si7 0.729008 0.894090 0.477639
O O1 0.202872 0.598090 0.260989
O O2 0.055567 0.917669 0.314156
O O3 0.075193 0.991254 0.550170
O O4 0.261807 0.100711 0.166609
O O5 0.302118 0.925514 0.792888
O O6 0.491107 0.229293 0.464916
O O7 0.653091 0.613336 0.589375
O O8 0.491519 0.169390 0.710341
O O9 0.286272 0.473356 0.936510
O O10 0.445212 0.462381 0.951171
O O11 0.130988 0.360835 0.648122
O O12 0.910132 0.145861 0.939992
O O13 0.731978 0.003326 0.319142
O O14 0.334537 0.624806 0.352756
#
# Coordination Sequence:
#
# PCOD9119295 Si02
#       7
#     2   2   2   2   2   2   2
#     4  11  25  50  82 108 136 199 276 327 357 444
#     4  12  24  41  72 107 152 207 255 304 359 459
#     4  11  25  44  80 112 143 198 266 322 369 437
#     4  11  27  53  81 110 154 205 262 318 385 450
#     4  11  26  45  75 112 155 202 250 308 384 460
#     4  12  26  46  70 112 160 200 250 306 393 460
#     4  12  29  45  72 115 164 201 235 315 401 476
#
# _framework density 26.546330000000001
#
# number of rings (size 3 to 8) (size 9 to 14) (size 15 to 20)
#    0.000    0.571    1.429    6.857    2.000    9.143 
#    0.000    2.857    0.000    3.429    0.000    0.000 
#    0.000    0.000    0.000    0.000    0.000    0.000 
#
# Total GULP energy -78415.043318 kJ/mol
# GULP energy per Si atom -5601.074523 kJ/mol
# Density = 2.648591 g / cm^3
# Si number density = 26.546330 Si / 1000 Ang^3
#
#
#
# Elastic Constant Matrix: (Units=GPa)
#
#
# Indices 1 2 3 4 5 6 
#
# 1 133.4817 13.5642 56.7388 0.0000 -33.1855 0.0000
# 2 13.5642 116.5207 36.8185 0.0000 -7.8405 0.0000
# 3 56.7388 36.8185 186.8305 0.0000 -32.7349 0.0000
# 4 0.0000 0.0000 0.0000 45.0296 0.0000 -11.1065
# 5 -33.1855 -7.8405 -32.7349 0.0000 63.1650 0.0000
# 6 0.0000 0.0000 0.0000 -11.1065 0.0000 28.0791
#
#
#
# Elastic Compliance Matrix: (Units=1/GPa)
#
#
# Indices 1 2 3 4 5 6 
#
# 1 0.009362 -0.000156 -0.002149 0.000000 0.003786 0.000000
# 2 -0.000156 0.009157 -0.001730 0.000000 0.000158 0.000000
# 3 -0.002149 -0.001730 0.006721 0.000000 0.002139 0.000000
# 4 0.000000 0.000000 0.000000 0.024608 0.000000 0.009734
# 5 0.003786 0.000158 0.002139 0.000000 0.018949 0.000000
# 6 0.000000 0.000000 0.000000 0.009734 0.000000 0.039464
#
#
# Mechanical properties :
#
#
# Convention : Reuss Voigt Hill
#
# Bulk Modulus (GPa) = 58.23777 72.34177 65.28977
# Shear Modulus (GPa) = 40.96533 49.23549 45.10041
#
# Velocity S-wave (km/s) = 3.93257 4.31130 4.12628
# Velocity P-wave (km/s) = 6.52733 7.21757 6.88111
#
# Compressibility (1/GPa) = 0.01717099
#
# Stress axis : x y z
#
# Youngs Moduli (GPa) = 106.81230 109.20031 148.79216
#
# Poissons Ratio (x) = 0.01704 0.31979
# Poissons Ratio (y) = 0.01667 0.25734
# Poissons Ratio (z) = 0.22956 0.18886
#
# Static dielectric constant tensor:
#      x y z
#    x 2.143950 0.000000 0.045220 
#    y 0.000000 2.067670 0.000000 
#    z 0.045220 0.000000 2.154740 
# 
# From -- ./inp_files/8571.got.cif
#   From: 2010.05.17/outbox.cif.g08.bks.cpg/sg4_5_cif.got.tgz:8571.got - 2010.06.03 18:43:04.
