data_PCOD9119166
_publ_section_title
;
Structure prediction by ZEFSAII (Michael W. Deem and Ramdas Pophale) SiO2 
 PCOD9119166
Probable space group: P 21
;
_chemical_formula_sum "Si O2"
_cell_formula_units_Z 16
_cell_length_a 11.553073
_cell_length_b 9.160975
_cell_length_c 8.769344
_cell_angle_alpha 90.000000
_cell_angle_beta 42.917047
_cell_angle_gamma 90.000000
_cell_volume 631.996098
_symmetry_space_group_name_H-M "P 21"
_symmetry_group_IT_number 4
_symmetry_cell_setting 'monoclinic'
loop_
_space_group_symop_operation_xyz
x,y,z
-x,1/2+y,-z
loop_
_atom_site_type_symbol
_atom_site_label
_atom_site_fract_x
_atom_site_fract_y
_atom_site_fract_z
Si Si1 0.943939 0.578220 0.251115
Si Si2 0.302951 0.506845 0.449669
Si Si3 0.923873 0.188958 0.553462
Si Si4 0.410911 0.809972 0.794857
Si Si5 0.430506 0.036021 0.259084
Si Si6 0.892805 0.838159 0.101123
Si Si7 0.794120 0.493109 0.794108
Si Si8 0.521478 0.764625 0.353598
O O1 0.741355 0.575846 0.480166
O O2 0.986873 0.702871 0.087005
O O3 0.034320 0.626060 0.319809
O O4 0.002682 0.425904 0.124716
O O5 0.222626 0.599844 0.391561
O O6 0.413846 0.367511 0.295652
O O7 0.166432 0.446012 0.703198
O O8 0.440816 0.608900 0.399146
O O9 0.884962 0.360809 0.609460
O O10 0.089570 0.134540 0.300648
O O11 0.416202 0.641925 0.841056
O O12 0.431986 0.819322 0.594807
O O13 0.262079 0.910079 0.000726
O O14 0.370307 0.041097 0.143357
O O15 0.479061 0.873212 0.258153
O O16 0.720024 0.774029 0.196060
#
# Coordination Sequence:
#
# PCOD9119166 Si02
#       8
#     2   2   2   2   2   2   2   2
#     4  11  26  48  72 107 149 191 239 302 361 433
#     4  11  24  48  72 106 148 185 246 296 358 438
#     4  11  26  49  68 108 145 188 242 294 363 439
#     4  11  25  45  74 103 141 189 239 300 358 428
#     4  11  24  48  69 106 146 182 244 296 363 427
#     4  11  26  45  76 108 144 194 239 299 368 429
#     4  11  27  45  74 100 145 194 230 303 358 432
#     4  11  24  46  73 110 140 187 241 304 355 428
#
# _framework density 25.316611000000002
#
# number of rings (size 3 to 8) (size 9 to 14) (size 15 to 20)
#    0.000    1.000    3.750    2.250    8.750    1.000 
#    4.500    0.000    0.000    0.000    0.000    0.000 
#    0.000    0.000    0.000    0.000    0.000    0.000 
#
# Total GULP energy -89674.902036 kJ/mol
# GULP energy per Si atom -5604.681377 kJ/mol
# Density = 2.525899 g / cm^3
# Si number density = 25.316611 Si / 1000 Ang^3
#
#
#
# Elastic Constant Matrix: (Units=GPa)
#
#
# Indices 1 2 3 4 5 6 
#
# 1 90.6410 16.2613 -0.2778 0.0000 0.9562 0.0000
# 2 16.2613 71.3585 9.5789 0.0000 3.5636 0.0000
# 3 -0.2778 9.5789 84.7924 0.0000 -8.6151 0.0000
# 4 0.0000 0.0000 0.0000 52.7247 0.0000 -8.0766
# 5 0.9562 3.5636 -8.6151 0.0000 13.4725 0.0000
# 6 0.0000 0.0000 0.0000 -8.0766 0.0000 39.8481
#
#
#
# Elastic Compliance Matrix: (Units=1/GPa)
#
#
# Indices 1 2 3 4 5 6 
#
# 1 0.011513 -0.002677 0.000352 0.000000 0.000116 0.000000
# 2 -0.002677 0.015191 -0.002261 0.000000 -0.005274 0.000000
# 3 0.000352 -0.002261 0.012950 0.000000 0.008854 0.000000
# 4 0.000000 0.000000 0.000000 0.019574 0.000000 0.003967
# 5 0.000116 -0.005274 0.008854 0.000000 0.081273 0.000000
# 6 0.000000 0.000000 0.000000 0.003967 0.000000 0.025899
#
#
# Mechanical properties :
#
#
# Convention : Reuss Voigt Hill
#
# Bulk Modulus (GPa) = 32.80619 33.10186 32.95403
# Shear Modulus (GPa) = 26.92066 35.95770 31.43918
#
# Velocity S-wave (km/s) = 3.26446 3.77280 3.52780
# Velocity P-wave (km/s) = 5.21492 5.66412 5.44416
#
# Compressibility (1/GPa) = 0.03048205
#
# Stress axis : x y z
#
# Youngs Moduli (GPa) = 86.86161 65.83061 77.22247
#
# Poissons Ratio (x) = 0.17620 -0.02717
# Poissons Ratio (y) = 0.23249 0.17457
# Poissons Ratio (z) = -0.03056 0.14882
#
# Static dielectric constant tensor:
#      x y z
#    x 1.964500 0.000000 -0.034330 
#    y 0.000000 1.945390 0.000000 
#    z -0.034330 0.000000 2.036150 
# 
# From -- ./inp_files/8005.got.cif
#   From: 2010.05.17/outbox.cif.g08.bks.cpg/sg4_5_cif.got.tgz:8005.got - 2010.06.03 18:43:04.
