data_PCOD9119350
_publ_section_title
;
Structure prediction by ZEFSAII (Michael W. Deem and Ramdas Pophale) SiO2 
 PCOD9119350
Probable space group: P 21
;
_chemical_formula_sum "Si O2"
_cell_formula_units_Z 16
_cell_length_a 8.671876
_cell_length_b 9.528288
_cell_length_c 18.022462
_cell_angle_alpha 90.000000
_cell_angle_beta 154.240726
_cell_angle_gamma 90.000000
_cell_volume 647.176624
_symmetry_space_group_name_H-M "P 21"
_symmetry_group_IT_number 4
_symmetry_cell_setting 'monoclinic'
loop_
_space_group_symop_operation_xyz
x,y,z
-x,1/2+y,-z
loop_
_atom_site_type_symbol
_atom_site_label
_atom_site_fract_x
_atom_site_fract_y
_atom_site_fract_z
Si Si1 0.056853 0.021850 0.354411
Si Si2 0.104609 0.772157 0.139477
Si Si3 0.570544 0.332871 0.360604
Si Si4 0.870773 0.780795 0.523158
Si Si5 0.620210 0.595950 0.144337
Si Si6 0.435993 0.355149 0.964916
Si Si7 0.635846 0.078570 0.483123
Si Si8 0.906553 0.011202 0.952452
O O1 0.992472 0.181269 0.352217
O O2 0.370401 0.027306 0.430382
O O3 0.207372 0.934468 0.488981
O O4 0.725644 0.948511 0.171526
O O5 0.491641 0.722575 0.331855
O O6 0.933795 0.649501 0.015726
O O7 0.872466 0.809840 0.110458
O O8 0.146725 0.910130 0.106627
O O9 0.449617 0.194178 0.351649
O O10 0.261105 0.416886 0.185297
O O11 0.843867 0.279434 0.417367
O O12 0.787734 0.940774 0.508952
O O13 0.421018 0.713758 0.009936
O O14 0.404054 0.559590 0.124827
O O15 0.011568 0.651785 0.331620
O O16 0.673949 0.457828 0.117343
#
# Coordination Sequence:
#
# PCOD9119350 Si02
#       8
#     2   2   2   2   2   2   2   2
#     4  12  25  45  70 102 135 182 226 282 343 398
#     4  11  25  47  67 102 138 178 226 282 335 411
#     4  12  25  45  70 102 135 182 226 282 343 398
#     4  12  24  44  70 101 139 176 227 282 334 404
#     4  11  25  47  67 102 138 178 226 282 335 411
#     4  11  26  46  69 100 140 179 229 276 346 404
#     4  12  24  44  70 101 139 176 227 282 334 404
#     4  11  26  46  69 100 140 179 229 276 346 404
#
# _framework density 24.722771999999999
#
# number of rings (size 3 to 8) (size 9 to 14) (size 15 to 20)
#    0.000    0.500    5.000    3.000    3.500    1.000 
#    0.000    0.000    0.000    0.000    0.000    0.000 
#    0.000    0.000    0.000    0.000    0.000    0.000 
#
# Total GULP energy -89722.788670 kJ/mol
# GULP energy per Si atom -5607.674292 kJ/mol
# Density = 2.466650 g / cm^3
# Si number density = 24.722772 Si / 1000 Ang^3
#
#
#
# Elastic Constant Matrix: (Units=GPa)
#
#
# Indices 1 2 3 4 5 6 
#
# 1 41.4727 5.8048 15.5327 0.0000 -17.1304 0.0000
# 2 5.8048 123.6885 21.0416 0.0000 -24.5173 0.0000
# 3 15.5327 21.0416 45.2681 0.0000 -10.9970 0.0000
# 4 0.0000 0.0000 0.0000 103.6753 0.0000 -50.5048
# 5 -17.1304 -24.5173 -10.9970 0.0000 32.9492 0.0000
# 6 0.0000 0.0000 0.0000 -50.5048 0.0000 59.1935
#
#
#
# Elastic Compliance Matrix: (Units=1/GPa)
#
#
# Indices 1 2 3 4 5 6 
#
# 1 0.034165 0.003359 -0.009100 0.000000 0.017225 0.000000
# 2 0.003359 0.010185 -0.003941 0.000000 0.008010 0.000000
# 3 -0.009100 -0.003941 0.027405 0.000000 0.001483 0.000000
# 4 0.000000 0.000000 0.000000 0.016506 0.000000 0.014083
# 5 0.017225 0.008010 0.001483 0.000000 0.045760 0.000000
# 6 0.000000 0.000000 0.000000 0.014083 0.000000 0.028910
#
#
# Mechanical properties :
#
#
# Convention : Reuss Voigt Hill
#
# Bulk Modulus (GPa) = 19.08708 32.79861 25.94284
# Shear Modulus (GPa) = 25.03020 50.36694 37.69857
#
# Velocity S-wave (km/s) = 3.18533 4.51851 3.90917
# Velocity P-wave (km/s) = 4.61147 6.36537 5.55804
#
# Compressibility (1/GPa) = 0.05239147
#
# Stress axis : x y z
#
# Youngs Moduli (GPa) = 29.26985 98.18063 36.48944
#
# Poissons Ratio (x) = -0.32978 0.33204
# Poissons Ratio (y) = -0.09831 0.14381
# Poissons Ratio (z) = 0.26635 0.38694
#
# Static dielectric constant tensor:
#      x y z
#    x 1.852010 0.000000 -0.056430 
#    y 0.000000 1.994220 0.000000 
#    z -0.056430 0.000000 1.977930 
# 
# From -- ./inp_files/5728.got.cif
#   From: 2010.05.17/outbox.cif.g08.bks.cpg/sg4_3_cif.got.tgz:5728.got - 2010.06.03 18:43:04.
