data_PCOD9119135
_publ_section_title
;
Structure prediction by ZEFSAII (Michael W. Deem and Ramdas Pophale) SiO2 
 PCOD9119135
Probable space group: P 21
;
_chemical_formula_sum "Si O2"
_cell_formula_units_Z 16
_cell_length_a 11.908402
_cell_length_b 11.843989
_cell_length_c 5.365378
_cell_angle_alpha 90.000000
_cell_angle_beta 107.470386
_cell_angle_gamma 90.000000
_cell_volume 721.841787
_symmetry_space_group_name_H-M "P 21"
_symmetry_group_IT_number 4
_symmetry_cell_setting 'monoclinic'
loop_
_space_group_symop_operation_xyz
x,y,z
-x,1/2+y,-z
loop_
_atom_site_type_symbol
_atom_site_label
_atom_site_fract_x
_atom_site_fract_y
_atom_site_fract_z
Si Si1 0.400511 0.919610 0.711454
Si Si2 0.080022 0.218421 0.984735
Si Si3 0.762519 0.804256 0.534452
Si Si4 0.830763 0.562407 0.335731
Si Si5 0.850364 0.142933 0.052707
Si Si6 0.942636 0.928882 0.324827
Si Si7 0.296144 0.677149 0.550298
Si Si8 0.543974 0.955000 0.315185
O O1 0.372287 0.789693 0.633530
O O2 0.454877 0.965576 0.489008
O O3 0.280088 0.981749 0.709073
O O4 0.484550 0.936620 0.006481
O O5 0.977647 0.201211 0.115174
O O6 0.196881 0.279150 0.159513
O O7 0.121265 0.099473 0.902873
O O8 0.023931 0.306349 0.755397
O O9 0.790320 0.683754 0.421828
O O10 0.850462 0.898734 0.481073
O O11 0.631702 0.849698 0.421674
O O12 0.942515 0.498752 0.525590
O O13 0.792233 0.175492 0.274550
O O14 0.874910 0.009132 0.084644
O O15 0.771937 0.172765 0.759783
O O16 0.377987 0.567691 0.631059
#
# Coordination Sequence:
#
# PCOD9119135 Si02
#       8
#     2   2   2   2   2   2   2   2
#     4  12  31  49  79 108 149 207 257 324 369 448
#     4  11  26  41  77 109 158 196 238 317 385 469
#     4  11  26  46  75 107 151 200 249 315 379 454
#     4  11  27  47  73 114 153 197 254 313 383 456
#     4  12  24  45  74 112 154 193 244 302 387 460
#     4  11  24  45  72 116 150 198 239 310 386 464
#     4  12  27  49  75 109 152 201 255 316 375 456
#     4  12  29  50  77 105 149 202 264 313 378 447
#
# _framework density 22.165521999999999
#
# number of rings (size 3 to 8) (size 9 to 14) (size 15 to 20)
#    0.000    0.500    2.500    3.750   14.000    0.000 
#    0.000    0.000    0.000    0.000    0.000    0.000 
#    0.000    0.000    0.000    0.000    0.000    0.000 
#
# Total GULP energy -89472.998913 kJ/mol
# GULP energy per Si atom -5592.062432 kJ/mol
# Density = 2.211507 g / cm^3
# Si number density = 22.165522 Si / 1000 Ang^3
#
#
#
# Elastic Constant Matrix: (Units=GPa)
#
#
# Indices 1 2 3 4 5 6 
#
# 1 65.2901 5.5554 10.5512 0.0000 -13.0611 0.0000
# 2 5.5554 69.2183 14.5442 0.0000 9.8901 0.0000
# 3 10.5512 14.5442 107.2192 0.0000 6.2585 0.0000
# 4 0.0000 0.0000 0.0000 30.6224 0.0000 1.2968
# 5 -13.0611 9.8901 6.2585 0.0000 41.8440 0.0000
# 6 0.0000 0.0000 0.0000 1.2968 0.0000 34.7240
#
#
#
# Elastic Compliance Matrix: (Units=1/GPa)
#
#
# Indices 1 2 3 4 5 6 
#
# 1 0.016958 -0.001846 -0.001768 0.000000 0.005994 0.000000
# 2 -0.001846 0.015521 -0.001691 0.000000 -0.003992 0.000000
# 3 -0.001768 -0.001691 0.009825 0.000000 -0.001622 0.000000
# 4 0.000000 0.000000 0.000000 0.032708 0.000000 -0.001222
# 5 0.005994 -0.003992 -0.001622 0.000000 0.026955 0.000000
# 6 0.000000 0.000000 0.000000 -0.001222 0.000000 0.028844
#
#
# Mechanical properties :
#
#
# Convention : Reuss Voigt Hill
#
# Bulk Modulus (GPa) = 31.55192 33.66989 32.61090
# Shear Modulus (GPa) = 32.89793 35.50987 34.20390
#
# Velocity S-wave (km/s) = 3.85670 4.00688 3.93251
# Velocity P-wave (km/s) = 5.83933 6.05227 5.94675
#
# Compressibility (1/GPa) = 0.03169380
#
# Stress axis : x y z
#
# Youngs Moduli (GPa) = 58.96854 64.42964 101.78411
#
# Poissons Ratio (x) = 0.11893 0.17999
# Poissons Ratio (y) = 0.10885 0.17209
# Poissons Ratio (z) = 0.10427 0.10893
#
# Static dielectric constant tensor:
#      x y z
#    x 1.791840 0.000000 -0.032250 
#    y 0.000000 1.810100 0.000000 
#    z -0.032250 0.000000 1.870780 
# 
# From -- ./inp_files/2869.got.cif
#   From: 2010.05.17/outbox.cif.g08.bks.cpg/sg4_2_cif.got.tgz:2869.got - 2010.06.03 18:43:04.
