data_PCOD9119730
_publ_section_title
;
Structure prediction by ZEFSAII (Michael W. Deem and Ramdas Pophale) SiO2 
 PCOD9119730
Probable space group: P 21
;
_chemical_formula_sum "Si O2"
_cell_formula_units_Z 16
_cell_length_a 12.644034
_cell_length_b 5.931458
_cell_length_c 11.366431
_cell_angle_alpha 90.000000
_cell_angle_beta 51.062313
_cell_angle_gamma 90.000000
_cell_volume 663.064665
_symmetry_space_group_name_H-M "P 21"
_symmetry_group_IT_number 4
_symmetry_cell_setting 'monoclinic'
loop_
_space_group_symop_operation_xyz
x,y,z
-x,1/2+y,-z
loop_
_atom_site_type_symbol
_atom_site_label
_atom_site_fract_x
_atom_site_fract_y
_atom_site_fract_z
Si Si1 0.427059 0.094070 0.055378
Si Si2 0.630659 0.982425 0.315412
Si Si3 0.972264 0.942788 0.689707
Si Si4 0.560866 0.833840 0.616146
Si Si5 0.107101 0.623248 0.789603
Si Si6 0.793706 0.707081 0.613629
Si Si7 0.927795 0.249838 0.924905
Si Si8 0.310757 0.109417 0.888296
O O1 0.321746 0.066060 0.236240
O O2 0.508912 0.339143 0.015124
O O3 0.340826 0.158529 0.001353
O O4 0.577685 0.849770 0.464490
O O5 0.719510 0.827740 0.167663
O O6 0.514664 0.093889 0.318201
O O7 0.733368 0.162015 0.303126
O O8 0.890536 0.098075 0.839326
O O9 0.094938 0.065985 0.535523
O O10 0.875111 0.843567 0.656946
O O11 0.041004 0.768643 0.733438
O O12 0.701568 0.851033 0.587235
O O13 0.451201 0.013247 0.736837
O O14 0.067358 0.368402 0.786917
O O15 0.047191 0.651817 0.963135
O O16 0.808288 0.428682 0.027893
#
# Coordination Sequence:
#
# PCOD9119730 Si02
#       8
#     2   2   2   2   2   2   2   2
#     4  12  29  53  85 120 165 227 286 351 429 519
#     4  12  27  45  79 117 154 210 271 350 428 504
#     4  12  32  53  76 121 168 221 281 344 429 523
#     4  12  26  49  75 115 158 209 271 347 433 502
#     4  12  26  48  81 115 159 212 277 351 421 505
#     4  12  31  53  82 117 170 226 276 350 427 529
#     4  12  26  48  78 118 159 212 276 350 423 496
#     4  12  27  45  78 115 159 213 276 349 422 506
#
# _framework density 24.130378
#
# number of rings (size 3 to 8) (size 9 to 14) (size 15 to 20)
#    0.000    0.000    5.000    3.000   12.250    1.000 
#    0.000    0.000    0.000    0.000    0.000    0.000 
#    0.000    0.000    0.000    0.000    0.000    0.000 
#
# Total GULP energy -89411.107350 kJ/mol
# GULP energy per Si atom -5588.194209 kJ/mol
# Density = 2.407546 g / cm^3
# Si number density = 24.130378 Si / 1000 Ang^3
#
#
#
# Elastic Constant Matrix: (Units=GPa)
#
#
# Indices 1 2 3 4 5 6 
#
# 1 167.1599 53.0836 42.5450 0.0000 8.4966 0.0000
# 2 53.0836 77.1680 28.9895 0.0000 1.6988 0.0000
# 3 42.5450 28.9895 101.8106 0.0000 2.7357 0.0000
# 4 0.0000 0.0000 0.0000 47.1296 0.0000 3.0162
# 5 8.4966 1.6988 2.7357 0.0000 42.4272 0.0000
# 6 0.0000 0.0000 0.0000 3.0162 0.0000 42.4538
#
#
#
# Elastic Compliance Matrix: (Units=1/GPa)
#
#
# Indices 1 2 3 4 5 6 
#
# 1 0.008069 -0.004780 -0.001976 0.000000 -0.001297 0.000000
# 2 -0.004780 0.017346 -0.002954 0.000000 0.000453 0.000000
# 3 -0.001976 -0.002954 0.011495 0.000000 -0.000227 0.000000
# 4 0.000000 0.000000 0.000000 0.021315 0.000000 -0.001514
# 5 -0.001297 0.000453 -0.000227 0.000000 0.023826 0.000000
# 6 0.000000 0.000000 0.000000 -0.001514 0.000000 0.023663
#
#
# Mechanical properties :
#
#
# Convention : Reuss Voigt Hill
#
# Bulk Modulus (GPa) = 57.17240 66.15274 61.66257
# Shear Modulus (GPa) = 38.17833 41.17015 39.67424
#
# Velocity S-wave (km/s) = 3.98196 4.13504 4.05923
# Velocity P-wave (km/s) = 6.69970 7.09030 6.89776
#
# Compressibility (1/GPa) = 0.01749096
#
# Stress axis : x y z
#
# Youngs Moduli (GPa) = 123.93053 57.64864 86.99306
#
# Poissons Ratio (x) = 0.27555 0.17191
# Poissons Ratio (y) = 0.59236 0.25698
# Poissons Ratio (z) = 0.24490 0.17030
#
# Static dielectric constant tensor:
#      x y z
#    x 1.916110 0.000000 -0.049530 
#    y 0.000000 2.068790 0.000000 
#    z -0.049530 0.000000 1.955340 
# 
# From -- ./inp_files/11580.got.cif
#   From: 2010.05.17/outbox.cif.g08.bks.cpg/sg4_6_cif.got.tgz:11580.got - 2010.06.03 18:43:04.
