data_PCOD9119179
_publ_section_title
;
Structure prediction by ZEFSAII (Michael W. Deem and Ramdas Pophale) SiO2 
 PCOD9119179
Probable space group: P 21
;
_chemical_formula_sum "Si O2"
_cell_formula_units_Z 16
_cell_length_a 9.316776
_cell_length_b 12.814833
_cell_length_c 9.184157
_cell_angle_alpha 90.000000
_cell_angle_beta 36.816730
_cell_angle_gamma 90.000000
_cell_volume 657.099742
_symmetry_space_group_name_H-M "P 21"
_symmetry_group_IT_number 4
_symmetry_cell_setting 'monoclinic'
loop_
_space_group_symop_operation_xyz
x,y,z
-x,1/2+y,-z
loop_
_atom_site_type_symbol
_atom_site_label
_atom_site_fract_x
_atom_site_fract_y
_atom_site_fract_z
Si Si1 0.537260 0.378010 0.709756
Si Si2 0.816838 0.668276 0.324006
Si Si3 0.972255 0.614128 0.894994
Si Si4 0.976908 0.889069 0.530162
Si Si5 0.664204 0.709410 0.899498
Si Si6 0.730385 0.055806 0.904152
Si Si7 0.623160 0.276461 0.339124
Si Si8 0.067384 0.889216 0.130745
O O1 0.515483 0.338162 0.563708
O O2 0.818379 0.394085 0.513530
O O3 0.451670 0.287370 0.888527
O O4 0.385421 0.478727 0.881537
O O5 0.549378 0.689964 0.593320
O O6 0.020262 0.605466 0.243605
O O7 0.913450 0.785865 0.237148
O O8 0.801088 0.621348 0.174811
O O9 0.162900 0.705516 0.768580
O O10 0.835634 0.636134 0.856156
O O11 0.058179 0.495212 0.818277
O O12 0.829166 0.781406 0.662335
O O13 0.108500 0.898167 0.269494
O O14 0.795899 0.982949 0.712397
O O15 0.458973 0.643062 0.989293
O O16 0.705324 0.360526 0.152977
#
# Coordination Sequence:
#
# PCOD9119179 Si02
#       8
#     2   2   2   2   2   2   2   2
#     4  11  24  46  81 111 151 211 258 320 395 468
#     4  11  27  48  74 113 157 198 258 332 378 471
#     4  11  25  46  77 109 148 202 256 316 399 458
#     4  11  26  48  79 110 162 201 257 330 385 473
#     4  11  24  48  75 113 155 201 260 318 396 464
#     4  11  28  46  81 118 152 206 265 321 398 467
#     4  11  26  50  77 110 157 205 259 330 389 470
#     4  11  28  46  72 116 152 198 261 321 394 467
#
# _framework density 24.349423000000002
#
# number of rings (size 3 to 8) (size 9 to 14) (size 15 to 20)
#    0.000    1.000    2.500    1.500    5.250   12.000 
#    2.250    0.000    0.000    0.000    0.000    0.000 
#    0.000    0.000    0.000    0.000    0.000    0.000 
#
# Total GULP energy -89587.006684 kJ/mol
# GULP energy per Si atom -5599.187918 kJ/mol
# Density = 2.429400 g / cm^3
# Si number density = 24.349423 Si / 1000 Ang^3
#
#
#
# Elastic Constant Matrix: (Units=GPa)
#
#
# Indices 1 2 3 4 5 6 
#
# 1 119.2101 48.2816 59.9468 0.0000 8.4166 0.0000
# 2 48.2816 152.8887 61.8788 0.0000 21.2406 0.0000
# 3 59.9468 61.8788 100.4790 0.0000 16.8471 0.0000
# 4 0.0000 0.0000 0.0000 37.0031 0.0000 -5.8550
# 5 8.4166 21.2406 16.8471 0.0000 35.3587 0.0000
# 6 0.0000 0.0000 0.0000 -5.8550 0.0000 27.8414
#
#
#
# Elastic Compliance Matrix: (Units=1/GPa)
#
#
# Indices 1 2 3 4 5 6 
#
# 1 0.012182 -0.001305 -0.006640 0.000000 0.001048 0.000000
# 2 -0.001305 0.009136 -0.004325 0.000000 -0.003117 0.000000
# 3 -0.006640 -0.004325 0.017255 0.000000 -0.004043 0.000000
# 4 0.000000 0.000000 0.000000 0.027955 0.000000 0.005879
# 5 0.001048 -0.003117 -0.004043 0.000000 0.031831 0.000000
# 6 0.000000 0.000000 0.000000 0.005879 0.000000 0.037154
#
#
# Mechanical properties :
#
#
# Convention : Reuss Voigt Hill
#
# Bulk Modulus (GPa) = 71.26021 79.19912 75.22967
# Shear Modulus (GPa) = 30.35231 33.53871 31.94551
#
# Velocity S-wave (km/s) = 3.53445 3.71535 3.62603
# Velocity P-wave (km/s) = 6.78128 7.14155 6.96374
#
# Compressibility (1/GPa) = 0.01403308
#
# Stress axis : x y z
#
# Youngs Moduli (GPa) = 82.08688 109.45112 57.95343
#
# Poissons Ratio (x) = 0.14287 0.38480
# Poissons Ratio (y) = 0.10715 0.25066
# Poissons Ratio (z) = 0.54505 0.47340
#
# Static dielectric constant tensor:
#      x y z
#    x 1.924580 0.000000 -0.026860 
#    y 0.000000 1.912690 0.000000 
#    z -0.026860 0.000000 2.019430 
# 
# From -- ./inp_files/6341.got.cif
#   From: 2010.05.17/outbox.cif.g08.bks.cpg/sg4_4_cif.got.tgz:6341.got - 2010.06.03 18:43:04.
