data_PCOD9119762
_publ_section_title
;
Structure prediction by ZEFSAII (Michael W. Deem and Ramdas Pophale) SiO2 
 PCOD9119762
Probable space group: P 21
;
_chemical_formula_sum "Si O2"
_cell_formula_units_Z 14
_cell_length_a 4.822546
_cell_length_b 14.548482
_cell_length_c 7.209470
_cell_angle_alpha 90.000000
_cell_angle_beta 70.460370
_cell_angle_gamma 90.000000
_cell_volume 476.691557
_symmetry_space_group_name_H-M "P 21"
_symmetry_group_IT_number 4
_symmetry_cell_setting 'monoclinic'
loop_
_space_group_symop_operation_xyz
x,y,z
-x,1/2+y,-z
loop_
_atom_site_type_symbol
_atom_site_label
_atom_site_fract_x
_atom_site_fract_y
_atom_site_fract_z
Si Si1 0.156255 0.021560 0.865028
Si Si2 0.685333 0.878640 0.363615
Si Si3 0.779933 0.277732 0.940130
Si Si4 0.451056 0.676825 0.363616
Si Si5 0.521285 0.033905 0.134970
Si Si6 0.782107 0.871588 0.739987
Si Si7 0.022094 0.183877 0.260013
O O1 0.419946 0.003880 0.950726
O O2 0.870674 0.051586 0.049269
O O3 0.995763 0.853528 0.194456
O O4 0.023108 0.934350 0.788435
O O5 0.519352 0.825383 0.919485
O O6 0.547596 0.777733 0.404809
O O7 0.696517 0.919251 0.566806
O O8 0.499984 0.949603 0.281128
O O9 0.690213 0.201937 0.805545
O O10 0.938837 0.230081 0.080513
O O11 0.236681 0.636215 0.566808
O O12 0.718893 0.605862 0.281131
O O13 0.311541 0.121114 0.211566
O O14 0.933070 0.777732 0.633858
#
# Coordination Sequence:
#
# PCOD9119762 Si02
#       7
#     2   2   2   2   2   2   2
#     4  12  32  60  98 142 198 254 327 398 487 580
#     4  12  29  59 104 138 197 256 322 403 488 579
#     4  12  26  60 106 138 194 262 322 400 498 562
#     4  12  29  59 104 138 197 256 322 403 488 579
#     4  12  32  60  98 142 198 254 327 398 487 580
#     4  12  29  59 104 138 197 256 322 403 488 579
#     4  12  29  59 104 138 197 256 322 403 488 579
#
# _framework density 29.369097
#
# number of rings (size 3 to 8) (size 9 to 14) (size 15 to 20)
#    0.000    0.000    2.857    4.286   16.000    0.000 
#   10.286    2.857    0.000    0.000    0.000    0.000 
#    0.000    0.000    0.000    0.000    0.000    0.000 
#
# Total GULP energy -78662.091026 kJ/mol
# GULP energy per Si atom -5618.720788 kJ/mol
# Density = 2.930225 g / cm^3
# Si number density = 29.369097 Si / 1000 Ang^3
#
#
#
# Elastic Constant Matrix: (Units=GPa)
#
#
# Indices 1 2 3 4 5 6 
#
# 1 183.9005 45.1370 61.9339 0.0000 -15.2194 0.0000
# 2 45.1370 196.4620 46.0305 0.0000 -0.3679 0.0000
# 3 61.9339 46.0305 200.3534 0.0000 8.4498 0.0000
# 4 0.0000 0.0000 0.0000 25.2011 0.0000 16.9506
# 5 -15.2194 -0.3679 8.4498 0.0000 69.7423 0.0000
# 6 0.0000 0.0000 0.0000 16.9506 0.0000 66.4058
#
#
#
# Elastic Compliance Matrix: (Units=1/GPa)
#
#
# Indices 1 2 3 4 5 6 
#
# 1 0.006442 -0.001051 -0.001818 0.000000 0.001621 0.000000
# 2 -0.001051 0.005553 -0.000947 0.000000 -0.000085 0.000000
# 3 -0.001818 -0.000947 0.005818 0.000000 -0.001107 0.000000
# 4 0.000000 0.000000 0.000000 0.047906 0.000000 -0.012228
# 5 0.001621 -0.000085 -0.001107 0.000000 0.014826 0.000000
# 6 0.000000 0.000000 0.000000 -0.012228 0.000000 0.018180
#
#
# Mechanical properties :
#
#
# Convention : Reuss Voigt Hill
#
# Bulk Modulus (GPa) = 98.23477 98.54652 98.39064
# Shear Modulus (GPa) = 45.55747 60.77749 53.16748
#
# Velocity S-wave (km/s) = 3.94281 4.55404 4.25940
# Velocity P-wave (km/s) = 7.36536 7.82814 7.60027
#
# Compressibility (1/GPa) = 0.01017970
#
# Stress axis : x y z
#
# Youngs Moduli (GPa) = 155.22710 180.07250 171.89269
#
# Poissons Ratio (x) = 0.18926 0.31255
# Poissons Ratio (y) = 0.16315 0.16284
# Poissons Ratio (z) = 0.28225 0.17059
#
# Static dielectric constant tensor:
#      x y z
#    x 2.325230 0.000000 0.017110 
#    y 0.000000 2.387730 0.000000 
#    z 0.017110 0.000000 2.283670 
# 
# From -- ./inp_files/6623.got.cif
#   From: 2010.05.17/outbox.cif.g08.bks.cpg/sg4_4_cif.got.tgz:6623.got - 2010.06.03 18:43:04.
