data_PCOD9119742
_publ_section_title
;
Structure prediction by ZEFSAII (Michael W. Deem and Ramdas Pophale) SiO2 
 PCOD9119742
Probable space group: P 21
;
_chemical_formula_sum "Si O2"
_cell_formula_units_Z 16
_cell_length_a 27.186037
_cell_length_b 4.808500
_cell_length_c 9.496557
_cell_angle_alpha 90.000000
_cell_angle_beta 153.062628
_cell_angle_gamma 90.000000
_cell_volume 562.387336
_symmetry_space_group_name_H-M "P 21"
_symmetry_group_IT_number 4
_symmetry_cell_setting 'monoclinic'
loop_
_space_group_symop_operation_xyz
x,y,z
-x,1/2+y,-z
loop_
_atom_site_type_symbol
_atom_site_label
_atom_site_fract_x
_atom_site_fract_y
_atom_site_fract_z
Si Si1 0.726515 0.638650 0.287223
Si Si2 0.972916 0.242870 0.246450
Si Si3 0.472915 0.742872 0.246448
Si Si4 0.343358 0.533167 0.150649
Si Si5 0.456081 0.866545 0.810918
Si Si6 0.043918 0.866542 0.189081
Si Si7 0.156641 0.533167 0.849349
Si Si8 0.773486 0.638651 0.712779
O O1 0.831798 0.460345 0.508984
O O2 0.750001 0.776547 0.500002
O O3 0.626971 0.427609 0.063791
O O4 0.698393 0.845429 0.086761
O O5 0.932678 0.219405 0.304765
O O6 0.991523 0.967505 0.201778
O O7 0.092531 0.364609 0.567613
O O8 0.873029 0.427606 0.936210
O O9 0.432676 0.719407 0.304759
O O10 0.592531 0.864611 0.567612
O O11 0.491523 0.467507 0.201778
O O12 0.250000 0.684413 0.000000
O O13 0.331797 0.960349 0.508984
O O14 0.524853 0.048367 0.100272
O O15 0.975148 0.048363 0.899728
O O16 0.198392 0.345430 0.086759
#
# Coordination Sequence:
#
# PCOD9119742 Si02
#       8
#     2   2   2   2   2   2   2   2
#     4  12  26  49  79 113 150 211 262 325 396 472
#     4  12  27  47  78 112 161 210 263 328 398 475
#     4  12  27  47  78 112 161 210 263 328 398 475
#     4  12  27  47  75 112 156 207 263 325 398 473
#     4  12  28  51  82 119 163 209 266 332 398 469
#     4  12  28  51  82 119 163 209 266 332 398 469
#     4  12  27  47  75 112 156 207 263 325 398 473
#     4  12  26  49  79 113 150 211 262 325 396 472
#
# _framework density 28.450143000000001
#
# number of rings (size 3 to 8) (size 9 to 14) (size 15 to 20)
#    0.000    0.000    7.500    1.500    3.500    4.000 
#    0.000    0.000    0.000    0.000    0.000    0.000 
#    0.000    0.000    0.000    0.000    0.000    0.000 
#
# Total GULP energy -89786.415693 kJ/mol
# GULP energy per Si atom -5611.650981 kJ/mol
# Density = 2.838539 g / cm^3
# Si number density = 28.450143 Si / 1000 Ang^3
#
#
#
# Elastic Constant Matrix: (Units=GPa)
#
#
# Indices 1 2 3 4 5 6 
#
# 1 198.9907 10.5249 45.2663 0.0000 11.0332 0.0000
# 2 10.5249 52.7349 29.6133 0.0000 -4.4437 0.0000
# 3 45.2663 29.6133 135.8990 0.0000 -16.6214 0.0000
# 4 0.0000 0.0000 0.0000 50.2601 0.0000 -17.4146
# 5 11.0332 -4.4437 -16.6214 0.0000 57.7432 0.0000
# 6 0.0000 0.0000 0.0000 -17.4146 0.0000 42.2559
#
#
#
# Elastic Compliance Matrix: (Units=1/GPa)
#
#
# Indices 1 2 3 4 5 6 
#
# 1 0.005588 -0.000109 -0.002041 0.000000 -0.001664 0.000000
# 2 -0.000109 0.021614 -0.004631 0.000000 0.000351 0.000000
# 3 -0.002041 -0.004631 0.009382 0.000000 0.002734 0.000000
# 4 0.000000 0.000000 0.000000 0.023211 0.000000 0.009566
# 5 -0.001664 0.000351 0.002734 0.000000 0.018450 0.000000
# 6 0.000000 0.000000 0.000000 0.009566 0.000000 0.027608
#
#
# Mechanical properties :
#
#
# Convention : Reuss Voigt Hill
#
# Bulk Modulus (GPa) = 43.43612 62.04818 52.74215
# Shear Modulus (GPa) = 39.34292 50.19986 44.77139
#
# Velocity S-wave (km/s) = 3.72273 4.20513 3.97127
# Velocity P-wave (km/s) = 5.81196 6.74050 6.29338
#
# Compressibility (1/GPa) = 0.02302231
#
# Stress axis : x y z
#
# Youngs Moduli (GPa) = 178.96714 46.26528 106.59167
#
# Poissons Ratio (x) = 0.00506 0.21753
# Poissons Ratio (y) = 0.01957 0.49358
# Poissons Ratio (z) = 0.36524 0.21423
#
# Static dielectric constant tensor:
#      x y z
#    x 2.202800 0.000000 -0.071500 
#    y 0.000000 2.240390 0.000000 
#    z -0.071500 0.000000 2.170120 
# 
# From -- ./inp_files/7416.got.cif
#   From: 2010.05.17/outbox.cif.g08.bks.cpg/sg4_4_cif.got.tgz:7416.got - 2010.06.03 18:43:04.
