data_PCOD9119363
_publ_section_title
;
Structure prediction by ZEFSAII (Michael W. Deem and Ramdas Pophale) SiO2 
 PCOD9119363
Probable space group: P 21
;
_chemical_formula_sum "Si O2"
_cell_formula_units_Z 16
_cell_length_a 9.784122
_cell_length_b 9.624612
_cell_length_c 9.885373
_cell_angle_alpha 90.000000
_cell_angle_beta 38.927802
_cell_angle_gamma 90.000000
_cell_volume 584.915708
_symmetry_space_group_name_H-M "P 21"
_symmetry_group_IT_number 4
_symmetry_cell_setting 'monoclinic'
loop_
_space_group_symop_operation_xyz
x,y,z
-x,1/2+y,-z
loop_
_atom_site_type_symbol
_atom_site_label
_atom_site_fract_x
_atom_site_fract_y
_atom_site_fract_z
Si Si1 0.066150 0.306190 0.316156
Si Si2 0.507395 0.443773 0.354687
Si Si3 0.028941 0.406432 0.862528
Si Si4 0.178416 0.267602 0.527052
Si Si5 0.568014 0.016520 0.006416
Si Si6 0.334357 0.819366 0.993635
Si Si7 0.350677 0.964861 0.450720
Si Si8 0.808349 0.677292 0.058139
O O1 0.085437 0.238850 0.447622
O O2 0.164438 0.216923 0.119065
O O3 0.827873 0.356301 0.461824
O O4 0.211526 0.445075 0.211108
O O5 0.233420 0.424052 0.590106
O O6 0.569799 0.421878 0.463870
O O7 0.573547 0.604984 0.267213
O O8 0.752456 0.386103 0.095105
O O9 0.003703 0.566451 0.932705
O O10 0.136861 0.306358 0.889960
O O11 0.251104 0.120970 0.539418
O O12 0.941101 0.299453 0.788434
O O13 0.430559 0.326737 0.285802
O O14 0.379555 0.950257 0.059420
O O15 0.524734 0.978671 0.196405
O O16 0.593866 0.180164 0.982596
#
# Coordination Sequence:
#
# PCOD9119363 Si02
#       8
#     2   2   2   2   2   2   2   2
#     4  12  28  48  79 116 154 208 256 317 390 473
#     4  11  25  48  72 105 157 195 257 321 382 454
#     4  11  26  49  79 109 153 206 261 327 391 468
#     4  12  26  49  74 113 156 197 258 328 384 460
#     4  12  26  47  79 110 155 205 254 315 391 455
#     4  11  25  47  76 107 155 203 252 323 388 459
#     4  12  27  50  76 113 155 202 261 316 386 467
#     4  11  27  50  77 111 151 206 259 317 394 468
#
# _framework density 27.354368000000001
#
# number of rings (size 3 to 8) (size 9 to 14) (size 15 to 20)
#    0.000    0.500    3.750    3.000   12.250    0.000 
#    4.500    0.000    0.000    0.000    0.000    0.000 
#    0.000    0.000    0.000    0.000    0.000    0.000 
#
# Total GULP energy -89515.611725 kJ/mol
# GULP energy per Si atom -5594.725733 kJ/mol
# Density = 2.729211 g / cm^3
# Si number density = 27.354368 Si / 1000 Ang^3
#
#
#
# Elastic Constant Matrix: (Units=GPa)
#
#
# Indices 1 2 3 4 5 6 
#
# 1 80.8766 10.3306 -40.3925 0.0000 -2.3950 0.0000
# 2 10.3306 121.4677 -3.4790 0.0000 -10.4788 0.0000
# 3 -40.3925 -3.4790 95.5594 0.0000 -10.3903 0.0000
# 4 0.0000 0.0000 0.0000 59.7036 0.0000 4.4444
# 5 -2.3950 -10.4788 -10.3903 0.0000 50.8520 0.0000
# 6 0.0000 0.0000 0.0000 4.4444 0.0000 48.9467
#
#
#
# Elastic Compliance Matrix: (Units=1/GPa)
#
#
# Indices 1 2 3 4 5 6 
#
# 1 0.016021 -0.000994 0.006950 0.000000 0.001970 0.000000
# 2 -0.000994 0.008467 0.000075 0.000000 0.001713 0.000000
# 3 0.006950 0.000075 0.013748 0.000000 0.003152 0.000000
# 4 0.000000 0.000000 0.000000 0.016863 0.000000 -0.001531
# 5 0.001970 0.001713 0.003152 0.000000 0.020755 0.000000
# 6 0.000000 0.000000 0.000000 -0.001531 0.000000 0.020569
#
#
# Mechanical properties :
#
#
# Convention : Reuss Voigt Hill
#
# Bulk Modulus (GPa) = 19.88169 25.64689 22.76429
# Shear Modulus (GPa) = 49.44272 53.99675 51.71973
#
# Velocity S-wave (km/s) = 4.25607 4.44776 4.35297
# Velocity P-wave (km/s) = 5.60679 5.98105 5.79694
#
# Compressibility (1/GPa) = 0.05029753
#
# Stress axis : x y z
#
# Youngs Moduli (GPa) = 62.41893 118.10460 72.73892
#
# Poissons Ratio (x) = 0.11734 -0.50553
# Poissons Ratio (y) = 0.06202 -0.00542
# Poissons Ratio (z) = -0.43381 -0.00881
#
# Static dielectric constant tensor:
#      x y z
#    x 2.060310 0.000000 -0.013280 
#    y 0.000000 2.068560 0.000000 
#    z -0.013280 0.000000 2.172490 
# 
# From -- ./inp_files/3779.got.cif
#   From: 2010.05.17/outbox.cif.g08.bks.cpg/sg4_2_cif.got.tgz:3779.got - 2010.06.03 18:43:04.
