data_PCOD9119447
_publ_section_title
;
Structure prediction by ZEFSAII (Michael W. Deem and Ramdas Pophale) SiO2 
 PCOD9119447
Probable space group: P 21
;
_chemical_formula_sum "Si O2"
_cell_formula_units_Z 14
_cell_length_a 9.129831
_cell_length_b 4.920520
_cell_length_c 23.478454
_cell_angle_alpha 90.000000
_cell_angle_beta 150.624532
_cell_angle_gamma 90.000000
_cell_volume 517.379738
_symmetry_space_group_name_H-M "P 21"
_symmetry_group_IT_number 4
_symmetry_cell_setting 'monoclinic'
loop_
_space_group_symop_operation_xyz
x,y,z
-x,1/2+y,-z
loop_
_atom_site_type_symbol
_atom_site_label
_atom_site_fract_x
_atom_site_fract_y
_atom_site_fract_z
Si Si1 0.228970 0.773990 0.652046
Si Si2 0.199794 0.768902 0.080742
Si Si3 0.723014 0.183721 0.771156
Si Si4 0.383114 0.421661 0.424139
Si Si5 0.605304 0.533161 0.005971
Si Si6 0.684794 0.366441 0.195489
Si Si7 0.656835 0.058146 0.424533
O O1 0.301161 0.692791 0.740635
O O2 0.194873 0.565159 0.588781
O O3 0.924379 0.942647 0.552468
O O4 0.483360 0.965826 0.711557
O O5 0.248057 0.867288 0.162031
O O6 0.479511 0.623830 0.144684
O O7 0.033502 0.015780 0.994008
O O8 0.620256 0.360889 0.682788
O O9 0.040451 0.049146 0.870067
O O10 0.524017 0.689439 0.498914
O O11 0.025929 0.440846 0.296478
O O12 0.532081 0.319203 0.415403
O O13 0.459635 0.685170 0.902771
O O14 0.508492 0.223814 0.980727
#
# Coordination Sequence:
#
# PCOD9119447 Si02
#       7
#     2   2   2   2   2   2   2
#     4  11  26  48  79 116 155 207 266 326 394 464
#     4  11  26  48  79 115 156 200 260 329 394 468
#     4  11  27  46  77 112 151 208 258 328 390 468
#     4  12  30  51  80 115 159 212 267 322 395 473
#     4  12  30  52  78 116 159 210 262 324 399 476
#     4  11  27  52  80 116 157 211 261 328 392 480
#     4  12  26  49  79 114 161 208 264 327 396 471
#
# _framework density 27.059432000000001
#
# number of rings (size 3 to 8) (size 9 to 14) (size 15 to 20)
#    0.000    0.571    4.286    0.857   14.000    2.286 
#    2.571    0.000    0.000    0.000    0.000    0.000 
#    0.000    0.000    0.000    0.000    0.000    0.000 
#
# Total GULP energy -78548.201239 kJ/mol
# GULP energy per Si atom -5610.585803 kJ/mol
# Density = 2.699784 g / cm^3
# Si number density = 27.059432 Si / 1000 Ang^3
#
#
#
# Elastic Constant Matrix: (Units=GPa)
#
#
# Indices 1 2 3 4 5 6 
#
# 1 130.5997 2.2060 44.0290 0.0000 -1.6257 0.0000
# 2 2.2060 35.8943 7.3894 0.0000 7.7534 0.0000
# 3 44.0290 7.3894 144.7999 0.0000 18.0433 0.0000
# 4 0.0000 0.0000 0.0000 28.8784 0.0000 -2.3078
# 5 -1.6257 7.7534 18.0433 0.0000 70.2586 0.0000
# 6 0.0000 0.0000 0.0000 -2.3078 0.0000 59.6585
#
#
#
# Elastic Compliance Matrix: (Units=1/GPa)
#
#
# Indices 1 2 3 4 5 6 
#
# 1 0.008587 -0.000166 -0.002717 0.000000 0.000915 0.000000
# 2 -0.000166 0.028713 -0.001053 0.000000 -0.002902 0.000000
# 3 -0.002717 -0.001053 0.008036 0.000000 -0.002010 0.000000
# 4 0.000000 0.000000 0.000000 0.034735 0.000000 0.001344
# 5 0.000915 -0.002902 -0.002010 0.000000 0.015091 0.000000
# 6 0.000000 0.000000 0.000000 0.001344 0.000000 0.016814
#
#
# Mechanical properties :
#
#
# Convention : Reuss Voigt Hill
#
# Bulk Modulus (GPa) = 26.69137 46.50473 36.59805
# Shear Modulus (GPa) = 37.78230 48.93707 43.35969
#
# Velocity S-wave (km/s) = 3.74072 4.25726 4.00733
# Velocity P-wave (km/s) = 5.34254 6.43344 5.91320
#
# Compressibility (1/GPa) = 0.03746529
#
# Stress axis : x y z
#
# Youngs Moduli (GPa) = 116.45514 34.82683 124.43445
#
# Poissons Ratio (x) = 0.00578 0.33803
# Poissons Ratio (y) = 0.01934 0.13105
# Poissons Ratio (z) = 0.31635 0.03668
#
# Static dielectric constant tensor:
#      x y z
#    x 2.229820 0.000000 -0.105720 
#    y 0.000000 2.102540 0.000000 
#    z -0.105720 0.000000 2.158100 
# 
# From -- ./inp_files/7220.got.cif
#   From: 2010.05.17/outbox.cif.g08.bks.cpg/sg4_4_cif.got.tgz:7220.got - 2010.06.03 18:43:04.
