data_PCOD9119215
_publ_section_title
;
Structure prediction by ZEFSAII (Michael W. Deem and Ramdas Pophale) SiO2 
 PCOD9119215
Probable space group: P 21
;
_chemical_formula_sum "Si O2"
_cell_formula_units_Z 16
_cell_length_a 15.405721
_cell_length_b 4.856405
_cell_length_c 24.442948
_cell_angle_alpha 90.000000
_cell_angle_beta 18.368209
_cell_angle_gamma 90.000000
_cell_volume 576.275186
_symmetry_space_group_name_H-M "P 21"
_symmetry_group_IT_number 4
_symmetry_cell_setting 'monoclinic'
loop_
_space_group_symop_operation_xyz
x,y,z
-x,1/2+y,-z
loop_
_atom_site_type_symbol
_atom_site_label
_atom_site_fract_x
_atom_site_fract_y
_atom_site_fract_z
Si Si1 0.516295 0.207520 0.527936
Si Si2 0.344450 0.892054 0.860424
Si Si3 0.025021 0.450300 0.270137
Si Si4 0.145685 0.646954 0.810729
Si Si5 0.160643 0.634903 0.383585
Si Si6 0.179905 0.195120 0.276501
Si Si7 0.264863 0.505467 0.013240
Si Si8 0.347535 0.336742 0.430549
O O1 0.544246 0.407984 0.458453
O O2 0.812297 0.214021 0.378678
O O3 0.303070 0.383574 0.691382
O O4 0.548382 0.128362 0.760650
O O5 0.512523 0.748554 0.710954
O O6 0.291298 0.704684 0.945322
O O7 0.053128 0.032508 0.021978
O O8 0.844894 0.637647 0.418523
O O9 0.118768 0.593688 0.157817
O O10 0.252659 0.309700 0.172238
O O11 0.372992 0.855932 0.699993
O O12 0.931003 0.767379 0.894311
O O13 0.174729 0.458613 0.319727
O O14 0.966597 0.434412 0.536122
O O15 0.870142 0.074921 0.455133
O O16 0.418871 0.986167 0.154101
#
# Coordination Sequence:
#
# PCOD9119215 Si02
#       8
#     2   2   2   2   2   2   2   2
#     4  11  24  47  79 111 157 212 267 323 402 486
#     4  11  26  46  76 113 158 210 267 337 407 482
#     4  11  26  46  76 113 158 210 267 337 407 482
#     4  11  27  44  77 114 159 209 267 337 404 484
#     4  11  24  47  79 111 157 212 267 323 402 486
#     4  11  27  44  77 114 159 209 267 337 404 484
#     4  11  27  49  78 112 156 209 271 339 405 492
#     4  11  27  49  78 112 156 209 271 339 405 492
#
# _framework density 27.764513999999998
#
# number of rings (size 3 to 8) (size 9 to 14) (size 15 to 20)
#    0.000    1.000    2.500    1.500   10.500    4.000 
#    0.000    0.000    0.000    0.000    0.000    0.000 
#    0.000    0.000    0.000    0.000    0.000    0.000 
#
# Total GULP energy -89508.985964 kJ/mol
# GULP energy per Si atom -5594.311623 kJ/mol
# Density = 2.770132 g / cm^3
# Si number density = 27.764514 Si / 1000 Ang^3
#
#
#
# Elastic Constant Matrix: (Units=GPa)
#
#
# Indices 1 2 3 4 5 6 
#
# 1 172.6128 35.2949 53.3856 0.0000 9.2673 0.0000
# 2 35.2949 107.8461 35.3064 0.0000 -2.6125 0.0000
# 3 53.3856 35.3064 172.2622 0.0000 9.3468 0.0000
# 4 0.0000 0.0000 0.0000 42.6100 0.0000 -5.5413
# 5 9.2673 -2.6125 9.3468 0.0000 52.4055 0.0000
# 6 0.0000 0.0000 0.0000 -5.5413 0.0000 42.4803
#
#
#
# Elastic Compliance Matrix: (Units=1/GPa)
#
#
# Indices 1 2 3 4 5 6 
#
# 1 0.006707 -0.001667 -0.001684 0.000000 -0.000969 0.000000
# 2 -0.001667 0.010393 -0.001674 0.000000 0.001111 0.000000
# 3 -0.001684 -0.001674 0.006724 0.000000 -0.000985 0.000000
# 4 0.000000 0.000000 0.000000 0.023874 0.000000 0.003114
# 5 -0.000969 0.001111 -0.000985 0.000000 0.019484 0.000000
# 6 0.000000 0.000000 0.000000 0.003114 0.000000 0.023947
#
#
# Mechanical properties :
#
#
# Convention : Reuss Voigt Hill
#
# Bulk Modulus (GPa) = 72.60464 77.85500 75.22982
# Shear Modulus (GPa) = 47.27251 49.41478 48.34364
#
# Velocity S-wave (km/s) = 4.13076 4.22332 4.17730
# Velocity P-wave (km/s) = 6.99699 7.20306 7.10077
#
# Compressibility (1/GPa) = 0.01377322
#
# Stress axis : x y z
#
# Youngs Moduli (GPa) = 149.09480 96.21908 148.73017
#
# Poissons Ratio (x) = 0.16041 0.25051
# Poissons Ratio (y) = 0.24856 0.24894
# Poissons Ratio (z) = 0.25113 0.16105
#
# Static dielectric constant tensor:
#      x y z
#    x 2.256700 0.000000 0.084660 
#    y 0.000000 2.170680 0.000000 
#    z 0.084660 0.000000 2.255410 
# 
# From -- ./inp_files/16129.got.cif
#   From: 2010.05.17/outbox.cif.g08.bks.cpg/sg4_9_cif.got.tgz:16129.got - 2010.06.03 18:43:04.
