data_PCOD9119127
_publ_section_title
;
Structure prediction by ZEFSAII (Michael W. Deem and Ramdas Pophale) SiO2 
 PCOD9119127
Probable space group: P 21
;
_chemical_formula_sum "Si O2"
_cell_formula_units_Z 16
_cell_length_a 9.189706
_cell_length_b 5.069187
_cell_length_c 20.884636
_cell_angle_alpha 90.000000
_cell_angle_beta 138.128811
_cell_angle_gamma 90.000000
_cell_volume 649.368041
_symmetry_space_group_name_H-M "P 21"
_symmetry_group_IT_number 4
_symmetry_cell_setting 'monoclinic'
loop_
_space_group_symop_operation_xyz
x,y,z
-x,1/2+y,-z
loop_
_atom_site_type_symbol
_atom_site_label
_atom_site_fract_x
_atom_site_fract_y
_atom_site_fract_z
Si Si1 0.911105 0.619380 0.814038
Si Si2 0.619569 0.938478 0.060385
Si Si3 0.526366 0.266640 0.672697
Si Si4 0.686001 0.884819 0.623633
Si Si5 0.248336 0.167700 0.687059
Si Si6 0.106218 0.389316 0.063369
Si Si7 0.409774 0.687990 0.808940
Si Si8 0.761325 0.078752 0.511832
O O1 0.705806 0.441687 0.766389
O O2 0.844357 0.720558 0.721705
O O3 0.925653 0.851386 0.870983
O O4 0.135914 0.462978 0.885729
O O5 0.613740 0.063081 0.128867
O O6 0.468905 0.141580 0.970710
O O7 0.413552 0.068636 0.685231
O O8 0.321981 0.424301 0.577216
O O9 0.652497 0.152773 0.652539
O O10 0.439532 0.775109 0.541216
O O11 0.766372 0.905595 0.578120
O O12 0.334373 0.450830 0.737937
O O13 0.000666 0.193297 0.582976
O O14 0.266832 0.948292 0.748265
O O15 0.343521 0.286607 0.120649
O O16 0.060960 0.683457 0.024608
#
# Coordination Sequence:
#
# PCOD9119127 Si02
#       8
#     2   2   2   2   2   2   2   2
#     4  11  26  45  73 104 140 192 235 305 362 431
#     4  12  27  47  74 109 145 187 243 305 373 436
#     4  11  26  45  71 102 147 190 249 292 363 438
#     4  11  24  45  71 103 145 190 251 290 363 435
#     4  12  28  45  74 104 151 190 241 300 359 432
#     4  12  25  45  74 101 139 185 238 298 360 433
#     4  12  26  48  69 108 144 188 243 295 366 436
#     4  11  26  44  72 107 143 198 242 303 356 429
#
# _framework density 24.639340000000001
#
# number of rings (size 3 to 8) (size 9 to 14) (size 15 to 20)
#    0.000    0.500    2.500    4.500   10.500    0.000 
#    0.000    0.000    0.000    0.000    0.000    0.000 
#    0.000    0.000    0.000    0.000    0.000    0.000 
#
# Total GULP energy -89653.296690 kJ/mol
# GULP energy per Si atom -5603.331043 kJ/mol
# Density = 2.458326 g / cm^3
# Si number density = 24.639340 Si / 1000 Ang^3
#
#
#
# Elastic Constant Matrix: (Units=GPa)
#
#
# Indices 1 2 3 4 5 6 
#
# 1 79.4115 -10.2058 34.2446 0.0000 0.2505 0.0000
# 2 -10.2058 67.8862 27.4358 0.0000 1.8945 0.0000
# 3 34.2446 27.4358 117.2868 0.0000 13.3487 0.0000
# 4 0.0000 0.0000 0.0000 32.4481 0.0000 -5.1636
# 5 0.2505 1.8945 13.3487 0.0000 32.3501 0.0000
# 6 0.0000 0.0000 0.0000 -5.1636 0.0000 26.3399
#
#
#
# Elastic Compliance Matrix: (Units=1/GPa)
#
#
# Indices 1 2 3 4 5 6 
#
# 1 0.015750 0.004708 -0.005933 0.000000 0.002051 0.000000
# 2 0.004708 0.017689 -0.005656 0.000000 0.001262 0.000000
# 3 -0.005933 -0.005656 0.012107 0.000000 -0.004619 0.000000
# 4 0.000000 0.000000 0.000000 0.031811 0.000000 0.006236
# 5 0.002051 0.001262 -0.004619 0.000000 0.032728 0.000000
# 6 0.000000 0.000000 0.000000 0.006236 0.000000 0.039188
#
#
# Mechanical properties :
#
#
# Convention : Reuss Voigt Hill
#
# Bulk Modulus (GPa) = 31.46218 40.83709 36.14963
# Shear Modulus (GPa) = 28.79695 32.43495 30.61595
#
# Velocity S-wave (km/s) = 3.42239 3.63214 3.52883
# Velocity P-wave (km/s) = 5.33046 5.84807 5.59525
#
# Compressibility (1/GPa) = 0.03178419
#
# Stress axis : x y z
#
# Youngs Moduli (GPa) = 63.49232 56.53202 82.59519
#
# Poissons Ratio (x) = -0.26618 0.49007
# Poissons Ratio (y) = -0.29895 0.46717
# Poissons Ratio (z) = 0.37672 0.31976
#
# Static dielectric constant tensor:
#      x y z
#    x 1.945780 0.000000 -0.045530 
#    y 0.000000 1.990840 0.000000 
#    z -0.045530 0.000000 1.950380 
# 
# From -- ./inp_files/7303.got.cif
#   From: 2010.05.17/outbox.cif.g08.bks.cpg/sg4_4_cif.got.tgz:7303.got - 2010.06.03 18:43:04.
