data_PCOD9119196
_publ_section_title
;
Structure prediction by ZEFSAII (Michael W. Deem and Ramdas Pophale) SiO2 
 PCOD9119196
Probable space group: P 21
;
_chemical_formula_sum "Si O2"
_cell_formula_units_Z 16
_cell_length_a 6.018984
_cell_length_b 9.671847
_cell_length_c 13.570163
_cell_angle_alpha 90.000000
_cell_angle_beta 53.646635
_cell_angle_gamma 90.000000
_cell_volume 636.233662
_symmetry_space_group_name_H-M "P 21"
_symmetry_group_IT_number 4
_symmetry_cell_setting 'monoclinic'
loop_
_space_group_symop_operation_xyz
x,y,z
-x,1/2+y,-z
loop_
_atom_site_type_symbol
_atom_site_label
_atom_site_fract_x
_atom_site_fract_y
_atom_site_fract_z
Si Si1 0.633167 0.327950 0.237599
Si Si2 0.227306 0.590586 0.666030
Si Si3 0.042237 0.817446 0.342333
Si Si4 0.895237 0.537792 0.289406
Si Si5 0.994857 0.800372 0.587680
Si Si6 0.387294 0.574453 0.004758
Si Si7 0.392004 0.421940 0.795901
Si Si8 0.211265 0.868435 0.021204
O O1 0.822477 0.213685 0.242013
O O2 0.325965 0.269417 0.301567
O O3 0.634640 0.464494 0.305976
O O4 0.763921 0.370411 0.101455
O O5 0.442918 0.501730 0.678012
O O6 0.034469 0.466891 0.680555
O O7 0.216147 0.688686 0.571379
O O8 0.885519 0.693554 0.330019
O O9 0.370997 0.812914 0.243588
O O10 0.991676 0.809704 0.471609
O O11 0.949295 0.443982 0.371241
O O12 0.146158 0.527127 0.143988
O O13 0.390454 0.738826 0.007975
O O14 0.352326 0.523884 0.900666
O O15 0.669030 0.507764 0.966874
O O16 0.100040 0.347130 0.865145
#
# Coordination Sequence:
#
# PCOD9119196 Si02
#       8
#     2   2   2   2   2   2   2   2
#     4  11  24  47  74 107 145 200 245 299 372 440
#     4  11  25  47  75 109 142 197 246 298 376 435
#     4  12  28  50  72 113 151 191 253 309 362 438
#     4  11  25  47  73 110 148 195 245 303 373 438
#     4  11  26  49  78 104 148 198 248 310 364 439
#     4  12  25  46  74 110 149 190 242 306 370 447
#     4  12  26  46  75 109 149 193 244 301 376 442
#     4  12  27  46  73 108 148 194 241 302 371 449
#
# _framework density 25.147995000000002
#
# number of rings (size 3 to 8) (size 9 to 14) (size 15 to 20)
#    0.000    0.500    3.750    3.750    1.750    7.000 
#    4.500    1.250    0.000    0.000    0.000    0.000 
#    0.000    0.000    0.000    0.000    0.000    0.000 
#
# Total GULP energy -89443.772287 kJ/mol
# GULP energy per Si atom -5590.235768 kJ/mol
# Density = 2.509076 g / cm^3
# Si number density = 25.147995 Si / 1000 Ang^3
#
#
#
# Elastic Constant Matrix: (Units=GPa)
#
#
# Indices 1 2 3 4 5 6 
#
# 1 74.8349 53.5809 25.1442 0.0000 26.2150 0.0000
# 2 53.5809 145.4160 25.1745 0.0000 8.1893 0.0000
# 3 25.1442 25.1745 102.4787 0.0000 31.3028 0.0000
# 4 0.0000 0.0000 0.0000 12.1557 0.0000 10.0209
# 5 26.2150 8.1893 31.3028 0.0000 47.0111 0.0000
# 6 0.0000 0.0000 0.0000 10.0209 0.0000 37.4840
#
#
#
# Elastic Compliance Matrix: (Units=1/GPa)
#
#
# Indices 1 2 3 4 5 6 
#
# 1 0.022978 -0.007783 -0.000284 0.000000 -0.011268 0.000000
# 2 -0.007783 0.009819 -0.001639 0.000000 0.003721 0.000000
# 3 -0.000284 -0.001639 0.012672 0.000000 -0.007994 0.000000
# 4 0.000000 0.000000 0.000000 0.105522 0.000000 -0.028210
# 5 -0.011268 0.003721 -0.007994 0.000000 0.032230 0.000000
# 6 0.000000 0.000000 0.000000 -0.028210 0.000000 0.034220
#
#
# Mechanical properties :
#
#
# Convention : Reuss Voigt Hill
#
# Bulk Modulus (GPa) = 38.37685 58.94766 48.66226
# Shear Modulus (GPa) = 20.36343 33.91881 27.14112
#
# Velocity S-wave (km/s) = 2.84869 3.67654 3.28877
# Velocity P-wave (km/s) = 5.11014 6.44312 5.81495
#
# Compressibility (1/GPa) = 0.02605738
#
# Stress axis : x y z
#
# Youngs Moduli (GPa) = 43.51993 101.84603 78.91229
#
# Poissons Ratio (x) = 0.79265 0.02241
# Poissons Ratio (y) = 0.33871 0.12934
# Poissons Ratio (z) = 0.01236 0.16693
#
# Static dielectric constant tensor:
#      x y z
#    x 1.981320 0.000000 0.006550 
#    y 0.000000 1.953360 0.000000 
#    z 0.006550 0.000000 2.024820 
# 
# From -- ./inp_files/13291.got.cif
#   From: 2010.05.17/outbox.cif.g08.bks.cpg/sg4_7_cif.got.tgz:13291.got - 2010.06.03 18:43:04.
