data_PCOD9119111
_publ_section_title
;
Structure prediction by ZEFSAII (Michael W. Deem and Ramdas Pophale) SiO2 
 PCOD9119111
Probable space group: P 21
;
_chemical_formula_sum "Si O2"
_cell_formula_units_Z 14
_cell_length_a 9.952663
_cell_length_b 5.885214
_cell_length_c 14.595550
_cell_angle_alpha 90.000000
_cell_angle_beta 137.018726
_cell_angle_gamma 90.000000
_cell_volume 582.845022
_symmetry_space_group_name_H-M "P 21"
_symmetry_group_IT_number 4
_symmetry_cell_setting 'monoclinic'
loop_
_space_group_symop_operation_xyz
x,y,z
-x,1/2+y,-z
loop_
_atom_site_type_symbol
_atom_site_label
_atom_site_fract_x
_atom_site_fract_y
_atom_site_fract_z
Si Si1 0.532997 0.250000 0.317243
Si Si2 0.794960 0.115321 0.812567
Si Si3 0.271640 0.391121 0.692115
Si Si4 0.927350 0.247683 0.073354
Si Si5 0.859503 0.574526 0.532532
Si Si6 0.297848 0.011686 0.344179
Si Si7 0.517418 0.156871 0.960788
O O1 0.360606 0.435146 0.222006
O O2 0.744859 0.366421 0.427238
O O3 0.550233 0.059689 0.247667
O O4 0.480415 0.138846 0.388973
O O5 0.683491 0.251979 0.678051
O O6 0.875851 0.246046 0.940801
O O7 0.981285 0.992985 0.859363
O O8 0.189401 0.288773 0.555822
O O9 0.357967 0.196389 0.800364
O O10 0.091009 0.520064 0.650733
O O11 0.736635 0.175615 0.031705
O O12 0.106179 0.084698 0.189496
O O13 0.760114 0.579169 0.582788
O O14 0.499669 0.399166 0.008206
#
# Coordination Sequence:
#
# PCOD9119111 Si02
#       7
#     2   2   2   2   2   2   2
#     4  11  26  46  75 105 148 194 255 314 393 462
#     4  11  24  45  76 108 145 198 253 324 392 461
#     4  12  28  51  77 109 154 207 257 321 400 468
#     4  11  24  44  76 106 154 195 255 316 397 453
#     4  12  27  48  74 105 153 197 262 316 390 468
#     4  11  26  44  74 112 144 199 256 325 382 469
#     4  12  31  50  82 117 160 206 268 324 392 477
#
# _framework density 24.020108
#
# number of rings (size 3 to 8) (size 9 to 14) (size 15 to 20)
#    0.000    0.571    2.857    3.429   14.000    2.286 
#    0.000    0.000    0.000    0.000    0.000    0.000 
#    0.000    0.000    0.000    0.000    0.000    0.000 
#
# Total GULP energy -78275.113473 kJ/mol
# GULP energy per Si atom -5591.079534 kJ/mol
# Density = 2.396544 g / cm^3
# Si number density = 24.020108 Si / 1000 Ang^3
#
#
#
# Elastic Constant Matrix: (Units=GPa)
#
#
# Indices 1 2 3 4 5 6 
#
# 1 100.3540 21.1786 14.3981 0.0000 4.1471 0.0000
# 2 21.1786 67.5881 14.8930 0.0000 -12.4449 0.0000
# 3 14.3981 14.8930 81.2443 0.0000 -4.8961 0.0000
# 4 0.0000 0.0000 0.0000 26.6416 0.0000 -4.5232
# 5 4.1471 -12.4449 -4.8961 0.0000 40.6002 0.0000
# 6 0.0000 0.0000 0.0000 -4.5232 0.0000 34.6803
#
#
#
# Elastic Compliance Matrix: (Units=1/GPa)
#
#
# Indices 1 2 3 4 5 6 
#
# 1 0.011026 -0.003578 -0.001443 0.000000 -0.002397 0.000000
# 2 -0.003578 0.017408 -0.002230 0.000000 0.005433 0.000000
# 3 -0.001443 -0.002230 0.013035 0.000000 0.001036 0.000000
# 4 0.000000 0.000000 0.000000 0.038385 0.000000 0.005006
# 5 -0.002397 0.005433 0.001036 0.000000 0.026665 0.000000
# 6 0.000000 0.000000 0.000000 0.005006 0.000000 0.029488
#
#
# Mechanical properties :
#
#
# Convention : Reuss Voigt Hill
#
# Bulk Modulus (GPa) = 37.08019 38.90287 37.99153
# Shear Modulus (GPa) = 31.34819 33.63220 32.49019
#
# Velocity S-wave (km/s) = 3.61651 3.74594 3.68179
# Velocity P-wave (km/s) = 5.73668 5.91105 5.82452
#
# Compressibility (1/GPa) = 0.02696858
#
# Stress axis : x y z
#
# Youngs Moduli (GPa) = 90.69520 57.44348 76.71458
#
# Poissons Ratio (x) = 0.20556 0.11066
# Poissons Ratio (y) = 0.32455 0.17104
# Poissons Ratio (z) = 0.13083 0.12807
#
# Static dielectric constant tensor:
#      x y z
#    x 1.867010 0.000000 -0.026990 
#    y 0.000000 2.070280 0.000000 
#    z -0.026990 0.000000 1.906000 
# 
# From -- ./inp_files/7271.got.cif
#   From: 2010.05.17/outbox.cif.g08.bks.cpg/sg4_4_cif.got.tgz:7271.got - 2010.06.03 18:43:04.
