data_PCOD9119521
_publ_section_title
;
Structure prediction by ZEFSAII (Michael W. Deem and Ramdas Pophale) SiO2 
 PCOD9119521
Probable space group: P 21
;
_chemical_formula_sum "Si O2"
_cell_formula_units_Z 16
_cell_length_a 21.935019
_cell_length_b 6.183756
_cell_length_c 9.809555
_cell_angle_alpha 90.000000
_cell_angle_beta 153.438098
_cell_angle_gamma 90.000000
_cell_volume 594.986237
_symmetry_space_group_name_H-M "P 21"
_symmetry_group_IT_number 4
_symmetry_cell_setting 'monoclinic'
loop_
_space_group_symop_operation_xyz
x,y,z
-x,1/2+y,-z
loop_
_atom_site_type_symbol
_atom_site_label
_atom_site_fract_x
_atom_site_fract_y
_atom_site_fract_z
Si Si1 0.664878 0.666940 0.259800
Si Si2 0.162124 0.493912 0.283774
Si Si3 0.430039 0.916944 0.695196
Si Si4 0.828553 0.290666 0.954413
Si Si5 0.202691 0.040683 0.733913
Si Si6 0.721907 0.922650 0.926922
Si Si7 0.016905 0.672637 0.255689
Si Si8 0.459527 0.743919 0.256946
O O1 0.692797 0.880913 0.404124
O O2 0.651199 0.465289 0.330395
O O3 0.787649 0.632072 0.400310
O O4 0.527983 0.715269 0.904756
O O5 0.149687 0.684390 0.150306
O O6 0.115721 0.564362 0.341340
O O7 0.081473 0.303868 0.043349
O O8 0.324995 0.882083 0.362333
O O9 0.518534 0.130909 0.844239
O O10 0.818562 0.094898 0.042344
O O11 0.934080 0.488702 0.172809
O O12 0.094787 0.844896 0.508109
O O13 0.350946 0.934426 0.052212
O O14 0.195323 0.238726 0.824687
O O15 0.609922 0.814346 0.604142
O O16 0.619615 0.053893 0.820693
#
# Coordination Sequence:
#
# PCOD9119521 Si02
#       8
#     2   2   2   2   2   2   2   2
#     4  12  23  42  72 123 162 204 266 338 416 493
#     4  12  24  49  78 111 157 213 272 346 415 497
#     4  12  23  42  72 123 162 204 266 338 416 493
#     4  12  27  46  79 118 161 220 277 345 412 501
#     4  12  27  46  79 118 161 220 277 345 412 501
#     4  12  26  47  79 118 162 217 285 341 425 495
#     4  12  26  47  79 118 162 217 285 341 425 495
#     4  12  24  49  78 111 157 213 272 346 415 497
#
# _framework density 26.891376000000001
#
# number of rings (size 3 to 8) (size 9 to 14) (size 15 to 20)
#    0.000    0.000    5.000    6.000    0.000    0.000 
#    0.000    0.000    5.500    3.000    0.000    0.000 
#    0.000    0.000    0.000    0.000    0.000    0.000 
#
# Total GULP energy -89646.389320 kJ/mol
# GULP energy per Si atom -5602.899333 kJ/mol
# Density = 2.683017 g / cm^3
# Si number density = 26.891376 Si / 1000 Ang^3
#
#
#
# Elastic Constant Matrix: (Units=GPa)
#
#
# Indices 1 2 3 4 5 6 
#
# 1 111.4970 78.8559 43.7171 0.0000 -0.1101 0.0000
# 2 78.8559 187.3385 78.8593 0.0000 0.0028 0.0000
# 3 43.7171 78.8593 111.4821 0.0000 0.1058 0.0000
# 4 0.0000 0.0000 0.0000 78.6211 0.0000 0.0062
# 5 -0.1101 0.0028 0.1058 0.0000 26.1115 0.0000
# 6 0.0000 0.0000 0.0000 0.0062 0.0000 78.5894
#
#
#
# Elastic Compliance Matrix: (Units=1/GPa)
#
#
# Indices 1 2 3 4 5 6 
#
# 1 0.013006 -0.004739 -0.001748 0.000000 0.000062 0.000000
# 2 -0.004739 0.009328 -0.004740 0.000000 -0.000002 0.000000
# 3 -0.001748 -0.004740 0.013009 0.000000 -0.000060 0.000000
# 4 0.000000 0.000000 0.000000 0.012719 0.000000 -0.000001
# 5 0.000062 -0.000002 -0.000060 0.000000 0.038298 0.000000
# 6 0.000000 0.000000 0.000000 -0.000001 0.000000 0.012724
#
#
# Mechanical properties :
#
#
# Convention : Reuss Voigt Hill
#
# Bulk Modulus (GPa) = 77.58868 90.35358 83.97113
# Shear Modulus (GPa) = 39.73508 50.59009 45.16258
#
# Velocity S-wave (km/s) = 3.84815 4.34207 4.10255
# Velocity P-wave (km/s) = 6.97564 7.66880 7.33042
#
# Compressibility (1/GPa) = 0.01288848
#
# Stress axis : x y z
#
# Youngs Moduli (GPa) = 76.88938 107.20634 76.87194
#
# Poissons Ratio (x) = 0.50800 0.13439
# Poissons Ratio (y) = 0.36434 0.36438
# Poissons Ratio (z) = 0.13442 0.50816
#
# Static dielectric constant tensor:
#      x y z
#    x 2.099370 0.000000 -0.000030 
#    y 0.000000 2.154910 0.000000 
#    z -0.000030 0.000000 2.099520 
# 
# From -- ./inp_files/9824.got.cif
#   From: 2010.05.17/outbox.cif.g08.bks.cpg/sg4_5_cif.got.tgz:9824.got - 2010.06.03 18:43:04.
