data_PCOD9119486
_publ_section_title
;
Structure prediction by ZEFSAII (Michael W. Deem and Ramdas Pophale) SiO2 
 PCOD9119486
Probable space group: P 21
;
_chemical_formula_sum "Si O2"
_cell_formula_units_Z 16
_cell_length_a 10.514430
_cell_length_b 5.645103
_cell_length_c 26.905419
_cell_angle_alpha 90.000000
_cell_angle_beta 26.499783
_cell_angle_gamma 90.000000
_cell_volume 712.560104
_symmetry_space_group_name_H-M "P 21"
_symmetry_group_IT_number 4
_symmetry_cell_setting 'monoclinic'
loop_
_space_group_symop_operation_xyz
x,y,z
-x,1/2+y,-z
loop_
_atom_site_type_symbol
_atom_site_label
_atom_site_fract_x
_atom_site_fract_y
_atom_site_fract_z
Si Si1 0.141196 0.289310 0.510820
Si Si2 0.411001 0.495664 0.324020
Si Si3 0.186543 0.487106 0.230808
Si Si4 0.311856 0.302846 0.908100
Si Si5 0.348845 0.172966 0.542062
Si Si6 0.493828 0.863096 0.973034
Si Si7 0.769663 0.650971 0.698704
Si Si8 0.996625 0.159343 0.920709
O O1 0.370011 0.351445 0.389013
O O2 0.266235 0.141069 0.512810
O O3 0.011178 0.519453 0.583081
O O4 0.865172 0.165883 0.582713
O O5 0.380740 0.328955 0.286634
O O6 0.712966 0.621295 0.211375
O O7 0.486872 0.587829 0.145905
O O8 0.239714 0.394520 0.157449
O O9 0.105139 0.282346 0.297560
O O10 0.941351 0.679549 0.323794
O O11 0.533158 0.476855 0.803327
O O12 0.081864 0.249027 0.945984
O O13 0.171765 0.419161 0.005740
O O14 0.492276 0.431597 0.497093
O O15 0.527145 0.614312 0.990950
O O16 0.213577 0.821007 0.037352
#
# Coordination Sequence:
#
# PCOD9119486 Si02
#       8
#     2   2   2   2   2   2   2   2
#     4  12  25  45  73 108 155 196 246 308 400 438
#     4  12  25  44  72 112 151 190 239 327 392 446
#     4  12  25  50  78 104 150 196 253 319 380 447
#     4  12  23  43  77 115 140 185 249 334 381 434
#     4  12  28  48  78 112 147 205 269 305 350 450
#     4  12  30  52  74 108 156 209 247 299 385 459
#     4  12  20  43  76 109 142 195 243 302 397 452
#     4  12  24  45  74 114 145 188 260 312 373 454
#
# _framework density 22.454246000000001
#
# number of rings (size 3 to 8) (size 9 to 14) (size 15 to 20)
#    0.000    0.000    7.500    3.000    0.000    2.000 
#    0.000    5.000    0.000    0.000    0.000    0.000 
#    0.000    0.000    0.000    0.000    0.000    0.000 
#
# Total GULP energy -89510.688196 kJ/mol
# GULP energy per Si atom -5594.418012 kJ/mol
# Density = 2.240314 g / cm^3
# Si number density = 22.454246 Si / 1000 Ang^3
#
#
#
# Elastic Constant Matrix: (Units=GPa)
#
#
# Indices 1 2 3 4 5 6 
#
# 1 83.1394 48.4972 58.7003 0.0000 10.4152 0.0000
# 2 48.4972 98.6492 33.8818 0.0000 6.4712 0.0000
# 3 58.7003 33.8818 106.0293 0.0000 14.9679 0.0000
# 4 0.0000 0.0000 0.0000 34.2402 0.0000 6.7849
# 5 10.4152 6.4712 14.9679 0.0000 38.7133 0.0000
# 6 0.0000 0.0000 0.0000 6.7849 0.0000 33.9109
#
#
#
# Elastic Compliance Matrix: (Units=1/GPa)
#
#
# Indices 1 2 3 4 5 6 
#
# 1 0.024689 -0.008340 -0.010855 0.000000 -0.001051 0.000000
# 2 -0.008340 0.014214 0.000099 0.000000 -0.000171 0.000000
# 3 -0.010855 0.000099 0.015865 0.000000 -0.003230 0.000000
# 4 0.000000 0.000000 0.000000 0.030411 0.000000 -0.006085
# 5 -0.001051 -0.000171 -0.003230 0.000000 0.027391 0.000000
# 6 0.000000 0.000000 0.000000 -0.006085 0.000000 0.030707
#
#
# Mechanical properties :
#
#
# Convention : Reuss Voigt Hill
#
# Bulk Modulus (GPa) = 60.32598 63.33072 61.82835
# Shear Modulus (GPa) = 26.73891 31.15545 28.94718
#
# Velocity S-wave (km/s) = 3.45457 3.72897 3.59439
# Velocity P-wave (km/s) = 6.54496 6.84148 6.69486
#
# Compressibility (1/GPa) = 0.01657660
#
# Stress axis : x y z
#
# Youngs Moduli (GPa) = 40.50453 70.35236 63.03155
#
# Poissons Ratio (x) = 0.58675 0.68419
# Poissons Ratio (y) = 0.33781 -0.00625
# Poissons Ratio (z) = 0.43966 -0.00698
#
# Static dielectric constant tensor:
#      x y z
#    x 1.853590 0.000000 -0.055720 
#    y 0.000000 1.894580 0.000000 
#    z -0.055720 0.000000 1.830340 
# 
# From -- ./inp_files/16045.got.cif
#   From: 2010.05.17/outbox.cif.g08.bks.cpg/sg4_9_cif.got.tgz:16045.got - 2010.06.03 18:43:04.
