data_PCOD9119221
_publ_section_title
;
Structure prediction by ZEFSAII (Michael W. Deem and Ramdas Pophale) SiO2 
 PCOD9119221
Probable space group: P 21
;
_chemical_formula_sum "Si O2"
_cell_formula_units_Z 16
_cell_length_a 25.869126
_cell_length_b 5.486203
_cell_length_c 20.373239
_cell_angle_alpha 90.000000
_cell_angle_beta 166.972045
_cell_angle_gamma 90.000000
_cell_volume 651.806281
_symmetry_space_group_name_H-M "P 21"
_symmetry_group_IT_number 4
_symmetry_cell_setting 'monoclinic'
loop_
_space_group_symop_operation_xyz
x,y,z
-x,1/2+y,-z
loop_
_atom_site_type_symbol
_atom_site_label
_atom_site_fract_x
_atom_site_fract_y
_atom_site_fract_z
Si Si1 0.955946 0.440390 0.372901
Si Si2 0.011357 0.403882 0.208336
Si Si3 0.132713 0.755570 0.180955
Si Si4 0.387907 0.946260 0.377338
Si Si5 0.795107 0.136861 0.056359
Si Si6 0.660247 0.499348 0.446589
Si Si7 0.840447 0.227339 0.497349
Si Si8 0.381731 0.284447 0.981377
O O1 0.900718 0.214146 0.257289
O O2 0.722491 0.534259 0.117636
O O3 0.065463 0.620604 0.454031
O O4 0.149234 0.401837 0.666096
O O5 0.180422 0.561300 0.462693
O O6 0.840003 0.329630 0.055343
O O7 0.150397 0.186902 0.345370
O O8 0.846886 0.513877 0.950209
O O9 0.337232 0.827010 0.384893
O O10 0.223588 0.784530 0.367491
O O11 0.039907 0.487570 0.046012
O O12 0.486434 0.705909 0.462206
O O13 0.958992 0.916754 0.236535
O O14 0.526792 0.111015 0.735493
O O15 0.505629 0.417096 0.194640
O O16 0.573528 0.298477 0.161213
#
# Coordination Sequence:
#
# PCOD9119221 Si02
#       8
#     2   2   2   2   2   2   2   2
#     4  11  27  45  69 110 147 193 255 309 377 451
#     4  11  26  47  74 105 147 196 253 311 389 462
#     4  12  28  49  76 113 154 198 260 326 389 469
#     4  12  28  48  78 112 154 204 257 329 397 469
#     4  11  24  48  71 108 146 192 252 311 376 455
#     4  12  25  47  76 105 147 197 249 315 385 459
#     4  11  26  44  73 105 146 196 247 315 374 459
#     4  12  26  44  77 102 153 198 249 314 385 452
#
# _framework density 24.547169
#
# number of rings (size 3 to 8) (size 9 to 14) (size 15 to 20)
#    0.000    0.500    3.750    3.000    7.000    1.000 
#    0.000    0.000    0.000    0.000    0.000    0.000 
#    0.000    0.000    0.000    0.000    0.000    0.000 
#
# Total GULP energy -89365.634185 kJ/mol
# GULP energy per Si atom -5585.352137 kJ/mol
# Density = 2.449130 g / cm^3
# Si number density = 24.547169 Si / 1000 Ang^3
#
#
#
# Elastic Constant Matrix: (Units=GPa)
#
#
# Indices 1 2 3 4 5 6 
#
# 1 71.7866 -5.7709 11.0762 0.0000 8.0395 0.0000
# 2 -5.7709 31.6034 4.2951 0.0000 13.5261 0.0000
# 3 11.0762 4.2951 63.7331 0.0000 5.5602 0.0000
# 4 0.0000 0.0000 0.0000 47.5576 0.0000 4.2317
# 5 8.0395 13.5261 5.5602 0.0000 58.6082 0.0000
# 6 0.0000 0.0000 0.0000 4.2317 0.0000 29.8320
#
#
#
# Elastic Compliance Matrix: (Units=1/GPa)
#
#
# Indices 1 2 3 4 5 6 
#
# 1 0.014998 0.004296 -0.002652 0.000000 -0.002797 0.000000
# 2 0.004296 0.036519 -0.002441 0.000000 -0.008786 0.000000
# 3 -0.002652 -0.002441 0.016370 0.000000 -0.000626 0.000000
# 4 0.000000 0.000000 0.000000 0.021296 0.000000 -0.003021
# 5 -0.002797 -0.008786 -0.000626 0.000000 0.019533 0.000000
# 6 0.000000 0.000000 0.000000 -0.003021 0.000000 0.033950
#
#
# Mechanical properties :
#
#
# Convention : Reuss Voigt Hill
#
# Bulk Modulus (GPa) = 15.08447 20.70266 17.89357
# Shear Modulus (GPa) = 30.05576 37.70109 33.87842
#
# Velocity S-wave (km/s) = 3.50295 3.92326 3.71905
# Velocity P-wave (km/s) = 4.74545 5.38282 5.07415
#
# Compressibility (1/GPa) = 0.06629334
#
# Stress axis : x y z
#
# Youngs Moduli (GPa) = 66.67552 27.38321 61.08563
#
# Poissons Ratio (x) = -0.11765 0.16200
# Poissons Ratio (y) = -0.28646 0.14912
# Poissons Ratio (z) = 0.17682 0.06685
#
# Static dielectric constant tensor:
#      x y z
#    x 1.975340 0.000000 0.053290 
#    y 0.000000 2.160320 0.000000 
#    z 0.053290 0.000000 2.009050 
# 
# From -- ./inp_files/15970.got.cif
#   From: 2010.05.17/outbox.cif.g08.bks.cpg/sg4_8_cif.got.tgz:15970.got - 2010.06.03 18:43:04.
