data_PCOD9119975
_publ_section_title
;
Structure prediction by ZEFSAII (Michael W. Deem and Ramdas Pophale) SiO2 
 PCOD9119975
Probable space group: C 2
;
_chemical_formula_sum "Si O2"
_cell_formula_units_Z 30
_cell_length_a 6.854338
_cell_length_b 17.183137
_cell_length_c 10.868004
_cell_angle_alpha 90.000000
_cell_angle_beta 90.948449
_cell_angle_gamma 90.000000
_cell_volume 1279.847585
_symmetry_space_group_name_H-M "C 2"
_symmetry_group_IT_number 5
_symmetry_cell_setting 'monoclinic'
loop_
_space_group_symop_operation_xyz
x,y,z
-x,y,-z
1/2+x,1/2+y,z
1/2-x,1/2+y,-z
loop_
_atom_site_type_symbol
_atom_site_label
_atom_site_fract_x
_atom_site_fract_y
_atom_site_fract_z
Si Si1 0.779099 0.048480 0.546952
Si Si2 0.420391 0.383604 0.625826
Si Si3 0.880675 0.116376 0.791963
Si Si4 0.830052 0.592206 0.717838
Si Si5 0.000000 0.010885 0.000000
Si Si6 0.204425 0.279276 0.091040
Si Si7 0.854278 0.762417 0.826106
Si Si8 0.771558 0.434388 0.807922
O O1 0.749299 0.095805 0.673007
O O2 0.659137 0.076647 0.427479
O O3 0.000000 0.062229 0.500000
O O4 0.785477 0.957238 0.585910
O O5 0.500000 0.346542 0.500000
O O6 0.314477 0.322291 0.713992
O O7 0.616447 0.416540 0.696128
O O8 0.862185 0.204167 0.834489
O O9 0.900871 0.095801 0.248582
O O10 0.860983 0.063906 0.913140
O O11 0.888505 0.675182 0.774326
O O12 0.897605 0.510719 0.778629
O O13 0.864201 0.958215 0.080509
O O14 0.433411 0.287570 0.125169
O O15 0.116303 0.358123 0.146426
O O16 0.210427 0.265456 0.943389
#
# Coordination Sequence:
#
# PCOD9119975 Si02
#       8
#     4   4   4   4   2   4   4   4
#     4   9  16  32  54  82 106 134 183 230 264 308
#     4  10  16  32  54  81 106 137 184 226 261 318
#     4  10  19  32  57  79 105 142 185 223 264 322
#     4  10  19  35  57  81 107 140 187 230 265 317
#     4  10  16  28  54  78  96 140 188 222 254 308
#     4  10  21  35  51  81 115 142 180 221 276 325
#     4  10  22  34  53  82 116 139 178 231 273 319
#     4  10  17  29  53  75 104 140 180 219 259 313
#
# _framework density 23.440290999999998
#
# number of rings (size 3 to 8) (size 9 to 14) (size 15 to 20)
#    0.000    2.133    5.333    3.200    0.000    2.133 
#    0.000    0.000    2.933    3.200    0.000    0.000 
#    0.000    0.000    0.000    0.000    0.000    0.000 
#
# Total GULP energy -83745.166673 kJ/mol
# GULP energy per Si atom -5583.011112 kJ/mol
# Density = 2.338694 g / cm^3
# Si number density = 23.440291 Si / 1000 Ang^3
#
#
#
# Elastic Constant Matrix: (Units=GPa)
#
#
# Indices 1 2 3 4 5 6 
#
# 1 23.0490 16.2492 17.6278 0.0000 -3.4998 0.0000
# 2 16.2492 211.2664 109.8500 0.0000 -6.7371 0.0000
# 3 17.6278 109.8500 190.4974 0.0000 -14.3152 0.0000
# 4 0.0000 0.0000 0.0000 46.8939 0.0000 -2.7287
# 5 -3.4998 -6.7371 -14.3152 0.0000 34.5906 0.0000
# 6 0.0000 0.0000 0.0000 -2.7287 0.0000 30.3075
#
#
#
# Elastic Compliance Matrix: (Units=1/GPa)
#
#
# Indices 1 2 3 4 5 6 
#
# 1 0.047578 -0.001990 -0.003017 0.000000 0.003178 0.000000
# 2 -0.001990 0.006847 -0.003797 0.000000 -0.000439 0.000000
# 3 -0.003017 -0.003797 0.007885 0.000000 0.002218 0.000000
# 4 0.000000 0.000000 0.000000 0.021437 0.000000 0.001930
# 5 0.003178 -0.000439 0.002218 0.000000 0.030064 0.000000
# 6 0.000000 0.000000 0.000000 0.001930 0.000000 0.033169
#
#
# Mechanical properties :
#
#
# Convention : Reuss Voigt Hill
#
# Bulk Modulus (GPa) = 22.36976 79.14075 50.75526
# Shear Modulus (GPa) = 27.85726 41.09745 34.47736
#
# Velocity S-wave (km/s) = 3.45111 4.19176 3.83934
# Velocity P-wave (km/s) = 5.04423 7.56729 6.43071
#
# Compressibility (1/GPa) = 0.04470320
#
# Stress axis : x y z
#
# Youngs Moduli (GPa) = 21.01811 146.05625 126.82614
#
# Poissons Ratio (x) = 0.29058 0.38258
# Poissons Ratio (y) = 0.04182 0.48156
# Poissons Ratio (z) = 0.06340 0.55458
#
# Static dielectric constant tensor:
#      x y z
#    x 1.979090 0.000000 0.042940 
#    y 0.000000 1.915360 0.000000 
#    z 0.042940 0.000000 1.935390 
# 
# From -- ./inp_files/21302.got.cif
#   From: 2010.05.17/outbox.cif.g08.bks.cpg/sg5_11_cif.got.tgz:21302.got - 2010.06.03 18:56:24.
