data_PCOD9119425
_publ_section_title
;
Structure prediction by ZEFSAII (Michael W. Deem and Ramdas Pophale) SiO2 
 PCOD9119425
Probable space group: P 21
;
_chemical_formula_sum "Si O2"
_cell_formula_units_Z 16
_cell_length_a 11.457606
_cell_length_b 11.300846
_cell_length_c 9.512072
_cell_angle_alpha 90.000000
_cell_angle_beta 146.134929
_cell_angle_gamma 90.000000
_cell_volume 686.311822
_symmetry_space_group_name_H-M "P 21"
_symmetry_group_IT_number 4
_symmetry_cell_setting 'monoclinic'
loop_
_space_group_symop_operation_xyz
x,y,z
-x,1/2+y,-z
loop_
_atom_site_type_symbol
_atom_site_label
_atom_site_fract_x
_atom_site_fract_y
_atom_site_fract_z
Si Si1 0.775541 0.308770 0.139625
Si Si2 0.394667 0.439543 0.304256
Si Si3 0.057257 0.350504 0.648202
Si Si4 0.267930 0.046228 0.574735
Si Si5 0.903483 0.724025 0.036149
Si Si6 0.920387 0.146118 0.051900
Si Si7 0.542790 0.703944 0.979578
Si Si8 0.607596 0.526186 0.803456
O O1 0.781824 0.210652 0.028402
O O2 0.001835 0.335337 0.428968
O O3 0.664369 0.258751 0.165340
O O4 0.663990 0.420883 0.964335
O O5 0.561676 0.473119 0.347659
O O6 0.295149 0.308724 0.197553
O O7 0.489622 0.475597 0.550207
O O8 0.189434 0.521774 0.083021
O O9 0.303093 0.315774 0.892711
O O10 0.927997 0.468087 0.561376
O O11 0.999024 0.262502 0.718595
O O12 0.362615 0.118600 0.801916
O O13 0.152534 0.131382 0.347315
O O14 0.818488 0.590725 0.961300
O O15 0.067275 0.725859 0.074087
O O16 0.508363 0.626690 0.805399
#
# Coordination Sequence:
#
# PCOD9119425 Si02
#       8
#     2   2   2   2   2   2   2   2
#     4  12  27  46  77 108 148 197 244 312 372 435
#     4  12  28  48  75 107 151 199 247 312 374 439
#     4  11  26  46  73 101 149 189 240 306 359 442
#     4  12  24  49  71 107 148 192 245 299 368 445
#     4  11  28  49  72 111 147 197 250 302 379 442
#     4  12  27  48  74 108 145 198 242 309 372 441
#     4  11  26  49  69 113 146 191 252 298 372 442
#     4  11  28  47  73 109 150 193 250 306 366 446
#
# _framework density 23.313019000000001
#
# number of rings (size 3 to 8) (size 9 to 14) (size 15 to 20)
#    0.000    0.500    6.250    0.000   12.250    1.000 
#    0.000    0.000    0.000    0.000    0.000    0.000 
#    0.000    0.000    0.000    0.000    0.000    0.000 
#
# Total GULP energy -89344.725514 kJ/mol
# GULP energy per Si atom -5584.045345 kJ/mol
# Density = 2.325996 g / cm^3
# Si number density = 23.313019 Si / 1000 Ang^3
#
#
#
# Elastic Constant Matrix: (Units=GPa)
#
#
# Indices 1 2 3 4 5 6 
#
# 1 103.5309 10.2156 12.1151 0.0000 -10.7120 0.0000
# 2 10.2156 59.2761 22.8811 0.0000 1.8850 0.0000
# 3 12.1151 22.8811 91.4504 0.0000 -28.3725 0.0000
# 4 0.0000 0.0000 0.0000 19.3175 0.0000 4.9466
# 5 -10.7120 1.8850 -28.3725 0.0000 30.1196 0.0000
# 6 0.0000 0.0000 0.0000 4.9466 0.0000 29.8821
#
#
#
# Elastic Compliance Matrix: (Units=1/GPa)
#
#
# Indices 1 2 3 4 5 6 
#
# 1 0.010246 -0.002082 0.000473 0.000000 0.004220 0.000000
# 2 -0.002082 0.020518 -0.007751 0.000000 -0.009326 0.000000
# 3 0.000473 -0.007751 0.018388 0.000000 0.017975 0.000000
# 4 0.000000 0.000000 0.000000 0.054058 0.000000 -0.008949
# 5 0.004220 -0.009326 0.017975 0.000000 0.052218 0.000000
# 6 0.000000 0.000000 0.000000 -0.008949 0.000000 0.034946
#
#
# Mechanical properties :
#
#
# Convention : Reuss Voigt Hill
#
# Bulk Modulus (GPa) = 32.86212 38.29790 35.58001
# Shear Modulus (GPa) = 22.80624 29.80022 26.30323
#
# Velocity S-wave (km/s) = 3.13111 3.57916 3.36261
# Velocity P-wave (km/s) = 5.21521 5.79171 5.51100
#
# Compressibility (1/GPa) = 0.03043018
#
# Stress axis : x y z
#
# Youngs Moduli (GPa) = 97.60212 48.73848 54.38233
#
# Poissons Ratio (x) = 0.10149 -0.02571
# Poissons Ratio (y) = 0.20325 0.42153
# Poissons Ratio (z) = -0.04615 0.37778
#
# Static dielectric constant tensor:
#      x y z
#    x 1.891850 0.000000 0.011500 
#    y 0.000000 1.876800 0.000000 
#    z 0.011500 0.000000 1.898400 
# 
# From -- ./inp_files/1390.got.cif
#   From: 2010.05.17/outbox.cif.g08.bks.cpg/sg4_1_cif.got.tgz:1390.got - 2010.06.03 18:43:04.
