data_PCOD9119549
_publ_section_title
;
Structure prediction by ZEFSAII (Michael W. Deem and Ramdas Pophale) SiO2 
 PCOD9119549
Probable space group: P 21
;
_chemical_formula_sum "Si O2"
_cell_formula_units_Z 10
_cell_length_a 5.433966
_cell_length_b 4.906272
_cell_length_c 16.758372
_cell_angle_alpha 90.000000
_cell_angle_beta 61.059913
_cell_angle_gamma 90.000000
_cell_volume 390.994855
_symmetry_space_group_name_H-M "P 21"
_symmetry_group_IT_number 4
_symmetry_cell_setting 'monoclinic'
loop_
_space_group_symop_operation_xyz
x,y,z
-x,1/2+y,-z
loop_
_atom_site_type_symbol
_atom_site_label
_atom_site_fract_x
_atom_site_fract_y
_atom_site_fract_z
Si Si1 0.109518 0.430410 0.685847
Si Si2 0.339125 0.646115 0.145233
Si Si3 0.806158 0.324377 0.010526
Si Si4 0.445908 0.960099 0.271939
Si Si5 0.975311 0.166116 0.558631
O O1 0.323915 0.586696 0.707959
O O2 0.195732 0.282011 0.590319
O O3 0.960324 0.198788 0.764846
O O4 0.841665 0.616754 0.703384
O O5 0.517097 0.372130 0.105303
O O6 0.534220 0.820445 0.175931
O O7 0.290009 0.753904 0.063785
O O8 0.982812 0.603030 0.986654
O O9 0.317547 0.719312 0.349079
O O10 0.979586 0.370424 0.483033
#
# Coordination Sequence:
#
# PCOD9119549 Si02
#       5
#     2   2   2   2   2
#     4   8  19  39  63  91 129 168 211 265 325 389
#     4   9  22  40  63  98 132 170 227 270 332 397
#     4  12  24  42  70  96 136 178 230 282 338 398
#     4   8  19  39  63  91 129 168 211 265 325 389
#     4   9  20  38  63  92 124 162 209 262 318 387
#
# _framework density 25.575786999999998
#
# number of rings (size 3 to 8) (size 9 to 14) (size 15 to 20)
#    2.400    0.000    0.000    2.400    0.000    1.600 
#    0.000   32.000    0.000    0.000    0.000    0.000 
#    0.000    0.000    0.000    0.000    0.000    0.000 
#
# Total GULP energy -55694.788151 kJ/mol
# GULP energy per Si atom -5569.478815 kJ/mol
# Density = 2.551758 g / cm^3
# Si number density = 25.575787 Si / 1000 Ang^3
#
#
#
# Elastic Constant Matrix: (Units=GPa)
#
#
# Indices 1 2 3 4 5 6 
#
# 1 161.7528 13.7652 16.6043 0.0000 45.3857 0.0000
# 2 13.7652 80.9272 20.1291 0.0000 -9.5038 0.0000
# 3 16.6043 20.1291 108.1797 0.0000 7.4708 0.0000
# 4 0.0000 0.0000 0.0000 14.9178 0.0000 -5.3216
# 5 45.3857 -9.5038 7.4708 0.0000 38.4432 0.0000
# 6 0.0000 0.0000 0.0000 -5.3216 0.0000 27.9984
#
#
#
# Elastic Compliance Matrix: (Units=1/GPa)
#
#
# Indices 1 2 3 4 5 6 
#
# 1 0.009978 -0.003151 -0.000079 0.000000 -0.012544 0.000000
# 2 -0.003151 0.014499 -0.002756 0.000000 0.007839 0.000000
# 3 -0.000079 -0.002756 0.009943 0.000000 -0.002520 0.000000
# 4 0.000000 0.000000 0.000000 0.071910 0.000000 0.013668
# 5 -0.012544 0.007839 -0.002520 0.000000 0.043249 0.000000
# 6 0.000000 0.000000 0.000000 0.013668 0.000000 0.038314
#
#
# Mechanical properties :
#
#
# Convention : Reuss Voigt Hill
#
# Bulk Modulus (GPa) = 44.54525 50.20632 47.37579
# Shear Modulus (GPa) = 24.11429 36.29595 30.20512
#
# Velocity S-wave (km/s) = 3.07393 3.77125 3.44030
# Velocity P-wave (km/s) = 5.48211 6.21580 5.86044
#
# Compressibility (1/GPa) = 0.02244908
#
# Stress axis : x y z
#
# Youngs Moduli (GPa) = 100.21992 68.97164 100.57551
#
# Poissons Ratio (x) = 0.21730 0.00795
# Poissons Ratio (y) = 0.31575 0.27714
# Poissons Ratio (z) = 0.00792 0.19006
#
# Static dielectric constant tensor:
#      x y z
#    x 2.162930 0.000000 -0.037390 
#    y 0.000000 1.938920 0.000000 
#    z -0.037390 0.000000 2.020640 
# 
# From -- ./inp_files/3275.got.cif
#   From: 2010.05.17/outbox.cif.g08.bks.cpg/sg4_2_cif.got.tgz:3275.got - 2010.06.03 18:43:04.
