data_PCOD9119978
_publ_section_title
;
Structure prediction by ZEFSAII (Michael W. Deem and Ramdas Pophale) SiO2 
 PCOD9119978
Probable space group: C 2
;
_chemical_formula_sum "Si O2"
_cell_formula_units_Z 28
_cell_length_a 33.281976
_cell_length_b 5.367949
_cell_length_c 10.182520
_cell_angle_alpha 90.000000
_cell_angle_beta 61.362583
_cell_angle_gamma 90.000000
_cell_volume 1596.629312
_symmetry_space_group_name_H-M "C 2"
_symmetry_group_IT_number 5
_symmetry_cell_setting 'monoclinic'
loop_
_space_group_symop_operation_xyz
x,y,z
-x,y,-z
1/2+x,1/2+y,z
1/2-x,1/2+y,-z
loop_
_atom_site_type_symbol
_atom_site_label
_atom_site_fract_x
_atom_site_fract_y
_atom_site_fract_z
Si Si1 0.811982 0.691450 0.897481
Si Si2 0.717049 0.691447 0.200471
Si Si3 0.370786 0.691577 0.188487
Si Si4 0.886511 0.691581 0.996719
Si Si5 0.494821 0.191323 0.848086
Si Si6 0.467151 0.691318 0.181111
Si Si7 0.722816 0.692192 0.503496
O O1 0.805680 0.441363 0.822326
O O2 0.805657 0.941366 0.822238
O O3 0.769776 0.691486 0.067719
O O4 0.858860 0.691604 0.904703
O O5 0.715572 0.691650 0.358946
O O6 0.373235 0.441760 0.096967
O O7 0.415670 0.691568 0.210143
O O8 0.325008 0.691714 0.344797
O O9 0.373248 0.941316 0.096888
O O10 0.941447 0.691599 0.898291
O O11 0.519805 0.441119 0.763848
O O12 0.519734 0.941353 0.763906
O O13 0.500000 0.191202 0.000000
O O14 0.500000 0.691197 0.000000
O O15 0.750102 0.442610 0.500006
#
# Coordination Sequence:
#
# PCOD9119978 Si02
#       7
#     4   4   4   4   4   4   4
#     4  10  21  35  58  75  99 148 180 233 261 311
#     4  10  21  40  53  74 108 137 188 223 272 310
#     4  12  21  32  55  81 117 144 175 219 284 335
#     4  12  20  32  54  88 112 137 187 220 276 335
#     4  10  16  29  47  74 119 135 159 230 275 322
#     4  10  16  30  46  76 112 140 166 214 280 329
#     4  12  25  40  57  82 112 149 179 227 273 332
#
# _framework density 17.536944999999999
#
# number of rings (size 3 to 8) (size 9 to 14) (size 15 to 20)
#    0.000    1.143    5.714    4.286    0.000    2.286 
#    0.000    0.000    0.000    0.000    0.000    6.000 
#    0.000    0.000    0.000    0.000    0.000    0.000 
#
# Total GULP energy -78159.992814 kJ/mol
# GULP energy per Si atom -5582.856630 kJ/mol
# Density = 1.749703 g / cm^3
# Si number density = 17.536945 Si / 1000 Ang^3
#
#
#
# Elastic Constant Matrix: (Units=GPa)
#
#
# Indices 1 2 3 4 5 6 
#
# 1 164.0212 67.1746 45.7142 0.0000 4.2447 0.0000
# 2 67.1746 198.8534 42.0494 0.0000 6.9051 0.0000
# 3 45.7142 42.0494 44.5838 0.0000 5.0714 0.0000
# 4 0.0000 0.0000 0.0000 10.0399 0.0000 1.3433
# 5 4.2447 6.9051 5.0714 0.0000 26.0830 0.0000
# 6 0.0000 0.0000 0.0000 1.3433 0.0000 24.3674
#
#
#
# Elastic Compliance Matrix: (Units=1/GPa)
#
#
# Indices 1 2 3 4 5 6 
#
# 1 0.008815 -0.001338 -0.007826 0.000000 0.000441 0.000000
# 2 -0.001338 0.006492 -0.004684 0.000000 -0.000590 0.000000
# 3 -0.007826 -0.004684 0.035368 0.000000 -0.004363 0.000000
# 4 0.000000 0.000000 0.000000 0.100343 0.000000 -0.005532
# 5 0.000441 -0.000590 -0.004363 0.000000 0.039272 0.000000
# 6 0.000000 0.000000 0.000000 -0.005532 0.000000 0.041343
#
#
# Mechanical properties :
#
#
# Convention : Reuss Voigt Hill
#
# Bulk Modulus (GPa) = 43.51892 79.70386 61.61139
# Shear Modulus (GPa) = 18.72742 28.93273 23.83007
#
# Velocity S-wave (km/s) = 3.27139 4.06620 3.69026
# Velocity P-wave (km/s) = 6.25610 8.22150 7.30520
#
# Compressibility (1/GPa) = 0.02297851
#
# Stress axis : x y z
#
# Youngs Moduli (GPa) = 113.44790 154.04255 28.27403
#
# Poissons Ratio (x) = 0.20611 0.22128
# Poissons Ratio (y) = 0.15180 0.13242
# Poissons Ratio (z) = 0.88788 0.72147
#
# Static dielectric constant tensor:
#      x y z
#    x 1.579530 0.000000 -0.004400 
#    y 0.000000 1.483170 0.000000 
#    z -0.004400 0.000000 1.546640 
# 
# From -- ./inp_files/32143.got.cif
#   From: 2010.05.17/outbox.cif.g08.bks.cpg/sg5_17_cif.got.tgz:32143.got - 2010.06.03 18:56:24.
