data_PCOD9119674
_publ_section_title
;
Structure prediction by ZEFSAII (Michael W. Deem and Ramdas Pophale) SiO2 
 PCOD9119674
Probable space group: P 21
;
_chemical_formula_sum "Si O2"
_cell_formula_units_Z 16
_cell_length_a 9.147261
_cell_length_b 8.941722
_cell_length_c 8.972384
_cell_angle_alpha 90.000000
_cell_angle_beta 114.590985
_cell_angle_gamma 90.000000
_cell_volume 667.310625
_symmetry_space_group_name_H-M "P 21"
_symmetry_group_IT_number 4
_symmetry_cell_setting 'monoclinic'
loop_
_space_group_symop_operation_xyz
x,y,z
-x,1/2+y,-z
loop_
_atom_site_type_symbol
_atom_site_label
_atom_site_fract_x
_atom_site_fract_y
_atom_site_fract_z
Si Si1 0.676575 0.156180 0.452957
Si Si2 0.453078 0.994282 0.571089
Si Si3 0.594032 0.010238 0.128016
Si Si4 0.025695 0.081079 0.683326
Si Si5 0.907853 0.555969 0.625815
Si Si6 0.416223 0.715667 0.116122
Si Si7 0.047316 0.796275 0.886403
Si Si8 0.132569 0.338793 0.893777
O O1 0.587181 0.318226 0.415101
O O2 0.848945 0.155091 0.605424
O O3 0.576342 0.026689 0.491800
O O4 0.698121 0.094864 0.295784
O O5 0.282733 0.059652 0.447134
O O6 0.525081 0.101808 0.731129
O O7 0.485912 0.882895 0.154359
O O8 0.707795 0.935318 0.051766
O O9 0.510499 0.142870 0.003329
O O10 0.055412 0.017756 0.531041
O O11 0.147298 0.213308 0.773255
O O12 0.048767 0.964740 0.826322
O O13 0.983854 0.709606 0.714053
O O14 0.985909 0.441632 0.774987
O O15 0.222785 0.739343 0.014672
O O16 0.919740 0.781373 0.966962
#
# Coordination Sequence:
#
# PCOD9119674 Si02
#       8
#     2   2   2   2   2   2   2   2
#     4  12  27  50  76 114 153 206 258 326 392 468
#     4  12  29  49  80 113 159 201 263 325 392 476
#     4  12  28  48  75 111 155 205 256 318 397 469
#     4  12  26  47  81 108 155 203 265 324 386 470
#     4  12  26  49  79 113 148 204 263 318 396 468
#     4  12  28  50  74 116 156 208 257 322 397 471
#     4  12  29  48  78 112 158 207 259 331 395 470
#     4  12  25  49  73 113 148 200 261 320 393 466
#
# _framework density 23.976838999999998
#
# number of rings (size 3 to 8) (size 9 to 14) (size 15 to 20)
#    0.000    0.000    3.750    4.500   12.250    1.000 
#    0.000    0.000    0.000    0.000    0.000    0.000 
#    0.000    0.000    0.000    0.000    0.000    0.000 
#
# Total GULP energy -89467.877940 kJ/mol
# GULP energy per Si atom -5591.742371 kJ/mol
# Density = 2.392227 g / cm^3
# Si number density = 23.976839 Si / 1000 Ang^3
#
#
#
# Elastic Constant Matrix: (Units=GPa)
#
#
# Indices 1 2 3 4 5 6 
#
# 1 69.9506 -10.6581 0.1910 0.0000 6.9375 0.0000
# 2 -10.6581 83.8897 6.9580 0.0000 1.2121 0.0000
# 3 0.1910 6.9580 66.2355 0.0000 4.6897 0.0000
# 4 0.0000 0.0000 0.0000 47.9724 0.0000 1.1795
# 5 6.9375 1.2121 4.6897 0.0000 33.6831 0.0000
# 6 0.0000 0.0000 0.0000 1.1795 0.0000 31.0342
#
#
#
# Elastic Compliance Matrix: (Units=1/GPa)
#
#
# Indices 1 2 3 4 5 6 
#
# 1 0.014903 0.001941 -0.000025 0.000000 -0.003136 0.000000
# 2 0.001941 0.012280 -0.001248 0.000000 -0.000668 0.000000
# 3 -0.000025 -0.001248 0.015377 0.000000 -0.002091 0.000000
# 4 0.000000 0.000000 0.000000 0.020865 0.000000 -0.000793
# 5 -0.003136 -0.000668 -0.002091 0.000000 0.030649 0.000000
# 6 0.000000 0.000000 0.000000 -0.000793 0.000000 0.032253
#
#
# Mechanical properties :
#
#
# Convention : Reuss Voigt Hill
#
# Bulk Modulus (GPa) = 22.78177 23.67306 23.22742
# Shear Modulus (GPa) = 35.81070 37.44360 36.62715
#
# Velocity S-wave (km/s) = 3.86885 3.95607 3.91270
# Velocity P-wave (km/s) = 5.42950 5.54635 5.48824
#
# Compressibility (1/GPa) = 0.04389475
#
# Stress axis : x y z
#
# Youngs Moduli (GPa) = 67.10253 81.43209 65.03263
#
# Poissons Ratio (x) = -0.15804 0.00161
# Poissons Ratio (y) = -0.13023 0.08118
# Poissons Ratio (z) = 0.00167 0.10165
#
# Static dielectric constant tensor:
#      x y z
#    x 1.925250 0.000000 0.041300 
#    y 0.000000 1.969320 0.000000 
#    z 0.041300 0.000000 1.946220 
# 
# From -- ./inp_files/5512.got.cif
#   From: 2010.05.17/outbox.cif.g08.bks.cpg/sg4_3_cif.got.tgz:5512.got - 2010.06.03 18:43:04.
