data_PCOD9119687
_publ_section_title
;
Structure prediction by ZEFSAII (Michael W. Deem and Ramdas Pophale) SiO2 
 PCOD9119687
Probable space group: P 21
;
_chemical_formula_sum "Si O2"
_cell_formula_units_Z 14
_cell_length_a 11.170829
_cell_length_b 8.383155
_cell_length_c 8.511792
_cell_angle_alpha 90.000000
_cell_angle_beta 41.229434
_cell_angle_gamma 90.000000
_cell_volume 525.350725
_symmetry_space_group_name_H-M "P 21"
_symmetry_group_IT_number 4
_symmetry_cell_setting 'monoclinic'
loop_
_space_group_symop_operation_xyz
x,y,z
-x,1/2+y,-z
loop_
_atom_site_type_symbol
_atom_site_label
_atom_site_fract_x
_atom_site_fract_y
_atom_site_fract_z
Si Si1 0.994539 0.901980 0.222399
Si Si2 0.366098 0.921765 0.697601
Si Si3 0.565466 0.671312 0.947742
Si Si4 0.709441 0.786144 0.294189
Si Si5 0.737159 0.198566 0.493685
Si Si6 0.699760 0.984830 0.976239
Si Si7 0.076823 0.964647 0.477002
O O1 0.899038 0.782757 0.197254
O O2 0.984215 0.885320 0.417206
O O3 0.887194 0.068177 0.298052
O O4 0.205506 0.902913 0.976769
O O5 0.568440 0.877814 0.544950
O O6 0.329573 0.800659 0.589204
O O7 0.352923 0.105528 0.662794
O O8 0.624341 0.851610 0.928485
O O9 0.754262 0.574293 0.743443
O O10 0.429634 0.639441 0.230830
O O11 0.443562 0.626582 0.915230
O O12 0.709745 0.891630 0.133538
O O13 0.841737 0.327019 0.496747
O O14 0.903809 0.040067 0.736494
#
# Coordination Sequence:
#
# PCOD9119687 Si02
#       7
#     2   2   2   2   2   2   2
#     4  12  28  48  80 117 162 208 270 326 407 480
#     4  12  26  52  80 111 162 210 264 333 391 488
#     4  12  25  51  80 113 159 205 266 335 395 470
#     4  12  28  50  77 116 160 212 264 325 408 479
#     4  12  26  55  75 118 162 214 274 330 397 483
#     4  12  27  51  82 118 161 210 267 336 401 480
#     4  12  26  47  82 113 160 207 269 335 399 472
#
# _framework density 26.648864
#
# number of rings (size 3 to 8) (size 9 to 14) (size 15 to 20)
#    0.000    0.000    4.286    5.143    2.000    3.429 
#   10.286    0.000    0.000    0.000    0.000    0.000 
#    0.000    0.000    0.000    0.000    0.000    0.000 
#
# Total GULP energy -78489.196183 kJ/mol
# GULP energy per Si atom -5606.371156 kJ/mol
# Density = 2.658821 g / cm^3
# Si number density = 26.648864 Si / 1000 Ang^3
#
#
#
# Elastic Constant Matrix: (Units=GPa)
#
#
# Indices 1 2 3 4 5 6 
#
# 1 85.6512 16.3900 17.2774 0.0000 -10.7303 0.0000
# 2 16.3900 80.4292 23.7055 0.0000 -0.5020 0.0000
# 3 17.2774 23.7055 159.0490 0.0000 -25.8331 0.0000
# 4 0.0000 0.0000 0.0000 48.5060 0.0000 -1.6558
# 5 -10.7303 -0.5020 -25.8331 0.0000 40.4575 0.0000
# 6 0.0000 0.0000 0.0000 -1.6558 0.0000 39.2220
#
#
#
# Elastic Compliance Matrix: (Units=1/GPa)
#
#
# Indices 1 2 3 4 5 6 
#
# 1 0.012614 -0.002396 -0.000529 0.000000 0.002978 0.000000
# 2 -0.002396 0.013512 -0.002041 0.000000 -0.001771 0.000000
# 3 -0.000529 -0.002041 0.007388 0.000000 0.004552 0.000000
# 4 0.000000 0.000000 0.000000 0.020646 0.000000 0.000872
# 5 0.002978 -0.001771 0.004552 0.000000 0.028392 0.000000
# 6 0.000000 0.000000 0.000000 0.000872 0.000000 0.025533
#
#
# Mechanical properties :
#
#
# Convention : Reuss Voigt Hill
#
# Bulk Modulus (GPa) = 42.40714 48.87501 45.64107
# Shear Modulus (GPa) = 39.72110 43.48755 41.60433
#
# Velocity S-wave (km/s) = 3.86494 4.04403 3.95549
# Velocity P-wave (km/s) = 5.98872 6.33922 6.16646
#
# Compressibility (1/GPa) = 0.02358094
#
# Stress axis : x y z
#
# Youngs Moduli (GPa) = 79.27984 74.00768 135.34581
#
# Poissons Ratio (x) = 0.17730 0.07166
# Poissons Ratio (y) = 0.18994 0.27629
# Poissons Ratio (z) = 0.04198 0.15108
#
# Static dielectric constant tensor:
#      x y z
#    x 2.051050 0.000000 -0.007300 
#    y 0.000000 2.154790 0.000000 
#    z -0.007300 0.000000 2.088370 
# 
# From -- ./inp_files/7935.got.cif
#   From: 2010.05.17/outbox.cif.g08.bks.cpg/sg4_4_cif.got.tgz:7935.got - 2010.06.03 18:43:04.
