data_PCOD9119442
_publ_section_title
;
Structure prediction by ZEFSAII (Michael W. Deem and Ramdas Pophale) SiO2 
 PCOD9119442
Probable space group: P 21
;
_chemical_formula_sum "Si O2"
_cell_formula_units_Z 10
_cell_length_a 5.994458
_cell_length_b 10.656448
_cell_length_c 6.341763
_cell_angle_alpha 90.000000
_cell_angle_beta 104.616088
_cell_angle_gamma 90.000000
_cell_volume 391.999464
_symmetry_space_group_name_H-M "P 21"
_symmetry_group_IT_number 4
_symmetry_cell_setting 'monoclinic'
loop_
_space_group_symop_operation_xyz
x,y,z
-x,1/2+y,-z
loop_
_atom_site_type_symbol
_atom_site_label
_atom_site_fract_x
_atom_site_fract_y
_atom_site_fract_z
Si Si1 0.942614 0.059400 0.026507
Si Si2 0.740468 0.866862 0.231827
Si Si3 0.646307 0.259175 0.151192
Si Si4 0.323351 0.157271 0.430885
Si Si5 0.931590 0.477324 0.380846
O O1 0.713860 0.136693 0.031325
O O2 0.138327 0.129052 0.203856
O O3 0.916391 0.913095 0.089552
O O4 0.005728 0.064236 0.799329
O O5 0.735490 0.751351 0.392395
O O6 0.838301 0.971490 0.421031
O O7 0.510411 0.846822 0.038746
O O8 0.528220 0.213018 0.340285
O O9 0.860234 0.342741 0.276011
O O10 0.295213 0.024661 0.547018
#
# Coordination Sequence:
#
# PCOD9119442 Si02
#       5
#     2   2   2   2   2
#     4  11  27  51  76 114 160 200 256 328 370 466
#     4  11  26  47  80 108 153 202 260 311 385 447
#     4  12  28  49  79 112 154 207 259 318 384 464
#     4  11  26  49  77 113 153 204 256 317 388 454
#     4  11  27  52  76 113 160 201 259 324 379 455
#
# _framework density 25.510235999999999
#
# number of rings (size 3 to 8) (size 9 to 14) (size 15 to 20)
#    0.000    0.800    2.000    2.400   11.200    4.800 
#    0.000    0.000    0.000    0.000    0.000    0.000 
#    0.000    0.000    0.000    0.000    0.000    0.000 
#
# Total GULP energy -55706.304723 kJ/mol
# GULP energy per Si atom -5570.630472 kJ/mol
# Density = 2.545217 g / cm^3
# Si number density = 25.510236 Si / 1000 Ang^3
#
#
#
# Elastic Constant Matrix: (Units=GPa)
#
#
# Indices 1 2 3 4 5 6 
#
# 1 72.1179 50.0390 56.8000 0.0000 -34.5236 0.0000
# 2 50.0390 79.8431 36.8777 0.0000 -15.5454 0.0000
# 3 56.8000 36.8777 156.7513 0.0000 -11.9151 0.0000
# 4 0.0000 0.0000 0.0000 39.6296 0.0000 -3.4518
# 5 -34.5236 -15.5454 -11.9151 0.0000 49.1399 0.0000
# 6 0.0000 0.0000 0.0000 -3.4518 0.0000 46.0823
#
#
#
# Elastic Compliance Matrix: (Units=1/GPa)
#
#
# Indices 1 2 3 4 5 6 
#
# 1 0.048842 -0.020672 -0.010925 0.000000 0.025126 0.000000
# 2 -0.020672 0.023498 0.001450 0.000000 -0.006738 0.000000
# 3 -0.010925 0.001450 0.009626 0.000000 -0.004883 0.000000
# 4 0.000000 0.000000 0.000000 0.025399 0.000000 0.001903
# 5 0.025126 -0.006738 -0.004883 0.000000 0.034687 0.000000
# 6 0.000000 0.000000 0.000000 0.001903 0.000000 0.021843
#
#
# Mechanical properties :
#
#
# Convention : Reuss Voigt Hill
#
# Bulk Modulus (GPa) = 46.14131 66.23842 56.18986
# Shear Modulus (GPa) = 21.60636 37.97005 29.78821
#
# Velocity S-wave (km/s) = 2.91343 3.86220 3.42086
# Velocity P-wave (km/s) = 5.42624 6.77573 6.13818
#
# Compressibility (1/GPa) = 0.02167256
#
# Stress axis : x y z
#
# Youngs Moduli (GPa) = 20.47419 42.55607 103.88572
#
# Poissons Ratio (x) = 0.87972 1.13495
# Poissons Ratio (y) = 0.42324 -0.15066
# Poissons Ratio (z) = 0.22368 -0.06172
#
# Static dielectric constant tensor:
#      x y z
#    x 2.003200 0.000000 -0.009530 
#    y 0.000000 2.075930 0.000000 
#    z -0.009530 0.000000 1.980690 
# 
# From -- ./inp_files/200.got.cif
#   From: 2010.05.17/outbox.cif.g08.bks.cpg/sg4_1_cif.got.tgz:200.got - 2010.06.03 18:43:04.
