data_PCOD9119849
_publ_section_title
;
Structure prediction by ZEFSAII (Michael W. Deem and Ramdas Pophale) SiO2 
 PCOD9119849
Probable space group: P 21
;
_chemical_formula_sum "Si O2"
_cell_formula_units_Z 16
_cell_length_a 9.000000
_cell_length_b 12.000000
_cell_length_c 9.000000
_cell_angle_alpha 90.000000
_cell_angle_beta 140.000000
_cell_angle_gamma 90.000000
_cell_volume 624.789557
_symmetry_space_group_name_H-M "P 21"
_symmetry_group_IT_number 4
_symmetry_cell_setting 'monoclinic'
loop_
_space_group_symop_operation_xyz
x,y,z
-x,1/2+y,-z
loop_
_atom_site_type_symbol
_atom_site_label
_atom_site_fract_x
_atom_site_fract_y
_atom_site_fract_z
Si Si1 0.736494 0.135050 0.022008
Si Si2 0.352404 0.460120 0.361417
Si Si3 0.087194 0.634057 0.329840
Si Si4 0.394244 0.864228 0.190031
Si Si5 0.818662 0.544482 0.787964
Si Si6 0.684283 0.492013 0.173400
Si Si7 0.306005 0.764862 0.732817
Si Si8 0.242346 0.265092 0.057556
O O1 0.818047 0.209674 0.223567
O O2 0.951212 0.066628 0.126287
O O3 0.524416 0.060231 0.914693
O O4 0.651954 0.233786 0.849265
O O5 0.177313 0.556757 0.268974
O O6 0.385584 0.393948 0.542004
O O7 0.595387 0.520321 0.514667
O O8 0.298194 0.369886 0.198589
O O9 0.283283 0.671660 0.589829
O O10 0.885423 0.571666 0.265476
O O11 0.006001 0.752493 0.204412
O O12 0.193047 0.933607 0.118874
O O13 0.407518 0.921642 0.039747
O O14 0.755226 0.652755 0.839632
O O15 0.776408 0.391448 0.347718
O O16 0.583164 0.769936 0.947560
#
# Coordination Sequence:
#
# PCOD9119849 Si02
#       8
#     2   2   2   2   2   2   2   2
#     4  11  23  46  81 115 155 203 265 315 392 468
#     4  10  25  48  76 110 154 206 255 325 390 457
#     4  12  24  52  77 106 162 204 249 333 382 465
#     4   9  22  50  76 111 155 203 253 328 386 454
#     4  10  23  48  75 110 153 197 257 322 386 454
#     4  11  24  47  77 112 152 205 255 318 390 470
#     4  11  26  49  72 115 156 199 259 311 398 466
#     4  12  25  50  76 109 153 205 257 314 390 464
#
# _framework density 25.608623000000001
#
# number of rings (size 3 to 8) (size 9 to 14) (size 15 to 20)
#    0.750    0.500    3.750    0.750    3.500    5.000 
#    9.000    0.000    0.000    0.000    0.000    0.000 
#    0.000    0.000    0.000    0.000    0.000    0.000 
#
# Total GULP energy -89354.107445 kJ/mol
# GULP energy per Si atom -5584.631715 kJ/mol
# Density = 2.555034 g / cm^3
# Si number density = 25.608623 Si / 1000 Ang^3
#
#
#
# Elastic Constant Matrix: (Units=GPa)
#
#
# Indices 1 2 3 4 5 6 
#
# 1 167.0560 92.5283 47.0993 0.0000 21.7501 0.0000
# 2 92.5283 164.6417 42.9292 0.0000 12.9990 0.0000
# 3 47.0993 42.9292 39.7219 0.0000 12.3439 0.0000
# 4 0.0000 0.0000 0.0000 37.1482 0.0000 -17.0969
# 5 21.7501 12.9990 12.3439 0.0000 16.4399 0.0000
# 6 0.0000 0.0000 0.0000 -17.0969 0.0000 51.7064
#
#
#
# Elastic Compliance Matrix: (Units=1/GPa)
#
#
# Indices 1 2 3 4 5 6 
#
# 1 0.010822 -0.003828 -0.006765 0.000000 -0.006212 0.000000
# 2 -0.003828 0.009811 -0.006819 0.000000 0.002426 0.000000
# 3 -0.006765 -0.006819 0.047099 0.000000 -0.021022 0.000000
# 4 0.000000 0.000000 0.000000 0.031751 0.000000 0.010499
# 5 -0.006212 0.002426 -0.021022 0.000000 0.082912 0.000000
# 6 0.000000 0.000000 0.000000 0.010499 0.000000 0.022811
#
#
# Mechanical properties :
#
#
# Convention : Reuss Voigt Hill
#
# Bulk Modulus (GPa) = 30.38668 81.83702 56.11185
# Shear Modulus (GPa) = 19.92031 33.64977 26.78504
#
# Velocity S-wave (km/s) = 2.79207 3.62885 3.23761
# Velocity P-wave (km/s) = 4.72078 7.04161 5.99458
#
# Compressibility (1/GPa) = 0.03290916
#
# Stress axis : x y z
#
# Youngs Moduli (GPa) = 92.40347 101.92260 21.23183
#
# Poissons Ratio (x) = 0.39012 0.14363
# Poissons Ratio (y) = 0.35369 0.14478
# Poissons Ratio (z) = 0.62511 0.69501
#
# Static dielectric constant tensor:
#      x y z
#    x 2.030730 0.000000 -0.079360 
#    y 0.000000 1.980780 0.000000 
#    z -0.079360 0.000000 2.209620 
# 
# From -- ./inp_files/1398.got.cif
#   From: 2010.05.17/outbox.ucp.g08.bks.cvg/sg4_1_cif.got.tgz:1398.got - 2010.06.11 12:51:24.
