data_PCOD9119394
_publ_section_title
;
Structure prediction by ZEFSAII (Michael W. Deem and Ramdas Pophale) SiO2 
 PCOD9119394
Probable space group: P 21
;
_chemical_formula_sum "Si O2"
_cell_formula_units_Z 14
_cell_length_a 9.771376
_cell_length_b 4.985853
_cell_length_c 16.134153
_cell_angle_alpha 90.000000
_cell_angle_beta 137.714511
_cell_angle_gamma 90.000000
_cell_volume 528.863501
_symmetry_space_group_name_H-M "P 21"
_symmetry_group_IT_number 4
_symmetry_cell_setting 'monoclinic'
loop_
_space_group_symop_operation_xyz
x,y,z
-x,1/2+y,-z
loop_
_atom_site_type_symbol
_atom_site_label
_atom_site_fract_x
_atom_site_fract_y
_atom_site_fract_z
Si Si1 0.396407 0.123830 0.982920
Si Si2 0.499141 0.757538 0.315761
Si Si3 0.942891 0.609784 0.528324
Si Si4 0.881286 0.550068 0.836399
Si Si5 0.398424 0.635262 0.499061
Si Si6 0.987017 0.903458 0.271740
Si Si7 0.309565 0.414637 0.109258
O O1 0.192173 0.232892 0.848872
O O2 0.568429 0.310460 0.016538
O O3 0.393807 0.214386 0.077200
O O4 0.699283 0.594184 0.434512
O O5 0.561360 0.035158 0.389575
O O6 0.165889 0.704424 0.379685
O O7 0.467712 0.644162 0.208562
O O8 0.991524 0.890382 0.508544
O O9 0.062713 0.562525 0.667103
O O10 0.743378 0.277909 0.770276
O O11 0.755023 0.744652 0.839097
O O12 0.927552 0.601289 0.761237
O O13 0.099101 0.525612 0.977900
O O14 0.528764 0.887167 0.525571
#
# Coordination Sequence:
#
# PCOD9119394 Si02
#       7
#     2   2   2   2   2   2   2
#     4  11  30  54  85 115 160 224 277 331 398 492
#     4  12  28  46  80 114 159 209 262 340 405 495
#     4  12  31  53  77 115 161 221 277 334 395 483
#     4  11  25  49  79 121 164 203 269 344 422 490
#     4  12  27  48  77 124 166 207 260 332 425 496
#     4  11  28  53  81 119 162 211 275 344 403 498
#     4  11  27  49  79 120 164 209 270 343 416 484
#
# _framework density 26.471858999999998
#
# number of rings (size 3 to 8) (size 9 to 14) (size 15 to 20)
#    0.000    0.571    2.857    1.714   12.000    2.286 
#    2.571    0.000    0.000    0.000    0.000    0.000 
#    0.000    0.000    0.000    0.000    0.000    0.000 
#
# Total GULP energy -78307.644489 kJ/mol
# GULP energy per Si atom -5593.403178 kJ/mol
# Density = 2.641161 g / cm^3
# Si number density = 26.471859 Si / 1000 Ang^3
#
#
#
# Elastic Constant Matrix: (Units=GPa)
#
#
# Indices 1 2 3 4 5 6 
#
# 1 75.5157 32.9070 23.8149 0.0000 -5.3418 0.0000
# 2 32.9070 80.7278 26.3879 0.0000 1.0675 0.0000
# 3 23.8149 26.3879 155.3480 0.0000 11.8312 0.0000
# 4 0.0000 0.0000 0.0000 -36.0687 0.0000 -4.4120
# 5 -5.3418 1.0675 11.8312 0.0000 32.2948 0.0000
# 6 0.0000 0.0000 0.0000 -4.4120 0.0000 53.0441
#
#
#
# Elastic Compliance Matrix: (Units=1/GPa)
#
#
# Indices 1 2 3 4 5 6 
#
# 1 0.016816 -0.006321 -0.001782 0.000000 0.003643 0.000000
# 2 -0.006321 0.015496 -0.001589 0.000000 -0.000976 0.000000
# 3 -0.001782 -0.001589 0.007200 0.000000 -0.002880 0.000000
# 4 0.000000 0.000000 0.000000 -0.027446 0.000000 -0.002283
# 5 0.003643 -0.000976 -0.002880 0.000000 0.032655 0.000000
# 6 0.000000 0.000000 0.000000 -0.002283 0.000000 0.018662
#
#
# Mechanical properties :
#
#
# Convention : Reuss Voigt Hill
#
# Bulk Modulus (GPa) = 49.67903 53.09011 51.38457
# Shear Modulus (GPa) = 55.88140 25.08615 40.48378
#
# Velocity S-wave (km/s) = 4.59952 3.08174 3.91489
# Velocity P-wave (km/s) = 6.85674 5.72378 6.31572
#
# Compressibility (1/GPa) = 0.02012922
#
# Stress axis : x y z
#
# Youngs Moduli (GPa) = 59.46673 64.53267 138.89793
#
# Poissons Ratio (x) = 0.40788 0.24748
# Poissons Ratio (y) = 0.37586 0.22071
# Poissons Ratio (z) = 0.10596 0.10254
#
# Static dielectric constant tensor:
#      x y z
#    x 2.222150 0.000000 -0.011770 
#    y 0.000000 2.117130 0.000000 
#    z -0.011770 0.000000 2.040540 
# 
# From -- ./inp_files/9990.got.cif
#   From: 2010.05.17/outbox.cif.g08.bks.cpg/sg4_5_cif.got.tgz:9990.got - 2010.06.03 18:43:04.
