data_PCOD9119392
_publ_section_title
;
Structure prediction by ZEFSAII (Michael W. Deem and Ramdas Pophale) SiO2 
 PCOD9119392
Probable space group: P 21
;
_chemical_formula_sum "Si O2"
_cell_formula_units_Z 16
_cell_length_a 10.189844
_cell_length_b 7.955833
_cell_length_c 9.164686
_cell_angle_alpha 90.000000
_cell_angle_beta 119.996953
_cell_angle_gamma 90.000000
_cell_volume 643.449916
_symmetry_space_group_name_H-M "P 21"
_symmetry_group_IT_number 4
_symmetry_cell_setting 'monoclinic'
loop_
_space_group_symop_operation_xyz
x,y,z
-x,1/2+y,-z
loop_
_atom_site_type_symbol
_atom_site_label
_atom_site_fract_x
_atom_site_fract_y
_atom_site_fract_z
Si Si1 0.766332 0.948950 0.961134
Si Si2 0.664876 0.452353 0.663459
Si Si3 0.062367 0.302338 0.685733
Si Si4 0.267316 0.826257 0.994276
Si Si5 0.198386 0.060954 0.525175
Si Si6 0.561206 0.334392 0.198631
Si Si7 0.046455 0.470137 0.224377
Si Si8 0.662390 0.098327 0.488071
O O1 0.615256 0.838426 0.861374
O O2 0.889414 0.932236 0.901241
O O3 0.832070 0.918370 0.158051
O O4 0.716917 0.141838 0.932201
O O5 0.764923 0.582611 0.624985
O O6 0.680251 0.266908 0.597861
O O7 0.490514 0.503525 0.555936
O O8 0.717639 0.447499 0.859044
O O9 0.139871 0.205164 0.596608
O O10 0.926452 0.412713 0.546297
O O11 0.013762 0.159021 0.776189
O O12 0.397320 0.849944 0.947164
O O13 0.100645 0.854641 0.831661
O O14 0.354145 0.990708 0.678805
O O15 0.638940 0.170334 0.312600
O O16 0.194889 0.478053 0.409189
#
# Coordination Sequence:
#
# PCOD9119392 Si02
#       8
#     2   2   2   2   2   2   2   2
#     4  12  28  48  75 113 154 206 259 322 391 470
#     4  11  25  51  78 112 157 203 266 317 393 467
#     4  12  27  48  78 112 157 204 261 324 394 465
#     4  12  28  49  77 113 155 205 259 321 388 471
#     4  11  25  52  73 113 151 204 257 322 387 468
#     4  11  27  48  74 109 159 194 263 314 388 464
#     4  12  23  51  76 111 153 203 259 320 387 460
#     4  11  25  49  77 113 150 209 258 324 382 469
#
# _framework density 24.865959
#
# number of rings (size 3 to 8) (size 9 to 14) (size 15 to 20)
#    0.000    0.500    5.000    3.000    7.000    0.000 
#   11.250    0.000    0.000    0.000    0.000    0.000 
#    0.000    0.000    0.000    0.000    0.000    0.000 
#
# Total GULP energy -89627.646753 kJ/mol
# GULP energy per Si atom -5601.727922 kJ/mol
# Density = 2.480936 g / cm^3
# Si number density = 24.865959 Si / 1000 Ang^3
#
#
#
# Elastic Constant Matrix: (Units=GPa)
#
#
# Indices 1 2 3 4 5 6 
#
# 1 90.0229 24.4387 17.2956 0.0000 -13.2524 0.0000
# 2 24.4387 60.6004 18.0720 0.0000 -8.6175 0.0000
# 3 17.2956 18.0720 62.3877 0.0000 -13.1881 0.0000
# 4 0.0000 0.0000 0.0000 46.3732 0.0000 -5.5639
# 5 -13.2524 -8.6175 -13.1881 0.0000 50.5215 0.0000
# 6 0.0000 0.0000 0.0000 -5.5639 0.0000 41.4982
#
#
#
# Elastic Compliance Matrix: (Units=1/GPa)
#
#
# Indices 1 2 3 4 5 6 
#
# 1 0.012972 -0.004364 -0.001874 0.000000 0.002169 0.000000
# 2 -0.004364 0.019689 -0.004261 0.000000 0.001101 0.000000
# 3 -0.001874 -0.004261 0.018548 0.000000 0.003624 0.000000
# 4 0.000000 0.000000 0.000000 0.021917 0.000000 0.002939
# 5 0.002169 0.001101 0.003624 0.000000 0.021496 0.000000
# 6 0.000000 0.000000 0.000000 0.002939 0.000000 0.024491
#
#
# Mechanical properties :
#
#
# Convention : Reuss Voigt Hill
#
# Bulk Modulus (GPa) = 33.09859 36.95817 35.02838
# Shear Modulus (GPa) = 33.29303 37.89221 35.59262
#
# Velocity S-wave (km/s) = 3.66307 3.90790 3.78746
# Velocity P-wave (km/s) = 5.58842 5.93780 5.76576
#
# Compressibility (1/GPa) = 0.03021277
#
# Stress axis : x y z
#
# Youngs Moduli (GPa) = 77.08699 50.79052 53.91314
#
# Poissons Ratio (x) = 0.22166 0.10101
# Poissons Ratio (y) = 0.33643 0.22970
# Poissons Ratio (z) = 0.14442 0.21640
#
# Static dielectric constant tensor:
#      x y z
#    x 1.953340 0.000000 -0.028340 
#    y 0.000000 1.971860 0.000000 
#    z -0.028340 0.000000 2.002800 
# 
# From -- ./inp_files/5861.got.cif
#   From: 2010.05.17/outbox.cif.g08.bks.cpg/sg4_3_cif.got.tgz:5861.got - 2010.06.03 18:43:04.
