data_PCOD9119190
_publ_section_title
;
Structure prediction by ZEFSAII (Michael W. Deem and Ramdas Pophale) SiO2 
 PCOD9119190
Probable space group: P 21
;
_chemical_formula_sum "Si O2"
_cell_formula_units_Z 12
_cell_length_a 13.318863
_cell_length_b 5.036508
_cell_length_c 7.138980
_cell_angle_alpha 90.000000
_cell_angle_beta 81.800044
_cell_angle_gamma 90.000000
_cell_volume 473.990801
_symmetry_space_group_name_H-M "P 21"
_symmetry_group_IT_number 4
_symmetry_cell_setting 'monoclinic'
loop_
_space_group_symop_operation_xyz
x,y,z
-x,1/2+y,-z
loop_
_atom_site_type_symbol
_atom_site_label
_atom_site_fract_x
_atom_site_fract_y
_atom_site_fract_z
Si Si1 0.071285 0.810790 0.209508
Si Si2 0.878184 0.605477 0.481497
Si Si3 0.564457 0.029078 0.465942
Si Si4 0.297184 0.272580 0.885223
Si Si5 0.732163 0.977368 0.702689
Si Si6 0.171591 0.763287 0.823480
O O1 0.174180 0.653967 0.244020
O O2 0.969502 0.709231 0.331262
O O3 0.084421 0.086876 0.314650
O O4 0.078350 0.825763 0.986376
O O5 0.852128 0.331994 0.383300
O O6 0.777389 0.771357 0.539290
O O7 0.496115 0.793726 0.570419
O O8 0.614836 0.887339 0.270964
O O9 0.739036 0.470877 0.141421
O O10 0.203441 0.463722 0.851162
O O11 0.312095 0.328984 0.101865
O O12 0.645119 0.116943 0.604431
#
# Coordination Sequence:
#
# PCOD9119190 Si02
#       6
#     2   2   2   2   2   2
#     4  11  25  41  68 107 144 194 241 281 354 423
#     4  12  23  42  70 101 147 192 236 287 346 423
#     4  12  28  47  75 104 134 182 239 298 369 427
#     4  11  24  47  72 104 138 184 232 292 365 425
#     4  11  25  45  72  98 147 184 231 301 352 419
#     4  11  25  42  71 102 148 186 233 287 348 419
#
# _framework density 25.316948
#
# number of rings (size 3 to 8) (size 9 to 14) (size 15 to 20)
#    0.000    0.667    5.000    2.000    2.333    5.333 
#    0.000    0.000    0.000    0.000    0.000    0.000 
#    0.000    0.000    0.000    0.000    0.000    0.000 
#
# Total GULP energy -67140.443558 kJ/mol
# GULP energy per Si atom -5595.036963 kJ/mol
# Density = 2.525933 g / cm^3
# Si number density = 25.316948 Si / 1000 Ang^3
#
#
#
# Elastic Constant Matrix: (Units=GPa)
#
#
# Indices 1 2 3 4 5 6 
#
# 1 73.3084 21.0009 21.0087 0.0000 -2.1610 0.0000
# 2 21.0009 65.3552 1.5763 0.0000 0.4001 0.0000
# 3 21.0087 1.5763 151.3471 0.0000 3.5812 0.0000
# 4 0.0000 0.0000 0.0000 38.2323 0.0000 -1.4291
# 5 -2.1610 0.4001 3.5812 0.0000 32.7760 0.0000
# 6 0.0000 0.0000 0.0000 -1.4291 0.0000 55.4717
#
#
#
# Elastic Compliance Matrix: (Units=1/GPa)
#
#
# Indices 1 2 3 4 5 6 
#
# 1 0.015736 -0.005013 -0.002164 0.000000 0.001335 0.000000
# 2 -0.005013 0.016902 0.000534 0.000000 -0.000595 0.000000
# 3 -0.002164 0.000534 0.006924 0.000000 -0.000906 0.000000
# 4 0.000000 0.000000 0.000000 0.026181 0.000000 0.000674
# 5 0.001335 -0.000595 -0.000906 0.000000 0.030704 0.000000
# 6 0.000000 0.000000 0.000000 0.000674 0.000000 0.018045
#
#
# Mechanical properties :
#
#
# Convention : Reuss Voigt Hill
#
# Bulk Modulus (GPa) = 38.05559 41.90916 39.98238
# Shear Modulus (GPa) = 36.62015 41.72433 39.17224
#
# Velocity S-wave (km/s) = 3.80737 4.06406 3.93781
# Velocity P-wave (km/s) = 5.86450 6.21384 6.04170
#
# Compressibility (1/GPa) = 0.02627735
#
# Stress axis : x y z
#
# Youngs Moduli (GPa) = 63.54675 59.16285 144.43444
#
# Poissons Ratio (x) = 0.29656 0.31253
# Poissons Ratio (y) = 0.31854 -0.07711
# Poissons Ratio (z) = 0.13750 -0.03158
#
# Static dielectric constant tensor:
#      x y z
#    x 2.045300 0.000000 -0.009820 
#    y 0.000000 2.065050 0.000000 
#    z -0.009820 0.000000 1.969260 
# 
# From -- ./inp_files/3910.got.cif
#   From: 2010.05.17/outbox.cif.g08.bks.cpg/sg4_2_cif.got.tgz:3910.got - 2010.06.03 18:43:04.
