data_PCOD9119551
_publ_section_title
;
Structure prediction by ZEFSAII (Michael W. Deem and Ramdas Pophale) SiO2 
 PCOD9119551
Probable space group: P 21
;
_chemical_formula_sum "Si O2"
_cell_formula_units_Z 16
_cell_length_a 28.787739
_cell_length_b 5.618249
_cell_length_c 26.333579
_cell_angle_alpha 90.000000
_cell_angle_beta 9.574792
_cell_angle_gamma 90.000000
_cell_volume 708.438061
_symmetry_space_group_name_H-M "P 21"
_symmetry_group_IT_number 4
_symmetry_cell_setting 'monoclinic'
loop_
_space_group_symop_operation_xyz
x,y,z
-x,1/2+y,-z
loop_
_atom_site_type_symbol
_atom_site_label
_atom_site_fract_x
_atom_site_fract_y
_atom_site_fract_z
Si Si1 0.740613 0.321100 0.653198
Si Si2 0.513922 0.322770 0.229983
Si Si3 0.636036 0.669687 0.424063
Si Si4 0.095021 0.678352 0.727723
Si Si5 0.389222 0.463001 0.787694
Si Si6 0.839444 0.824700 0.489905
Si Si7 0.876117 0.470650 0.063526
Si Si8 0.905804 0.812591 0.627061
O O1 0.829678 0.574713 0.531737
O O2 0.958741 0.280014 0.463459
O O3 0.728818 0.076559 0.632334
O O4 0.426464 0.349759 0.012467
O O5 0.232409 0.449437 0.555455
O O6 0.365443 0.252602 0.336680
O O7 0.613289 0.193114 0.175206
O O8 0.830459 0.395136 0.873106
O O9 0.482750 0.499483 0.628734
O O10 0.822084 0.570997 0.177719
O O11 0.395606 0.820113 0.656709
O O12 0.843406 0.819971 0.235141
O O13 0.367891 0.820911 0.447497
O O14 0.897302 0.821095 0.903313
O O15 0.927724 0.639643 0.960354
O O16 0.970129 0.561900 0.528987
#
# Coordination Sequence:
#
# PCOD9119551 Si02
#       8
#     2   2   2   2   2   2   2   2
#     4  12  26  49  72 116 156 205 256 310 370 442
#     4  12  28  47  70 106 136 199 252 312 372 446
#     4  12  24  43  66  97 134 171 222 289 377 466
#     4  12  26  45  71  99 136 177 237 308 375 459
#     4  12  26  45  71  99 136 177 237 308 375 459
#     4  12  28  47  76 104 158 205 260 318 374 440
#     4  12  24  43  66  97 134 171 222 289 377 466
#     4  12  24  45  80 116 158 203 250 308 370 440
#
# _framework density 22.584894999999999
#
# number of rings (size 3 to 8) (size 9 to 14) (size 15 to 20)
#    0.000    0.000    1.250    9.000    7.000    0.000 
#    0.000    0.000    0.000    0.000    0.000    0.000 
#    0.000    0.000    0.000    0.000    0.000    0.000 
#
# Total GULP energy -89208.606966 kJ/mol
# GULP energy per Si atom -5575.537935 kJ/mol
# Density = 2.253349 g / cm^3
# Si number density = 22.584895 Si / 1000 Ang^3
#
#
#
# Elastic Constant Matrix: (Units=GPa)
#
#
# Indices 1 2 3 4 5 6 
#
# 1 96.8457 30.4313 -9.6190 0.0000 -20.4050 0.0000
# 2 30.4313 118.3110 25.6093 0.0000 17.4529 0.0000
# 3 -9.6190 25.6093 132.4855 0.0000 -16.2874 0.0000
# 4 0.0000 0.0000 0.0000 -161.6696 0.0000 -302.7616
# 5 -20.4050 17.4529 -16.2874 0.0000 58.0471 0.0000
# 6 0.0000 0.0000 0.0000 -302.7616 0.0000 -351.3152
#
#
#
# Elastic Compliance Matrix: (Units=1/GPa)
#
#
# Indices 1 2 3 4 5 6 
#
# 1 0.013786 -0.005242 0.002904 0.000000 0.007237 0.000000
# 2 -0.005242 0.011446 -0.003359 0.000000 -0.006227 0.000000
# 3 0.002904 -0.003359 0.008967 0.000000 0.004547 0.000000
# 4 0.000000 0.000000 0.000000 0.010076 0.000000 -0.008683
# 5 0.007237 -0.006227 0.004547 0.000000 0.022919 0.000000
# 6 0.000000 0.000000 0.000000 -0.008683 0.000000 0.004637
#
#
# Mechanical properties :
#
#
# Convention : Reuss Voigt Hill
#
# Bulk Modulus (GPa) = 43.84871 48.94282 46.39577
# Shear Modulus (GPa) = 55.04987 -70.90616 -7.92814
#
# Velocity S-wave (km/s) = 4.94242 -5.60924 -1.87563
# Velocity P-wave (km/s) = 7.21299 4.49819 3.98708
#
# Compressibility (1/GPa) = 0.02280569
#
# Stress axis : x y z
#
# Youngs Moduli (GPa) = 72.53631 87.36514 111.51985
#
# Poissons Ratio (x) = 0.45799 -0.32385
# Poissons Ratio (y) = 0.38025 0.37455
# Poissons Ratio (z) = -0.21064 0.29343
#
# Static dielectric constant tensor:
#      x y z
#    x 1.810420 0.000000 -0.042970 
#    y 0.000000 1.909670 0.000000 
#    z -0.042970 0.000000 1.816040 
# 
# From -- ./inp_files/16223.got.cif
#   From: 2010.05.17/outbox.cif.g08.bks.cpg/sg4_9_cif.got.tgz:16223.got - 2010.06.03 18:43:04.
