data_PCOD9119172
_publ_section_title
;
Structure prediction by ZEFSAII (Michael W. Deem and Ramdas Pophale) SiO2 
 PCOD9119172
Probable space group: P 21
;
_chemical_formula_sum "Si O2"
_cell_formula_units_Z 8
_cell_length_a 4.938260
_cell_length_b 8.097797
_cell_length_c 7.865017
_cell_angle_alpha 90.000000
_cell_angle_beta 114.203936
_cell_angle_gamma 90.000000
_cell_volume 286.866033
_symmetry_space_group_name_H-M "P 21"
_symmetry_group_IT_number 4
_symmetry_cell_setting 'monoclinic'
loop_
_space_group_symop_operation_xyz
x,y,z
-x,1/2+y,-z
loop_
_atom_site_type_symbol
_atom_site_label
_atom_site_fract_x
_atom_site_fract_y
_atom_site_fract_z
Si Si1 0.928952 0.866600 0.750739
Si Si2 0.268290 0.079455 0.082007
Si Si3 0.698300 0.484364 0.451385
Si Si4 0.766735 0.809646 0.254538
O O1 0.831087 0.687659 0.784590
O O2 0.647095 0.960585 0.600058
O O3 0.207591 0.883888 0.697559
O O4 0.010000 0.962130 0.944619
O O5 0.544632 0.963684 0.193859
O O6 0.310056 0.203296 0.932820
O O7 0.744196 0.673174 0.400696
O O8 0.907883 0.389599 0.639418
#
# Coordination Sequence:
#
# PCOD9119172 Si02
#       4
#     2   2   2   2
#     4  11  25  45  71 106 147 191 241 298 363 431
#     4  11  24  46  75 109 148 194 243 301 364 434
#     4  11  26  46  71 107 146 192 241 299 362 432
#     4  11  25  47  75 108 147 191 243 300 363 431
#
# _framework density 27.887585999999999
#
# number of rings (size 3 to 8) (size 9 to 14) (size 15 to 20)
#    0.000    1.000    0.000    6.000    0.000   14.000 
#    0.000    0.000    0.000    0.000    0.000    0.000 
#    0.000    0.000    0.000    0.000    0.000    0.000 
#
# Total GULP energy -44919.891656 kJ/mol
# GULP energy per Si atom -5614.986457 kJ/mol
# Density = 2.782411 g / cm^3
# Si number density = 27.887586 Si / 1000 Ang^3
#
#
#
# Elastic Constant Matrix: (Units=GPa)
#
#
# Indices 1 2 3 4 5 6 
#
# 1 69.2937 17.2169 32.1429 0.0000 1.0222 0.0000
# 2 17.2169 115.6100 18.8133 0.0000 -9.8121 0.0000
# 3 32.1429 18.8133 163.4088 0.0000 9.1341 0.0000
# 4 0.0000 0.0000 0.0000 56.4409 0.0000 -0.7397
# 5 1.0222 -9.8121 9.1341 0.0000 62.7373 0.0000
# 6 0.0000 0.0000 0.0000 -0.7397 0.0000 76.0108
#
#
#
# Elastic Compliance Matrix: (Units=1/GPa)
#
#
# Indices 1 2 3 4 5 6 
#
# 1 0.016298 -0.001955 -0.002973 0.000000 -0.000138 0.000000
# 2 -0.001955 0.009199 -0.000763 0.000000 0.001582 0.000000
# 3 -0.002973 -0.000763 0.006852 0.000000 -0.001068 0.000000
# 4 0.000000 0.000000 0.000000 0.017720 0.000000 0.000172
# 5 -0.000138 0.001582 -0.001068 0.000000 0.016345 0.000000
# 6 0.000000 0.000000 0.000000 0.000172 0.000000 0.013158
#
#
# Mechanical properties :
#
#
# Convention : Reuss Voigt Hill
#
# Bulk Modulus (GPa) = 47.69334 53.85096 50.77215
# Shear Modulus (GPa) = 51.04996 57.71376 54.38186
#
# Velocity S-wave (km/s) = 4.28315 4.55413 4.42071
# Velocity P-wave (km/s) = 6.44978 6.85605 6.65601
#
# Compressibility (1/GPa) = 0.02096729
#
# Stress axis : x y z
#
# Youngs Moduli (GPa) = 61.35626 108.70353 145.94291
#
# Poissons Ratio (x) = 0.21253 0.43390
# Poissons Ratio (y) = 0.11996 0.11135
# Poissons Ratio (z) = 0.18242 0.08294
#
# Static dielectric constant tensor:
#      x y z
#    x 2.118840 0.000000 -0.119710 
#    y 0.000000 2.153770 0.000000 
#    z -0.119710 0.000000 2.195340 
# 
# From -- ./inp_files/891.got.cif
#   From: 2010.05.17/outbox.cif.g08.bks.cpg/sg4_1_cif.got.tgz:891.got - 2010.06.03 18:43:04.
