data_PCOD9119298
_publ_section_title
;
Structure prediction by ZEFSAII (Michael W. Deem and Ramdas Pophale) SiO2 
 PCOD9119298
Probable space group: P 21
;
_chemical_formula_sum "Si O2"
_cell_formula_units_Z 16
_cell_length_a 12.857590
_cell_length_b 8.930267
_cell_length_c 6.243534
_cell_angle_alpha 90.000000
_cell_angle_beta 95.039791
_cell_angle_gamma 90.000000
_cell_volume 714.121701
_symmetry_space_group_name_H-M "P 21"
_symmetry_group_IT_number 4
_symmetry_cell_setting 'monoclinic'
loop_
_space_group_symop_operation_xyz
x,y,z
-x,1/2+y,-z
loop_
_atom_site_type_symbol
_atom_site_label
_atom_site_fract_x
_atom_site_fract_y
_atom_site_fract_z
Si Si1 0.886576 0.432080 0.049319
Si Si2 0.012156 0.644693 0.748027
Si Si3 0.231537 0.521839 0.644690
Si Si4 0.604314 0.963084 0.972517
Si Si5 0.675528 0.765282 0.599260
Si Si6 0.170990 0.050883 0.546064
Si Si7 0.754467 0.284077 0.671982
Si Si8 0.477492 0.756026 0.271857
O O1 0.810292 0.321258 0.904587
O O2 0.950629 0.546959 0.913896
O O3 0.965667 0.315007 0.177392
O O4 0.819393 0.535485 0.198704
O O5 0.119211 0.559145 0.716843
O O6 0.936203 0.632761 0.529923
O O7 0.255808 0.357328 0.562209
O O8 0.245628 0.620935 0.433592
O O9 0.317278 0.544472 0.846717
O O10 0.545685 0.091565 0.828077
O O11 0.664864 0.851691 0.820622
O O12 0.526293 0.862488 0.099117
O O13 0.739514 0.612845 0.595950
O O14 0.560699 0.747802 0.478830
O O15 0.174512 0.877386 0.479171
O O16 0.632401 0.320250 0.668206
#
# Coordination Sequence:
#
# PCOD9119298 Si02
#       8
#     2   2   2   2   2   2   2   2
#     4  11  27  45  70 107 137 190 234 296 352 422
#     4  11  27  43  73  99 143 183 237 288 363 416
#     4  11  25  45  71 104 136 189 240 288 350 428
#     4  11  27  45  70 107 137 190 234 296 352 422
#     4  11  28  43  70 104 143 182 236 295 348 425
#     4  11  28  43  70 104 143 182 236 295 348 425
#     4  11  25  45  71 104 136 189 240 288 350 428
#     4  11  27  43  73  99 143 183 237 288 363 416
#
# _framework density 22.405142000000001
#
# number of rings (size 3 to 8) (size 9 to 14) (size 15 to 20)
#    0.000    1.000    2.500    0.750   14.000    2.000 
#    0.000    0.000    0.000    0.000    0.000    0.000 
#    0.000    0.000    0.000    0.000    0.000    0.000 
#
# Total GULP energy -89355.121628 kJ/mol
# GULP energy per Si atom -5584.695102 kJ/mol
# Density = 2.235415 g / cm^3
# Si number density = 22.405142 Si / 1000 Ang^3
#
#
#
# Elastic Constant Matrix: (Units=GPa)
#
#
# Indices 1 2 3 4 5 6 
#
# 1 95.0701 16.0521 26.4037 0.0000 -1.4527 0.0000
# 2 16.0521 55.4849 7.9429 0.0000 7.2018 0.0000
# 3 26.4037 7.9429 72.5894 0.0000 4.0398 0.0000
# 4 0.0000 0.0000 0.0000 31.2608 0.0000 -7.3444
# 5 -1.4527 7.2018 4.0398 0.0000 25.3835 0.0000
# 6 0.0000 0.0000 0.0000 -7.3444 0.0000 35.1983
#
#
#
# Elastic Compliance Matrix: (Units=1/GPa)
#
#
# Indices 1 2 3 4 5 6 
#
# 1 0.012279 -0.003244 -0.004239 0.000000 0.002298 0.000000
# 2 -0.003244 0.019796 -0.000669 0.000000 -0.005696 0.000000
# 3 -0.004239 -0.000669 0.015532 0.000000 -0.002525 0.000000
# 4 0.000000 0.000000 0.000000 0.033638 0.000000 0.007019
# 5 0.002298 -0.005696 -0.002525 0.000000 0.041545 0.000000
# 6 0.000000 0.000000 0.000000 0.007019 0.000000 0.029875
#
#
# Mechanical properties :
#
#
# Convention : Reuss Voigt Hill
#
# Bulk Modulus (GPa) = 31.94629 35.99353 33.96991
# Shear Modulus (GPa) = 27.87015 29.88490 28.87753
#
# Velocity S-wave (km/s) = 3.53075 3.65614 3.59399
# Velocity P-wave (km/s) = 5.55977 5.82434 5.69359
#
# Compressibility (1/GPa) = 0.03130254
#
# Stress axis : x y z
#
# Youngs Moduli (GPa) = 81.44195 50.51419 64.38395
#
# Poissons Ratio (x) = 0.16385 0.27294
# Poissons Ratio (y) = 0.26417 0.04309
# Poissons Ratio (z) = 0.34525 0.03381
#
# Static dielectric constant tensor:
#      x y z
#    x 1.799510 0.000000 0.007660 
#    y 0.000000 1.833030 0.000000 
#    z 0.007660 0.000000 1.864120 
# 
# From -- ./inp_files/2620.got.cif
#   From: 2010.05.17/outbox.cif.g08.bks.cpg/sg4_2_cif.got.tgz:2620.got - 2010.06.03 18:43:04.
