data_PCOD9119666
_publ_section_title
;
Structure prediction by ZEFSAII (Michael W. Deem and Ramdas Pophale) SiO2 
 PCOD9119666
Probable space group: P 21
;
_chemical_formula_sum "Si O2"
_cell_formula_units_Z 16
_cell_length_a 11.609918
_cell_length_b 5.655497
_cell_length_c 10.275935
_cell_angle_alpha 90.000000
_cell_angle_beta 75.991660
_cell_angle_gamma 90.000000
_cell_volume 654.650689
_symmetry_space_group_name_H-M "P 21"
_symmetry_group_IT_number 4
_symmetry_cell_setting 'monoclinic'
loop_
_space_group_symop_operation_xyz
x,y,z
-x,1/2+y,-z
loop_
_atom_site_type_symbol
_atom_site_label
_atom_site_fract_x
_atom_site_fract_y
_atom_site_fract_z
Si Si1 0.396378 0.694780 0.694608
Si Si2 0.905916 0.084456 0.912493
Si Si3 0.726218 0.949610 0.737683
Si Si4 0.171570 0.087262 0.467284
Si Si5 0.121668 0.728927 0.795485
Si Si6 0.514073 0.773522 0.921918
Si Si7 0.002442 0.365058 0.677815
Si Si8 0.417539 0.829281 0.397996
O O1 0.258746 0.760553 0.721729
O O2 0.431549 0.817304 0.819712
O O3 0.446960 0.753534 0.537602
O O4 0.461044 0.437579 0.694360
O O5 0.950566 0.328466 0.836436
O O6 0.798541 0.035217 0.842853
O O7 0.865526 0.086371 0.071222
O O8 0.019068 0.913676 0.862997
O O9 0.819830 0.832071 0.615226
O O10 0.643145 0.746293 0.821257
O O11 0.642005 0.129602 0.679750
O O12 0.092259 0.157660 0.612232
O O13 0.307223 0.010918 0.446822
O O14 0.100863 0.901059 0.397820
O O15 0.075019 0.601715 0.678420
O O16 0.484816 0.524038 0.000021
#
# Coordination Sequence:
#
# PCOD9119666 Si02
#       8
#     2   2   2   2   2   2   2   2
#     4  12  28  49  77 114 158 209 265 335 404 492
#     4  12  25  48  75 109 155 203 256 327 388 479
#     4  12  25  49  78 107 153 206 265 330 399 478
#     4  12  26  45  78 111 151 204 259 334 396 485
#     4  12  27  47  72 114 156 202 261 319 408 477
#     4  12  28  52  79 113 158 214 273 325 396 487
#     4  12  26  45  75 112 149 197 259 319 400 475
#     4  12  27  51  76 116 158 207 268 337 413 483
#
# _framework density 24.440514
#
# number of rings (size 3 to 8) (size 9 to 14) (size 15 to 20)
#    0.000    0.000    5.000    4.500    3.500    2.000 
#    6.750    0.000    0.000    0.000    0.000    0.000 
#    0.000    0.000    0.000    0.000    0.000    0.000 
#
# Total GULP energy -89277.000579 kJ/mol
# GULP energy per Si atom -5579.812536 kJ/mol
# Density = 2.438489 g / cm^3
# Si number density = 24.440514 Si / 1000 Ang^3
#
#
#
# Elastic Constant Matrix: (Units=GPa)
#
#
# Indices 1 2 3 4 5 6 
#
# 1 78.1587 17.5089 13.2413 0.0000 12.7975 0.0000
# 2 17.5089 64.3142 24.5064 0.0000 4.2542 0.0000
# 3 13.2413 24.5064 119.2583 0.0000 8.6713 0.0000
# 4 0.0000 0.0000 0.0000 41.0895 0.0000 -4.6524
# 5 12.7975 4.2542 8.6713 0.0000 43.1358 0.0000
# 6 0.0000 0.0000 0.0000 -4.6524 0.0000 43.3127
#
#
#
# Elastic Compliance Matrix: (Units=1/GPa)
#
#
# Indices 1 2 3 4 5 6 
#
# 1 0.014279 -0.003405 -0.000611 0.000000 -0.003778 0.000000
# 2 -0.003405 0.017722 -0.003258 0.000000 -0.000083 0.000000
# 3 -0.000611 -0.003258 0.009221 0.000000 -0.001351 0.000000
# 4 0.000000 0.000000 0.000000 0.024637 0.000000 0.002646
# 5 -0.003778 -0.000083 -0.001351 0.000000 0.024583 0.000000
# 6 0.000000 0.000000 0.000000 0.002646 0.000000 0.023372
#
#
# Mechanical properties :
#
#
# Convention : Reuss Voigt Hill
#
# Bulk Modulus (GPa) = 37.48786 41.36049 39.42418
# Shear Modulus (GPa) = 36.42907 39.27259 37.85083
#
# Velocity S-wave (km/s) = 3.86491 4.01292 3.93961
# Velocity P-wave (km/s) = 5.94041 6.19928 6.07122
#
# Compressibility (1/GPa) = 0.02667530
#
# Stress axis : x y z
#
# Youngs Moduli (GPa) = 70.03163 56.42594 108.45192
#
# Poissons Ratio (x) = 0.19211 0.06628
# Poissons Ratio (y) = 0.23843 0.35331
# Poissons Ratio (z) = 0.04280 0.18382
#
# Static dielectric constant tensor:
#      x y z
#    x 2.012950 0.000000 -0.013370 
#    y 0.000000 2.074660 0.000000 
#    z -0.013370 0.000000 1.956320 
# 
# From -- ./inp_files/7314.got.cif
#   From: 2010.05.17/outbox.cif.g08.bks.cpg/sg4_4_cif.got.tgz:7314.got - 2010.06.03 18:43:04.
