data_PCOD9119917
_publ_section_title
;
Structure prediction by ZEFSAII (Michael W. Deem and Ramdas Pophale) SiO2 
 PCOD9119917
Probable space group: C 2
;
_chemical_formula_sum "Si O2"
_cell_formula_units_Z 32
_cell_length_a 17.797769
_cell_length_b 12.754762
_cell_length_c 12.278142
_cell_angle_alpha 90.000000
_cell_angle_beta 33.183283
_cell_angle_gamma 90.000000
_cell_volume 1525.496267
_symmetry_space_group_name_H-M "C 2"
_symmetry_group_IT_number 5
_symmetry_cell_setting 'monoclinic'
loop_
_space_group_symop_operation_xyz
x,y,z
-x,y,-z
1/2+x,1/2+y,z
1/2-x,1/2+y,-z
loop_
_atom_site_type_symbol
_atom_site_label
_atom_site_fract_x
_atom_site_fract_y
_atom_site_fract_z
Si Si1 0.995520 0.005200 0.851009
Si Si2 0.359642 0.695566 0.238183
Si Si3 0.342826 0.305388 0.075645
Si Si4 0.835387 0.610433 0.948238
Si Si5 0.373074 0.872301 0.852130
Si Si6 0.482762 0.560884 0.637886
Si Si7 0.351656 0.764518 0.495233
Si Si8 0.238284 0.188125 0.860063
O O1 0.115675 0.072765 0.760309
O O2 0.012794 0.986310 0.701746
O O3 0.869828 0.090018 0.008671
O O4 0.955240 0.894873 0.945464
O O5 0.336928 0.750898 0.382160
O O6 0.241710 0.709652 0.291427
O O7 0.500000 0.728401 0.000000
O O8 0.229881 0.351579 0.124723
O O9 0.275969 0.289510 0.274403
O O10 0.391953 0.194505 0.965185
O O11 0.870656 0.488543 0.904192
O O12 0.856056 0.652741 0.800010
O O13 0.670276 0.608455 0.170256
O O14 0.527870 0.847599 0.630650
O O15 0.329393 0.788052 0.997595
O O16 0.500000 0.510950 0.500000
O O17 0.414156 0.656648 0.467397
#
# Coordination Sequence:
#
# PCOD9119917 Si02
#       8
#     4   4   4   4   4   4   4   4
#     4   9  17  29  50  81 100 133 161 223 255 290
#     4   9  16  32  55  76  92 129 184 213 238 297
#     4  11  19  30  48  83 110 124 170 217 262 304
#     4  10  19  28  50  80 111 130 162 215 269 299
#     4  11  17  30  49  77 105 136 167 210 261 301
#     4  10  14  27  45  73 102 126 174 212 246 289
#     4  11  18  28  54  78  97 131 177 221 238 293
#     4   9  16  31  53  76  92 134 179 209 241 304
#
# _framework density 20.976780999999999
#
# number of rings (size 3 to 8) (size 9 to 14) (size 15 to 20)
#    0.000    2.000   10.000    0.375    0.000    0.000 
#    0.000    0.000    5.500    3.000    9.750    0.000 
#    0.000    0.000    0.000    0.000    0.000    0.000 
#
# Total GULP energy -89146.942814 kJ/mol
# GULP energy per Si atom -5571.683926 kJ/mol
# Density = 2.092904 g / cm^3
# Si number density = 20.976781 Si / 1000 Ang^3
#
#
#
# Elastic Constant Matrix: (Units=GPa)
#
#
# Indices 1 2 3 4 5 6 
#
# 1 74.3591 21.5504 46.4294 0.0000 41.0937 0.0000
# 2 21.5504 128.6133 39.3324 0.0000 10.9338 0.0000
# 3 46.4294 39.3324 78.2879 0.0000 43.6043 0.0000
# 4 0.0000 0.0000 0.0000 9.0044 0.0000 -3.2612
# 5 41.0937 10.9338 43.6043 0.0000 35.7597 0.0000
# 6 0.0000 0.0000 0.0000 -3.2612 0.0000 1.6097
#
#
#
# Elastic Compliance Matrix: (Units=1/GPa)
#
#
# Indices 1 2 3 4 5 6 
#
# 1 0.040108 -0.005217 0.011274 0.000000 -0.058243 0.000000
# 2 -0.005217 0.010846 -0.011990 0.000000 0.017300 0.000000
# 3 0.011274 -0.011990 0.053874 0.000000 -0.074983 0.000000
# 4 0.000000 0.000000 0.000000 0.417161 0.000000 0.845168
# 5 -0.058243 0.017300 -0.074983 0.000000 0.181036 0.000000
# 6 0.000000 0.000000 0.000000 0.845168 0.000000 2.333549
#
#
# Mechanical properties :
#
#
# Convention : Reuss Voigt Hill
#
# Bulk Modulus (GPa) = 10.75714 55.09831 32.92773
# Shear Modulus (GPa) = 1.62368 20.87130 11.24749
#
# Velocity S-wave (km/s) = 0.88075 3.15774 2.31808
# Velocity P-wave (km/s) = 2.48466 6.29432 4.78498
#
# Compressibility (1/GPa) = 0.09296151
#
# Stress axis : x y z
#
# Youngs Moduli (GPa) = 24.93294 92.20331 18.56169
#
# Poissons Ratio (x) = 0.48102 -0.20927
# Poissons Ratio (y) = 0.13007 0.22256
# Poissons Ratio (z) = -0.28110 1.10556
#
# Static dielectric constant tensor:
#      x y z
#    x 1.821530 0.000000 0.030330 
#    y 0.000000 1.748230 0.000000 
#    z 0.030330 0.000000 1.797980 
# 
# From -- ./inp_files/47483.got.cif
#   From: 2010.05.17/outbox.cif.g08.bks.cpg/sg5_24_cif.got.tgz:47483.got - 2010.06.03 18:56:24.
