data_PCOD9119048
_publ_section_title
;
Structure prediction by ZEFSAII (Michael W. Deem and Ramdas Pophale) SiO2 
 PCOD9119048
Probable space group: P 21
;
_chemical_formula_sum "Si O2"
_cell_formula_units_Z 16
_cell_length_a 6.151275
_cell_length_b 21.366485
_cell_length_c 4.970952
_cell_angle_alpha 90.000000
_cell_angle_beta 86.877043
_cell_angle_gamma 90.000000
_cell_volume 652.367556
_symmetry_space_group_name_H-M "P 21"
_symmetry_group_IT_number 4
_symmetry_cell_setting 'monoclinic'
loop_
_space_group_symop_operation_xyz
x,y,z
-x,1/2+y,-z
loop_
_atom_site_type_symbol
_atom_site_label
_atom_site_fract_x
_atom_site_fract_y
_atom_site_fract_z
Si Si1 0.215294 0.159790 0.180955
Si Si2 0.183647 0.692136 0.430839
Si Si3 0.530955 0.073516 0.523950
Si Si4 0.596403 0.396181 0.048524
Si Si5 0.767996 0.968727 0.166704
Si Si6 0.406069 0.749172 0.926720
Si Si7 0.874865 0.550079 0.170540
Si Si8 0.122552 0.940444 0.469914
O O1 0.368775 0.113913 0.347438
O O2 0.047547 0.188595 0.405901
O O3 0.373625 0.210207 0.034378
O O4 0.094437 0.118771 0.959959
O O5 0.278924 0.621372 0.406435
O O6 0.220498 0.725608 0.145084
O O7 0.333705 0.730477 0.631767
O O8 0.391381 0.050910 0.791573
O O9 0.623449 0.016284 0.349327
O O10 0.366954 0.431972 0.049152
O O11 0.561280 0.322439 0.044944
O O12 0.712023 0.421881 0.773816
O O13 0.764658 0.411539 0.275901
O O14 0.888295 0.921803 0.366877
O O15 0.961834 0.007826 0.013887
O O16 0.906136 0.514431 0.454807
#
# Coordination Sequence:
#
# PCOD9119048 Si02
#       8
#     2   2   2   2   2   2   2   2
#     4  11  25  44  75 117 152 200 260 322 398 481
#     4  11  25  46  77 107 150 199 253 324 397 456
#     4  11  24  42  74 113 157 191 249 323 397 473
#     4  12  28  53  76 110 158 208 274 326 378 467
#     4  12  27  47  80 116 157 211 247 331 404 455
#     4  11  27  50  74 105 149 210 263 326 381 459
#     4  12  23  45  76 116 154 198 253 319 401 479
#     4  12  27  49  76 114 153 203 263 317 390 476
#
# _framework density 24.526049
#
# number of rings (size 3 to 8) (size 9 to 14) (size 15 to 20)
#    0.000    0.500    5.000    2.250    3.500    2.000 
#    2.250    1.250    0.000    0.000    0.000    0.000 
#    0.000    0.000    0.000    0.000    0.000    0.000 
#
# Total GULP energy -89469.500733 kJ/mol
# GULP energy per Si atom -5591.843796 kJ/mol
# Density = 2.447023 g / cm^3
# Si number density = 24.526049 Si / 1000 Ang^3
#
#
#
# Elastic Constant Matrix: (Units=GPa)
#
#
# Indices 1 2 3 4 5 6 
#
# 1 103.4402 73.5025 43.7365 0.0000 -11.1606 0.0000
# 2 73.5025 144.6365 39.9985 0.0000 -3.8471 0.0000
# 3 43.7365 39.9985 132.9831 0.0000 -18.5351 0.0000
# 4 0.0000 0.0000 0.0000 25.1349 0.0000 -2.1366
# 5 -11.1606 -3.8471 -18.5351 0.0000 54.8624 0.0000
# 6 0.0000 0.0000 0.0000 -2.1366 0.0000 16.7528
#
#
#
# Elastic Compliance Matrix: (Units=1/GPa)
#
#
# Indices 1 2 3 4 5 6 
#
# 1 0.016410 -0.007492 -0.002888 0.000000 0.001837 0.000000
# 2 -0.007492 0.010965 -0.000986 0.000000 -0.001088 0.000000
# 3 -0.002888 -0.000986 0.009103 0.000000 0.002419 0.000000
# 4 0.000000 0.000000 0.000000 0.040221 0.000000 0.005130
# 5 0.001837 -0.001088 0.002419 0.000000 0.019342 0.000000
# 6 0.000000 0.000000 0.000000 0.005130 0.000000 0.060346
#
#
# Mechanical properties :
#
#
# Convention : Reuss Voigt Hill
#
# Bulk Modulus (GPa) = 72.73977 77.28165 75.01071
# Shear Modulus (GPa) = 27.21816 34.27150 30.74483
#
# Velocity S-wave (km/s) = 3.33493 3.74217 3.54440
# Velocity P-wave (km/s) = 6.67469 7.08874 6.88483
#
# Compressibility (1/GPa) = 0.01374764
#
# Stress axis : x y z
#
# Youngs Moduli (GPa) = 60.93712 91.19994 109.85331
#
# Poissons Ratio (x) = 0.68328 0.31721
# Poissons Ratio (y) = 0.45655 0.10827
# Poissons Ratio (z) = 0.17596 0.08989
#
# Static dielectric constant tensor:
#      x y z
#    x 2.054430 0.000000 0.048760 
#    y 0.000000 1.941130 0.000000 
#    z 0.048760 0.000000 1.950510 
# 
# From -- ./inp_files/671.got.cif
#   From: 2010.05.17/outbox.cif.g08.bks.cpg/sg4_1_cif.got.tgz:671.got - 2010.06.03 18:43:04.
