data_PCOD9119217
_publ_section_title
;
Structure prediction by ZEFSAII (Michael W. Deem and Ramdas Pophale) SiO2 
 PCOD9119217
Probable space group: P 21
;
_chemical_formula_sum "Si O2"
_cell_formula_units_Z 14
_cell_length_a 8.174571
_cell_length_b 9.355826
_cell_length_c 11.493792
_cell_angle_alpha 90.000000
_cell_angle_beta 41.384538
_cell_angle_gamma 90.000000
_cell_volume 581.144031
_symmetry_space_group_name_H-M "P 21"
_symmetry_group_IT_number 4
_symmetry_cell_setting 'monoclinic'
loop_
_space_group_symop_operation_xyz
x,y,z
-x,1/2+y,-z
loop_
_atom_site_type_symbol
_atom_site_label
_atom_site_fract_x
_atom_site_fract_y
_atom_site_fract_z
Si Si1 0.968428 0.388740 0.314975
Si Si2 0.766572 0.167724 0.861432
Si Si3 0.013106 0.896577 0.419497
Si Si4 0.186767 0.245806 0.804093
Si Si5 0.223319 0.111319 0.148432
Si Si6 0.826108 0.448376 0.058938
Si Si7 0.498796 0.372555 0.431892
O O1 0.711751 0.446882 0.397972
O O2 0.181677 0.499626 0.169822
O O3 0.980877 0.381058 0.446805
O O4 0.012735 0.229952 0.242743
O O5 0.918370 0.219726 0.890651
O O6 0.890154 0.248483 0.686841
O O7 0.478936 0.194642 0.015550
O O8 0.752078 0.932047 0.494465
O O9 0.186142 0.026164 0.287308
O O10 0.380758 0.271157 0.596181
O O11 0.111434 0.391072 0.913588
O O12 0.235498 0.104861 0.851536
O O13 0.225225 0.992343 0.047087
O O14 0.658520 0.343434 0.228794
#
# Coordination Sequence:
#
# PCOD9119217 Si02
#       7
#     2   2   2   2   2   2   2
#     4  12  26  45  75 108 143 199 254 301 381 462
#     4  11  24  48  64 102 150 190 248 305 374 447
#     4  11  26  48  71 105 151 198 244 322 374 438
#     4  11  27  47  74 113 147 199 250 313 383 447
#     4  12  26  45  74 108 147 198 253 309 382 445
#     4  12  25  49  77 108 155 192 250 320 374 451
#     4  11  26  46  75 108 149 190 253 306 382 442
#
# _framework density 24.090416000000001
#
# number of rings (size 3 to 8) (size 9 to 14) (size 15 to 20)
#    0.000    0.571    4.286    3.429    6.000    2.286 
#    0.000    0.000    0.000    0.000    0.000    0.000 
#    0.000    0.000    0.000    0.000    0.000    0.000 
#
# Total GULP energy -78070.197745 kJ/mol
# GULP energy per Si atom -5576.442696 kJ/mol
# Density = 2.403558 g / cm^3
# Si number density = 24.090416 Si / 1000 Ang^3
#
#
#
# Elastic Constant Matrix: (Units=GPa)
#
#
# Indices 1 2 3 4 5 6 
#
# 1 82.2364 -2.4227 20.4653 0.0000 -5.0465 0.0000
# 2 -2.4227 78.0503 31.2915 0.0000 -3.6400 0.0000
# 3 20.4653 31.2915 113.3215 0.0000 0.0939 0.0000
# 4 0.0000 0.0000 0.0000 19.2426 0.0000 5.9629
# 5 -5.0465 -3.6400 0.0939 0.0000 31.1822 0.0000
# 6 0.0000 0.0000 0.0000 5.9629 0.0000 27.8405
#
#
#
# Elastic Compliance Matrix: (Units=1/GPa)
#
#
# Indices 1 2 3 4 5 6 
#
# 1 0.013050 0.001640 -0.002812 0.000000 0.002312 0.000000
# 2 0.001640 0.014703 -0.004358 0.000000 0.001995 0.000000
# 3 -0.002812 -0.004358 0.010536 0.000000 -0.000995 0.000000
# 4 0.000000 0.000000 0.000000 0.055662 0.000000 -0.011922
# 5 0.002312 0.001995 -0.000995 0.000000 0.032680 0.000000
# 6 0.000000 0.000000 0.000000 -0.011922 0.000000 0.038472
#
#
# Mechanical properties :
#
#
# Convention : Reuss Voigt Hill
#
# Bulk Modulus (GPa) = 36.72294 41.36406 39.04350
# Shear Modulus (GPa) = 26.99208 30.60467 28.79837
#
# Velocity S-wave (km/s) = 3.35094 3.56815 3.46125
# Velocity P-wave (km/s) = 5.49988 5.84664 5.67591
#
# Compressibility (1/GPa) = 0.02723094
#
# Stress axis : x y z
#
# Youngs Moduli (GPa) = 76.62874 68.01179 94.90931
#
# Poissons Ratio (x) = -0.11154 0.26684
# Poissons Ratio (y) = -0.12568 0.41360
# Poissons Ratio (z) = 0.21545 0.29639
#
# Static dielectric constant tensor:
#      x y z
#    x 1.901180 0.000000 0.049360 
#    y 0.000000 2.098510 0.000000 
#    z 0.049360 0.000000 2.005140 
# 
# From -- ./inp_files/10781.got.cif
#   From: 2010.05.17/outbox.cif.g08.bks.cpg/sg4_6_cif.got.tgz:10781.got - 2010.06.03 18:43:04.
