data_PCOD9119453
_publ_section_title
;
Structure prediction by ZEFSAII (Michael W. Deem and Ramdas Pophale) SiO2 
 PCOD9119453
Probable space group: P 21
;
_chemical_formula_sum "Si O2"
_cell_formula_units_Z 14
_cell_length_a 7.865466
_cell_length_b 14.373666
_cell_length_c 5.023168
_cell_angle_alpha 90.000000
_cell_angle_beta 113.796391
_cell_angle_gamma 90.000000
_cell_volume 519.617447
_symmetry_space_group_name_H-M "P 21"
_symmetry_group_IT_number 4
_symmetry_cell_setting 'monoclinic'
loop_
_space_group_symop_operation_xyz
x,y,z
-x,1/2+y,-z
loop_
_atom_site_type_symbol
_atom_site_label
_atom_site_fract_x
_atom_site_fract_y
_atom_site_fract_z
Si Si1 0.753043 0.068840 0.955908
Si Si2 0.242607 0.274782 0.297789
Si Si3 0.904194 0.559003 0.179979
Si Si4 0.893589 0.221387 0.379115
Si Si5 0.244771 0.905380 0.605565
Si Si6 0.377381 0.378344 0.878020
Si Si7 0.586524 0.574587 0.622882
O O1 0.624727 0.074604 0.611743
O O2 0.965607 0.055414 0.996703
O O3 0.739961 0.161710 0.124401
O O4 0.692983 0.980548 0.089387
O O5 0.336222 0.349340 0.552990
O O6 0.334755 0.174835 0.416074
O O7 0.028903 0.266067 0.244351
O O8 0.278649 0.307394 0.020725
O O9 0.915233 0.463558 0.347603
O O10 0.985294 0.645697 0.388590
O O11 0.685385 0.570989 0.974860
O O12 0.824887 0.304247 0.525376
O O13 0.329018 0.980734 0.456580
O O14 0.405970 0.877763 0.914994
#
# Coordination Sequence:
#
# PCOD9119453 Si02
#       7
#     2   2   2   2   2   2   2
#     4  11  27  48  76 114 154 216 261 336 399 480
#     4  12  25  49  75 119 154 212 263 332 398 480
#     4  12  25  49  78 114 158 210 267 339 395 482
#     4  12  27  47  78 114 157 214 266 335 402 485
#     4  11  27  49  75 112 160 212 269 330 411 479
#     4  11  29  47  80 113 164 211 267 331 402 486
#     4  11  26  49  76 112 161 207 269 333 401 480
#
# _framework density 26.942900000000002
#
# number of rings (size 3 to 8) (size 9 to 14) (size 15 to 20)
#    0.000    0.571    2.857    2.571   12.000    2.286 
#    0.000    0.000    0.000    0.000    0.000    0.000 
#    0.000    0.000    0.000    0.000    0.000    0.000 
#
# Total GULP energy -78515.322747 kJ/mol
# GULP energy per Si atom -5608.237339 kJ/mol
# Density = 2.688158 g / cm^3
# Si number density = 26.942900 Si / 1000 Ang^3
#
#
#
# Elastic Constant Matrix: (Units=GPa)
#
#
# Indices 1 2 3 4 5 6 
#
# 1 52.6611 43.0505 18.0895 0.0000 12.1579 0.0000
# 2 43.0505 196.7369 37.8171 0.0000 4.2793 0.0000
# 3 18.0895 37.8171 116.8370 0.0000 22.6651 0.0000
# 4 0.0000 0.0000 0.0000 45.5429 0.0000 4.2473
# 5 12.1579 4.2793 22.6651 0.0000 43.5888 0.0000
# 6 0.0000 0.0000 0.0000 4.2473 0.0000 46.4392
#
#
#
# Elastic Compliance Matrix: (Units=1/GPa)
#
#
# Indices 1 2 3 4 5 6 
#
# 1 0.024895 -0.005117 -0.001055 0.000000 -0.005893 0.000000
# 2 -0.005117 0.006479 -0.001622 0.000000 0.001634 0.000000
# 3 -0.001055 -0.001622 0.010187 0.000000 -0.004843 0.000000
# 4 0.000000 0.000000 0.000000 0.022146 0.000000 -0.002025
# 5 -0.005893 0.001634 -0.004843 0.000000 0.026943 0.000000
# 6 0.000000 0.000000 0.000000 -0.002025 0.000000 0.021719
#
#
# Mechanical properties :
#
#
# Convention : Reuss Voigt Hill
#
# Bulk Modulus (GPa) = 38.50093 62.68324 50.59208
# Shear Modulus (GPa) = 36.59944 44.93273 40.76609
#
# Velocity S-wave (km/s) = 3.68966 4.08818 3.89402
# Velocity P-wave (km/s) = 5.69844 6.75278 6.24789
#
# Compressibility (1/GPa) = 0.02597340
#
# Stress axis : x y z
#
# Youngs Moduli (GPa) = 40.16846 154.35022 98.16611
#
# Poissons Ratio (x) = 0.78975 0.10358
# Poissons Ratio (y) = 0.20553 0.15921
# Poissons Ratio (z) = 0.04238 0.25034
#
# Static dielectric constant tensor:
#      x y z
#    x 2.093310 0.000000 -0.005380 
#    y 0.000000 2.049930 0.000000 
#    z -0.005380 0.000000 2.086040 
# 
# From -- ./inp_files/1856.got.cif
#   From: 2010.05.17/outbox.cif.g08.bks.cpg/sg4_1_cif.got.tgz:1856.got - 2010.06.03 18:43:04.
