data_PCOD9119676
_publ_section_title
;
Structure prediction by ZEFSAII (Michael W. Deem and Ramdas Pophale) SiO2 
 PCOD9119676
Probable space group: P 21
;
_chemical_formula_sum "Si O2"
_cell_formula_units_Z 12
_cell_length_a 20.360320
_cell_length_b 5.030601
_cell_length_c 11.566610
_cell_angle_alpha 90.000000
_cell_angle_beta 155.868696
_cell_angle_gamma 90.000000
_cell_volume 484.342302
_symmetry_space_group_name_H-M "P 21"
_symmetry_group_IT_number 4
_symmetry_cell_setting 'monoclinic'
loop_
_space_group_symop_operation_xyz
x,y,z
-x,1/2+y,-z
loop_
_atom_site_type_symbol
_atom_site_label
_atom_site_fract_x
_atom_site_fract_y
_atom_site_fract_z
Si Si1 0.599078 0.768110 0.929299
Si Si2 0.095423 0.171681 0.692504
Si Si3 0.213375 0.370021 0.548710
Si Si4 0.509318 0.599843 0.435689
Si Si5 0.007566 0.382872 0.795219
Si Si6 0.286382 0.403927 0.409466
O O1 0.426005 0.627765 0.640707
O O2 0.612904 0.003119 0.857994
O O3 0.739687 0.582832 0.104098
O O4 0.643575 0.868328 0.127956
O O5 0.023419 0.423108 0.507871
O O6 0.105534 0.274641 0.841084
O O7 0.120823 0.649184 0.386171
O O8 0.271564 0.293578 0.514231
O O9 0.090887 0.145136 0.393802
O O10 0.542831 0.346085 0.569738
O O11 0.654801 0.690226 0.589400
O O12 0.115397 0.471705 0.078074
#
# Coordination Sequence:
#
# PCOD9119676 Si02
#       6
#     2   2   2   2   2   2
#     4  12  29  50  82 120 161 213 273 338 407 481
#     4  12  25  49  77 113 155 209 267 331 406 478
#     4  12  30  52  81 117 169 215 271 328 417 494
#     4  12  28  50  75 117 160 203 267 334 406 467
#     4  12  27  53  79 116 162 220 268 333 406 495
#     4  12  31  50  86 117 165 212 278 336 410 485
#
# _framework density 24.775863999999999
#
# number of rings (size 3 to 8) (size 9 to 14) (size 15 to 20)
#    0.000    0.000    5.000    2.000   11.667    0.000 
#    0.000    0.000    0.000    0.000    0.000    0.000 
#    0.000    0.000    0.000    0.000    0.000    0.000 
#
# Total GULP energy -67176.507353 kJ/mol
# GULP energy per Si atom -5598.042279 kJ/mol
# Density = 2.471947 g / cm^3
# Si number density = 24.775864 Si / 1000 Ang^3
#
#
#
# Elastic Constant Matrix: (Units=GPa)
#
#
# Indices 1 2 3 4 5 6 
#
# 1 168.1096 32.1451 56.2969 0.0000 -53.9507 0.0000
# 2 32.1451 124.4298 72.5915 0.0000 -22.3364 0.0000
# 3 56.2969 72.5915 144.2453 0.0000 -44.4412 0.0000
# 4 0.0000 0.0000 0.0000 33.9307 0.0000 -2.8048
# 5 -53.9507 -22.3364 -44.4412 0.0000 46.3024 0.0000
# 6 0.0000 0.0000 0.0000 -2.8048 0.0000 19.4494
#
#
#
# Elastic Compliance Matrix: (Units=1/GPa)
#
#
# Indices 1 2 3 4 5 6 
#
# 1 0.009535 -0.000417 -0.000214 0.000000 0.010703 0.000000
# 2 -0.000417 0.011395 -0.005719 0.000000 -0.000478 0.000000
# 3 -0.000214 -0.005719 0.012733 0.000000 0.009213 0.000000
# 4 0.000000 0.000000 0.000000 0.029827 0.000000 0.004301
# 5 0.010703 -0.000478 0.009213 0.000000 0.042680 0.000000
# 6 0.000000 0.000000 0.000000 0.004301 0.000000 0.052036
#
#
# Mechanical properties :
#
#
# Convention : Reuss Voigt Hill
#
# Bulk Modulus (GPa) = 47.70407 84.31686 66.01047
# Shear Modulus (GPa) = 28.10669 38.31993 33.21331
#
# Velocity S-wave (km/s) = 3.37180 3.93703 3.66533
# Velocity P-wave (km/s) = 5.86982 7.40086 6.67935
#
# Compressibility (1/GPa) = 0.02096257
#
# Stress axis : x y z
#
# Youngs Moduli (GPa) = 104.87848 87.75723 78.53825
#
# Poissons Ratio (x) = 0.03661 0.01678
# Poissons Ratio (y) = 0.04375 0.44917
# Poissons Ratio (z) = 0.02241 0.50189
#
# Static dielectric constant tensor:
#      x y z
#    x 1.971560 0.000000 0.023050 
#    y 0.000000 1.997290 0.000000 
#    z 0.023050 0.000000 2.141050 
# 
# From -- ./inp_files/13009.got.cif
#   From: 2010.05.17/outbox.cif.g08.bks.cpg/sg4_7_cif.got.tgz:13009.got - 2010.06.03 18:43:04.
