data_PCOD9119505
_publ_section_title
;
Structure prediction by ZEFSAII (Michael W. Deem and Ramdas Pophale) SiO2 
 PCOD9119505
Probable space group: P 21
;
_chemical_formula_sum "Si O2"
_cell_formula_units_Z 16
_cell_length_a 8.867906
_cell_length_b 8.856247
_cell_length_c 18.327256
_cell_angle_alpha 90.000000
_cell_angle_beta 28.466011
_cell_angle_gamma 90.000000
_cell_volume 686.050861
_symmetry_space_group_name_H-M "P 21"
_symmetry_group_IT_number 4
_symmetry_cell_setting 'monoclinic'
loop_
_space_group_symop_operation_xyz
x,y,z
-x,1/2+y,-z
loop_
_atom_site_type_symbol
_atom_site_label
_atom_site_fract_x
_atom_site_fract_y
_atom_site_fract_z
Si Si1 0.191434 0.953600 0.209756
Si Si2 0.294512 0.778742 0.810411
Si Si3 0.798634 0.484787 0.395401
Si Si4 0.812021 0.035308 0.024234
Si Si5 0.228858 0.781776 0.469212
Si Si6 0.925516 0.931002 0.474221
Si Si7 0.794349 0.189905 0.309219
Si Si8 0.061439 0.218014 0.782477
O O1 0.970615 0.894770 0.369895
O O2 0.137985 0.860060 0.159260
O O3 0.533518 0.952676 0.099068
O O4 0.079436 0.121065 0.235285
O O5 0.323206 0.643188 0.855355
O O6 0.620716 0.852065 0.641146
O O7 0.135406 0.709527 0.805367
O O8 0.073688 0.912349 0.935618
O O9 0.951168 0.396664 0.398980
O O10 0.711362 0.352534 0.376444
O O11 0.498600 0.576935 0.553556
O O12 0.982088 0.600834 0.265821
O O13 0.964744 0.143822 0.898821
O O14 0.101679 0.612490 0.512000
O O15 0.570731 0.760462 0.361549
O O16 0.217930 0.866001 0.396575
#
# Coordination Sequence:
#
# PCOD9119505 Si02
#       8
#     2   2   2   2   2   2   2   2
#     4  12  28  47  79 113 148 200 264 315 376 454
#     4  12  29  52  75 107 160 206 252 315 382 460
#     4  12  22  43  79 113 145 194 252 317 377 436
#     4  12  31  52  73 111 157 209 251 305 397 463
#     4  12  26  44  75 115 154 195 250 319 381 436
#     4  12  27  50  75 118 148 197 267 314 371 460
#     4  12  23  45  76 110 149 195 257 319 371 444
#     4  12  26  51  76 109 157 202 253 316 383 457
#
# _framework density 23.321885999999999
#
# number of rings (size 3 to 8) (size 9 to 14) (size 15 to 20)
#    0.000    0.000    6.250    2.250   10.500    0.000 
#    0.000    0.000    0.000    0.000    0.000    0.000 
#    0.000    0.000    0.000    0.000    0.000    0.000 
#
# Total GULP energy -89520.982174 kJ/mol
# GULP energy per Si atom -5595.061386 kJ/mol
# Density = 2.326880 g / cm^3
# Si number density = 23.321886 Si / 1000 Ang^3
#
#
#
# Elastic Constant Matrix: (Units=GPa)
#
#
# Indices 1 2 3 4 5 6 
#
# 1 82.7316 16.2296 -2.3405 0.0000 7.9718 0.0000
# 2 16.2296 102.1957 12.8057 0.0000 -0.3019 0.0000
# 3 -2.3405 12.8057 48.7332 0.0000 -5.5635 0.0000
# 4 0.0000 0.0000 0.0000 27.4468 0.0000 11.9139
# 5 7.9718 -0.3019 -5.5635 0.0000 28.9247 0.0000
# 6 0.0000 0.0000 0.0000 11.9139 0.0000 55.2402
#
#
#
# Elastic Compliance Matrix: (Units=1/GPa)
#
#
# Indices 1 2 3 4 5 6 
#
# 1 0.012861 -0.002152 0.000793 0.000000 -0.003414 0.000000
# 2 -0.002152 0.010483 -0.002840 0.000000 0.000156 0.000000
# 3 0.000793 -0.002840 0.021754 0.000000 0.003936 0.000000
# 4 0.000000 0.000000 0.000000 0.040197 0.000000 -0.008670
# 5 -0.003414 0.000156 0.003936 0.000000 0.036272 0.000000
# 6 0.000000 0.000000 0.000000 -0.008670 0.000000 0.019973
#
#
# Mechanical properties :
#
#
# Convention : Reuss Voigt Hill
#
# Bulk Modulus (GPa) = 27.24784 31.89446 29.57115
# Shear Modulus (GPa) = 30.83168 36.12006 33.47587
#
# Velocity S-wave (km/s) = 3.63989 3.93970 3.79276
# Velocity P-wave (km/s) = 5.41976 5.86519 5.64687
#
# Compressibility (1/GPa) = 0.03670016
#
# Stress axis : x y z
#
# Youngs Moduli (GPa) = 77.75528 95.39022 45.96929
#
# Poissons Ratio (x) = 0.20527 -0.03647
# Poissons Ratio (y) = 0.16732 0.13056
# Poissons Ratio (z) = -0.06169 0.27093
#
# Static dielectric constant tensor:
#      x y z
#    x 1.870370 0.000000 -0.012120 
#    y 0.000000 1.884380 0.000000 
#    z -0.012120 0.000000 1.928500 
# 
# From -- ./inp_files/14960.got.cif
#   From: 2010.05.17/outbox.cif.g08.bks.cpg/sg4_8_cif.got.tgz:14960.got - 2010.06.03 18:43:04.
