data_PCOD9119257
_publ_section_title
;
Structure prediction by ZEFSAII (Michael W. Deem and Ramdas Pophale) SiO2 
 PCOD9119257
Probable space group: P 21
;
_chemical_formula_sum "Si O2"
_cell_formula_units_Z 16
_cell_length_a 10.375752
_cell_length_b 5.286168
_cell_length_c 22.879881
_cell_angle_alpha 90.000000
_cell_angle_beta 33.135342
_cell_angle_gamma 90.000000
_cell_volume 685.959861
_symmetry_space_group_name_H-M "P 21"
_symmetry_group_IT_number 4
_symmetry_cell_setting 'monoclinic'
loop_
_space_group_symop_operation_xyz
x,y,z
-x,1/2+y,-z
loop_
_atom_site_type_symbol
_atom_site_label
_atom_site_fract_x
_atom_site_fract_y
_atom_site_fract_z
Si Si1 0.855214 0.537100 0.071299
Si Si2 0.392450 0.268712 0.237548
Si Si3 0.045819 0.643933 0.416949
Si Si4 0.505193 0.773955 0.037030
Si Si5 0.150211 0.475825 0.742034
Si Si6 0.873991 0.402207 0.735674
Si Si7 0.600164 0.474736 0.649701
Si Si8 0.002601 0.482921 0.140443
O O1 0.594051 0.474170 0.147625
O O2 0.838543 0.518941 0.147267
O O3 0.025293 0.305782 0.987366
O O4 0.149548 0.379563 0.355421
O O5 0.309454 0.124530 0.211372
O O6 0.488669 0.095399 0.254944
O O7 0.795235 0.643945 0.542774
O O8 0.044868 0.804334 0.357819
O O9 0.243025 0.742294 0.387025
O O10 0.296832 0.721604 0.161839
O O11 0.451098 0.021220 0.017205
O O12 0.747131 0.869918 0.974909
O O13 0.401433 0.421345 0.677118
O O14 0.989699 0.255396 0.832175
O O15 0.092836 0.460671 0.695039
O O16 0.092847 0.762506 0.781923
#
# Coordination Sequence:
#
# PCOD9119257 Si02
#       8
#     2   2   2   2   2   2   2   2
#     4  12  27  44  69 110 147 186 242 305 366 429
#     4  11  25  46  75 101 147 189 245 301 366 438
#     4  11  25  47  77 105 144 187 254 302 379 434
#     4  12  24  43  71  99 148 203 243 285 358 444
#     4  12  26  47  74 105 149 188 244 298 367 429
#     4  11  27  45  70 111 143 194 240 307 360 443
#     4  11  24  49  77 107 135 198 244 309 368 447
#     4  12  24  45  69 104 145 197 244 293 358 442
#
# _framework density 23.324981999999999
#
# number of rings (size 3 to 8) (size 9 to 14) (size 15 to 20)
#    0.000    0.500    5.000    2.250    8.750    0.000 
#    2.250    0.000    0.000    0.000    0.000    0.000 
#    0.000    0.000    0.000    0.000    0.000    0.000 
#
# Total GULP energy -89406.209631 kJ/mol
# GULP energy per Si atom -5587.888102 kJ/mol
# Density = 2.327189 g / cm^3
# Si number density = 23.324982 Si / 1000 Ang^3
#
#
#
# Elastic Constant Matrix: (Units=GPa)
#
#
# Indices 1 2 3 4 5 6 
#
# 1 189.5446 24.3978 26.2018 0.0000 -10.2832 0.0000
# 2 24.3978 83.5482 18.5885 0.0000 14.8061 0.0000
# 3 26.2018 18.5885 75.1248 0.0000 -8.0628 0.0000
# 4 0.0000 0.0000 0.0000 38.5815 0.0000 1.9919
# 5 -10.2832 14.8061 -8.0628 0.0000 24.1248 0.0000
# 6 0.0000 0.0000 0.0000 1.9919 0.0000 33.2984
#
#
#
# Elastic Compliance Matrix: (Units=1/GPa)
#
#
# Indices 1 2 3 4 5 6 
#
# 1 0.005887 -0.002054 -0.001183 0.000000 0.003374 0.000000
# 2 -0.002054 0.015684 -0.004451 0.000000 -0.011989 0.000000
# 3 -0.001183 -0.004451 0.015625 0.000000 0.007449 0.000000
# 4 0.000000 0.000000 0.000000 0.025999 0.000000 -0.001555
# 5 0.003374 -0.011989 0.007449 0.000000 0.052737 0.000000
# 6 0.000000 0.000000 0.000000 -0.001555 0.000000 0.030124
#
#
# Mechanical properties :
#
#
# Convention : Reuss Voigt Hill
#
# Bulk Modulus (GPa) = 45.83028 54.06599 49.94814
# Shear Modulus (GPa) = 29.63760 37.80292 33.72026
#
# Velocity S-wave (km/s) = 3.56847 4.03017 3.80632
# Velocity P-wave (km/s) = 6.05556 6.69971 6.38576
#
# Compressibility (1/GPa) = 0.02181963
#
# Stress axis : x y z
#
# Youngs Moduli (GPa) = 169.87293 63.76006 64.00176
#
# Poissons Ratio (x) = 0.13096 0.07570
# Poissons Ratio (y) = 0.34890 0.28488
# Poissons Ratio (z) = 0.20092 0.28380
#
# Static dielectric constant tensor:
#      x y z
#    x 1.904290 0.000000 -0.030070 
#    y 0.000000 1.965020 0.000000 
#    z -0.030070 0.000000 1.880620 
# 
# From -- ./inp_files/8854.got.cif
#   From: 2010.05.17/outbox.cif.g08.bks.cpg/sg4_5_cif.got.tgz:8854.got - 2010.06.03 18:43:04.
