data_PCOD9119738
_publ_section_title
;
Structure prediction by ZEFSAII (Michael W. Deem and Ramdas Pophale) SiO2 
 PCOD9119738
Probable space group: P 21
;
_chemical_formula_sum "Si O2"
_cell_formula_units_Z 16
_cell_length_a 11.058249
_cell_length_b 9.037924
_cell_length_c 8.485905
_cell_angle_alpha 90.000000
_cell_angle_beta 125.832188
_cell_angle_gamma 90.000000
_cell_volume 687.594153
_symmetry_space_group_name_H-M "P 21"
_symmetry_group_IT_number 4
_symmetry_cell_setting 'monoclinic'
loop_
_space_group_symop_operation_xyz
x,y,z
-x,1/2+y,-z
loop_
_atom_site_type_symbol
_atom_site_label
_atom_site_fract_x
_atom_site_fract_y
_atom_site_fract_z
Si Si1 0.842712 0.027430 0.896715
Si Si2 0.648871 0.431748 0.047061
Si Si3 0.172303 0.143943 0.588941
Si Si4 0.890117 0.947808 0.288409
Si Si5 0.340919 0.774499 0.396608
Si Si6 0.321155 0.281086 0.399589
Si Si7 0.630027 0.136884 0.234816
Si Si8 0.185158 0.021652 0.126700
O O1 0.723065 0.155582 0.775861
O O2 0.793453 0.909225 0.729883
O O3 0.837366 0.958198 0.066662
O O4 0.014136 0.072231 0.997605
O O5 0.722635 0.536206 0.233304
O O6 0.615471 0.272044 0.097874
O O7 0.503860 0.519742 0.878489
O O8 0.767823 0.436091 0.995260
O O9 0.108130 0.279859 0.645836
O O10 0.270530 0.213264 0.524925
O O11 0.040539 0.041742 0.422141
O O12 0.773543 0.040989 0.302006
O O13 0.506326 0.826547 0.473493
O O14 0.352790 0.707031 0.579213
O O15 0.223529 0.907339 0.295560
O O16 0.292333 0.159497 0.241615
#
# Coordination Sequence:
#
# PCOD9119738 Si02
#       8
#     2   2   2   2   2   2   2   2
#     4  12  28  49  76 110 152 197 256 310 377 452
#     4  12  28  49  76 109 154 198 253 311 381 453
#     4  12  28  49  76 109 154 198 253 311 381 453
#     4  12  28  48  77 112 151 201 248 315 382 449
#     4  12  28  49  76 110 152 197 256 310 377 452
#     4  12  26  49  75 108 150 200 252 306 375 448
#     4  12  28  48  77 112 151 201 248 315 382 449
#     4  12  26  49  75 108 150 200 252 306 375 448
#
# _framework density 23.269539999999999
#
# number of rings (size 3 to 8) (size 9 to 14) (size 15 to 20)
#    0.000    0.000    2.500    6.000   14.000    0.000 
#    0.000    0.000    0.000    0.000    0.000    0.000 
#    0.000    0.000    0.000    0.000    0.000    0.000 
#
# Total GULP energy -89653.097840 kJ/mol
# GULP energy per Si atom -5603.318615 kJ/mol
# Density = 2.321658 g / cm^3
# Si number density = 23.269540 Si / 1000 Ang^3
#
#
#
# Elastic Constant Matrix: (Units=GPa)
#
#
# Indices 1 2 3 4 5 6 
#
# 1 84.5341 -17.0255 27.9090 0.0000 2.2703 0.0000
# 2 -17.0255 90.9977 19.8341 0.0000 -4.9221 0.0000
# 3 27.9090 19.8341 107.5234 0.0000 6.0918 0.0000
# 4 0.0000 0.0000 0.0000 45.0300 0.0000 -6.3962
# 5 2.2703 -4.9221 6.0918 0.0000 35.6353 0.0000
# 6 0.0000 0.0000 0.0000 -6.3962 0.0000 33.5413
#
#
#
# Elastic Compliance Matrix: (Units=1/GPa)
#
#
# Indices 1 2 3 4 5 6 
#
# 1 0.013959 0.003567 -0.004300 0.000000 0.000339 0.000000
# 2 0.003567 0.012499 -0.003349 0.000000 0.002072 0.000000
# 3 -0.004300 -0.003349 0.011153 0.000000 -0.002095 0.000000
# 4 0.000000 0.000000 0.000000 0.022826 0.000000 0.004353
# 5 0.000339 0.002072 -0.002095 0.000000 0.028685 0.000000
# 6 0.000000 0.000000 0.000000 0.004353 0.000000 0.030644
#
#
# Mechanical properties :
#
#
# Convention : Reuss Voigt Hill
#
# Bulk Modulus (GPa) = 33.95990 38.27669 36.11830
# Shear Modulus (GPa) = 36.29916 39.66383 37.98149
#
# Velocity S-wave (km/s) = 3.95390 4.13308 4.04448
# Velocity P-wave (km/s) = 5.95569 6.26590 6.11276
#
# Compressibility (1/GPa) = 0.02944649
#
# Stress axis : x y z
#
# Youngs Moduli (GPa) = 71.63999 80.00830 89.66234
#
# Poissons Ratio (x) = -0.28541 0.38558
# Poissons Ratio (y) = -0.25556 0.30027
# Poissons Ratio (z) = 0.30808 0.26794
#
# Static dielectric constant tensor:
#      x y z
#    x 1.848510 0.000000 -0.024020 
#    y 0.000000 1.852290 0.000000 
#    z -0.024020 0.000000 1.871430 
# 
# From -- ./inp_files/7950.got.cif
#   From: 2010.05.17/outbox.cif.g08.bks.cpg/sg4_4_cif.got.tgz:7950.got - 2010.06.03 18:43:04.
