data_PCOD9119599
_publ_section_title
;
Structure prediction by ZEFSAII (Michael W. Deem and Ramdas Pophale) SiO2 
 PCOD9119599
Probable space group: P 21
;
_chemical_formula_sum "Si O2"
_cell_formula_units_Z 14
_cell_length_a 20.317828
_cell_length_b 6.017449
_cell_length_c 7.154505
_cell_angle_alpha 90.000000
_cell_angle_beta 132.677500
_cell_angle_gamma 90.000000
_cell_volume 643.077739
_symmetry_space_group_name_H-M "P 21"
_symmetry_group_IT_number 4
_symmetry_cell_setting 'monoclinic'
loop_
_space_group_symop_operation_xyz
x,y,z
-x,1/2+y,-z
loop_
_atom_site_type_symbol
_atom_site_label
_atom_site_fract_x
_atom_site_fract_y
_atom_site_fract_z
Si Si1 0.919793 0.694950 0.178912
Si Si2 0.651240 0.821777 0.174410
Si Si3 0.682835 0.151448 0.560856
Si Si4 0.489298 0.807337 0.581403
Si Si5 0.778561 0.988551 0.095005
Si Si6 0.794177 0.522794 0.616874
Si Si7 0.108448 0.870038 0.546800
O O1 0.922233 0.489105 0.324036
O O2 0.019651 0.745835 0.305123
O O3 0.872190 0.882790 0.212668
O O4 0.850960 0.651894 0.879709
O O5 0.697748 0.624086 0.378591
O O6 0.642384 0.019044 0.308084
O O7 0.724466 0.873967 0.155729
O O8 0.560890 0.784362 0.886644
O O9 0.609487 0.305751 0.519417
O O10 0.769484 0.282426 0.652332
O O11 0.716603 0.995354 0.793502
O O12 0.496512 0.559457 0.485625
O O13 0.806044 0.226586 0.227616
O O14 0.855455 0.516788 0.552087
#
# Coordination Sequence:
#
# PCOD9119599 Si02
#       7
#     2   2   2   2   2   2   2
#     4  12  26  44  71 105 146 192 245 311 373 443
#     4  12  28  48  77 109 150 195 252 309 383 458
#     4  12  28  48  77 109 150 195 252 309 383 458
#     4  12  32  52  80 116 160 202 256 322 388 466
#     4  12  24  48  72 102 144 196 242 296 382 450
#     4  12  28  44  76 108 148 194 252 308 376 460
#     4  12  26  44  71 105 146 192 245 311 373 443
#
# _framework density 21.770305
#
# number of rings (size 3 to 8) (size 9 to 14) (size 15 to 20)
#    0.000    0.000    8.571    0.000   10.000    3.429 
#    0.000    0.000    0.000    0.000    0.000    0.000 
#    0.000    0.000    0.000    0.000    0.000    0.000 
#
# Total GULP energy -78122.451544 kJ/mol
# GULP energy per Si atom -5580.175110 kJ/mol
# Density = 2.172075 g / cm^3
# Si number density = 21.770305 Si / 1000 Ang^3
#
#
#
# Elastic Constant Matrix: (Units=GPa)
#
#
# Indices 1 2 3 4 5 6 
#
# 1 -10.9970 -38.0523 67.8132 0.0000 70.6323 0.0000
# 2 -38.0523 26.8340 54.1402 0.0000 24.6773 0.0000
# 3 67.8132 54.1402 90.3044 0.0000 -51.3058 0.0000
# 4 0.0000 0.0000 0.0000 24.8982 0.0000 -10.0884
# 5 70.6323 24.6773 -51.3058 0.0000 -27.8165 0.0000
# 6 0.0000 0.0000 0.0000 -10.0884 0.0000 24.9560
#
#
#
# Elastic Compliance Matrix: (Units=1/GPa)
#
#
# Indices 1 2 3 4 5 6 
#
# 1 0.007600 -0.004328 0.002769 0.000000 0.010351 0.000000
# 2 -0.004328 0.023159 -0.002542 0.000000 0.014243 0.000000
# 3 0.002769 -0.002542 0.006461 0.000000 -0.007142 0.000000
# 4 0.000000 0.000000 0.000000 0.048031 0.000000 0.019416
# 5 0.010351 0.014243 -0.007142 0.000000 0.016141 0.000000
# 6 0.000000 0.000000 0.000000 0.019416 0.000000 0.047920
#
#
# Mechanical properties :
#
#
# Convention : Reuss Voigt Hill
#
# Bulk Modulus (GPa) = 34.46307 30.43820 32.45063
# Shear Modulus (GPa) = 29.90675 5.89023 17.89849
#
# Velocity S-wave (km/s) = 3.71042 1.64666 2.87043
# Velocity P-wave (km/s) = 5.84987 4.19848 5.09157
#
# Compressibility (1/GPa) = 0.02901657
#
# Stress axis : x y z
#
# Youngs Moduli (GPa) = 131.58217 43.18036 154.77376
#
# Poissons Ratio (x) = 0.18690 -0.42853
# Poissons Ratio (y) = 0.56953 0.39343
# Poissons Ratio (z) = -0.36432 0.10976
#
# Static dielectric constant tensor:
#      x y z
#    x 1.824080 0.000000 0.037060 
#    y 0.000000 1.957200 0.000000 
#    z 0.037060 0.000000 1.772010 
# 
# From -- ./inp_files/3297.got.cif
#   From: 2010.05.17/outbox.cif.g08.bks.cpg/sg4_2_cif.got.tgz:3297.got - 2010.06.03 18:43:04.
