data_PCOD9119597
_publ_section_title
;
Structure prediction by ZEFSAII (Michael W. Deem and Ramdas Pophale) SiO2 
 PCOD9119597
Probable space group: P 21
;
_chemical_formula_sum "Si O2"
_cell_formula_units_Z 16
_cell_length_a 9.353105
_cell_length_b 15.233491
_cell_length_c 9.320066
_cell_angle_alpha 90.000000
_cell_angle_beta 30.322060
_cell_angle_gamma 90.000000
_cell_volume 670.417296
_symmetry_space_group_name_H-M "P 21"
_symmetry_group_IT_number 4
_symmetry_cell_setting 'monoclinic'
loop_
_space_group_symop_operation_xyz
x,y,z
-x,1/2+y,-z
loop_
_atom_site_type_symbol
_atom_site_label
_atom_site_fract_x
_atom_site_fract_y
_atom_site_fract_z
Si Si1 0.004085 0.011930 0.814702
Si Si2 0.521993 0.333696 0.204805
Si Si3 0.565928 0.754657 0.413264
Si Si4 0.271082 0.661671 0.140688
Si Si5 0.113333 0.117439 0.290338
Si Si6 0.069192 0.917815 0.342799
Si Si7 0.462055 0.899366 0.275938
Si Si8 0.954537 0.140376 0.103238
O O1 0.903491 0.094079 0.805894
O O2 0.303582 0.974495 0.505912
O O3 0.994443 0.050237 0.983046
O O4 0.780236 0.934115 0.980690
O O5 0.475985 0.315244 0.411836
O O6 0.219117 0.363613 0.406468
O O7 0.635258 0.245462 0.031335
O O8 0.758947 0.403817 0.954098
O O9 0.472087 0.809754 0.356222
O O10 0.370123 0.669219 0.602844
O O11 0.881740 0.718563 0.121328
O O12 0.072016 0.681041 0.449039
O O13 0.562261 0.619231 0.942687
O O14 0.083397 0.137704 0.149849
O O15 0.996203 0.019971 0.420288
O O16 0.286962 0.892751 0.280788
#
# Coordination Sequence:
#
# PCOD9119597 Si02
#       8
#     2   2   2   2   2   2   2   2
#     4  12  24  49  73 100 138 193 237 289 353 428
#     4  12  28  44  75 102 147 188 236 293 363 428
#     4  12  28  49  69 107 147 188 238 291 360 435
#     4  12  24  48  71 102 138 190 240 292 353 422
#     4  12  27  46  74 105 143 183 244 300 350 421
#     4  12  26  47  70 109 143 186 239 293 360 428
#     4  12  27  46  73 104 146 189 233 296 361 429
#     4  12  28  47  73 105 144 187 243 296 350 427
#
# _framework density 23.865732000000001
#
# number of rings (size 3 to 8) (size 9 to 14) (size 15 to 20)
#    0.000    0.000    3.750    5.250   10.500    0.000 
#    0.000    0.000    0.000    0.000    0.000    0.000 
#    0.000    0.000    0.000    0.000    0.000    0.000 
#
# Total GULP energy -89748.716914 kJ/mol
# GULP energy per Si atom -5609.294807 kJ/mol
# Density = 2.381141 g / cm^3
# Si number density = 23.865732 Si / 1000 Ang^3
#
#
#
# Elastic Constant Matrix: (Units=GPa)
#
#
# Indices 1 2 3 4 5 6 
#
# 1 70.1332 13.0781 20.4665 0.0000 14.6930 0.0000
# 2 13.0781 47.4543 5.6183 0.0000 -1.2647 0.0000
# 3 20.4665 5.6183 89.6591 0.0000 2.3227 0.0000
# 4 0.0000 0.0000 0.0000 49.6675 0.0000 -0.3299
# 5 14.6930 -1.2647 2.3227 0.0000 32.1414 0.0000
# 6 0.0000 0.0000 0.0000 -0.3299 0.0000 37.2975
#
#
#
# Elastic Compliance Matrix: (Units=1/GPa)
#
#
# Indices 1 2 3 4 5 6 
#
# 1 0.017879 -0.004720 -0.003576 0.000000 -0.008101 0.000000
# 2 -0.004720 0.022504 -0.000412 0.000000 0.003073 0.000000
# 3 -0.003576 -0.000412 0.011976 0.000000 0.000753 0.000000
# 4 0.000000 0.000000 0.000000 0.020135 0.000000 0.000178
# 5 -0.008101 0.003073 0.000753 0.000000 0.034882 0.000000
# 6 0.000000 0.000000 0.000000 0.000178 0.000000 0.026813
#
#
# Mechanical properties :
#
#
# Convention : Reuss Voigt Hill
#
# Bulk Modulus (GPa) = 28.61757 31.73027 30.17392
# Shear Modulus (GPa) = 30.62716 35.02685 32.82701
#
# Velocity S-wave (km/s) = 3.58622 3.83517 3.71278
# Velocity P-wave (km/s) = 5.40047 5.73895 5.57228
#
# Compressibility (1/GPa) = 0.03494357
#
# Stress axis : x y z
#
# Youngs Moduli (GPa) = 55.93062 44.43575 83.50095
#
# Poissons Ratio (x) = 0.20974 0.29857
# Poissons Ratio (y) = 0.26399 0.03443
# Poissons Ratio (z) = 0.19999 0.01832
#
# Static dielectric constant tensor:
#      x y z
#    x 1.877560 0.000000 0.046840 
#    y 0.000000 1.895790 0.000000 
#    z 0.046840 0.000000 1.861250 
# 
# From -- ./inp_files/1929.got.cif
#   From: 2010.05.17/outbox.cif.g08.bks.cpg/sg4_1_cif.got.tgz:1929.got - 2010.06.03 18:43:04.
