data_PCOD9119010
_publ_section_title
;
Structure prediction by ZEFSAII (Michael W. Deem and Ramdas Pophale) SiO2 
 PCOD9119010
Probable space group: P 21
;
_chemical_formula_sum "Si O2"
_cell_formula_units_Z 14
_cell_length_a 6.784137
_cell_length_b 10.816867
_cell_length_c 7.909028
_cell_angle_alpha 90.000000
_cell_angle_beta 83.375469
_cell_angle_gamma 90.000000
_cell_volume 576.514065
_symmetry_space_group_name_H-M "P 21"
_symmetry_group_IT_number 4
_symmetry_cell_setting 'monoclinic'
loop_
_space_group_symop_operation_xyz
x,y,z
-x,1/2+y,-z
loop_
_atom_site_type_symbol
_atom_site_label
_atom_site_fract_x
_atom_site_fract_y
_atom_site_fract_z
Si Si1 0.862940 0.661700 0.196226
Si Si2 0.773923 0.832410 0.742483
Si Si3 0.860489 0.281622 0.061391
Si Si4 0.563558 0.487498 0.035284
Si Si5 0.652508 0.093012 0.273310
Si Si6 0.264357 0.070407 0.435974
Si Si7 0.946871 0.911080 0.368849
O O1 0.678636 0.604012 0.111039
O O2 0.854529 0.596374 0.379507
O O3 0.867196 0.805087 0.252714
O O4 0.062491 0.667192 0.062467
O O5 0.594410 0.914752 0.831867
O O6 0.745107 0.686779 0.694221
O O7 0.851398 0.885399 0.558934
O O8 0.946882 0.833932 0.864822
O O9 0.739927 0.389386 0.982570
O O10 0.708995 0.230719 0.216922
O O11 0.449575 0.529424 0.878612
O O12 0.499850 0.069125 0.440657
O O13 0.860828 0.036027 0.302624
O O14 0.176843 0.941769 0.377406
#
# Coordination Sequence:
#
# PCOD9119010 Si02
#       7
#     2   2   2   2   2   2   2
#     4  11  27  46  75 110 148 199 250 307 385 444
#     4  11  24  47  75 104 150 198 250 317 377 439
#     4  12  26  47  74 108 145 198 250 315 373 450
#     4  12  27  46  75 110 153 196 257 314 377 452
#     4  12  26  43  74 102 149 192 249 313 371 445
#     4  11  23  49  68 107 148 195 250 311 376 446
#     4  11  25  46  73 107 149 196 252 307 377 456
#
# _framework density 24.283881000000001
#
# number of rings (size 3 to 8) (size 9 to 14) (size 15 to 20)
#    0.000    0.571    2.857    4.286    8.000    0.000 
#    0.000    0.000    0.000    0.000    0.000    0.000 
#    0.000    0.000    0.000    0.000    0.000    0.000 
#
# Total GULP energy -78192.475326 kJ/mol
# GULP energy per Si atom -5585.176809 kJ/mol
# Density = 2.422861 g / cm^3
# Si number density = 24.283881 Si / 1000 Ang^3
#
#
#
# Elastic Constant Matrix: (Units=GPa)
#
#
# Indices 1 2 3 4 5 6 
#
# 1 90.5836 15.1576 23.0444 0.0000 -19.8702 0.0000
# 2 15.1576 53.5545 18.5653 0.0000 -10.7688 0.0000
# 3 23.0444 18.5653 113.1793 0.0000 -11.9211 0.0000
# 4 0.0000 0.0000 0.0000 34.1484 0.0000 0.5023
# 5 -19.8702 -10.7688 -11.9211 0.0000 29.1481 0.0000
# 6 0.0000 0.0000 0.0000 0.5023 0.0000 41.9827
#
#
#
# Elastic Compliance Matrix: (Units=1/GPa)
#
#
# Indices 1 2 3 4 5 6 
#
# 1 0.013466 -0.001655 -0.001638 0.000000 0.007898 0.000000
# 2 -0.001655 0.021157 -0.002538 0.000000 0.005650 0.000000
# 3 -0.001638 -0.002538 0.009791 0.000000 0.001950 0.000000
# 4 0.000000 0.000000 0.000000 0.029289 0.000000 -0.000350
# 5 0.007898 0.005650 0.001950 0.000000 0.042576 0.000000
# 6 0.000000 0.000000 0.000000 -0.000350 0.000000 0.023824
#
#
# Mechanical properties :
#
#
# Convention : Reuss Voigt Hill
#
# Bulk Modulus (GPa) = 30.53435 41.20578 35.87007
# Shear Modulus (GPa) = 30.73459 34.42586 32.58023
#
# Velocity S-wave (km/s) = 3.56144 3.76924 3.66681
# Velocity P-wave (km/s) = 5.43259 5.99568 5.72106
#
# Compressibility (1/GPa) = 0.03275000
#
# Stress axis : x y z
#
# Youngs Moduli (GPa) = 74.26228 47.26548 102.13612
#
# Poissons Ratio (x) = 0.07823 0.16734
# Poissons Ratio (y) = 0.12291 0.25926
# Poissons Ratio (z) = 0.12167 0.11998
#
# Static dielectric constant tensor:
#      x y z
#    x 1.922930 0.000000 -0.061510 
#    y 0.000000 1.964530 0.000000 
#    z -0.061510 0.000000 1.976460 
# 
# From -- ./inp_files/1189.got.cif
#   From: 2010.05.17/outbox.cif.g08.bks.cpg/sg4_1_cif.got.tgz:1189.got - 2010.06.03 18:43:04.
