data_PCOD9119632
_publ_section_title
;
Structure prediction by ZEFSAII (Michael W. Deem and Ramdas Pophale) SiO2 
 PCOD9119632
Probable space group: P 21
;
_chemical_formula_sum "Si O2"
_cell_formula_units_Z 12
_cell_length_a 13.867302
_cell_length_b 7.745012
_cell_length_c 14.803557
_cell_angle_alpha 90.000000
_cell_angle_beta 160.338937
_cell_angle_gamma 90.000000
_cell_volume 534.943140
_symmetry_space_group_name_H-M "P 21"
_symmetry_group_IT_number 4
_symmetry_cell_setting 'monoclinic'
loop_
_space_group_symop_operation_xyz
x,y,z
-x,1/2+y,-z
loop_
_atom_site_type_symbol
_atom_site_label
_atom_site_fract_x
_atom_site_fract_y
_atom_site_fract_z
Si Si1 0.993469 0.669850 0.589607
Si Si2 0.122164 0.888473 0.192187
Si Si3 0.761937 0.281468 0.383422
Si Si4 0.857534 0.667230 0.118189
Si Si5 0.399145 0.622738 0.304452
Si Si6 0.607612 0.287820 0.897626
O O1 0.873426 0.476671 0.483757
O O2 0.170141 0.705687 0.654872
O O3 0.192360 0.699261 0.851434
O O4 0.715352 0.793826 0.348909
O O5 0.315054 0.786452 0.290801
O O6 0.011783 0.752336 0.168884
O O7 0.307610 0.036060 0.404650
O O8 0.850268 0.979770 0.906754
O O9 0.930605 0.177737 0.609828
O O10 0.426463 0.274868 0.108163
O O11 0.745576 0.474584 0.001684
O O12 0.410147 0.681704 0.210600
#
# Coordination Sequence:
#
# PCOD9119632 Si02
#       6
#     2   2   2   2   2   2
#     4  12  25  44  68  99 137 180 226 276 331 394
#     4  12  26  46  71 101 135 176 222 276 336 400
#     4  12  25  44  68  99 137 180 226 276 331 394
#     4  12  25  44  69 100 136 178 224 276 333 396
#     4  12  26  46  71 101 135 176 222 276 336 400
#     4  12  25  44  69 100 136 178 224 276 333 396
#
# _framework density 22.432290999999999
#
# number of rings (size 3 to 8) (size 9 to 14) (size 15 to 20)
#    0.000    0.000    0.000   12.000    0.000    2.667 
#    0.000    0.000    0.000    0.000    0.000    0.000 
#    0.000    0.000    0.000    0.000    0.000    0.000 
#
# Total GULP energy -67342.222844 kJ/mol
# GULP energy per Si atom -5611.851904 kJ/mol
# Density = 2.238123 g / cm^3
# Si number density = 22.432291 Si / 1000 Ang^3
#
#
#
# Elastic Constant Matrix: (Units=GPa)
#
#
# Indices 1 2 3 4 5 6 
#
# 1 107.4893 -0.8278 40.8654 0.0000 -24.1484 0.0000
# 2 -0.8278 48.3876 -22.7728 0.0000 -9.2997 0.0000
# 3 40.8654 -22.7728 99.4879 0.0000 -8.6439 0.0000
# 4 0.0000 0.0000 0.0000 45.1456 0.0000 12.9706
# 5 -24.1484 -9.2997 -8.6439 0.0000 31.5149 0.0000
# 6 0.0000 0.0000 0.0000 12.9706 0.0000 21.1639
#
#
#
# Elastic Compliance Matrix: (Units=1/GPa)
#
#
# Indices 1 2 3 4 5 6 
#
# 1 0.013006 -0.000325 -0.004670 0.000000 0.008589 0.000000
# 2 -0.000325 0.025623 0.006796 0.000000 0.009176 0.000000
# 3 -0.004670 0.006796 0.013716 0.000000 0.002189 0.000000
# 4 0.000000 0.000000 0.000000 0.026884 0.000000 -0.016477
# 5 0.008589 0.009176 0.002189 0.000000 0.041620 0.000000
# 6 0.000000 0.000000 0.000000 -0.016477 0.000000 0.057348
#
#
# Mechanical properties :
#
#
# Convention : Reuss Voigt Hill
#
# Bulk Modulus (GPa) = 17.87457 32.21049 25.04253
# Shear Modulus (GPa) = 25.87394 35.43821 30.65608
#
# Velocity S-wave (km/s) = 3.39989 3.97896 3.70077
# Velocity P-wave (km/s) = 4.83714 5.95816 5.42667
#
# Compressibility (1/GPa) = 0.05594539
#
# Stress axis : x y z
#
# Youngs Moduli (GPa) = 76.88791 39.02777 72.90992
#
# Poissons Ratio (x) = 0.01268 0.34052
# Poissons Ratio (y) = 0.02497 -0.49548
# Poissons Ratio (z) = 0.35910 -0.26522
#
# Static dielectric constant tensor:
#      x y z
#    x 1.782930 0.000000 0.015050 
#    y 0.000000 1.827790 0.000000 
#    z 0.015050 0.000000 1.777430 
# 
# From -- ./inp_files/12162.got.cif
#   From: 2010.05.17/outbox.cif.g08.bks.cpg/sg4_7_cif.got.tgz:12162.got - 2010.06.03 18:43:04.
