data_PCOD9119119
_publ_section_title
;
Structure prediction by ZEFSAII (Michael W. Deem and Ramdas Pophale) SiO2 
 PCOD9119119
Probable space group: P 21
;
_chemical_formula_sum "Si O2"
_cell_formula_units_Z 16
_cell_length_a 5.657314
_cell_length_b 22.802871
_cell_length_c 5.109352
_cell_angle_alpha 90.000000
_cell_angle_beta 81.906795
_cell_angle_gamma 90.000000
_cell_volume 652.557128
_symmetry_space_group_name_H-M "P 21"
_symmetry_group_IT_number 4
_symmetry_cell_setting 'monoclinic'
loop_
_space_group_symop_operation_xyz
x,y,z
-x,1/2+y,-z
loop_
_atom_site_type_symbol
_atom_site_label
_atom_site_fract_x
_atom_site_fract_y
_atom_site_fract_z
Si Si1 0.355064 0.965680 0.586914
Si Si2 0.585328 0.389102 0.925970
Si Si3 0.149117 0.782476 0.381993
Si Si4 0.153362 0.534000 0.342120
Si Si5 0.517797 0.217122 0.324379
Si Si6 0.107683 0.196287 0.773011
Si Si7 0.868145 0.113103 0.152664
Si Si8 0.800407 0.800397 0.918124
O O1 0.396710 0.939568 0.292546
O O2 0.596919 0.001964 0.622296
O O3 0.345866 0.914317 0.803780
O O4 0.095508 0.997349 0.634924
O O5 0.756410 0.336952 0.807591
O O6 0.322073 0.360262 0.985329
O O7 0.379606 0.774079 0.544542
O O8 0.126572 0.707787 0.365306
O O9 0.947733 0.802331 0.629027
O O10 0.191758 0.565096 0.057311
O O11 0.103503 0.581695 0.576621
O O12 0.324097 0.189505 0.548105
O O13 0.393873 0.248771 0.095930
O O14 0.679075 0.165452 0.192572
O O15 0.093350 0.148409 0.996351
O O16 0.065937 0.266096 0.865977
#
# Coordination Sequence:
#
# PCOD9119119 Si02
#       8
#     2   2   2   2   2   2   2   2
#     4  12  31  57  80 112 150 203 278 342 387 450
#     4  12  27  49  82 109 153 210 252 324 402 454
#     4  11  24  45  67 115 159 196 242 301 378 485
#     4  12  31  57  80 112 150 203 278 342 387 450
#     4  11  24  45  67 115 159 196 242 301 378 485
#     4  11  25  41  73 112 162 193 246 298 381 485
#     4  12  27  49  82 109 153 210 252 324 402 454
#     4  11  25  41  73 112 162 193 246 298 381 485
#
# _framework density 24.518927999999999
#
# number of rings (size 3 to 8) (size 9 to 14) (size 15 to 20)
#    0.000    0.500    2.500    3.750   10.500    0.000 
#    0.000    0.000    0.000    0.000    0.000    0.000 
#    0.000    0.000    0.000    0.000    0.000    0.000 
#
# Total GULP energy -89413.589635 kJ/mol
# GULP energy per Si atom -5588.349352 kJ/mol
# Density = 2.446312 g / cm^3
# Si number density = 24.518928 Si / 1000 Ang^3
#
#
#
# Elastic Constant Matrix: (Units=GPa)
#
#
# Indices 1 2 3 4 5 6 
#
# 1 87.8491 41.5517 5.7171 0.0000 -3.2332 0.0000
# 2 41.5517 79.4665 21.3017 0.0000 -0.7667 0.0000
# 3 5.7171 21.3017 97.1219 0.0000 -12.4038 0.0000
# 4 0.0000 0.0000 0.0000 79.6430 0.0000 -7.6457
# 5 -3.2332 -0.7667 -12.4038 0.0000 29.6214 0.0000
# 6 0.0000 0.0000 0.0000 -7.6457 0.0000 39.9579
#
#
#
# Elastic Compliance Matrix: (Units=1/GPa)
#
#
# Indices 1 2 3 4 5 6 
#
# 1 0.015302 -0.008295 0.001167 0.000000 0.001944 0.000000
# 2 -0.008295 0.017891 -0.003690 0.000000 -0.001987 0.000000
# 3 0.001167 -0.003690 0.011665 0.000000 0.004916 0.000000
# 4 0.000000 0.000000 0.000000 0.012791 0.000000 0.002447
# 5 0.001944 -0.001987 0.004916 0.000000 0.035979 0.000000
# 6 0.000000 0.000000 0.000000 0.002447 0.000000 0.025495
#
#
# Mechanical properties :
#
#
# Convention : Reuss Voigt Hill
#
# Bulk Modulus (GPa) = 43.06192 44.61983 43.84088
# Shear Modulus (GPa) = 33.67006 42.90227 38.28616
#
# Velocity S-wave (km/s) = 3.70973 4.18755 3.95586
# Velocity P-wave (km/s) = 5.99586 6.45123 6.22771
#
# Compressibility (1/GPa) = 0.02322237
#
# Stress axis : x y z
#
# Youngs Moduli (GPa) = 65.34909 55.89306 85.72821
#
# Poissons Ratio (x) = 0.46366 -0.10004
# Poissons Ratio (y) = 0.54210 0.31630
# Poissons Ratio (z) = -0.07626 0.20622
#
# Static dielectric constant tensor:
#      x y z
#    x 2.079350 0.000000 0.046450 
#    y 0.000000 2.001260 0.000000 
#    z 0.046450 0.000000 1.945430 
# 
# From -- ./inp_files/753.got.cif
#   From: 2010.05.17/outbox.cif.g08.bks.cpg/sg4_1_cif.got.tgz:753.got - 2010.06.03 18:43:04.
