data_PCOD9119695
_publ_section_title
;
Structure prediction by ZEFSAII (Michael W. Deem and Ramdas Pophale) SiO2 
 PCOD9119695
Probable space group: P 21
;
_chemical_formula_sum "Si O2"
_cell_formula_units_Z 16
_cell_length_a 5.545242
_cell_length_b 7.239671
_cell_length_c 17.180367
_cell_angle_alpha 90.000000
_cell_angle_beta 93.435862
_cell_angle_gamma 90.000000
_cell_volume 688.478575
_symmetry_space_group_name_H-M "P 21"
_symmetry_group_IT_number 4
_symmetry_cell_setting 'monoclinic'
loop_
_space_group_symop_operation_xyz
x,y,z
-x,1/2+y,-z
loop_
_atom_site_type_symbol
_atom_site_label
_atom_site_fract_x
_atom_site_fract_y
_atom_site_fract_z
Si Si1 0.777217 0.405190 0.580646
Si Si2 0.515033 0.249774 0.810519
Si Si3 0.890172 0.096991 0.912479
Si Si4 0.027681 0.734676 0.837187
Si Si5 0.267966 0.177340 0.562777
Si Si6 0.359425 0.091031 0.271746
Si Si7 0.692326 0.416179 0.291856
Si Si8 0.249797 0.412764 0.945365
O O1 0.530380 0.279264 0.577173
O O2 0.730032 0.567266 0.518022
O O3 0.804769 0.493682 0.666839
O O4 0.028497 0.305234 0.562941
O O5 0.789446 0.187335 0.831075
O O6 0.473599 0.422016 0.753484
O O7 0.393206 0.072240 0.770753
O O8 0.444875 0.311114 0.896152
O O9 0.049285 0.254448 0.954913
O O10 0.036730 0.919386 0.887413
O O11 0.702702 0.008256 0.971014
O O12 0.762232 0.661351 0.810495
O O13 0.155499 0.573428 0.886601
O O14 0.125778 0.790632 0.754110
O O15 0.231574 0.026582 0.630661
O O16 0.485389 0.269696 0.309896
#
# Coordination Sequence:
#
# PCOD9119695 Si02
#       8
#     2   2   2   2   2   2   2   2
#     4  12  29  51  80 116 161 204 254 311 377 454
#     4  12  26  46  70 108 142 186 250 308 370 450
#     4  12  26  44  69 101 142 188 244 310 377 447
#     4  12  26  42  74 102 142 194 246 308 380 446
#     4  12  29  51  80 116 161 204 254 311 377 454
#     4  12  27  45  76 109 148 194 248 309 380 443
#     4  12  27  45  76 109 148 194 248 309 380 443
#     4  12  26  44  69 101 142 188 244 310 377 447
#
# _framework density 23.239650000000001
#
# number of rings (size 3 to 8) (size 9 to 14) (size 15 to 20)
#    0.000    0.000    7.500    1.500    8.750    3.000 
#    0.000    0.000    0.000    0.000    0.000    0.000 
#    0.000    0.000    0.000    0.000    0.000    0.000 
#
# Total GULP energy -89353.311662 kJ/mol
# GULP energy per Si atom -5584.581979 kJ/mol
# Density = 2.318676 g / cm^3
# Si number density = 23.239650 Si / 1000 Ang^3
#
#
#
# Elastic Constant Matrix: (Units=GPa)
#
#
# Indices 1 2 3 4 5 6 
#
# 1 51.2045 34.1443 -0.3913 0.0000 1.3568 0.0000
# 2 34.1443 140.2274 30.0967 0.0000 3.9673 0.0000
# 3 -0.3913 30.0967 90.8270 0.0000 -12.8950 0.0000
# 4 0.0000 0.0000 0.0000 45.4557 0.0000 2.6486
# 5 1.3568 3.9673 -12.8950 0.0000 29.9246 0.0000
# 6 0.0000 0.0000 0.0000 2.6486 0.0000 46.2944
#
#
#
# Elastic Compliance Matrix: (Units=1/GPa)
#
#
# Indices 1 2 3 4 5 6 
#
# 1 0.023721 -0.006289 0.002292 0.000000 0.000746 0.000000
# 2 -0.006289 0.009490 -0.003525 0.000000 -0.002492 0.000000
# 3 0.002292 -0.003525 0.013037 0.000000 0.005981 0.000000
# 4 0.000000 0.000000 0.000000 0.022073 0.000000 -0.001263
# 5 0.000746 -0.002492 0.005981 0.000000 0.036291 0.000000
# 6 0.000000 0.000000 0.000000 -0.001263 0.000000 0.021673
#
#
# Mechanical properties :
#
#
# Convention : Reuss Voigt Hill
#
# Bulk Modulus (GPa) = 32.04808 45.55093 38.79950
# Shear Modulus (GPa) = 32.95303 38.89555 35.92429
#
# Velocity S-wave (km/s) = 3.76967 4.09549 3.93596
# Velocity P-wave (km/s) = 5.72429 6.48129 6.11452
#
# Compressibility (1/GPa) = 0.03120312
#
# Stress axis : x y z
#
# Youngs Moduli (GPa) = 42.15698 105.37698 76.70345
#
# Poissons Ratio (x) = 0.66270 -0.17580
# Poissons Ratio (y) = 0.26512 0.27041
# Poissons Ratio (z) = -0.09662 0.37150
#
# Static dielectric constant tensor:
#      x y z
#    x 1.934620 0.000000 -0.034370 
#    y 0.000000 1.839700 0.000000 
#    z -0.034370 0.000000 1.861650 
# 
# From -- ./inp_files/3959.got.cif
#   From: 2010.05.17/outbox.cif.g08.bks.cpg/sg4_2_cif.got.tgz:3959.got - 2010.06.03 18:43:04.
