data_PCOD9119946
_publ_section_title
;
Structure prediction by ZEFSAII (Michael W. Deem and Ramdas Pophale) SiO2 
 PCOD9119946
Probable space group: C 2
;
_chemical_formula_sum "Si O2"
_cell_formula_units_Z 26
_cell_length_a 6.782112
_cell_length_b 27.352581
_cell_length_c 5.801431
_cell_angle_alpha 90.000000
_cell_angle_beta 76.951914
_cell_angle_gamma 90.000000
_cell_volume 1048.426586
_symmetry_space_group_name_H-M "C 2"
_symmetry_group_IT_number 5
_symmetry_cell_setting 'monoclinic'
loop_
_space_group_symop_operation_xyz
x,y,z
-x,y,-z
1/2+x,1/2+y,z
1/2-x,1/2+y,-z
loop_
_atom_site_type_symbol
_atom_site_label
_atom_site_fract_x
_atom_site_fract_y
_atom_site_fract_z
Si Si1 0.231866 0.703790 0.683631
Si Si2 0.292100 0.059811 0.928982
Si Si3 0.240981 0.819703 0.674510
Si Si4 0.756579 0.668143 0.818943
Si Si5 0.772574 0.463865 0.168902
Si Si6 0.785305 0.855051 0.821551
Si Si7 0.500000 0.994755 0.500000
O O1 0.261733 0.761675 0.652082
O O2 0.312192 0.682363 0.420265
O O3 0.996401 0.684589 0.750797
O O4 0.312557 0.690505 0.917644
O O5 0.208921 0.110644 0.863676
O O6 0.371072 0.029473 0.694396
O O7 0.500000 0.074925 0.000000
O O8 0.188415 0.017183 0.114512
O O9 0.306524 0.844054 0.411136
O O10 0.000372 0.828797 0.750549
O O11 0.313778 0.837955 0.909500
O O12 0.670357 0.412781 0.151396
O O13 0.828526 0.464038 0.421059
O O14 0.000000 0.461254 0.000000
#
# Coordination Sequence:
#
# PCOD9119946 Si02
#       7
#     4   4   4   4   4   4   2
#     4  10  17  26  42  66  90 123 146 182 234 284
#     4   9  16  26  38  63  86 131 152 182 225 284
#     4  10  20  33  50  70  96 128 159 201 233 278
#     4  10  16  23  41  60  91 120 147 174 227 289
#     4   9  20  30  46  66  95 134 161 197 231 280
#     4  10  19  33  49  67  92 132 162 194 240 273
#     4   8  16  28  42  56  94 120 168 178 230 258
#
# _framework density 24.799066
#
# number of rings (size 3 to 8) (size 9 to 14) (size 15 to 20)
#    0.000    2.769    1.538    5.538    6.462    0.000 
#    0.000    0.000    0.000    0.000    0.000    0.000 
#    0.000    0.000   88.923    0.615    0.000    0.000 
#
# Total GULP energy -72437.074589 kJ/mol
# GULP energy per Si atom -5572.082661 kJ/mol
# Density = 2.474262 g / cm^3
# Si number density = 24.799066 Si / 1000 Ang^3
#
#
#
# Elastic Constant Matrix: (Units=GPa)
#
#
# Indices 1 2 3 4 5 6 
#
# 1 58.7808 4.1988 63.3569 0.0000 2.4741 0.0000
# 2 4.1988 228.9297 83.1352 0.0000 17.2964 0.0000
# 3 63.3569 83.1352 246.6624 0.0000 17.7595 0.0000
# 4 0.0000 0.0000 0.0000 58.4287 0.0000 2.9954
# 5 2.4741 17.2964 17.7595 0.0000 52.7188 0.0000
# 6 0.0000 0.0000 0.0000 2.9954 0.0000 -34.1585
#
#
#
# Elastic Compliance Matrix: (Units=1/GPa)
#
#
# Indices 1 2 3 4 5 6 
#
# 1 0.024380 0.002051 -0.006992 0.000000 0.000538 0.000000
# 2 0.002051 0.005212 -0.002207 0.000000 -0.001063 0.000000
# 3 -0.006992 -0.002207 0.006680 0.000000 -0.001198 0.000000
# 4 0.000000 0.000000 0.000000 0.017038 0.000000 0.001494
# 5 0.000538 -0.001063 -0.001198 0.000000 0.019696 0.000000
# 6 0.000000 0.000000 0.000000 0.001494 0.000000 -0.029144
#
#
# Mechanical properties :
#
#
# Convention : Reuss Voigt Hill
#
# Bulk Modulus (GPa) = 45.50340 92.86163 69.18252
# Shear Modulus (GPa) = 76.35489 40.97658 58.66573
#
# Velocity S-wave (km/s) = 5.55484 4.06931 4.86906
# Velocity P-wave (km/s) = 7.71559 7.72049 7.71804
#
# Compressibility (1/GPa) = 0.02197638
#
# Stress axis : x y z
#
# Youngs Moduli (GPa) = 41.01757 191.85171 149.69373
#
# Poissons Ratio (x) = -0.39357 1.04670
# Poissons Ratio (y) = -0.08414 0.33040
# Poissons Ratio (z) = 0.28681 0.42345
#
# Static dielectric constant tensor:
#      x y z
#    x 2.076880 0.000000 0.075920 
#    y 0.000000 1.902790 0.000000 
#    z 0.075920 0.000000 2.081830 
# 
# From -- ./inp_files/3629.got.cif
#   From: 2010.05.17/outbox.cif.g08.bks.cpg/sg5_2_cif.got.tgz:3629.got - 2010.06.03 18:56:24.
