data_PCOD9119686
_publ_section_title
;
Structure prediction by ZEFSAII (Michael W. Deem and Ramdas Pophale) SiO2 
 PCOD9119686
Probable space group: P 21
;
_chemical_formula_sum "Si O2"
_cell_formula_units_Z 16
_cell_length_a 9.118797
_cell_length_b 8.946146
_cell_length_c 11.368785
_cell_angle_alpha 90.000000
_cell_angle_beta 46.783535
_cell_angle_gamma 90.000000
_cell_volume 675.894931
_symmetry_space_group_name_H-M "P 21"
_symmetry_group_IT_number 4
_symmetry_cell_setting 'monoclinic'
loop_
_space_group_symop_operation_xyz
x,y,z
-x,1/2+y,-z
loop_
_atom_site_type_symbol
_atom_site_label
_atom_site_fract_x
_atom_site_fract_y
_atom_site_fract_z
Si Si1 0.208068 0.525210 0.375430
Si Si2 0.311642 0.457300 0.054488
Si Si3 0.742693 0.416156 0.910733
Si Si4 0.937438 0.734961 0.419225
Si Si5 0.289787 0.696438 0.874544
Si Si6 0.117525 0.192090 0.026928
Si Si7 0.586994 0.534519 0.537102
Si Si8 0.474492 0.195378 0.661910
O O1 0.222443 0.482055 0.231633
O O2 0.181931 0.379602 0.468921
O O3 0.397021 0.626124 0.303896
O O4 0.021293 0.640499 0.484038
O O5 0.554231 0.471357 0.936037
O O6 0.228814 0.569430 0.001441
O O7 0.240012 0.299655 0.045771
O O8 0.882069 0.306886 0.756767
O O9 0.645581 0.329634 0.075583
O O10 0.880030 0.537864 0.901698
O O11 0.804143 0.613893 0.423163
O O12 0.463839 0.624568 0.702772
O O13 0.106236 0.737139 0.889111
O O14 0.247704 0.196202 0.835131
O O15 0.556414 0.359176 0.580403
O O16 0.501459 0.580598 0.458096
#
# Coordination Sequence:
#
# PCOD9119686 Si02
#       8
#     2   2   2   2   2   2   2   2
#     4  12  27  49  75 115 152 208 263 327 405 473
#     4  12  25  51  77 112 150 206 261 331 394 472
#     4  12  26  48  77 110 154 201 264 329 394 470
#     4  12  28  47  75 114 156 207 261 325 400 479
#     4  12  27  47  77 113 151 205 262 324 399 470
#     4  12  27  47  79 111 155 200 268 327 391 470
#     4  12  29  49  79 108 165 208 262 327 397 480
#     4  12  27  52  75 115 157 209 263 328 398 474
#
# _framework density 23.672319000000002
#
# number of rings (size 3 to 8) (size 9 to 14) (size 15 to 20)
#    0.000    0.000    3.750    5.250    8.750    1.000 
#    0.000    0.000    0.000    0.000    0.000    0.000 
#    0.000    0.000    0.000    0.000    0.000    0.000 
#
# Total GULP energy -89545.185972 kJ/mol
# GULP energy per Si atom -5596.574123 kJ/mol
# Density = 2.361844 g / cm^3
# Si number density = 23.672319 Si / 1000 Ang^3
#
#
#
# Elastic Constant Matrix: (Units=GPa)
#
#
# Indices 1 2 3 4 5 6 
#
# 1 80.5357 17.7863 15.9805 0.0000 -0.5224 0.0000
# 2 17.7863 72.9546 17.8668 0.0000 3.0183 0.0000
# 3 15.9805 17.8668 74.8795 0.0000 10.6724 0.0000
# 4 0.0000 0.0000 0.0000 37.7346 0.0000 4.1574
# 5 -0.5224 3.0183 10.6724 0.0000 34.8283 0.0000
# 6 0.0000 0.0000 0.0000 4.1574 0.0000 41.7104
#
#
#
# Elastic Compliance Matrix: (Units=1/GPa)
#
#
# Indices 1 2 3 4 5 6 
#
# 1 0.013508 -0.002756 -0.002393 0.000000 0.001175 0.000000
# 2 -0.002756 0.015121 -0.002956 0.000000 -0.000446 0.000000
# 3 -0.002393 -0.002956 0.015203 0.000000 -0.004438 0.000000
# 4 0.000000 0.000000 0.000000 0.026795 0.000000 -0.002671
# 5 0.001175 -0.000446 -0.004438 0.000000 0.030129 0.000000
# 6 0.000000 0.000000 0.000000 -0.002671 0.000000 0.024241
#
#
# Mechanical properties :
#
#
# Convention : Reuss Voigt Hill
#
# Bulk Modulus (GPa) = 36.20170 36.84855 36.52513
# Shear Modulus (GPa) = 33.24136 34.63707 33.93922
#
# Velocity S-wave (km/s) = 3.75137 3.82931 3.79054
# Velocity P-wave (km/s) = 5.83864 5.92886 5.88393
#
# Compressibility (1/GPa) = 0.02762301
#
# Stress axis : x y z
#
# Youngs Moduli (GPa) = 74.03098 66.13102 65.77458
#
# Poissons Ratio (x) = 0.18225 0.15738
# Poissons Ratio (y) = 0.20402 0.19446
# Poissons Ratio (z) = 0.17713 0.19551
#
# Static dielectric constant tensor:
#      x y z
#    x 1.898870 0.000000 -0.043420 
#    y 0.000000 1.914570 0.000000 
#    z -0.043420 0.000000 1.899200 
# 
# From -- ./inp_files/5604.got.cif
#   From: 2010.05.17/outbox.cif.g08.bks.cpg/sg4_3_cif.got.tgz:5604.got - 2010.06.03 18:43:04.
