data_PCOD9119767
_publ_section_title
;
Structure prediction by ZEFSAII (Michael W. Deem and Ramdas Pophale) SiO2 
 PCOD9119767
Probable space group: P 21
;
_chemical_formula_sum "Si O2"
_cell_formula_units_Z 12
_cell_length_a 11.701209
_cell_length_b 8.227416
_cell_length_c 11.740923
_cell_angle_alpha 90.000000
_cell_angle_beta 27.665453
_cell_angle_gamma 90.000000
_cell_volume 524.810721
_symmetry_space_group_name_H-M "P 21"
_symmetry_group_IT_number 4
_symmetry_cell_setting 'monoclinic'
loop_
_space_group_symop_operation_xyz
x,y,z
-x,1/2+y,-z
loop_
_atom_site_type_symbol
_atom_site_label
_atom_site_fract_x
_atom_site_fract_y
_atom_site_fract_z
Si Si1 0.204481 0.521330 0.204719
Si Si2 0.778339 0.219112 0.278737
Si Si3 0.080225 0.630675 0.080262
Si Si4 0.278929 0.218308 0.781068
Si Si5 0.756157 0.652922 0.752773
Si Si6 0.885391 0.500766 0.881585
O O1 0.133580 0.508612 0.134590
O O2 0.232933 0.344555 0.234572
O O3 0.972773 0.606536 0.472586
O O4 0.474037 0.605607 0.972034
O O5 0.535567 0.302068 0.536410
O O6 0.860921 0.080644 0.295323
O O7 0.741380 0.140407 0.187089
O O8 0.032420 0.317445 0.032971
O O9 0.814210 0.637502 0.253913
O O10 0.109711 0.808581 0.113496
O O11 0.296710 0.081987 0.863721
O O12 0.821912 0.562193 0.812879
#
# Coordination Sequence:
#
# PCOD9119767 Si02
#       6
#     2   2   2   2   2   2
#     4  12  27  47  70 100 135 180 229 282 339 405
#     4   8  20  36  58  92 130 170 204 258 330 394
#     4   9  21  39  66  96 129 171 219 274 329 391
#     4   8  20  36  58  92 130 170 204 258 330 394
#     4  12  27  47  70 100 135 180 229 282 339 405
#     4   9  21  39  66  96 129 171 219 274 329 391
#
# _framework density 22.865383999999999
#
# number of rings (size 3 to 8) (size 9 to 14) (size 15 to 20)
#    2.000    0.000    0.000    3.000    4.667    6.667 
#    0.000    0.000    0.000    0.000    0.000    0.000 
#    0.000    0.000    0.000    0.000    0.000    0.000 
#
# Total GULP energy -66859.577763 kJ/mol
# GULP energy per Si atom -5571.631480 kJ/mol
# Density = 2.281334 g / cm^3
# Si number density = 22.865384 Si / 1000 Ang^3
#
#
#
# Elastic Constant Matrix: (Units=GPa)
#
#
# Indices 1 2 3 4 5 6 
#
# 1 137.6975 11.8772 68.8773 0.0000 23.6034 0.0000
# 2 11.8772 64.7573 36.4008 0.0000 -7.5956 0.0000
# 3 68.8773 36.4008 203.5829 0.0000 -31.8240 0.0000
# 4 0.0000 0.0000 0.0000 20.2644 0.0000 1.6105
# 5 23.6034 -7.5956 -31.8240 0.0000 14.1612 0.0000
# 6 0.0000 0.0000 0.0000 1.6105 0.0000 22.7041
#
#
#
# Elastic Compliance Matrix: (Units=1/GPa)
#
#
# Indices 1 2 3 4 5 6 
#
# 1 -0.066791 0.007725 0.060529 0.000000 0.251494 0.000000
# 2 0.007725 0.016392 -0.009531 0.000000 -0.025501 0.000000
# 3 0.060529 -0.009531 -0.046912 0.000000 -0.211424 0.000000
# 4 0.000000 0.000000 0.000000 0.049627 0.000000 -0.003520
# 5 0.251494 -0.025501 -0.211424 0.000000 -0.837372 0.000000
# 6 0.000000 0.000000 0.000000 -0.003520 0.000000 0.044295
#
#
# Mechanical properties :
#
#
# Convention : Reuss Voigt Hill
#
# Bulk Modulus (GPa) = 49.66464 71.14980 60.40722
# Shear Modulus (GPa) = -5.25488 30.68475 12.71493
#
# Velocity S-wave (km/s) = -1.51762 3.66727 2.36069
# Velocity P-wave (km/s) = 4.32397 7.00829 5.82292
#
# Compressibility (1/GPa) = 0.02013505
#
# Stress axis : x y z
#
# Youngs Moduli (GPa) = -14.97211 61.00678 -21.31640
#
# Poissons Ratio (x) = -0.47126 1.29026
# Poissons Ratio (y) = 0.11565 -0.20316
# Poissons Ratio (z) = 0.90625 0.58143
#
# Static dielectric constant tensor:
#      x y z
#    x 1.811310 0.000000 -0.022610 
#    y 0.000000 1.869060 0.000000 
#    z -0.022610 0.000000 1.882800 
# 
# From -- ./inp_files/2489.got.cif
#   From: 2010.05.17/outbox.cif.g08.bks.cpg/sg4_2_cif.got.tgz:2489.got - 2010.06.03 18:43:04.
