data_PCOD9119157
_publ_section_title
;
Structure prediction by ZEFSAII (Michael W. Deem and Ramdas Pophale) SiO2 
 PCOD9119157
Probable space group: P 21
;
_chemical_formula_sum "Si O2"
_cell_formula_units_Z 14
_cell_length_a 8.629047
_cell_length_b 8.090139
_cell_length_c 11.271579
_cell_angle_alpha 90.000000
_cell_angle_beta 42.007259
_cell_angle_gamma 90.000000
_cell_volume 526.593596
_symmetry_space_group_name_H-M "P 21"
_symmetry_group_IT_number 4
_symmetry_cell_setting 'monoclinic'
loop_
_space_group_symop_operation_xyz
x,y,z
-x,1/2+y,-z
loop_
_atom_site_type_symbol
_atom_site_label
_atom_site_fract_x
_atom_site_fract_y
_atom_site_fract_z
Si Si1 0.179155 0.419160 0.127348
Si Si2 0.337140 0.958472 0.799367
Si Si3 0.876069 0.102768 0.078687
Si Si4 0.028578 0.897585 0.329387
Si Si5 0.443288 0.079193 0.964331
Si Si6 0.189268 0.757819 0.493781
Si Si7 0.390727 0.379815 0.589310
O O1 0.342715 0.260614 0.030618
O O2 0.967645 0.373745 0.331402
O O3 0.124065 0.471905 0.026895
O O4 0.327941 0.570809 0.088667
O O5 0.228728 0.779442 0.889177
O O6 0.435344 0.942604 0.611967
O O7 0.522978 0.002861 0.793554
O O8 0.150736 0.099904 0.939717
O O9 0.733350 0.028305 0.269154
O O10 0.906579 0.073169 0.431707
O O11 0.244178 0.958407 0.128018
O O12 0.828382 0.804157 0.362997
O O13 0.128618 0.814521 0.393261
O O14 0.448469 0.787169 0.402930
#
# Coordination Sequence:
#
# PCOD9119157 Si02
#       7
#     2   2   2   2   2   2   2
#     4  11  24  46  71 105 148 194 251 311 378 451
#     4  12  26  46  73 107 145 194 248 307 375 446
#     4  12  26  46  73 107 145 194 248 307 375 446
#     4  11  26  47  72 108 150 196 252 312 377 451
#     4  11  24  46  71 105 148 194 251 311 378 451
#     4  11  26  47  72 108 150 196 252 312 377 451
#     4  12  26  48  76 108 152 200 252 308 378 456
#
# _framework density 26.585968000000001
#
# number of rings (size 3 to 8) (size 9 to 14) (size 15 to 20)
#    0.000    0.571    2.857    4.286    0.000   13.714 
#    0.000    0.000    0.000    0.000    0.000    0.000 
#    0.000    0.000    0.000    0.000    0.000    0.000 
#
# Total GULP energy -78403.437423 kJ/mol
# GULP energy per Si atom -5600.245530 kJ/mol
# Density = 2.652546 g / cm^3
# Si number density = 26.585968 Si / 1000 Ang^3
#
#
#
# Elastic Constant Matrix: (Units=GPa)
#
#
# Indices 1 2 3 4 5 6 
#
# 1 164.9045 44.0853 25.9341 0.0000 6.7457 0.0000
# 2 44.0853 85.8336 26.2364 0.0000 2.6200 0.0000
# 3 25.9341 26.2364 160.5741 0.0000 9.4389 0.0000
# 4 0.0000 0.0000 0.0000 32.0561 0.0000 -3.9705
# 5 6.7457 2.6200 9.4389 0.0000 49.2134 0.0000
# 6 0.0000 0.0000 0.0000 -3.9705 0.0000 46.6766
#
#
#
# Elastic Compliance Matrix: (Units=1/GPa)
#
#
# Indices 1 2 3 4 5 6 
#
# 1 0.007103 -0.003462 -0.000541 0.000000 -0.000685 0.000000
# 2 -0.003462 0.013954 -0.001724 0.000000 0.000062 0.000000
# 3 -0.000541 -0.001724 0.006662 0.000000 -0.001112 0.000000
# 4 0.000000 0.000000 0.000000 0.031527 0.000000 0.002682
# 5 -0.000685 0.000062 -0.001112 0.000000 0.020624 0.000000
# 6 0.000000 0.000000 0.000000 0.002682 0.000000 0.021652
#
#
# Mechanical properties :
#
#
# Convention : Reuss Voigt Hill
#
# Bulk Modulus (GPa) = 61.48658 67.09154 64.28906
# Shear Modulus (GPa) = 42.23054 46.59300 44.41177
#
# Velocity S-wave (km/s) = 3.98986 4.19088 4.09160
# Velocity P-wave (km/s) = 6.66356 6.97914 6.82317
#
# Compressibility (1/GPa) = 0.01626371
#
# Stress axis : x y z
#
# Youngs Moduli (GPa) = 140.79110 71.66588 150.10090
#
# Poissons Ratio (x) = 0.24809 0.08124
# Poissons Ratio (y) = 0.48738 0.25885
# Poissons Ratio (z) = 0.07620 0.12359
#
# Static dielectric constant tensor:
#      x y z
#    x 2.349950 0.000000 -0.046970 
#    y 0.000000 2.045610 0.000000 
#    z -0.046970 0.000000 2.038700 
# 
# From -- ./inp_files/7610.got.cif
#   From: 2010.05.17/outbox.cif.g08.bks.cpg/sg4_4_cif.got.tgz:7610.got - 2010.06.03 18:43:04.
