data_PCOD9119682
_publ_section_title
;
Structure prediction by ZEFSAII (Michael W. Deem and Ramdas Pophale) SiO2 
 PCOD9119682
Probable space group: P 21
;
_chemical_formula_sum "Si O2"
_cell_formula_units_Z 12
_cell_length_a 4.923934
_cell_length_b 11.074669
_cell_length_c 8.831313
_cell_angle_alpha 90.000000
_cell_angle_beta 103.753706
_cell_angle_gamma 90.000000
_cell_volume 467.771308
_symmetry_space_group_name_H-M "P 21"
_symmetry_group_IT_number 4
_symmetry_cell_setting 'monoclinic'
loop_
_space_group_symop_operation_xyz
x,y,z
-x,1/2+y,-z
loop_
_atom_site_type_symbol
_atom_site_label
_atom_site_fract_x
_atom_site_fract_y
_atom_site_fract_z
Si Si1 0.566332 0.159860 0.546343
Si Si2 0.826133 0.179519 0.912341
Si Si3 0.795691 0.855044 0.653616
Si Si4 0.608786 0.329046 0.116353
Si Si5 0.998556 0.540352 0.562030
Si Si6 0.868051 0.942710 0.088922
O O1 0.688538 0.160126 0.730569
O O2 0.366164 0.273126 0.489346
O O3 0.809009 0.157054 0.451286
O O4 0.333105 0.056477 0.490393
O O5 0.995893 0.308038 0.918621
O O6 0.598699 0.208146 0.013440
O O7 0.960132 0.053352 0.989180
O O8 0.577136 0.854772 0.761748
O O9 0.077522 0.823437 0.781181
O O10 0.898170 0.965722 0.567923
O O11 0.463643 0.423983 0.982528
O O12 0.070637 0.484271 0.732545
#
# Coordination Sequence:
#
# PCOD9119682 Si02
#       6
#     2   2   2   2   2   2
#     4  12  29  49  82 120 166 221 283 349 423 504
#     4  12  29  54  87 127 174 225 289 353 433 509
#     4  12  25  50  75 120 158 216 278 344 417 502
#     4  12  27  50  83 114 168 214 278 346 423 500
#     4  12  29  49  82 120 166 221 283 349 423 504
#     4  12  29  54  87 127 174 225 289 353 433 509
#
# _framework density 25.653559000000001
#
# number of rings (size 3 to 8) (size 9 to 14) (size 15 to 20)
#    0.000    0.000    1.667    7.000   11.667    1.333 
#    0.000    0.000    0.000    0.000    0.000    0.000 
#    0.000    0.000    0.000    0.000    0.000    0.000 
#
# Total GULP energy -66993.060021 kJ/mol
# GULP energy per Si atom -5582.755002 kJ/mol
# Density = 2.559517 g / cm^3
# Si number density = 25.653559 Si / 1000 Ang^3
#
#
#
# Elastic Constant Matrix: (Units=GPa)
#
#
# Indices 1 2 3 4 5 6 
#
# 1 86.6185 14.9493 23.9374 0.0000 19.6180 0.0000
# 2 14.9493 117.8054 51.6409 0.0000 16.0167 0.0000
# 3 23.9374 51.6409 188.4392 0.0000 25.8890 0.0000
# 4 0.0000 0.0000 0.0000 57.4642 0.0000 -4.2984
# 5 19.6180 16.0167 25.8890 0.0000 23.1354 0.0000
# 6 0.0000 0.0000 0.0000 -4.2984 0.0000 46.2332
#
#
#
# Elastic Compliance Matrix: (Units=1/GPa)
#
#
# Indices 1 2 3 4 5 6 
#
# 1 0.014296 -0.000136 -0.000149 0.000000 -0.011861 0.000000
# 2 -0.000136 0.010043 -0.002122 0.000000 -0.004463 0.000000
# 3 -0.000149 -0.002122 0.006721 0.000000 -0.005926 0.000000
# 4 0.000000 0.000000 0.000000 0.017524 0.000000 0.001629
# 5 -0.011861 -0.004463 -0.005926 0.000000 0.063003 0.000000
# 6 0.000000 0.000000 0.000000 0.001629 0.000000 0.021781
#
#
# Mechanical properties :
#
#
# Convention : Reuss Voigt Hill
#
# Bulk Modulus (GPa) = 38.10092 63.76869 50.93481
# Shear Modulus (GPa) = 34.02977 45.52227 39.77602
#
# Velocity S-wave (km/s) = 3.64608 4.21705 3.94192
# Velocity P-wave (km/s) = 5.71048 6.97302 6.37309
#
# Compressibility (1/GPa) = 0.02624608
#
# Stress axis : x y z
#
# Youngs Moduli (GPa) = 69.94948 99.57493 148.78109
#
# Poissons Ratio (x) = 0.01355 0.02219
# Poissons Ratio (y) = 0.00952 0.31567
# Poissons Ratio (z) = 0.01043 0.21127
#
# Static dielectric constant tensor:
#      x y z
#    x 2.123550 0.000000 0.017900 
#    y 0.000000 2.319240 0.000000 
#    z 0.017900 0.000000 1.929540 
# 
# From -- ./inp_files/4572.got.cif
#   From: 2010.05.17/outbox.cif.g08.bks.cpg/sg4_3_cif.got.tgz:4572.got - 2010.06.03 18:43:04.
