data_PCOD9119916
_publ_section_title
;
Structure prediction by ZEFSAII (Michael W. Deem and Ramdas Pophale) SiO2 
 PCOD9119916
Probable space group: C 2
;
_chemical_formula_sum "Si O2"
_cell_formula_units_Z 22
_cell_length_a 19.266112
_cell_length_b 6.983208
_cell_length_c 7.618543
_cell_angle_alpha 90.000000
_cell_angle_beta 79.382505
_cell_angle_gamma 90.000000
_cell_volume 1007.444424
_symmetry_space_group_name_H-M "C 2"
_symmetry_group_IT_number 5
_symmetry_cell_setting 'monoclinic'
loop_
_space_group_symop_operation_xyz
x,y,z
-x,y,-z
1/2+x,1/2+y,z
1/2-x,1/2+y,-z
loop_
_atom_site_type_symbol
_atom_site_label
_atom_site_fract_x
_atom_site_fract_y
_atom_site_fract_z
Si Si1 0.316278 0.762260 0.087260
Si Si2 0.675503 0.059843 0.229411
Si Si3 0.475554 0.052694 0.819073
Si Si4 0.500000 0.593538 0.500000
Si Si5 0.106259 0.406750 0.600492
Si Si6 0.444779 0.590815 0.878303
O O1 0.359772 0.858364 0.227247
O O2 0.365710 0.589551 0.990253
O O3 0.306228 0.901303 0.926443
O O4 0.240979 0.701161 0.196026
O O5 0.599014 0.136855 0.204049
O O6 0.661345 0.974309 0.428913
O O7 0.543549 0.060305 0.662094
O O8 0.458477 0.821256 0.839028
O O9 0.500000 0.111893 0.000000
O O10 0.565006 0.723209 0.541747
O O11 0.467327 0.494833 0.685717
O O12 0.500000 0.533530 0.000000
#
# Coordination Sequence:
#
# PCOD9119916 Si02
#       6
#     4   4   4   2   4   4
#     4  11  22  35  53  89 120 144 181 235 292 331
#     4  11  22  35  57  86 119 146 180 240 286 328
#     4   9  14  31  57  83  98 139 202 237 251 317
#     4  10  14  26  56  82  98 130 200 242 250 294
#     4  11  17  32  56  84 106 144 195 234 265 324
#     4   9  14  27  50  77 103 132 184 230 261 309
#
# _framework density 21.837433000000001
#
# number of rings (size 3 to 8) (size 9 to 14) (size 15 to 20)
#    0.000    1.818   12.727    0.000    0.000    1.455 
#    0.000    0.000    0.000    1.091    4.727    0.000 
#    0.000    0.000    0.000    0.000    0.000    0.000 
#
# Total GULP energy -61375.733239 kJ/mol
# GULP energy per Si atom -5579.612113 kJ/mol
# Density = 2.178773 g / cm^3
# Si number density = 21.837433 Si / 1000 Ang^3
#
#
#
# Elastic Constant Matrix: (Units=GPa)
#
#
# Indices 1 2 3 4 5 6 
#
# 1 125.2973 22.5936 59.6516 0.0000 -25.5913 0.0000
# 2 22.5936 45.0979 16.4539 0.0000 -18.3007 0.0000
# 3 59.6516 16.4539 183.4347 0.0000 -19.7661 0.0000
# 4 0.0000 0.0000 0.0000 4.2133 0.0000 -21.7837
# 5 -25.5913 -18.3007 -19.7661 0.0000 40.6945 0.0000
# 6 0.0000 0.0000 0.0000 -21.7837 0.0000 17.1031
#
#
#
# Elastic Compliance Matrix: (Units=1/GPa)
#
#
# Indices 1 2 3 4 5 6 
#
# 1 0.010622 -0.002625 -0.002771 0.000000 0.004153 0.000000
# 2 -0.002625 0.028017 -0.000506 0.000000 0.010703 0.000000
# 3 -0.002771 -0.000506 0.006527 0.000000 0.001200 0.000000
# 4 0.000000 0.000000 0.000000 -0.042496 0.000000 -0.054125
# 5 0.004153 0.010703 0.001200 0.000000 0.032581 0.000000
# 6 0.000000 0.000000 0.000000 -0.054125 0.000000 -0.010469
#
#
# Mechanical properties :
#
#
# Convention : Reuss Voigt Hill
#
# Bulk Modulus (GPa) = 29.97466 61.24759 45.61113
# Shear Modulus (GPa) = 104.80278 29.41090 67.10684
#
# Velocity S-wave (km/s) = 6.93516 3.67387 5.54950
# Velocity P-wave (km/s) = 8.82523 6.79002 7.87366
#
# Compressibility (1/GPa) = 0.03336151
#
# Stress axis : x y z
#
# Youngs Moduli (GPa) = 94.14475 35.69267 153.19980
#
# Poissons Ratio (x) = 0.09370 0.42454
# Poissons Ratio (y) = 0.24714 0.07754
# Poissons Ratio (z) = 0.26089 0.01807
#
# Static dielectric constant tensor:
#      x y z
#    x 1.786460 0.000000 -0.026840 
#    y 0.000000 1.901390 0.000000 
#    z -0.026840 0.000000 1.827360 
# 
# From -- ./inp_files/28457.got.cif
#   From: 2010.05.17/outbox.cif.g08.bks.cpg/sg5_15_cif.got.tgz:28457.got - 2010.06.03 18:56:24.
