data_PCOD9119271
_publ_section_title
;
Structure prediction by ZEFSAII (Michael W. Deem and Ramdas Pophale) SiO2 
 PCOD9119271
Probable space group: P 21
;
_chemical_formula_sum "Si O2"
_cell_formula_units_Z 16
_cell_length_a 8.332813
_cell_length_b 16.215186
_cell_length_c 5.537681
_cell_angle_alpha 90.000000
_cell_angle_beta 62.240100
_cell_angle_gamma 90.000000
_cell_volume 662.123832
_symmetry_space_group_name_H-M "P 21"
_symmetry_group_IT_number 4
_symmetry_cell_setting 'monoclinic'
loop_
_space_group_symop_operation_xyz
x,y,z
-x,1/2+y,-z
loop_
_atom_site_type_symbol
_atom_site_label
_atom_site_fract_x
_atom_site_fract_y
_atom_site_fract_z
Si Si1 0.951520 0.429690 0.084362
Si Si2 0.278383 0.559689 0.323979
Si Si3 0.123159 0.052829 0.233557
Si Si4 0.887343 0.277305 0.827259
Si Si5 0.752032 0.710297 0.641195
Si Si6 0.325779 0.899868 0.345558
Si Si7 0.304475 0.392104 0.130284
Si Si8 0.374370 0.651143 0.753061
O O1 0.108809 0.414426 0.163182
O O2 0.757305 0.410704 0.334489
O O3 0.943783 0.519791 0.977092
O O4 0.980886 0.359380 0.865975
O O5 0.344198 0.464956 0.291375
O O6 0.335357 0.607580 0.526002
O O7 0.060045 0.559515 0.483792
O O8 0.344907 0.597122 0.020679
O O9 0.219830 0.140509 0.174054
O O10 0.249085 0.979857 0.252893
O O11 0.756670 0.316096 0.713516
O O12 0.053010 0.222073 0.620334
O O13 0.763962 0.227120 0.102026
O O14 0.699357 0.799967 0.773109
O O15 0.583383 0.679346 0.602674
O O16 0.539782 0.897903 0.178616
#
# Coordination Sequence:
#
# PCOD9119271 Si02
#       8
#     2   2   2   2   2   2   2   2
#     4  11  25  48  81 113 158 217 268 338 415 485
#     4  12  27  54  80 116 163 215 265 339 404 493
#     4  11  25  49  77 110 160 210 270 332 413 474
#     4  11  25  48  77 115 157 213 261 346 398 495
#     4  12  26  51  78 120 156 212 273 339 404 490
#     4  11  24  51  76 113 161 206 272 325 417 483
#     4  12  25  51  82 114 159 210 274 331 415 489
#     4  12  29  52  81 117 164 205 275 332 408 477
#
# _framework density 24.164662
#
# number of rings (size 3 to 8) (size 9 to 14) (size 15 to 20)
#    0.000    0.500    5.000    2.250    3.500    2.000 
#   22.500    0.000    0.000    0.000    0.000    0.000 
#    0.000    0.000    0.000    0.000    0.000    0.000 
#
# Total GULP energy -89581.165717 kJ/mol
# GULP energy per Si atom -5598.822857 kJ/mol
# Density = 2.410966 g / cm^3
# Si number density = 24.164662 Si / 1000 Ang^3
#
#
#
# Elastic Constant Matrix: (Units=GPa)
#
#
# Indices 1 2 3 4 5 6 
#
# 1 38.7254 48.6396 5.3523 0.0000 -7.2043 0.0000
# 2 48.6396 138.1443 33.0596 0.0000 6.1856 0.0000
# 3 5.3523 33.0596 68.8443 0.0000 -6.9650 0.0000
# 4 0.0000 0.0000 0.0000 28.6852 0.0000 4.0271
# 5 -7.2043 6.1856 -6.9650 0.0000 45.2831 0.0000
# 6 0.0000 0.0000 0.0000 4.0271 0.0000 27.2790
#
#
#
# Elastic Compliance Matrix: (Units=1/GPa)
#
#
# Indices 1 2 3 4 5 6 
#
# 1 0.053901 -0.021292 0.007310 0.000000 0.012608 0.000000
# 2 -0.021292 0.016728 -0.007061 0.000000 -0.006759 0.000000
# 3 0.007310 -0.007061 0.017841 0.000000 0.004872 0.000000
# 4 0.000000 0.000000 0.000000 0.035599 0.000000 -0.005255
# 5 0.012608 -0.006759 0.004872 0.000000 0.025762 0.000000
# 6 0.000000 0.000000 0.000000 -0.005255 0.000000 0.037434
#
#
# Mechanical properties :
#
#
# Convention : Reuss Voigt Hill
#
# Bulk Modulus (GPa) = 21.55973 46.64636 34.10305
# Shear Modulus (GPa) = 20.42368 30.82696 25.62532
#
# Velocity S-wave (km/s) = 2.91037 3.57557 3.25998
# Velocity P-wave (km/s) = 4.49833 6.03256 5.32103
#
# Compressibility (1/GPa) = 0.04638276
#
# Stress axis : x y z
#
# Youngs Moduli (GPa) = 18.55244 59.77962 56.05055
#
# Poissons Ratio (x) = 1.27283 -0.40971
# Poissons Ratio (y) = 0.39502 0.39579
# Poissons Ratio (z) = -0.13561 0.42213
#
# Static dielectric constant tensor:
#      x y z
#    x 1.904130 0.000000 0.032550 
#    y 0.000000 1.943750 0.000000 
#    z 0.032550 0.000000 1.943580 
# 
# From -- ./inp_files/1843.got.cif
#   From: 2010.05.17/outbox.cif.g08.bks.cpg/sg4_1_cif.got.tgz:1843.got - 2010.06.03 18:43:04.
