data_PCOD9119210
_publ_section_title
;
Structure prediction by ZEFSAII (Michael W. Deem and Ramdas Pophale) SiO2 
 PCOD9119210
Probable space group: P 21
;
_chemical_formula_sum "Si O2"
_cell_formula_units_Z 16
_cell_length_a 8.540280
_cell_length_b 8.635486
_cell_length_c 17.312757
_cell_angle_alpha 90.000000
_cell_angle_beta 33.448619
_cell_angle_gamma 90.000000
_cell_volume 703.761718
_symmetry_space_group_name_H-M "P 21"
_symmetry_group_IT_number 4
_symmetry_cell_setting 'monoclinic'
loop_
_space_group_symop_operation_xyz
x,y,z
-x,1/2+y,-z
loop_
_atom_site_type_symbol
_atom_site_label
_atom_site_fract_x
_atom_site_fract_y
_atom_site_fract_z
Si Si1 0.720062 0.857120 0.348788
Si Si2 0.825905 0.527030 0.362001
Si Si3 0.205245 0.616493 0.356146
Si Si4 0.254512 0.267122 0.351075
Si Si5 0.691733 0.800506 0.852882
Si Si6 0.279780 0.299850 0.934176
Si Si7 0.791751 0.052237 0.162812
Si Si8 0.683811 0.455241 0.891747
O O1 0.727918 0.671685 0.350578
O O2 0.015974 0.906257 0.266667
O O3 0.443738 0.925016 0.503268
O O4 0.752900 0.942852 0.253381
O O5 0.987501 0.586703 0.373511
O O6 0.057988 0.417159 0.226476
O O7 0.293707 0.448689 0.352651
O O8 0.477785 0.705775 0.212120
O O9 0.036934 0.712136 0.489958
O O10 0.253511 0.262068 0.258769
O O11 0.502415 0.152008 0.275095
O O12 0.678057 0.637505 0.899953
O O13 0.393201 0.883430 0.993246
O O14 0.164240 0.435748 0.926688
O O15 0.442744 0.386483 0.936077
O O16 0.039950 0.179961 0.059709
#
# Coordination Sequence:
#
# PCOD9119210 Si02
#       8
#     2   2   2   2   2   2   2   2
#     4  12  26  46  74 108 159 195 257 312 375 454
#     4  11  25  48  73 112 150 202 254 314 377 455
#     4  11  24  47  76 110 151 199 254 310 384 454
#     4  11  24  47  76 111 152 195 253 315 379 448
#     4  11  26  45  78 110 145 202 251 309 385 448
#     4  12  27  48  75 113 152 203 251 316 381 451
#     4  12  27  48  76 117 150 199 255 321 380 448
#     4  12  25  47  76 107 155 197 251 307 383 456
#
# _framework density 22.734967000000001
#
# number of rings (size 3 to 8) (size 9 to 14) (size 15 to 20)
#    0.000    0.500    3.750    3.750    8.750    1.000 
#    2.250    0.000    0.000    0.000    0.000    0.000 
#    0.000    0.000    0.000    0.000    0.000    0.000 
#
# Total GULP energy -89569.151265 kJ/mol
# GULP energy per Si atom -5598.071954 kJ/mol
# Density = 2.268322 g / cm^3
# Si number density = 22.734967 Si / 1000 Ang^3
#
#
#
# Elastic Constant Matrix: (Units=GPa)
#
#
# Indices 1 2 3 4 5 6 
#
# 1 75.3323 47.9296 49.3070 0.0000 6.8244 0.0000
# 2 47.9296 172.6408 59.6416 0.0000 0.8269 0.0000
# 3 49.3070 59.6416 184.1743 0.0000 8.9881 0.0000
# 4 0.0000 0.0000 0.0000 57.4071 0.0000 -14.4346
# 5 6.8244 0.8269 8.9881 0.0000 35.1104 0.0000
# 6 0.0000 0.0000 0.0000 -14.4346 0.0000 21.6730
#
#
#
# Elastic Compliance Matrix: (Units=1/GPa)
#
#
# Indices 1 2 3 4 5 6 
#
# 1 0.018252 -0.003839 -0.003518 0.000000 -0.002557 0.000000
# 2 -0.003839 0.007335 -0.001393 0.000000 0.000930 0.000000
# 3 -0.003518 -0.001393 0.006873 0.000000 -0.001043 0.000000
# 4 0.000000 0.000000 0.000000 0.020923 0.000000 0.013935
# 5 -0.002557 0.000930 -0.001043 0.000000 0.029224 0.000000
# 6 0.000000 0.000000 0.000000 0.013935 0.000000 0.055422
#
#
# Mechanical properties :
#
#
# Convention : Reuss Voigt Hill
#
# Bulk Modulus (GPa) = 66.84849 82.87819 74.86334
# Shear Modulus (GPa) = 31.14951 41.18939 36.16945
#
# Velocity S-wave (km/s) = 3.70552 4.26105 3.99296
# Velocity P-wave (km/s) = 6.91195 7.79371 7.36604
#
# Compressibility (1/GPa) = 0.01495920
#
# Stress axis : x y z
#
# Youngs Moduli (GPa) = 54.78929 136.33217 145.48696
#
# Poissons Ratio (x) = 0.52345 0.51186
# Poissons Ratio (y) = 0.21036 0.20263
# Poissons Ratio (z) = 0.19276 0.18988
#
# Static dielectric constant tensor:
#      x y z
#    x 1.914840 0.000000 0.012550 
#    y 0.000000 1.834170 0.000000 
#    z 0.012550 0.000000 1.808430 
# 
# From -- ./inp_files/14965.got.cif
#   From: 2010.05.17/outbox.cif.g08.bks.cpg/sg4_8_cif.got.tgz:14965.got - 2010.06.03 18:43:04.
