data_PCOD9120120
_publ_section_title
;
Structure prediction by ZEFSAII (Michael W. Deem and Ramdas Pophale) SiO2 
 PCOD9120120
Probable space group: C 2
;
_chemical_formula_sum "Si O2"
_cell_formula_units_Z 28
_cell_length_a 8.617106
_cell_length_b 15.336457
_cell_length_c 15.251744
_cell_angle_alpha 90.000000
_cell_angle_beta 140.289030
_cell_angle_gamma 90.000000
_cell_volume 1287.802155
_symmetry_space_group_name_H-M "C 2"
_symmetry_group_IT_number 5
_symmetry_cell_setting 'monoclinic'
loop_
_space_group_symop_operation_xyz
x,y,z
-x,y,-z
1/2+x,1/2+y,z
1/2-x,1/2+y,-z
loop_
_atom_site_type_symbol
_atom_site_label
_atom_site_fract_x
_atom_site_fract_y
_atom_site_fract_z
Si Si1 0.555603 0.481180 0.206519
Si Si2 0.731359 0.631043 0.862244
Si Si3 0.986257 0.307306 0.172835
Si Si4 0.000000 0.490591 0.500000
Si Si5 0.500000 0.408255 0.000000
Si Si6 0.848391 0.343800 0.569330
Si Si7 0.942193 0.804868 0.263362
Si Si8 0.683616 0.682860 0.652917
O O1 0.320668 0.540740 0.113109
O O2 0.764424 0.532547 0.352837
O O3 0.607486 0.463249 0.127558
O O4 0.515761 0.388455 0.236833
O O5 0.555250 0.706619 0.820105
O O6 0.707668 0.622557 0.747424
O O7 0.000000 0.662191 0.000000
O O8 0.721158 0.352072 0.054950
O O9 0.121931 0.352000 0.314555
O O10 0.160120 0.309443 0.164559
O O11 0.910421 0.429883 0.541317
O O12 0.593024 0.311909 0.420017
O O13 0.045447 0.271095 0.625007
O O14 0.057227 0.718226 0.269150
O O15 0.500000 0.645968 0.500000
#
# Coordination Sequence:
#
# PCOD9120120 Si02
#       8
#     4   4   4   2   2   4   4   4
#     4  11  24  44  64  93 124 173 204 267 316 378
#     4  11  25  44  59  88 138 168 199 259 333 365
#     4  11  22  39  65  98 123 168 213 262 312 382
#     4  10  16  40  68  88 124 166 210 252 318 362
#     4  12  24  44  66  88 126 172 218 256 320 376
#     4   9  15  35  66  94 124 158 208 266 303 360
#     4  10  20  37  70  97 120 161 224 258 304 381
#     4   9  17  40  68  91 121 167 207 258 314 375
#
# _framework density 21.742470999999998
#
# number of rings (size 3 to 8) (size 9 to 14) (size 15 to 20)
#    0.000    1.714    5.714    1.286    2.000    0.000 
#   10.286    2.857    0.000    0.000    0.000    0.000 
#    0.000    0.000    0.000    0.000    0.000    0.000 
#
# Total GULP energy -78113.674055 kJ/mol
# GULP energy per Si atom -5579.548147 kJ/mol
# Density = 2.169298 g / cm^3
# Si number density = 21.742471 Si / 1000 Ang^3
#
#
#
# Elastic Constant Matrix: (Units=GPa)
#
#
# Indices 1 2 3 4 5 6 
#
# 1 103.7972 8.0229 37.4601 0.0001 15.0149 0.0000
# 2 8.0229 30.1169 9.3088 -0.0001 -1.0876 0.0000
# 3 37.4601 9.3088 74.8149 0.0002 -13.2503 0.0002
# 4 0.0001 -0.0001 0.0002 4.8476 0.0000 -6.1022
# 5 15.0149 -1.0876 -13.2503 0.0000 31.3032 0.0000
# 6 0.0000 0.0000 0.0002 -6.1022 0.0000 5.0020
#
#
#
# Elastic Compliance Matrix: (Units=1/GPa)
#
#
# Indices 1 2 3 4 5 6 
#
# 1 0.014587 -0.001483 -0.009046 -0.000001 -0.010877 -0.000001
# 2 -0.001483 0.034696 -0.003497 -0.000002 0.000436 -0.000002
# 3 -0.009046 -0.003497 0.020624 0.000004 0.012947 0.000004
# 4 -0.000001 -0.000002 0.000004 -0.385091 0.000002 -0.469790
# 5 -0.010877 0.000436 0.012947 0.000002 0.042658 0.000002
# 6 -0.000001 -0.000002 0.000004 -0.469790 0.000002 -0.373199
#
#
# Mechanical properties :
#
#
# Convention : Reuss Voigt Hill
#
# Bulk Modulus (GPa) = 23.89208 35.36807 29.63007
# Shear Modulus (GPa) = -8.28193 18.49305 5.10556
#
# Velocity S-wave (km/s) = -1.95381 2.91958 1.53404
# Velocity P-wave (km/s) = 2.43366 5.25998 4.09818
#
# Compressibility (1/GPa) = 0.04185488
#
# Stress axis : x y z
#
# Youngs Moduli (GPa) = 68.55550 28.82205 48.48809
#
# Poissons Ratio (x) = 0.04273 0.43860
# Poissons Ratio (y) = 0.10165 0.16958
# Poissons Ratio (z) = 0.62012 0.10080
#
# Static dielectric constant tensor:
#      x y z
#    x 1.810000 0.000000 0.010870 
#    y 0.000000 1.734270 0.000000 
#    z 0.010870 0.000000 1.896450 
# 
# From -- ./inp_files/51433.got.cif
#   From: 2010.05.17/outbox.cif.g08.bks.cpg/sg5_26_cif.got.tgz:51433.got - 2010.06.03 18:56:24.
