data_PCOD9120545
_publ_section_title
;
Structure prediction by ZEFSAII (Michael W. Deem and Ramdas Pophale) SiO2 
 PCOD9120545
Probable space group: C 2
;
_chemical_formula_sum "Si O2"
_cell_formula_units_Z 22
_cell_length_a 23.703651
_cell_length_b 5.412818
_cell_length_c 12.494295
_cell_angle_alpha 90.000000
_cell_angle_beta 33.024617
_cell_angle_gamma 90.000000
_cell_volume 873.667908
_symmetry_space_group_name_H-M "C 2"
_symmetry_group_IT_number 5
_symmetry_cell_setting 'monoclinic'
loop_
_space_group_symop_operation_xyz
x,y,z
-x,y,-z
1/2+x,1/2+y,z
1/2-x,1/2+y,-z
loop_
_atom_site_type_symbol
_atom_site_label
_atom_site_fract_x
_atom_site_fract_y
_atom_site_fract_z
Si Si1 0.127925 0.423360 0.992956
Si Si2 0.866979 0.388034 0.585658
Si Si3 0.692312 0.737620 0.561415
Si Si4 0.135383 0.894942 0.342589
Si Si5 0.500000 0.799575 0.000000
Si Si6 0.653303 0.417402 0.061098
O O1 0.252105 0.409450 0.778078
O O2 0.063693 0.446480 0.987405
O O3 0.104551 0.664458 0.097911
O O4 0.104743 0.166861 0.090352
O O5 0.833183 0.340034 0.517196
O O6 0.918233 0.649242 0.529567
O O7 0.924190 0.140454 0.529546
O O8 0.767776 0.407268 0.824245
O O9 0.758836 0.484521 0.460645
O O10 0.588130 0.662734 0.791699
O O11 0.159551 0.906352 0.178556
#
# Coordination Sequence:
#
# PCOD9120545 Si02
#       6
#     4   4   4   4   2   4
#     4  10  20  34  56  91 126 169 220 269 333 402
#     4  10  18  32  56  89 122 161 219 274 326 396
#     4  12  26  46  70 100 141 190 239 286 345 417
#     4  10  18  34  62  92 126 173 223 274 340 405
#     4  12  28  46  72 104 146 186 232 294 352 418
#     4  10  18  34  62  91 126 175 223 272 340 406
#
# _framework density 25.181194000000001
#
# number of rings (size 3 to 8) (size 9 to 14) (size 15 to 20)
#    0.000    1.455    0.000   10.909    0.000    2.909 
#    0.000    0.000    0.000   12.000    0.000    0.000 
#    0.000    0.000    0.000    0.000    0.000    0.000 
#
# Total GULP energy -61518.812733 kJ/mol
# GULP energy per Si atom -5592.619339 kJ/mol
# Density = 2.512388 g / cm^3
# Si number density = 25.181194 Si / 1000 Ang^3
#
#
#
# Elastic Constant Matrix: (Units=GPa)
#
#
# Indices 1 2 3 4 5 6 
#
# 1 167.1877 45.8810 26.0553 -0.0009 21.4735 -0.0002
# 2 45.8810 240.3792 19.6039 -0.0133 19.9400 0.0035
# 3 26.0553 19.6039 144.9460 -0.0061 2.3794 0.0016
# 4 -0.0009 -0.0133 -0.0061 -17.1237 0.0019 30.1611
# 5 21.4735 19.9400 2.3794 0.0019 39.6437 -0.0003
# 6 -0.0002 0.0035 0.0016 30.1611 -0.0003 -5.3431
#
#
#
# Elastic Compliance Matrix: (Units=1/GPa)
#
#
# Indices 1 2 3 4 5 6 
#
# 1 0.006810 -0.000954 -0.001043 0.000000 -0.003146 0.000000
# 2 -0.000954 0.004519 -0.000411 0.000000 -0.001732 0.000002
# 3 -0.001043 -0.000411 0.007137 0.000000 0.000344 0.000001
# 4 0.000000 0.000000 0.000000 0.006530 0.000000 0.036863
# 5 -0.003146 -0.001732 0.000344 0.000000 0.027779 -0.000003
# 6 0.000000 0.000002 0.000001 0.036863 -0.000003 0.020929
#
#
# Mechanical properties :
#
#
# Convention : Reuss Voigt Hill
#
# Bulk Modulus (GPa) = 73.26706 81.73261 77.49983
# Shear Modulus (GPa) = 60.18966 34.16687 47.17826
#
# Velocity S-wave (km/s) = 4.89434 3.68753 4.33315
# Velocity P-wave (km/s) = 7.81655 7.11750 7.47520
#
# Compressibility (1/GPa) = 0.01364870
#
# Stress axis : x y z
#
# Youngs Moduli (GPa) = 146.84840 221.27152 140.12098
#
# Poissons Ratio (x) = 0.21102 0.14621
# Poissons Ratio (y) = 0.14005 0.05764
# Poissons Ratio (z) = 0.15323 0.09103
#
# Static dielectric constant tensor:
#      x y z
#    x 1.966210 0.000000 -0.032790 
#    y 0.000000 2.110740 0.000000 
#    z -0.032790 0.000000 2.009080 
# 
# From -- ./inp_files/46893.got.cif
#   From: 2010.05.17/outbox.cif.g08.bks.cpg/sg5_24_cif.got.tgz:46893.got - 2010.06.03 18:56:24.
