data_PCOD9120051
_publ_section_title
;
Structure prediction by ZEFSAII (Michael W. Deem and Ramdas Pophale) SiO2 
 PCOD9120051
Probable space group: C 2
;
_chemical_formula_sum "Si O2"
_cell_formula_units_Z 18
_cell_length_a 7.428205
_cell_length_b 17.213232
_cell_length_c 9.198301
_cell_angle_alpha 90.000000
_cell_angle_beta 68.592230
_cell_angle_gamma 90.000000
_cell_volume 1094.980920
_symmetry_space_group_name_H-M "C 2"
_symmetry_group_IT_number 5
_symmetry_cell_setting 'monoclinic'
loop_
_space_group_symop_operation_xyz
x,y,z
-x,y,-z
1/2+x,1/2+y,z
1/2-x,1/2+y,-z
loop_
_atom_site_type_symbol
_atom_site_label
_atom_site_fract_x
_atom_site_fract_y
_atom_site_fract_z
Si Si1 0.896470 0.975020 0.176361
Si Si2 0.112683 0.088018 0.324075
Si Si3 0.961049 0.548598 0.844761
Si Si4 0.500000 0.324718 0.000000
Si Si5 0.199647 0.192175 0.024256
O O1 0.673783 0.993282 0.211135
O O2 0.944550 0.884174 0.146482
O O3 0.989977 0.019120 0.283427
O O4 0.000000 0.009649 0.000000
O O5 0.331305 0.060338 0.288676
O O6 0.142389 0.154710 0.195567
O O7 0.000000 0.113373 0.500000
O O8 0.158425 0.629142 0.096157
O O9 0.000000 0.519790 0.000000
O O10 0.677233 0.269811 0.989865
O O11 0.000000 0.204857 0.000000
#
# Coordination Sequence:
#
# PCOD9120051 Si02
#       5
#     4   4   4   2   4
#     4  10  19  36  56  84 106 141 191 229 259 327
#     4  11  21  34  59  85 111 143 185 227 273 325
#     4  10  16  33  59  76 105 143 186 223 258 320
#     4  10  20  32  62  82 110 136 192 228 268 314
#     4  11  18  34  58  84 106 143 187 226 267 321
#
# _framework density 16.438642999999999
#
# number of rings (size 3 to 8) (size 9 to 14) (size 15 to 20)
#    0.667    0.889   10.000    0.000    0.000    3.556 
#    0.000    0.000    9.778    0.000    0.000    0.000 
#    0.000    0.000    0.000    0.000    0.000    0.000 
#
# Total GULP energy -50111.837261 kJ/mol
# GULP energy per Si atom -5567.981918 kJ/mol
# Density = 1.640123 g / cm^3
# Si number density = 16.438643 Si / 1000 Ang^3
#
#
#
# Elastic Constant Matrix: (Units=GPa)
#
#
# Indices 1 2 3 4 5 6 
#
# 1 165.7000 58.0715 38.7940 0.0000 -7.0890 0.0000
# 2 58.0715 110.0022 25.5980 0.0000 5.5341 0.0000
# 3 38.7940 25.5980 52.6448 0.0000 -19.2902 0.0000
# 4 0.0000 0.0000 0.0000 9.7366 0.0000 0.0968
# 5 -7.0890 5.5341 -19.2902 0.0000 20.4342 0.0000
# 6 0.0000 0.0000 0.0000 0.0968 0.0000 27.8326
#
#
#
# Elastic Compliance Matrix: (Units=1/GPa)
#
#
# Indices 1 2 3 4 5 6 
#
# 1 0.008248 -0.003186 -0.004837 0.000000 -0.000842 0.000000
# 2 -0.003186 0.013590 -0.009194 0.000000 -0.013465 0.000000
# 3 -0.004837 -0.009194 0.041780 0.000000 0.040252 0.000000
# 4 0.000000 0.000000 0.000000 0.102709 0.000000 -0.000357
# 5 -0.000842 -0.013465 0.040252 0.000000 0.090291 0.000000
# 6 0.000000 0.000000 0.000000 -0.000357 0.000000 0.035930
#
#
# Mechanical properties :
#
#
# Convention : Reuss Voigt Hill
#
# Bulk Modulus (GPa) = 34.26680 63.69711 48.98195
# Shear Modulus (GPa) = 14.84959 25.32625 20.08792
#
# Velocity S-wave (km/s) = 3.00881 3.92937 3.49950
# Velocity P-wave (km/s) = 5.74118 7.70838 6.79633
#
# Compressibility (1/GPa) = 0.02918277
#
# Stress axis : x y z
#
# Youngs Moduli (GPa) = 121.23902 73.58581 23.93512
#
# Poissons Ratio (x) = 0.23446 0.11578
# Poissons Ratio (y) = 0.38630 0.22005
# Poissons Ratio (z) = 0.58648 0.67652
#
# Static dielectric constant tensor:
#      x y z
#    x 1.603280 0.000000 -0.002380 
#    y 0.000000 1.561310 0.000000 
#    z -0.002380 0.000000 1.534220 
# 
# From -- ./inp_files/12288.got.cif
#   From: 2010.05.17/outbox.cif.g08.bks.cpg/sg5_7_cif.got.tgz:12288.got - 2010.06.03 18:56:24.
