data_PCOD9120351
_publ_section_title
;
Structure prediction by ZEFSAII (Michael W. Deem and Ramdas Pophale) SiO2 
 PCOD9120351
Probable space group: C 2
;
_chemical_formula_sum "Si O2"
_cell_formula_units_Z 28
_cell_length_a 22.071503
_cell_length_b 6.742638
_cell_length_c 18.022646
_cell_angle_alpha 90.000000
_cell_angle_beta 24.763373
_cell_angle_gamma 90.000000
_cell_volume 1123.469568
_symmetry_space_group_name_H-M "C 2"
_symmetry_group_IT_number 5
_symmetry_cell_setting 'monoclinic'
loop_
_space_group_symop_operation_xyz
x,y,z
-x,y,-z
1/2+x,1/2+y,z
1/2-x,1/2+y,-z
loop_
_atom_site_type_symbol
_atom_site_label
_atom_site_fract_x
_atom_site_fract_y
_atom_site_fract_z
Si Si1 0.905527 0.478330 0.376811
Si Si2 0.759532 0.842969 0.296427
Si Si3 0.500000 0.623408 0.500000
Si Si4 0.215724 0.078898 0.143267
Si Si5 0.199464 0.526738 0.113303
Si Si6 0.962141 0.699550 0.179943
Si Si7 0.529131 0.664997 0.127734
Si Si8 0.000000 0.146065 0.000000
O O1 0.801220 0.435546 0.559919
O O2 0.860890 0.613710 0.357666
O O3 0.042035 0.589876 0.262255
O O4 0.960953 0.280108 0.272964
O O5 0.626553 0.751685 0.399411
O O6 0.877241 0.687892 0.197202
O O7 0.857969 0.006571 0.146676
O O8 0.591966 0.503957 0.336260
O O9 0.179629 0.314384 0.173382
O O10 0.215491 0.000809 0.059313
O O11 0.381345 0.091197 0.989295
O O12 0.297526 0.668500 0.053709
O O13 0.992718 0.930621 0.165206
O O14 0.480971 0.746084 0.100950
#
# Coordination Sequence:
#
# PCOD9120351 Si02
#       8
#     4   4   2   4   4   4   4   2
#     4  11  22  38  68  96 119 169 220 258 307 379
#     4  11  22  38  62  93 129 165 210 262 313 383
#     4  12  20  36  62  98 118 164 208 258 320 378
#     4  10  20  35  62  86 122 157 205 255 309 369
#     4  10  17  37  59  93 115 162 205 254 299 379
#     4   9  23  39  61  93 126 162 212 260 311 372
#     4  10  20  41  63  90 128 166 206 260 318 375
#     4  10  24  40  60  88 136 168 200 272 328 356
#
# _framework density 24.922792999999999
#
# number of rings (size 3 to 8) (size 9 to 14) (size 15 to 20)
#    0.000    1.714    2.857    2.571    4.000    0.000 
#    0.000    5.714    0.000   11.143    0.000    0.000 
#    0.000    0.000    0.000    0.000    0.000    0.000 
#
# Total GULP energy -78238.591232 kJ/mol
# GULP energy per Si atom -5588.470802 kJ/mol
# Density = 2.486607 g / cm^3
# Si number density = 24.922793 Si / 1000 Ang^3
#
#
#
# Elastic Constant Matrix: (Units=GPa)
#
#
# Indices 1 2 3 4 5 6 
#
# 1 144.6904 12.5284 49.8323 -0.0003 -16.6054 0.0000
# 2 12.5284 60.7246 12.4716 -0.0019 -0.9897 0.0008
# 3 49.8323 12.4716 152.6002 -0.0005 17.0535 0.0011
# 4 -0.0003 -0.0019 -0.0005 26.9391 0.0000 0.9749
# 5 -16.6054 -0.9897 17.0535 0.0000 56.8028 0.0001
# 6 0.0000 0.0008 0.0011 0.9749 0.0001 29.4899
#
#
#
# Elastic Compliance Matrix: (Units=1/GPa)
#
#
# Indices 1 2 3 4 5 6 
#
# 1 0.008437 -0.001061 -0.003044 0.000000 0.003362 0.000000
# 2 -0.001061 0.016911 -0.001070 0.000001 0.000306 0.000000
# 3 -0.003044 -0.001070 0.008005 0.000000 -0.003312 0.000000
# 4 0.000000 0.000001 0.000000 0.037165 0.000000 -0.001229
# 5 0.003362 0.000306 -0.003312 0.000000 0.019587 0.000000
# 6 0.000000 0.000000 0.000000 -0.001229 0.000000 0.033950
#
#
# Mechanical properties :
#
#
# Convention : Reuss Voigt Hill
#
# Bulk Modulus (GPa) = 43.47136 56.40886 49.94011
# Shear Modulus (GPa) = 35.19283 41.52522 38.35903
#
# Velocity S-wave (km/s) = 3.76183 4.08628 3.92741
# Velocity P-wave (km/s) = 6.02900 6.70419 6.37554
#
# Compressibility (1/GPa) = 0.02300365
#
# Stress axis : x y z
#
# Youngs Moduli (GPa) = 118.51865 59.13191 124.92573
#
# Poissons Ratio (x) = 0.06272 0.38031
# Poissons Ratio (y) = 0.12572 0.13366
# Poissons Ratio (z) = 0.36081 0.06327
#
# Static dielectric constant tensor:
#      x y z
#    x 1.978940 0.000000 -0.024000 
#    y 0.000000 2.047280 0.000000 
#    z -0.024000 0.000000 2.006650 
# 
# From -- ./inp_files/67524.got.cif
#   From: 2010.05.17/outbox.cif.g08.bks.cpg/sg5_34_cif.got.tgz:67524.got - 2010.06.03 18:56:24.
