data_PCOD9120726
_publ_section_title
;
Structure prediction by ZEFSAII (Michael W. Deem and Ramdas Pophale) SiO2 
 PCOD9120726
Probable space group: C 2
;
_chemical_formula_sum "Si O2"
_cell_formula_units_Z 32
_cell_length_a 20.689817
_cell_length_b 14.245447
_cell_length_c 7.955216
_cell_angle_alpha 90.000000
_cell_angle_beta 34.383162
_cell_angle_gamma 90.000000
_cell_volume 1324.101670
_symmetry_space_group_name_H-M "C 2"
_symmetry_group_IT_number 5
_symmetry_cell_setting 'monoclinic'
loop_
_space_group_symop_operation_xyz
x,y,z
-x,y,-z
1/2+x,1/2+y,z
1/2-x,1/2+y,-z
loop_
_atom_site_type_symbol
_atom_site_label
_atom_site_fract_x
_atom_site_fract_y
_atom_site_fract_z
Si Si1 0.096728 0.004430 0.557415
Si Si2 0.230140 0.147643 0.092066
Si Si3 0.231447 0.245372 0.557521
Si Si4 0.151769 0.074983 0.903845
Si Si5 0.040471 0.705198 0.100809
Si Si6 0.715801 0.948051 0.586741
Si Si7 0.848194 0.811118 0.666639
Si Si8 0.066080 0.520921 0.207186
O O1 0.139133 0.109169 0.422465
O O2 0.160820 0.967697 0.587017
O O3 0.143560 0.923145 0.330215
O O4 0.960844 0.010841 0.854256
O O5 0.171417 0.116691 0.044818
O O6 0.280007 0.251805 0.952451
O O7 0.338112 0.081509 0.900958
O O8 0.144515 0.164142 0.794164
O O9 0.192492 0.344761 0.569838
O O10 0.288194 0.278718 0.616799
O O11 0.324106 0.206668 0.224801
O O12 0.268028 0.021324 0.597711
O O13 0.999847 0.604093 0.252456
O O14 0.979052 0.777552 0.355683
O O15 0.000000 0.725280 0.000000
O O16 0.625500 0.965133 0.929481
O O17 0.000000 0.469948 0.500000
#
# Coordination Sequence:
#
# PCOD9120726 Si02
#       8
#     4   4   4   4   4   4   4   4
#     4  10  21  38  60  89 120 163 204 254 310 361
#     4  10  22  38  54  87 128 159 202 248 312 366
#     4   9  19  35  59  89 116 153 201 249 312 354
#     4  11  20  38  61  86 122 163 203 258 303 369
#     4  10  18  34  61  87 111 152 201 255 301 354
#     4  10  21  38  60  88 119 161 207 253 303 373
#     4   9  18  36  60  85 122 155 199 248 306 368
#     4  11  21  36  58  87 121 162 200 253 309 361
#
# _framework density 24.167328000000001
#
# number of rings (size 3 to 8) (size 9 to 14) (size 15 to 20)
#    0.000    2.000    2.500    1.500    0.000    2.000 
#    6.750    5.000    0.000    3.000    0.000    0.000 
#    0.000    0.000    0.000    0.000    0.000    0.000 
#
# Total GULP energy -89218.093797 kJ/mol
# GULP energy per Si atom -5576.130862 kJ/mol
# Density = 2.411232 g / cm^3
# Si number density = 24.167328 Si / 1000 Ang^3
#
#
#
# Elastic Constant Matrix: (Units=GPa)
#
#
# Indices 1 2 3 4 5 6 
#
# 1 27.2043 0.4631 5.6291 0.0000 12.0355 0.0000
# 2 0.4631 116.9699 46.9572 0.0000 -2.2260 0.0000
# 3 5.6291 46.9572 89.2306 0.0000 11.9247 0.0000
# 4 0.0000 0.0000 0.0000 38.7391 0.0000 -1.4199
# 5 12.0355 -2.2260 11.9247 0.0000 21.1433 0.0000
# 6 0.0000 0.0000 0.0000 -1.4199 0.0000 15.1061
#
#
#
# Elastic Compliance Matrix: (Units=1/GPa)
#
#
# Indices 1 2 3 4 5 6 
#
# 1 0.049330 -0.001341 0.001477 0.000000 -0.029054 0.000000
# 2 -0.001341 0.011328 -0.006638 0.000000 0.005700 0.000000
# 3 0.001477 -0.006638 0.016020 0.000000 -0.010575 0.000000
# 4 0.000000 0.000000 0.000000 0.025903 0.000000 0.002435
# 5 -0.029054 0.005700 -0.010575 0.000000 0.070399 0.000000
# 6 0.000000 0.000000 0.000000 0.002435 0.000000 0.066427
#
#
# Mechanical properties :
#
#
# Convention : Reuss Voigt Hill
#
# Bulk Modulus (GPa) = 15.70528 37.72261 26.71395
# Shear Modulus (GPa) = 18.27229 27.02139 22.64684
#
# Velocity S-wave (km/s) = 2.75266 3.34742 3.06451
# Velocity P-wave (km/s) = 4.07622 5.53020 4.85791
#
# Compressibility (1/GPa) = 0.06367286
#
# Stress axis : x y z
#
# Youngs Moduli (GPa) = 20.27152 88.27704 62.42034
#
# Poissons Ratio (x) = 0.11838 -0.09216
# Poissons Ratio (y) = 0.02718 0.41437
# Poissons Ratio (z) = -0.02993 0.58602
#
# Static dielectric constant tensor:
#      x y z
#    x 2.070840 0.000000 0.026510 
#    y 0.000000 1.964960 0.000000 
#    z 0.026510 0.000000 2.004630 
# 
# From -- ./inp_files/31955.got.cif
#   From: 2010.05.17/outbox.cif.g08.bks.cpg/sg5_16_cif.got.tgz:31955.got - 2010.06.03 18:56:24.
