data_PCOD9120859
_publ_section_title
;
Structure prediction by ZEFSAII (Michael W. Deem and Ramdas Pophale) SiO2 
 PCOD9120859
Probable space group: C 2
;
_chemical_formula_sum "Si O2"
_cell_formula_units_Z 30
_cell_length_a 20.976043
_cell_length_b 8.196315
_cell_length_c 9.573822
_cell_angle_alpha 90.000000
_cell_angle_beta 102.448390
_cell_angle_gamma 90.000000
_cell_volume 1607.295056
_symmetry_space_group_name_H-M "C 2"
_symmetry_group_IT_number 5
_symmetry_cell_setting 'monoclinic'
loop_
_space_group_symop_operation_xyz
x,y,z
-x,y,-z
1/2+x,1/2+y,z
1/2-x,1/2+y,-z
loop_
_atom_site_type_symbol
_atom_site_label
_atom_site_fract_x
_atom_site_fract_y
_atom_site_fract_z
Si Si1 0.719864 0.320000 0.956156
Si Si2 0.540465 0.966472 0.843016
Si Si3 0.178258 0.471012 0.816383
Si Si4 0.231780 0.473085 0.302736
Si Si5 0.500000 0.269265 0.000000
Si Si6 0.262602 0.344723 0.615317
Si Si7 0.906607 0.339920 0.836526
Si Si8 0.873903 0.962632 0.849878
O O1 0.730552 0.410591 0.815387
O O2 0.696033 0.138301 0.907274
O O3 0.788632 0.329918 0.072084
O O4 0.670768 0.413219 0.037542
O O5 0.600513 0.959575 0.765418
O O6 0.471896 0.878733 0.777745
O O7 0.570630 0.884703 0.996697
O O8 0.524818 0.149354 0.888465
O O9 0.214543 0.458002 0.685497
O O10 0.250082 0.369263 0.447294
O O11 0.248009 0.659098 0.344263
O O12 0.154664 0.450155 0.236004
O O13 0.557509 0.378323 0.087987
O O14 0.335086 0.392179 0.699044
O O15 0.883533 0.153867 0.829155
#
# Coordination Sequence:
#
# PCOD9120859 Si02
#       8
#     4   4   4   4   2   4   4   4
#     4  11  21  34  60  84 123 142 200 235 294 333
#     4  10  20  35  56  87 120 157 187 245 282 348
#     4  11  21  37  56  92 113 156 189 247 285 343
#     4  12  22  42  58  87 114 160 187 246 289 357
#     4  10  18  36  58  86 122 150 196 232 294 336
#     4  11  25  37  63  82 121 148 199 237 301 341
#     4  10  21  35  59  83 122 150 196 231 292 340
#     4  11  21  37  59  95 112 156 190 247 283 348
#
# _framework density 18.664898000000001
#
# number of rings (size 3 to 8) (size 9 to 14) (size 15 to 20)
#    0.000    1.333    2.667    7.200    1.867    0.000 
#    0.000    0.667    0.000    0.800    0.000    0.000 
#    0.000    0.000    0.000    0.000    0.000    0.000 
#
# Total GULP energy -83759.247943 kJ/mol
# GULP energy per Si atom -5583.949863 kJ/mol
# Density = 1.862242 g / cm^3
# Si number density = 18.664898 Si / 1000 Ang^3
#
#
#
# Elastic Constant Matrix: (Units=GPa)
#
#
# Indices 1 2 3 4 5 6 
#
# 1 95.8547 5.5709 5.5503 0.0000 7.5841 0.0000
# 2 5.5709 65.4788 -3.4162 0.0000 -4.1183 0.0000
# 3 5.5503 -3.4162 68.1021 0.0000 2.3059 0.0000
# 4 0.0000 0.0000 0.0000 25.6226 0.0000 5.4016
# 5 7.5841 -4.1183 2.3059 0.0000 13.8920 0.0000
# 6 0.0000 0.0000 0.0000 5.4016 0.0000 29.2604
#
#
#
# Elastic Compliance Matrix: (Units=1/GPa)
#
#
# Indices 1 2 3 4 5 6 
#
# 1 0.011056 -0.001378 -0.000756 0.000000 -0.006319 0.000000
# 2 -0.001378 0.015761 0.000723 0.000000 0.005304 0.000000
# 3 -0.000756 0.000723 0.014844 0.000000 -0.001837 0.000000
# 4 0.000000 0.000000 0.000000 0.040608 0.000000 -0.007497
# 5 -0.006319 0.005304 -0.001837 0.000000 0.077311 0.000000
# 6 0.000000 0.000000 0.000000 -0.007497 0.000000 0.035560
#
#
# Mechanical properties :
#
#
# Convention : Reuss Voigt Hill
#
# Bulk Modulus (GPa) = 25.74673 27.20505 26.47589
# Shear Modulus (GPa) = 23.70708 28.53704 26.12206
#
# Velocity S-wave (km/s) = 3.56777 3.91438 3.74509
# Velocity P-wave (km/s) = 5.54943 5.91920 5.73729
#
# Compressibility (1/GPa) = 0.03883989
#
# Stress axis : x y z
#
# Youngs Moduli (GPa) = 90.44648 63.44907 67.36755
#
# Poissons Ratio (x) = 0.08740 0.05095
# Poissons Ratio (y) = 0.12459 -0.04873
# Poissons Ratio (z) = 0.06840 -0.04589
#
# Static dielectric constant tensor:
#      x y z
#    x 1.699590 0.000000 -0.022820 
#    y 0.000000 1.666340 0.000000 
#    z -0.022820 0.000000 1.626710 
# 
# From -- ./inp_files/28978.got.cif
#   From: 2010.05.17/outbox.cif.g08.bks.cpg/sg5_15_cif.got.tgz:28978.got - 2010.06.03 18:56:24.
