data_PCOD9120007
_publ_section_title
;
Structure prediction by ZEFSAII (Michael W. Deem and Ramdas Pophale) SiO2 
 PCOD9120007
Probable space group: C 2
;
_chemical_formula_sum "Si O2"
_cell_formula_units_Z 28
_cell_length_a 20.154089
_cell_length_b 7.866176
_cell_length_c 22.176182
_cell_angle_alpha 90.000000
_cell_angle_beta 21.065382
_cell_angle_gamma 90.000000
_cell_volume 1263.664023
_symmetry_space_group_name_H-M "C 2"
_symmetry_group_IT_number 5
_symmetry_cell_setting 'monoclinic'
loop_
_space_group_symop_operation_xyz
x,y,z
-x,y,-z
1/2+x,1/2+y,z
1/2-x,1/2+y,-z
loop_
_atom_site_type_symbol
_atom_site_label
_atom_site_fract_x
_atom_site_fract_y
_atom_site_fract_z
Si Si1 0.198754 0.579080 0.893454
Si Si2 0.355076 0.215449 0.245519
Si Si3 0.500000 0.895713 0.500000
Si Si4 0.931276 0.076356 0.942237
Si Si5 0.238406 0.758781 0.551175
Si Si6 0.485005 0.562978 0.760530
Si Si7 0.894495 0.429072 0.711597
Si Si8 0.000000 0.299503 0.000000
O O1 0.322894 0.569124 0.848604
O O2 0.276817 0.754714 0.799745
O O3 0.988090 0.600403 0.093833
O O4 0.177520 0.417903 0.867655
O O5 0.463456 0.396288 0.153881
O O6 0.316170 0.143106 0.345249
O O7 0.159679 0.270189 0.386186
O O8 0.430178 0.004751 0.615597
O O9 0.929664 0.132889 0.873514
O O10 0.020533 0.185143 0.921394
O O11 0.725749 0.037534 0.140630
O O12 0.334702 0.665365 0.414825
O O13 0.407101 0.878099 0.430986
O O14 0.058246 0.870484 0.694882
#
# Coordination Sequence:
#
# PCOD9120007 Si02
#       8
#     4   4   2   4   4   4   4   2
#     4  10  22  39  59  88 124 165 210 258 317 383
#     4   9  19  37  60  82 113 161 212 251 305 389
#     4  10  16  30  60  82 100 144 204 256 292 344
#     4  10  22  39  59  88 124 165 210 258 317 383
#     4   9  20  37  62  91 116 155 216 270 310 367
#     4  10  22  40  62  90 124 168 214 262 320 378
#     4   9  19  37  60  82 113 161 212 251 305 389
#     4  12  24  34  56  94 128 152 200 274 320 346
#
# _framework density 22.157789000000001
#
# number of rings (size 3 to 8) (size 9 to 14) (size 15 to 20)
#    0.000    2.286    0.000    1.714    0.000   10.286 
#    0.000    2.857    0.000   28.286    0.000    0.000 
#    0.000    0.000    0.000    0.000    0.000    0.000 
#
# Total GULP energy -77988.886113 kJ/mol
# GULP energy per Si atom -5570.634722 kJ/mol
# Density = 2.210736 g / cm^3
# Si number density = 22.157789 Si / 1000 Ang^3
#
#
#
# Elastic Constant Matrix: (Units=GPa)
#
#
# Indices 1 2 3 4 5 6 
#
# 1 120.9032 26.5047 32.1790 -0.0006 37.9155 0.0001
# 2 26.5047 31.1178 -2.1668 -0.0039 8.2245 0.0012
# 3 32.1790 -2.1668 89.7918 -0.0047 14.2929 0.0015
# 4 -0.0006 -0.0039 -0.0047 23.5791 0.0003 -4.2039
# 5 37.9155 8.2245 14.2929 0.0003 33.9633 0.0000
# 6 0.0001 0.0012 0.0015 -4.2039 0.0000 25.4800
#
#
#
# Elastic Compliance Matrix: (Units=1/GPa)
#
#
# Indices 1 2 3 4 5 6 
#
# 1 0.015713 -0.010064 -0.003719 -0.000002 -0.013540 0.000000
# 2 -0.010064 0.041231 0.004719 0.000007 -0.000735 -0.000001
# 3 -0.003719 0.004719 0.012974 0.000003 -0.002451 0.000000
# 4 -0.000002 0.000007 0.000003 0.043696 -0.000002 0.007209
# 5 -0.013540 -0.000735 -0.002451 -0.000002 0.045768 0.000000
# 6 0.000000 -0.000001 0.000000 0.007209 0.000000 0.040436
#
#
# Mechanical properties :
#
#
# Convention : Reuss Voigt Hill
#
# Bulk Modulus (GPa) = 19.30910 39.42738 29.36824
# Shear Modulus (GPa) = 21.25767 28.95753 25.10760
#
# Velocity S-wave (km/s) = 3.10074 3.61900 3.36985
# Velocity P-wave (km/s) = 4.64249 5.94099 5.33142
#
# Compressibility (1/GPa) = 0.05178906
#
# Stress axis : x y z
#
# Youngs Moduli (GPa) = 63.64081 24.25362 77.07955
#
# Poissons Ratio (x) = 0.24409 0.28665
# Poissons Ratio (y) = 0.64049 -0.36372
# Poissons Ratio (z) = 0.23667 -0.11445
#
# Static dielectric constant tensor:
#      x y z
#    x 1.913220 0.000000 0.033650 
#    y 0.000000 1.874250 0.000000 
#    z 0.033650 0.000000 1.803850 
# 
# From -- ./inp_files/67407.got.cif
#   From: 2010.05.17/outbox.cif.g08.bks.cpg/sg5_34_cif.got.tgz:67407.got - 2010.06.03 18:56:24.
