data_PCOD9120418
_publ_section_title
;
Structure prediction by ZEFSAII (Michael W. Deem and Ramdas Pophale) SiO2 
 PCOD9120418
Probable space group: C 2
;
_chemical_formula_sum "Si O2"
_cell_formula_units_Z 32
_cell_length_a 25.361374
_cell_length_b 7.463252
_cell_length_c 13.774650
_cell_angle_alpha 90.000000
_cell_angle_beta 40.607705
_cell_angle_gamma 90.000000
_cell_volume 1696.992513
_symmetry_space_group_name_H-M "C 2"
_symmetry_group_IT_number 5
_symmetry_cell_setting 'monoclinic'
loop_
_space_group_symop_operation_xyz
x,y,z
-x,y,-z
1/2+x,1/2+y,z
1/2-x,1/2+y,-z
loop_
_atom_site_type_symbol
_atom_site_label
_atom_site_fract_x
_atom_site_fract_y
_atom_site_fract_z
Si Si1 0.084859 0.952330 0.923106
Si Si2 0.189054 0.710918 0.437326
Si Si3 0.545526 0.899224 0.174611
Si Si4 0.143055 0.005010 0.645391
Si Si5 0.538748 0.484726 0.186817
Si Si6 0.366741 0.922604 0.333417
Si Si7 0.990673 0.689046 0.398436
Si Si8 0.144139 0.339852 0.861394
O O1 0.146931 0.923311 0.748376
O O2 0.082744 0.171371 0.932324
O O3 0.095215 0.904792 0.021496
O O4 0.000000 0.881040 0.000000
O O5 0.188907 0.890059 0.502650
O O6 0.182832 0.550478 0.525070
O O7 0.105035 0.694088 0.495737
O O8 0.268564 0.739839 0.260689
O O9 0.557000 0.690453 0.185468
O O10 0.460255 0.927613 0.237078
O O11 0.534380 0.022682 0.283844
O O12 0.616872 0.936612 0.997562
O O13 0.049483 0.988178 0.741425
O O14 0.160874 0.215509 0.619959
O O15 0.530842 0.361974 0.291376
O O16 0.363216 0.962639 0.223650
O O17 0.000000 0.685047 0.500000
#
# Coordination Sequence:
#
# PCOD9120418 Si02
#       8
#     4   4   4   4   4   4   4   4
#     4   8  14  27  48  71 101 136 162 193 239 307
#     4  10  21  32  48  79 107 137 171 214 254 304
#     4   9  18  35  54  77 103 137 176 212 258 318
#     4   8  15  29  46  70 108 138 166 196 242 308
#     4   8  15  30  52  76  96 127 171 214 254 304
#     4   9  18  31  50  75 109 143 169 197 250 314
#     4  10  21  37  57  74  97 132 184 231 263 301
#     4  10  18  29  51  76 112 137 165 205 257 314
#
# _framework density 18.85689
#
# number of rings (size 3 to 8) (size 9 to 14) (size 15 to 20)
#    0.000    3.000    0.000    2.625    3.500    1.500 
#    0.000    6.250    5.500    0.000    0.000    0.000 
#    0.000    0.000    0.000    0.000    0.000    0.000 
#
# Total GULP energy -89106.839592 kJ/mol
# GULP energy per Si atom -5569.177474 kJ/mol
# Density = 1.881397 g / cm^3
# Si number density = 18.856890 Si / 1000 Ang^3
#
#
#
# Elastic Constant Matrix: (Units=GPa)
#
#
# Indices 1 2 3 4 5 6 
#
# 1 59.9443 29.0584 61.9189 -0.0001 27.0879 0.0001
# 2 29.0584 76.7332 56.7701 -0.0009 20.6988 0.0004
# 3 61.9189 56.7701 154.2335 -0.0004 24.1757 0.0002
# 4 -0.0001 -0.0009 -0.0004 29.7219 0.0002 4.2682
# 5 27.0879 20.6988 24.1757 0.0002 37.4689 -0.0001
# 6 0.0001 0.0004 0.0002 4.2682 -0.0001 12.7671
#
#
#
# Elastic Compliance Matrix: (Units=1/GPa)
#
#
# Indices 1 2 3 4 5 6 
#
# 1 0.038293 -0.000131 -0.012234 0.000000 -0.019717 0.000000
# 2 -0.000131 0.019342 -0.006015 0.000001 -0.006709 -0.000001
# 3 -0.012234 -0.006015 0.013019 0.000000 0.003768 0.000000
# 4 0.000000 0.000001 0.000000 0.035342 -0.000001 -0.011815
# 5 -0.019717 -0.006709 0.003768 -0.000001 0.042219 0.000001
# 6 0.000000 -0.000001 0.000000 -0.011815 0.000001 0.082276
#
#
# Mechanical properties :
#
#
# Convention : Reuss Voigt Hill
#
# Bulk Modulus (GPa) = 29.50500 65.15620 47.33060
# Shear Modulus (GPa) = 17.95019 25.53582 21.74300
#
# Velocity S-wave (km/s) = 3.08866 3.68392 3.39935
# Velocity P-wave (km/s) = 5.32922 7.26107 6.36882
#
# Compressibility (1/GPa) = 0.03389256
#
# Stress axis : x y z
#
# Youngs Moduli (GPa) = 26.11441 51.70169 76.81254
#
# Poissons Ratio (x) = 0.00678 0.93974
# Poissons Ratio (y) = 0.00343 0.46203
# Poissons Ratio (z) = 0.31949 0.31099
#
# Static dielectric constant tensor:
#      x y z
#    x 1.661960 0.000000 -0.043980 
#    y 0.000000 1.685240 0.000000 
#    z -0.043980 0.000000 1.759710 
# 
# From -- ./inp_files/47188.got.cif
#   From: 2010.05.17/outbox.cif.g08.bks.cpg/sg5_24_cif.got.tgz:47188.got - 2010.06.03 18:56:24.
