data_PCOD9120653
_publ_section_title
;
Structure prediction by ZEFSAII (Michael W. Deem and Ramdas Pophale) SiO2 
 PCOD9120653
Probable space group: C 2
;
_chemical_formula_sum "Si O2"
_cell_formula_units_Z 30
_cell_length_a 7.283816
_cell_length_b 14.105969
_cell_length_c 13.324349
_cell_angle_alpha 90.000000
_cell_angle_beta 77.772466
_cell_angle_gamma 90.000000
_cell_volume 1337.956864
_symmetry_space_group_name_H-M "C 2"
_symmetry_group_IT_number 5
_symmetry_cell_setting 'monoclinic'
loop_
_space_group_symop_operation_xyz
x,y,z
-x,y,-z
1/2+x,1/2+y,z
1/2-x,1/2+y,-z
loop_
_atom_site_type_symbol
_atom_site_label
_atom_site_fract_x
_atom_site_fract_y
_atom_site_fract_z
Si Si1 0.766838 0.290480 0.252017
Si Si2 0.981376 0.150837 0.110838
Si Si3 0.470602 0.316884 0.118198
Si Si4 0.681751 0.488991 0.761353
Si Si5 0.220560 0.991288 0.308910
Si Si6 0.500000 0.599581 0.500000
Si Si7 0.115784 0.593749 0.890709
Si Si8 0.333972 0.130491 0.597546
O O1 0.660883 0.321093 0.161990
O O2 0.791330 0.384440 0.313170
O O3 0.639611 0.215811 0.326991
O O4 0.947886 0.231049 0.197174
O O5 0.170960 0.093356 0.097173
O O6 0.823830 0.071342 0.152136
O O7 0.000000 0.196228 0.000000
O O8 0.317599 0.385811 0.188361
O O9 0.426735 0.205095 0.120212
O O10 0.500000 0.348340 0.000000
O O11 0.479648 0.489859 0.727241
O O12 0.816263 0.531353 0.660072
O O13 0.370577 0.041927 0.218007
O O14 0.156001 0.040500 0.419037
O O15 0.633228 0.651021 0.565589
O O16 0.000000 0.556824 0.000000
O O17 0.500000 0.128982 0.500000
#
# Coordination Sequence:
#
# PCOD9120653 Si02
#       8
#     4   4   4   4   4   2   4   4
#     4  10  22  39  61  92 124 165 215 261 315 389
#     4  10  18  34  55  81 120 162 204 248 305 381
#     4  10  19  36  62  93 127 168 203 253 319 379
#     4   8  18  37  59  85 124 162 207 256 314 377
#     4   9  20  39  63  85 121 168 208 265 328 378
#     4  10  22  44  68  86 132 170 214 278 332 378
#     4  10  21  36  56  87 121 164 207 257 323 379
#     4  10  22  41  68  97 124 168 220 271 328 380
#
# _framework density 22.422246000000001
#
# number of rings (size 3 to 8) (size 9 to 14) (size 15 to 20)
#    0.000    2.400    0.000    2.800    2.800    0.533 
#    2.400    2.667    2.933    0.000    0.000    0.000 
#    0.000    0.000    0.000    0.000    0.000    0.000 
#
# Total GULP energy -83605.931160 kJ/mol
# GULP energy per Si atom -5573.728744 kJ/mol
# Density = 2.237121 g / cm^3
# Si number density = 22.422246 Si / 1000 Ang^3
#
#
#
# Elastic Constant Matrix: (Units=GPa)
#
#
# Indices 1 2 3 4 5 6 
#
# 1 45.9745 -1.7639 34.8269 0.0000 -12.6886 0.0000
# 2 -1.7639 76.6306 30.3761 0.0000 -14.4350 0.0000
# 3 34.8269 30.3761 117.8722 0.0000 -20.5523 0.0000
# 4 0.0000 0.0000 0.0000 9.2288 0.0000 1.3752
# 5 -12.6886 -14.4350 -20.5523 0.0000 42.2031 0.0000
# 6 0.0000 0.0000 0.0000 1.3752 0.0000 19.0731
#
#
#
# Elastic Compliance Matrix: (Units=1/GPa)
#
#
# Indices 1 2 3 4 5 6 
#
# 1 0.030980 0.005720 -0.009466 0.000000 0.006661 0.000000
# 2 0.005720 0.016062 -0.004996 0.000000 0.004781 0.000000
# 3 -0.009466 -0.004996 0.012866 0.000000 0.001711 0.000000
# 4 0.000000 0.000000 0.000000 0.109533 0.000000 -0.007898
# 5 0.006661 0.004781 0.001711 0.000000 0.028166 0.000000
# 6 0.000000 0.000000 0.000000 -0.007898 0.000000 0.052999
#
#
# Mechanical properties :
#
#
# Convention : Reuss Voigt Hill
#
# Bulk Modulus (GPa) = 23.57109 40.81728 32.19418
# Shear Modulus (GPa) = 17.71591 25.90355 21.80973
#
# Velocity S-wave (km/s) = 2.81393 3.40260 3.12217
# Velocity P-wave (km/s) = 4.59269 5.80348 5.23322
#
# Compressibility (1/GPa) = 0.04242486
#
# Stress axis : x y z
#
# Youngs Moduli (GPa) = 32.27910 62.25817 77.72168
#
# Poissons Ratio (x) = -0.35613 0.73572
# Poissons Ratio (y) = -0.18464 0.38828
# Poissons Ratio (z) = 0.30556 0.31103
#
# Static dielectric constant tensor:
#      x y z
#    x 1.925670 0.000000 0.044820 
#    y 0.000000 1.827740 0.000000 
#    z 0.044820 0.000000 1.875530 
# 
# From -- ./inp_files/36374.got.cif
#   From: 2010.05.17/outbox.cif.g08.bks.cpg/sg5_19_cif.got.tgz:36374.got - 2010.06.03 18:56:24.
