data_PCOD9120526
_publ_section_title
;
Structure prediction by ZEFSAII (Michael W. Deem and Ramdas Pophale) SiO2 
 PCOD9120526
Probable space group: C 2
;
_chemical_formula_sum "Si O2"
_cell_formula_units_Z 18
_cell_length_a 9.927562
_cell_length_b 20.494609
_cell_length_c 5.339682
_cell_angle_alpha 90.000000
_cell_angle_beta 135.179997
_cell_angle_gamma 90.000000
_cell_volume 765.797585
_symmetry_space_group_name_H-M "C 2"
_symmetry_group_IT_number 5
_symmetry_cell_setting 'monoclinic'
loop_
_space_group_symop_operation_xyz
x,y,z
-x,y,-z
1/2+x,1/2+y,z
1/2-x,1/2+y,-z
loop_
_atom_site_type_symbol
_atom_site_label
_atom_site_fract_x
_atom_site_fract_y
_atom_site_fract_z
Si Si1 0.230203 0.293980 0.292329
Si Si2 0.318795 0.062923 0.001438
Si Si3 0.000000 0.679370 0.500000
Si Si4 0.235412 0.509167 0.580924
Si Si5 0.769775 0.367721 0.213734
O O1 0.330181 0.226024 0.363810
O O2 0.288769 0.318063 0.644605
O O3 0.286080 0.344169 0.139182
O O4 0.000000 0.289027 0.000000
O O5 0.419762 0.132920 0.171452
O O6 0.502596 0.014143 0.256131
O O7 0.206857 0.054355 0.111477
O O8 0.209077 0.039879 0.611620
O O9 0.287655 0.437489 0.745014
O O10 0.000000 0.368601 0.500000
#
# Coordination Sequence:
#
# PCOD9120526 Si02
#       5
#     4   4   2   4   4
#     4  10  23  35  58  87 116 166 188 241 298 350
#     4   9  18  27  54  80 105 152 184 246 277 332
#     4  10  22  42  54  90 128 152 208 230 296 370
#     4   9  15  28  48  85 104 135 199 237 282 332
#     4  10  18  32  54  87 119 143 197 247 290 352
#
# _framework density 23.504905999999998
#
# number of rings (size 3 to 8) (size 9 to 14) (size 15 to 20)
#    0.000    2.667    2.222    1.333    6.222    8.000 
#    0.000    0.000    0.000    0.000   34.667    0.000 
#    0.000    0.000    0.000    0.000    0.000    0.000 
#
# Total GULP energy -50170.130582 kJ/mol
# GULP energy per Si atom -5574.458954 kJ/mol
# Density = 2.345141 g / cm^3
# Si number density = 23.504906 Si / 1000 Ang^3
#
#
#
# Elastic Constant Matrix: (Units=GPa)
#
#
# Indices 1 2 3 4 5 6 
#
# 1 102.9988 52.1917 96.8907 0.0000 -27.8108 0.0000
# 2 52.1917 139.8118 40.7988 0.0000 -14.0280 0.0000
# 3 96.8907 40.7988 133.2419 0.0000 -30.7717 0.0000
# 4 0.0000 0.0000 0.0000 -73.7305 0.0000 -75.5884
# 5 -27.8108 -14.0280 -30.7717 0.0000 64.3041 0.0000
# 6 0.0000 0.0000 0.0000 -75.5884 0.0000 -72.7082
#
#
#
# Elastic Compliance Matrix: (Units=1/GPa)
#
#
# Indices 1 2 3 4 5 6 
#
# 1 0.035482 -0.006173 -0.023248 0.000000 0.002874 0.000000
# 2 -0.006173 0.008951 0.001779 0.000000 0.000134 0.000000
# 3 -0.023248 0.001779 0.024321 0.000000 0.001972 0.000000
# 4 0.000000 0.000000 0.000000 0.206097 0.000000 -0.214261
# 5 0.002874 0.000134 0.001972 0.000000 0.017767 0.000000
# 6 0.000000 0.000000 0.000000 -0.214261 0.000000 0.208995
#
#
# Mechanical properties :
#
#
# Convention : Reuss Voigt Hill
#
# Bulk Modulus (GPa) = 74.23483 83.97944 79.10714
# Shear Modulus (GPa) = 8.90651 -4.01552 2.44550
#
# Velocity S-wave (km/s) = 1.94870 -1.30847 1.02112
# Velocity P-wave (km/s) = 6.05925 5.78993 5.92612
#
# Compressibility (1/GPa) = 0.01347077
#
# Stress axis : x y z
#
# Youngs Moduli (GPa) = 28.18316 111.71696 41.11628
#
# Poissons Ratio (x) = 0.68964 0.95587
# Poissons Ratio (y) = 0.17398 -0.07315
# Poissons Ratio (z) = 0.65520 -0.19875
#
# Static dielectric constant tensor:
#      x y z
#    x 1.981510 0.000000 0.000180 
#    y 0.000000 1.908230 0.000000 
#    z 0.000180 0.000000 1.958400 
# 
# From -- ./inp_files/5074.got.cif
#   From: 2010.05.17/outbox.cif.g08.bks.cpg/sg5_3_cif.got.tgz:5074.got - 2010.06.03 18:56:24.
