data_PCOD9120270
_publ_section_title
;
Structure prediction by ZEFSAII (Michael W. Deem and Ramdas Pophale) SiO2 
 PCOD9120270
Probable space group: C 2
;
_chemical_formula_sum "Si O2"
_cell_formula_units_Z 30
_cell_length_a 17.051996
_cell_length_b 8.660022
_cell_length_c 17.211144
_cell_angle_alpha 90.000000
_cell_angle_beta 30.511404
_cell_angle_gamma 90.000000
_cell_volume 1290.385708
_symmetry_space_group_name_H-M "C 2"
_symmetry_group_IT_number 5
_symmetry_cell_setting 'monoclinic'
loop_
_space_group_symop_operation_xyz
x,y,z
-x,y,-z
1/2+x,1/2+y,z
1/2-x,1/2+y,-z
loop_
_atom_site_type_symbol
_atom_site_label
_atom_site_fract_x
_atom_site_fract_y
_atom_site_fract_z
Si Si1 0.913896 0.751720 0.302553
Si Si2 0.064043 0.611637 0.027425
Si Si3 0.981693 0.289512 0.132273
Si Si4 0.144639 0.500199 0.513514
Si Si5 0.194897 0.505303 0.194513
Si Si6 0.000000 0.007864 0.000000
Si Si7 0.250012 0.205821 0.997935
Si Si8 0.834272 0.737440 0.643463
O O1 0.937632 0.661848 0.200677
O O2 0.865231 0.630798 0.410723
O O3 0.094814 0.802113 0.160454
O O4 0.787565 0.885775 0.404025
O O5 0.076374 0.426374 0.012147
O O6 0.218004 0.668928 0.939803
O O7 0.000000 0.660738 0.000000
O O8 0.978773 0.126581 0.089890
O O9 0.803600 0.335415 0.276075
O O10 0.078214 0.265038 0.127968
O O11 0.157898 0.589659 0.420690
O O12 0.972228 0.428599 0.658744
O O13 0.341780 0.426963 0.110145
O O14 0.229374 0.556923 0.076782
O O15 0.187140 0.665268 0.252377
O O16 0.000000 0.817436 0.500000
#
# Coordination Sequence:
#
# PCOD9120270 Si02
#       8
#     4   4   4   4   4   2   4   4
#     4   9  22  38  63  91 131 173 218 270 327 400
#     4  10  21  39  63  93 138 173 219 284 331 393
#     4  10  17  33  62  91 126 169 216 278 326 381
#     4  10  19  37  60  90 132 169 213 267 332 397
#     4   8  15  32  55  90 122 165 207 269 314 391
#     4   8  14  28  56  96 122 158 218 266 324 376
#     4   8  19  35  56  91 127 162 220 263 331 384
#     4   9  19  31  59  93 126 165 219 268 324 396
#
# _framework density 23.248861999999999
#
# number of rings (size 3 to 8) (size 9 to 14) (size 15 to 20)
#    0.800    2.133    0.667    0.000    1.867    1.067 
#    0.000    1.333    5.867    2.400    0.000    0.000 
#    0.000    0.000    0.000    0.000    0.000    0.000 
#
# Total GULP energy -83520.775121 kJ/mol
# GULP energy per Si atom -5568.051675 kJ/mol
# Density = 2.319595 g / cm^3
# Si number density = 23.248862 Si / 1000 Ang^3
#
#
#
# Elastic Constant Matrix: (Units=GPa)
#
#
# Indices 1 2 3 4 5 6 
#
# 1 193.7859 37.9586 57.4324 0.0000 -26.1327 0.0000
# 2 37.9586 39.8169 23.8712 0.0000 -12.2839 0.0000
# 3 57.4324 23.8712 96.2038 0.0000 -40.6772 0.0000
# 4 0.0000 0.0000 0.0000 7.9701 0.0000 17.8376
# 5 -26.1327 -12.2839 -40.6772 0.0000 69.7954 0.0000
# 6 0.0000 0.0000 0.0000 17.8376 0.0000 -20.4156
#
#
#
# Elastic Compliance Matrix: (Units=1/GPa)
#
#
# Indices 1 2 3 4 5 6 
#
# 1 0.006997 -0.004892 -0.002946 0.000000 0.000042 0.000000
# 2 -0.004892 0.033003 -0.004760 0.000000 0.001203 0.000000
# 3 -0.002946 -0.004760 0.016606 0.000000 0.007737 0.000000
# 4 0.000000 0.000000 0.000000 0.042454 0.000000 0.037093
# 5 0.000042 0.001203 0.007737 0.000000 0.019064 0.000000
# 6 0.000000 0.000000 0.000000 0.037093 0.000000 -0.016573
#
#
# Mechanical properties :
#
#
# Convention : Reuss Voigt Hill
#
# Bulk Modulus (GPa) = 31.83601 63.14790 47.49196
# Shear Modulus (GPa) = 36.43877 25.50624 30.97250
#
# Velocity S-wave (km/s) = 3.96325 3.31584 3.65391
# Velocity P-wave (km/s) = 5.88782 6.47151 6.18655
#
# Compressibility (1/GPa) = 0.03141097
#
# Stress axis : x y z
#
# Youngs Moduli (GPa) = 142.91458 30.29995 60.21996
#
# Poissons Ratio (x) = 0.14822 0.17738
# Poissons Ratio (y) = 0.69909 0.28667
# Poissons Ratio (z) = 0.42097 0.14424
#
# Static dielectric constant tensor:
#      x y z
#    x 1.909730 0.000000 -0.061390 
#    y 0.000000 1.935990 0.000000 
#    z -0.061390 0.000000 2.023250 
# 
# From -- ./inp_files/66608.got.cif
#   From: 2010.05.17/outbox.cif.g08.bks.cpg/sg5_34_cif.got.tgz:66608.got - 2010.06.03 18:56:24.
