data_PCOD9120951
_publ_section_title
;
Structure prediction by ZEFSAII (Michael W. Deem and Ramdas Pophale) SiO2 
 PCOD9120951
Probable space group: C 2
;
_chemical_formula_sum "Si O2"
_cell_formula_units_Z 30
_cell_length_a 17.940632
_cell_length_b 5.036703
_cell_length_c 30.015331
_cell_angle_alpha 90.000000
_cell_angle_beta 151.976824
_cell_angle_gamma 90.000000
_cell_volume 1274.285486
_symmetry_space_group_name_H-M "C 2"
_symmetry_group_IT_number 5
_symmetry_cell_setting 'monoclinic'
loop_
_space_group_symop_operation_xyz
x,y,z
-x,y,-z
1/2+x,1/2+y,z
1/2-x,1/2+y,-z
loop_
_atom_site_type_symbol
_atom_site_label
_atom_site_fract_x
_atom_site_fract_y
_atom_site_fract_z
Si Si1 0.911922 0.005180 0.622450
Si Si2 0.000000 0.284632 0.000000
Si Si3 0.225177 0.205868 0.269439
Si Si4 0.128863 0.719694 0.163015
Si Si5 0.700647 0.674487 0.829808
Si Si6 0.649902 0.838907 0.993949
Si Si7 0.941236 0.510643 0.576080
Si Si8 0.916231 0.194474 0.143030
O O1 0.947761 0.219393 0.601815
O O2 0.727129 0.038244 0.537458
O O3 0.932604 0.714989 0.612714
O O4 0.035908 0.049181 0.727028
O O5 0.945151 0.165482 0.018930
O O6 0.156629 0.462213 0.091274
O O7 0.213414 0.458980 0.230078
O O8 0.403811 0.103263 0.369295
O O9 0.103105 0.257234 0.245134
O O10 0.132941 0.953286 0.200197
O O11 0.232963 0.833823 0.177214
O O12 0.956175 0.609718 0.059793
O O13 0.666150 0.823039 0.857251
O O14 0.637348 0.776040 0.934965
O O15 0.832372 0.902900 0.101924
#
# Coordination Sequence:
#
# PCOD9120951 Si02
#       8
#     4   2   4   4   4   4   4   4
#     4  10  20  35  61  85 119 146 201 243 296 338
#     4   8  18  32  60  74 120 152 212 234 294 338
#     4  11  19  36  55  87 109 155 187 243 283 352
#     4  10  20  34  61  77 118 146 201 233 284 335
#     4  10  18  37  54  90 114 162 189 256 283 364
#     4   9  18  36  49  83 110 163 192 245 280 359
#     4  10  19  35  59  90 111 155 194 250 286 350
#     4  10  21  33  58  80 126 150 200 234 312 336
#
# _framework density 23.542605999999999
#
# number of rings (size 3 to 8) (size 9 to 14) (size 15 to 20)
#    0.000    2.133    2.667    0.800    0.000    0.000 
#    0.000   14.000    0.000   16.000    0.000    9.333 
#    0.000    0.000    0.000    0.000    0.000    0.000 
#
# Total GULP energy -83594.860483 kJ/mol
# GULP energy per Si atom -5572.990699 kJ/mol
# Density = 2.348902 g / cm^3
# Si number density = 23.542606 Si / 1000 Ang^3
#
#
#
# Elastic Constant Matrix: (Units=GPa)
#
#
# Indices 1 2 3 4 5 6 
#
# 1 168.7137 5.8647 30.7110 -0.0393 30.2968 0.0600
# 2 5.8647 75.8113 8.8786 -0.0687 3.6252 0.0378
# 3 30.7110 8.8786 155.0504 -0.0153 41.7848 0.0204
# 4 -0.0393 -0.0687 -0.0153 26.2869 0.0008 11.2755
# 5 30.2968 3.6252 41.7848 0.0008 44.4961 -0.0147
# 6 0.0600 0.0378 0.0204 11.2755 -0.0147 17.7789
#
#
#
# Elastic Compliance Matrix: (Units=1/GPa)
#
#
# Indices 1 2 3 4 5 6 
#
# 1 0.006761 -0.000295 -0.000118 0.000028 -0.004469 -0.000044
# 2 -0.000295 0.013301 -0.000623 0.000062 -0.000298 -0.000066
# 3 -0.000118 -0.000623 0.008666 0.000014 -0.008007 -0.000023
# 4 0.000028 0.000062 0.000014 0.052258 -0.000049 -0.033143
# 5 -0.004469 -0.000298 -0.008007 -0.000049 0.033060 0.000083
# 6 -0.000044 -0.000066 -0.000023 -0.033143 0.000083 0.077266
#
#
# Mechanical properties :
#
#
# Convention : Reuss Voigt Hill
#
# Bulk Modulus (GPa) = 37.51507 54.49822 46.00664
# Shear Modulus (GPa) = 24.71918 41.32043 33.01980
#
# Velocity S-wave (km/s) = 3.24385 4.19398 3.74913
# Velocity P-wave (km/s) = 5.47719 6.83020 6.19077
#
# Compressibility (1/GPa) = 0.02665596
#
# Stress axis : x y z
#
# Youngs Moduli (GPa) = 147.89652 75.18356 115.38721
#
# Poissons Ratio (x) = 0.02222 0.01361
# Poissons Ratio (y) = 0.04370 0.07188
# Poissons Ratio (z) = 0.01745 0.04683
#
# Static dielectric constant tensor:
#      x y z
#    x 1.999170 -0.000020 -0.005990 
#    y -0.000020 1.924790 0.000010 
#    z -0.005990 0.000010 1.962240 
# 
# From -- ./inp_files/71998.got.cif
#   From: 2010.05.17/outbox.cif.g08.bks.cpg/sg5_36_cif.got.tgz:71998.got - 2010.06.03 18:56:24.
