data_PCOD9120935
_publ_section_title
;
Structure prediction by ZEFSAII (Michael W. Deem and Ramdas Pophale) SiO2 
 PCOD9120935
Probable space group: C 2
;
_chemical_formula_sum "Si O2"
_cell_formula_units_Z 26
_cell_length_a 18.398519
_cell_length_b 5.706794
_cell_length_c 11.847364
_cell_angle_alpha 90.000000
_cell_angle_beta 62.567429
_cell_angle_gamma 90.000000
_cell_volume 1104.056754
_symmetry_space_group_name_H-M "C 2"
_symmetry_group_IT_number 5
_symmetry_cell_setting 'monoclinic'
loop_
_space_group_symop_operation_xyz
x,y,z
-x,y,-z
1/2+x,1/2+y,z
1/2-x,1/2+y,-z
loop_
_atom_site_type_symbol
_atom_site_label
_atom_site_fract_x
_atom_site_fract_y
_atom_site_fract_z
Si Si1 0.324939 0.475130 0.138509
Si Si2 0.629582 0.446360 0.536669
Si Si3 0.549903 0.661934 0.800795
Si Si4 0.121857 0.933815 0.146051
Si Si5 0.500000 0.734297 0.500000
Si Si6 0.754882 0.982024 0.740472
Si Si7 0.505249 0.059861 0.708702
O O1 0.417191 0.531629 0.114185
O O2 0.283691 0.728482 0.196471
O O3 0.292892 0.232604 0.217990
O O4 0.324323 0.435218 0.004979
O O5 0.618594 0.600152 0.656761
O O6 0.573491 0.569518 0.482896
O O7 0.714457 0.439670 0.410328
O O8 0.580447 0.213976 0.606836
O O9 0.461311 0.576745 0.822046
O O10 0.538783 0.939147 0.798948
O O11 0.174527 0.013284 0.214685
O O12 0.079410 0.687234 0.204032
O O13 0.484748 0.890710 0.619656
#
# Coordination Sequence:
#
# PCOD9120935 Si02
#       7
#     4   4   4   4   2   4   4
#     4  12  30  48  70 109 151 199 239 296 373 438
#     4  10  22  40  67 104 139 187 240 302 367 435
#     4  10  25  46  75 102 140 191 249 307 360 434
#     4  11  25  48  74 105 140 196 254 304 354 438
#     4  10  18  36  66 114 138 178 246 306 372 422
#     4  12  28  46  75 106 152 191 240 302 372 442
#     4  10  21  39  78 103 145 182 259 305 368 423
#
# _framework density 23.549512
#
# number of rings (size 3 to 8) (size 9 to 14) (size 15 to 20)
#    0.000    1.231    0.000    5.538   15.077    1.231 
#    0.000    0.000    0.000    0.000    0.000    0.000 
#    0.000    0.000    0.000    0.000    0.000    0.000 
#
# Total GULP energy -72514.837003 kJ/mol
# GULP energy per Si atom -5578.064385 kJ/mol
# Density = 2.349591 g / cm^3
# Si number density = 23.549512 Si / 1000 Ang^3
#
#
#
# Elastic Constant Matrix: (Units=GPa)
#
#
# Indices 1 2 3 4 5 6 
#
# 1 86.6265 33.8024 -3.0499 0.0000 6.1650 0.0000
# 2 33.8024 112.8594 3.9907 0.0000 -14.0384 0.0000
# 3 -3.0499 3.9907 70.1929 0.0000 -19.0796 0.0000
# 4 0.0000 0.0000 0.0000 0.1193 0.0000 9.6454
# 5 6.1650 -14.0384 -19.0796 0.0000 27.3337 0.0000
# 6 0.0000 0.0000 0.0000 9.6454 0.0000 37.1583
#
#
#
# Elastic Compliance Matrix: (Units=1/GPa)
#
#
# Indices 1 2 3 4 5 6 
#
# 1 0.013868 -0.004897 -0.000806 0.000000 -0.006205 0.000000
# 2 -0.004897 0.011248 0.001257 0.000000 0.007758 0.000000
# 3 -0.000806 0.001257 0.017729 0.000000 0.013202 0.000000
# 4 0.000000 0.000000 0.000000 -0.419391 0.000000 0.108863
# 5 -0.006205 0.007758 0.013202 0.000000 0.051185 0.000000
# 6 0.000000 0.000000 0.000000 0.108863 0.000000 -0.001346
#
#
# Mechanical properties :
#
#
# Convention : Reuss Voigt Hill
#
# Bulk Modulus (GPa) = 29.45313 37.68503 33.56908
# Shear Modulus (GPa) = -16.31328 28.58463 6.13568
#
# Velocity S-wave (km/s) = -2.63482 3.48776 1.61589
# Velocity P-wave (km/s) = 1.81044 5.67948 4.21510
#
# Compressibility (1/GPa) = 0.03395225
#
# Stress axis : x y z
#
# Youngs Moduli (GPa) = 72.10907 88.90561 56.40617
#
# Poissons Ratio (x) = 0.43536 0.04545
# Poissons Ratio (y) = 0.35311 -0.07088
# Poissons Ratio (z) = 0.05810 -0.11172
#
# Static dielectric constant tensor:
#      x y z
#    x 1.894390 0.000000 -0.019260 
#    y 0.000000 2.003720 0.000000 
#    z -0.019260 0.000000 1.914400 
# 
# From -- ./inp_files/45395.got.cif
#   From: 2010.05.17/outbox.cif.g08.bks.cpg/sg5_23_cif.got.tgz:45395.got - 2010.06.03 18:56:24.
