data_PCOD9120792
_publ_section_title
;
Structure prediction by ZEFSAII (Michael W. Deem and Ramdas Pophale) SiO2 
 PCOD9120792
Probable space group: C 2
;
_chemical_formula_sum "Si O2"
_cell_formula_units_Z 24
_cell_length_a 10.112418
_cell_length_b 17.680156
_cell_length_c 10.368923
_cell_angle_alpha 90.000000
_cell_angle_beta 43.697318
_cell_angle_gamma 90.000000
_cell_volume 1280.730102
_symmetry_space_group_name_H-M "C 2"
_symmetry_group_IT_number 5
_symmetry_cell_setting 'monoclinic'
loop_
_space_group_symop_operation_xyz
x,y,z
-x,y,-z
1/2+x,1/2+y,z
1/2-x,1/2+y,-z
loop_
_atom_site_type_symbol
_atom_site_label
_atom_site_fract_x
_atom_site_fract_y
_atom_site_fract_z
Si Si1 0.343839 0.362210 0.719165
Si Si2 0.316174 0.967012 0.959933
Si Si3 0.958194 0.318513 0.269197
Si Si4 0.000000 0.578162 0.000000
Si Si5 0.164366 0.194411 0.277377
Si Si6 0.138434 0.826122 0.709773
Si Si7 0.500000 0.454213 0.000000
O O1 0.500000 0.380251 0.500000
O O2 0.169630 0.320896 0.770166
O O3 0.452767 0.313483 0.751144
O O4 0.277839 0.437342 0.840202
O O5 0.399595 0.889207 0.843198
O O6 0.160303 0.997411 0.969045
O O7 0.475883 0.025923 0.890243
O O8 0.815734 0.336534 0.488045
O O9 0.061669 0.240288 0.233322
O O10 0.804697 0.626451 0.142544
O O11 0.305131 0.256231 0.242277
O O12 0.000000 0.175452 0.500000
O O13 0.098332 0.898787 0.825798
#
# Coordination Sequence:
#
# PCOD9120792 Si02
#       7
#     4   4   4   2   4   4   2
#     4   9  18  32  56  91 114 143 193 257 292 329
#     4  11  21  36  57  87 120 152 199 247 296 350
#     4  10  18  35  59  90 113 149 205 249 284 345
#     4  12  25  40  56  87 130 164 186 240 313 362
#     4  10  22  39  61  86 120 162 198 238 297 364
#     4   9  18  33  60  89 113 145 199 256 285 336
#     4  10  19  34  58  85 114 146 202 248 295 334
#
# _framework density 18.739312000000002
#
# number of rings (size 3 to 8) (size 9 to 14) (size 15 to 20)
#    0.000    2.000    3.333    0.500    2.333    0.667 
#    3.000    1.667    0.000    0.000    0.000    0.000 
#    0.000    0.000    0.000    0.000    0.000    0.000 
#
# Total GULP energy -66887.757340 kJ/mol
# GULP energy per Si atom -5573.979778 kJ/mol
# Density = 1.869666 g / cm^3
# Si number density = 18.739312 Si / 1000 Ang^3
#
#
#
# Elastic Constant Matrix: (Units=GPa)
#
#
# Indices 1 2 3 4 5 6 
#
# 1 167.3265 29.4386 20.7521 0.0000 -3.1959 0.0000
# 2 29.4386 40.6255 17.8306 0.0000 -7.0898 0.0000
# 3 20.7521 17.8306 58.7388 0.0000 -5.4325 0.0000
# 4 0.0000 0.0000 0.0000 5.1510 0.0000 -4.5319
# 5 -3.1959 -7.0898 -5.4325 0.0000 23.5850 0.0000
# 6 0.0000 0.0000 0.0000 -4.5319 0.0000 29.5720
#
#
#
# Elastic Compliance Matrix: (Units=1/GPa)
#
#
# Indices 1 2 3 4 5 6 
#
# 1 0.006918 -0.004656 -0.001097 0.000000 -0.000715 0.000000
# 2 -0.004656 0.032606 -0.007566 0.000000 0.007428 0.000000
# 3 -0.001097 -0.007566 0.019909 0.000000 0.002163 0.000000
# 4 0.000000 0.000000 0.000000 0.224391 0.000000 0.034388
# 5 -0.000715 0.007428 0.002163 0.000000 0.045034 0.000000
# 6 0.000000 0.000000 0.000000 0.034388 0.000000 0.039086
#
#
# Mechanical properties :
#
#
# Convention : Reuss Voigt Hill
#
# Bulk Modulus (GPa) = 30.49248 44.74816 37.62032
# Shear Modulus (GPa) = 12.33008 24.90626 18.61817
#
# Velocity S-wave (km/s) = 2.56789 3.64963 3.15546
# Velocity P-wave (km/s) = 5.00993 6.45684 5.77885
#
# Compressibility (1/GPa) = 0.03279498
#
# Stress axis : x y z
#
# Youngs Moduli (GPa) = 144.55219 30.66908 50.22940
#
# Poissons Ratio (x) = 0.14281 0.05509
# Poissons Ratio (y) = 0.67309 0.38003
# Poissons Ratio (z) = 0.15853 0.23204
#
# Static dielectric constant tensor:
#      x y z
#    x 1.709160 0.000000 -0.012010 
#    y 0.000000 1.629290 0.000000 
#    z -0.012010 0.000000 1.698240 
# 
# From -- ./inp_files/39795.got.cif
#   From: 2010.05.17/outbox.cif.g08.bks.cpg/sg5_20_cif.got.tgz:39795.got - 2010.06.03 18:56:24.
