data_PCOD9120273
_publ_section_title
;
Structure prediction by ZEFSAII (Michael W. Deem and Ramdas Pophale) SiO2 
 PCOD9120273
Probable space group: C 2
;
_chemical_formula_sum "Si O2"
_cell_formula_units_Z 22
_cell_length_a 25.076368
_cell_length_b 7.142096
_cell_length_c 7.764738
_cell_angle_alpha 90.000000
_cell_angle_beta 44.073185
_cell_angle_gamma 90.000000
_cell_volume 967.302046
_symmetry_space_group_name_H-M "C 2"
_symmetry_group_IT_number 5
_symmetry_cell_setting 'monoclinic'
loop_
_space_group_symop_operation_xyz
x,y,z
-x,y,-z
1/2+x,1/2+y,z
1/2-x,1/2+y,-z
loop_
_atom_site_type_symbol
_atom_site_label
_atom_site_fract_x
_atom_site_fract_y
_atom_site_fract_z
Si Si1 0.417775 0.682570 0.688486
Si Si2 0.778330 0.582972 0.169544
Si Si3 0.256141 0.648452 0.150650
Si Si4 0.647155 0.824778 0.529878
Si Si5 0.050324 0.591332 0.226313
Si Si6 0.000000 0.480058 0.000000
O O1 0.500000 0.583747 0.500000
O O2 0.391064 0.748838 0.559624
O O3 0.433804 0.874890 0.754476
O O4 0.344684 0.579306 0.939180
O O5 0.762983 0.360568 0.201883
O O6 0.711578 0.677626 0.434757
O O7 0.768549 0.649965 0.993335
O O8 0.863378 0.649734 0.018650
O O9 0.195289 0.514470 0.383280
O O10 0.577327 0.859352 0.819241
O O11 0.000000 0.669339 0.500000
O O12 0.999466 0.598694 0.174314
#
# Coordination Sequence:
#
# PCOD9120273 Si02
#       6
#     4   4   4   4   4   2
#     4   9  16  33  58  84 119 153 190 248 295 343
#     4  10  19  35  61  94 126 152 204 259 292 361
#     4  10  17  33  64  89 122 160 204 245 303 363
#     4  11  21  37  62  88 119 166 205 244 308 360
#     4  10  18  37  60  88 122 159 202 252 297 362
#     4  12  22  38  66  88 118 174 204 234 326 364
#
# _framework density 22.743670999999999
#
# number of rings (size 3 to 8) (size 9 to 14) (size 15 to 20)
#    0.000    1.818    9.091    0.000    0.000    0.000 
#    6.545    1.818    4.000    1.091    0.000    0.000 
#    0.000    0.000    0.000    0.000    0.000    0.000 
#
# Total GULP energy -61382.219100 kJ/mol
# GULP energy per Si atom -5580.201736 kJ/mol
# Density = 2.269191 g / cm^3
# Si number density = 22.743671 Si / 1000 Ang^3
#
#
#
# Elastic Constant Matrix: (Units=GPa)
#
#
# Indices 1 2 3 4 5 6 
#
# 1 71.8400 6.1725 24.9924 0.0000 -18.5990 0.0000
# 2 6.1725 79.0276 28.8536 0.0000 -12.8799 0.0000
# 3 24.9924 28.8536 145.2589 0.0000 -42.0200 0.0000
# 4 0.0000 0.0000 0.0000 17.5636 0.0000 -10.2828
# 5 -18.5990 -12.8799 -42.0200 0.0000 55.6164 0.0000
# 6 0.0000 0.0000 0.0000 -10.2828 0.0000 5.1632
#
#
#
# Elastic Compliance Matrix: (Units=1/GPa)
#
#
# Indices 1 2 3 4 5 6 
#
# 1 0.015488 -0.000005 -0.001492 0.000000 0.004051 0.000000
# 2 -0.000005 0.013732 -0.002313 0.000000 0.001431 0.000000
# 3 -0.001492 -0.002313 0.009343 0.000000 0.006024 0.000000
# 4 0.000000 0.000000 0.000000 -0.343031 0.000000 -0.683165
# 5 0.004051 0.001431 0.006024 0.000000 0.024218 0.000000
# 6 0.000000 0.000000 0.000000 -0.683165 0.000000 -1.166882
#
#
# Mechanical properties :
#
#
# Convention : Reuss Voigt Hill
#
# Bulk Modulus (GPa) = 32.31643 46.24040 39.27841
# Shear Modulus (GPa) = -3.49846 31.40918 13.95536
#
# Velocity S-wave (km/s) = -1.24159 3.72022 2.47977
# Velocity P-wave (km/s) = 3.49062 6.23126 5.05040
#
# Compressibility (1/GPa) = 0.03094401
#
# Stress axis : x y z
#
# Youngs Moduli (GPa) = 64.56575 72.82338 107.03068
#
# Poissons Ratio (x) = 0.00034 0.15968
# Poissons Ratio (y) = 0.00031 0.24755
# Poissons Ratio (z) = 0.09633 0.16843
#
# Static dielectric constant tensor:
#      x y z
#    x 1.882920 0.000000 -0.023620 
#    y 0.000000 1.866900 0.000000 
#    z -0.023620 0.000000 1.922280 
# 
# From -- ./inp_files/32373.got.cif
#   From: 2010.05.17/outbox.cif.g08.bks.cpg/sg5_17_cif.got.tgz:32373.got - 2010.06.03 18:56:24.
