data_PCOD9120837
_publ_section_title
;
Structure prediction by ZEFSAII (Michael W. Deem and Ramdas Pophale) SiO2 
 PCOD9120837
Probable space group: C 2
;
_chemical_formula_sum "Si O2"
_cell_formula_units_Z 26
_cell_length_a 13.185512
_cell_length_b 4.883533
_cell_length_c 18.078850
_cell_angle_alpha 90.000000
_cell_angle_beta 70.386122
_cell_angle_gamma 90.000000
_cell_volume 1096.583847
_symmetry_space_group_name_H-M "C 2"
_symmetry_group_IT_number 5
_symmetry_cell_setting 'monoclinic'
loop_
_space_group_symop_operation_xyz
x,y,z
-x,y,-z
1/2+x,1/2+y,z
1/2-x,1/2+y,-z
loop_
_atom_site_type_symbol
_atom_site_label
_atom_site_fract_x
_atom_site_fract_y
_atom_site_fract_z
Si Si1 0.306838 0.567400 0.146823
Si Si2 0.689259 0.680786 0.540470
Si Si3 0.327097 0.432698 0.986480
Si Si4 0.867460 0.932993 0.663943
Si Si5 0.654429 0.568386 0.173394
Si Si6 0.782690 0.940677 0.309771
Si Si7 0.000000 0.160974 0.500000
O O1 0.200270 0.374494 0.164572
O O2 0.348591 0.496878 0.218404
O O3 0.261334 0.874547 0.154887
O O4 0.372698 0.498842 0.056496
O O5 0.737085 0.632629 0.322721
O O6 0.668585 0.555632 0.626253
O O7 0.593124 0.823806 0.518765
O O8 0.778193 0.916586 0.516191
O O9 0.392063 0.499332 0.895927
O O10 0.279051 0.128627 0.994748
O O11 0.825042 0.625333 0.672876
O O12 0.951791 0.990031 0.579599
O O13 0.909081 0.004261 0.736214
#
# Coordination Sequence:
#
# PCOD9120837 Si02
#       7
#     4   4   4   4   4   4   2
#     4   8  14  22  42  61  89 126 159 197 253 301
#     4  12  24  40  57  80 108 141 182 228 271 318
#     4   8  12  20  34  60  88 119 156 196 242 298
#     4  10  20  32  52  73 100 137 174 212 263 310
#     4   8  14  24  38  62  94 122 158 206 245 295
#     4  10  18  36  49  72 103 133 169 221 260 307
#     4  12  24  38  60  80 106 146 188 216 280 322
#
# _framework density 23.709997000000001
#
# number of rings (size 3 to 8) (size 9 to 14) (size 15 to 20)
#    0.000    2.462    3.077    0.000    0.000    2.462 
#    0.000    0.000    0.000    0.000    0.000    1.077 
#    0.000    0.000    0.000   74.154    0.000    0.923 
#
# Total GULP energy -72486.063872 kJ/mol
# GULP energy per Si atom -5575.851067 kJ/mol
# Density = 2.365603 g / cm^3
# Si number density = 23.709997 Si / 1000 Ang^3
#
#
#
# Elastic Constant Matrix: (Units=GPa)
#
#
# Indices 1 2 3 4 5 6 
#
# 1 34.2943 -1.5104 37.5378 0.0000 6.5149 0.0001
# 2 -1.5104 82.3710 -1.8941 0.0010 3.4861 -0.0001
# 3 37.5378 -1.8941 259.7103 -0.0003 18.7464 0.0001
# 4 0.0000 0.0010 -0.0003 31.4737 0.0002 9.8486
# 5 6.5149 3.4861 18.7464 0.0002 32.9079 0.0000
# 6 0.0001 -0.0001 0.0001 9.8486 0.0000 -0.1472
#
#
#
# Elastic Compliance Matrix: (Units=1/GPa)
#
#
# Indices 1 2 3 4 5 6 
#
# 1 0.035242 0.000720 -0.004776 0.000000 -0.004333 0.000001
# 2 0.000720 0.012219 0.000093 0.000000 -0.001490 -0.000001
# 3 -0.004776 0.000093 0.004666 0.000000 -0.001722 0.000000
# 4 0.000000 0.000000 0.000000 0.001449 0.000000 0.096907
# 5 -0.004333 -0.001490 -0.001722 0.000000 0.032385 0.000000
# 6 0.000001 -0.000001 0.000000 0.096907 0.000000 -0.309693
#
#
# Mechanical properties :
#
#
# Convention : Reuss Voigt Hill
#
# Bulk Modulus (GPa) = 22.62491 49.40469 36.01480
# Shear Modulus (GPa) = -24.86651 35.66302 5.39826
#
# Velocity S-wave (km/s) = -3.24200 3.88252 1.51054
# Velocity P-wave (km/s) = 2.10974 6.40164 4.27376
#
# Compressibility (1/GPa) = 0.04419907
#
# Stress axis : x y z
#
# Youngs Moduli (GPa) = 28.37558 81.84271 214.32996
#
# Poissons Ratio (x) = -0.05891 1.02358
# Poissons Ratio (y) = -0.02042 -0.01985
# Poissons Ratio (z) = 0.13551 -0.00758
#
# Static dielectric constant tensor:
#      x y z
#    x 1.869670 0.000000 0.012170 
#    y 0.000000 1.792250 0.000000 
#    z 0.012170 0.000000 2.027200 
# 
# From -- ./inp_files/56305.got.cif
#   From: 2010.05.17/outbox.cif.g08.bks.cpg/sg5_29_cif.got.tgz:56305.got - 2010.06.03 18:56:24.
