data_PCOD9120714
_publ_section_title
;
Structure prediction by ZEFSAII (Michael W. Deem and Ramdas Pophale) SiO2 
 PCOD9120714
Probable space group: C 2
;
_chemical_formula_sum "Si O2"
_cell_formula_units_Z 32
_cell_length_a 9.581080
_cell_length_b 21.813032
_cell_length_c 9.009611
_cell_angle_alpha 90.000000
_cell_angle_beta 61.183559
_cell_angle_gamma 90.000000
_cell_volume 1649.772771
_symmetry_space_group_name_H-M "C 2"
_symmetry_group_IT_number 5
_symmetry_cell_setting 'monoclinic'
loop_
_space_group_symop_operation_xyz
x,y,z
-x,y,-z
1/2+x,1/2+y,z
1/2-x,1/2+y,-z
loop_
_atom_site_type_symbol
_atom_site_label
_atom_site_fract_x
_atom_site_fract_y
_atom_site_fract_z
Si Si1 0.159679 0.056990 0.518013
Si Si2 0.511907 0.074893 0.314031
Si Si3 0.672523 0.356491 0.835905
Si Si4 0.101324 0.698736 0.100735
Si Si5 0.865863 0.238104 0.785593
Si Si6 0.670572 0.498977 0.831980
Si Si7 0.309147 0.700649 0.471160
Si Si8 0.950371 0.793584 0.379095
O O1 0.337763 0.047891 0.356255
O O2 0.171460 0.128642 0.561181
O O3 0.000000 0.050493 0.500000
O O4 0.146730 0.015682 0.670966
O O5 0.500000 0.080355 0.500000
O O6 0.539165 0.140073 0.220923
O O7 0.327581 0.036571 0.801940
O O8 0.795351 0.306277 0.834782
O O9 0.713053 0.427423 0.829399
O O10 0.651025 0.336716 0.675883
O O11 0.500000 0.349105 0.000000
O O12 0.078268 0.759658 0.210109
O O13 0.281356 0.695941 0.950662
O O14 0.000000 0.705254 0.000000
O O15 0.823709 0.212802 0.641485
O O16 0.053324 0.234447 0.689570
O O17 0.500000 0.511171 0.000000
O O18 0.150687 0.735609 0.509879
O O19 0.000000 0.828867 0.500000
#
# Coordination Sequence:
#
# PCOD9120714 Si02
#       8
#     4   4   4   4   4   4   4   4
#     4  11  21  39  61  85 129 163 203 261 312 370
#     4  10  23  41  57  90 131 163 205 262 311 369
#     4  10  19  42  63  83 116 160 212 245 296 380
#     4  12  19  33  61  92 119 158 200 241 325 377
#     4  10  18  34  60  89 112 150 199 245 301 359
#     4  10  25  41  62  88 121 170 215 259 309 364
#     4  10  20  34  54  92 122 148 192 256 306 363
#     4  11  21  36  60  90 122 159 192 256 319 369
#
# _framework density 19.396611
#
# number of rings (size 3 to 8) (size 9 to 14) (size 15 to 20)
#    0.000    1.500    6.250    0.375    3.500    0.500 
#   13.500    0.625    0.000    0.000    0.000    0.000 
#    0.000    0.000    0.000    0.000    0.000    0.000 
#
# Total GULP energy -89167.726389 kJ/mol
# GULP energy per Si atom -5572.982899 kJ/mol
# Density = 1.935246 g / cm^3
# Si number density = 19.396611 Si / 1000 Ang^3
#
#
#
# Elastic Constant Matrix: (Units=GPa)
#
#
# Indices 1 2 3 4 5 6 
#
# 1 84.0370 11.7220 29.7568 0.0000 -21.5744 0.0000
# 2 11.7220 78.3649 25.9570 0.0000 -12.4104 0.0000
# 3 29.7568 25.9570 93.3441 0.0000 -30.1190 0.0000
# 4 0.0000 0.0000 0.0000 20.6794 0.0000 -3.8314
# 5 -21.5744 -12.4104 -30.1190 0.0000 34.9397 0.0000
# 6 0.0000 0.0000 0.0000 -3.8314 0.0000 18.3467
#
#
#
# Elastic Compliance Matrix: (Units=1/GPa)
#
#
# Indices 1 2 3 4 5 6 
#
# 1 0.014528 -0.000316 -0.002334 0.000000 0.006846 0.000000
# 2 -0.000316 0.014191 -0.003161 0.000000 0.002120 0.000000
# 3 -0.002334 -0.003161 0.015944 0.000000 0.011179 0.000000
# 4 0.000000 0.000000 0.000000 0.050304 0.000000 0.010505
# 5 0.006846 0.002120 0.011179 0.000000 0.043238 0.000000
# 6 0.000000 0.000000 0.000000 0.010505 0.000000 0.056700
#
#
# Mechanical properties :
#
#
# Convention : Reuss Voigt Hill
#
# Bulk Modulus (GPa) = 30.26702 43.40196 36.83449
# Shear Modulus (GPa) = 22.98428 27.34715 25.16571
#
# Velocity S-wave (km/s) = 3.44606 3.75893 3.60589
# Velocity P-wave (km/s) = 5.60999 6.42371 6.03059
#
# Compressibility (1/GPa) = 0.03303926
#
# Stress axis : x y z
#
# Youngs Moduli (GPa) = 68.83397 70.46718 62.72107
#
# Poissons Ratio (x) = 0.02224 0.14642
# Poissons Ratio (y) = 0.02173 0.19829
# Poissons Ratio (z) = 0.16069 0.22277
#
# Static dielectric constant tensor:
#      x y z
#    x 1.767940 0.000000 -0.005310 
#    y 0.000000 1.671210 0.000000 
#    z -0.005310 0.000000 1.703510 
# 
# From -- ./inp_files/21948.got.cif
#   From: 2010.05.17/outbox.cif.g08.bks.cpg/sg5_11_cif.got.tgz:21948.got - 2010.06.03 18:56:24.
