data_PCOD9120923
_publ_section_title
;
Structure prediction by ZEFSAII (Michael W. Deem and Ramdas Pophale) SiO2 
 PCOD9120923
Probable space group: C 2
;
_chemical_formula_sum "Si O2"
_cell_formula_units_Z 28
_cell_length_a 9.294183
_cell_length_b 16.809303
_cell_length_c 16.300367
_cell_angle_alpha 90.000000
_cell_angle_beta 145.296101
_cell_angle_gamma 90.000000
_cell_volume 1449.861604
_symmetry_space_group_name_H-M "C 2"
_symmetry_group_IT_number 5
_symmetry_cell_setting 'monoclinic'
loop_
_space_group_symop_operation_xyz
x,y,z
-x,y,-z
1/2+x,1/2+y,z
1/2-x,1/2+y,-z
loop_
_atom_site_type_symbol
_atom_site_label
_atom_site_fract_x
_atom_site_fract_y
_atom_site_fract_z
Si Si1 0.933369 0.535440 0.330055
Si Si2 0.680879 0.319343 0.276121
Si Si3 0.585340 0.041924 0.124039
Si Si4 0.712944 0.141380 0.344201
Si Si5 0.371275 0.872691 0.026743
Si Si6 0.857436 0.985394 0.656670
Si Si7 0.798467 0.380789 0.166049
O O1 0.709939 0.535876 0.292677
O O2 0.873002 0.468328 0.233812
O O3 0.017751 0.614234 0.322772
O O4 0.173965 0.509823 0.497382
O O5 0.717187 0.235646 0.335042
O O6 0.709112 0.395135 0.348789
O O7 0.839022 0.327811 0.266255
O O8 0.397064 0.332262 0.111574
O O9 0.620899 0.099463 0.217172
O O10 0.855293 0.998642 0.235384
O O11 0.386138 0.969283 0.041051
O O12 0.500000 0.084481 0.000000
O O13 0.000000 0.114651 0.500000
O O14 0.450920 0.851505 0.157254
O O15 0.500000 0.854096 0.000000
O O16 0.500000 0.383351 0.000000
#
# Coordination Sequence:
#
# PCOD9120923 Si02
#       7
#     4   4   4   4   4   4   4
#     4  10  21  36  62  93 121 171 215 259 320 386
#     4  10  22  38  60  90 129 164 208 265 328 369
#     4  11  21  39  67  92 124 172 218 264 322 377
#     4  12  25  40  62  99 133 163 211 281 326 378
#     4  10  18  36  64  87 119 165 214 262 301 386
#     4  10  20  40  66  88 122 174 223 256 311 403
#     4   9  19  35  61  89 120 166 217 257 307 390
#
# _framework density 19.312187999999999
#
# number of rings (size 3 to 8) (size 9 to 14) (size 15 to 20)
#    0.000    1.714    5.714    0.000    4.000    1.714 
#    0.000    3.571    0.000    3.429    0.000    0.000 
#    0.000    0.000    0.000    0.000    0.000    0.000 
#
# Total GULP energy -77950.208577 kJ/mol
# GULP energy per Si atom -5567.872041 kJ/mol
# Density = 1.926823 g / cm^3
# Si number density = 19.312188 Si / 1000 Ang^3
#
#
#
# Elastic Constant Matrix: (Units=GPa)
#
#
# Indices 1 2 3 4 5 6 
#
# 1 88.2281 43.2843 14.2648 0.0008 -34.0564 -0.0004
# 2 43.2843 78.9985 13.8506 -0.0005 -16.5932 -0.0004
# 3 14.2648 13.8506 63.4619 0.0018 -21.8735 -0.0009
# 4 0.0008 -0.0005 0.0018 111.2737 0.0020 -4.8951
# 5 -34.0564 -16.5932 -21.8735 0.0020 31.4909 -0.0005
# 6 -0.0004 -0.0004 -0.0009 -4.8951 -0.0005 25.4981
#
#
#
# Elastic Compliance Matrix: (Units=1/GPa)
#
#
# Indices 1 2 3 4 5 6 
#
# 1 0.024946 -0.009173 0.005295 -0.000001 0.025823 0.000001
# 2 -0.009173 0.017629 -0.002634 0.000000 -0.002460 0.000000
# 3 0.005295 -0.002634 0.021874 -0.000001 0.019533 0.000001
# 4 -0.000001 0.000000 -0.000001 0.009063 -0.000002 0.001740
# 5 0.025823 -0.002460 0.019533 -0.000002 0.071953 0.000002
# 6 0.000001 0.000000 0.000001 0.001740 0.000002 0.039553
#
#
# Mechanical properties :
#
#
# Convention : Reuss Voigt Hill
#
# Bulk Modulus (GPa) = 19.44499 41.49865 30.47182
# Shear Modulus (GPa) = 23.23600 44.27179 33.75389
#
# Velocity S-wave (km/s) = 3.47245 4.79312 4.18521
# Velocity P-wave (km/s) = 5.11545 7.22267 6.25839
#
# Compressibility (1/GPa) = 0.05142713
#
# Stress axis : x y z
#
# Youngs Moduli (GPa) = 40.08675 56.72372 45.71556
#
# Poissons Ratio (x) = 0.52030 -0.24207
# Poissons Ratio (y) = 0.36770 0.12040
# Poissons Ratio (z) = -0.21226 0.14939
#
# Static dielectric constant tensor:
#      x y z
#    x 1.758670 0.000000 -0.008440 
#    y 0.000000 1.652260 0.000000 
#    z -0.008440 0.000000 1.689840 
# 
# From -- ./inp_files/51386.got.cif
#   From: 2010.05.17/outbox.cif.g08.bks.cpg/sg5_26_cif.got.tgz:51386.got - 2010.06.03 18:56:24.
