data_PCOD9120102
_publ_section_title
;
Structure prediction by ZEFSAII (Michael W. Deem and Ramdas Pophale) SiO2 
 PCOD9120102
Probable space group: C 2
;
_chemical_formula_sum "Si O2"
_cell_formula_units_Z 30
_cell_length_a 19.192529
_cell_length_b 9.297886
_cell_length_c 13.986028
_cell_angle_alpha 90.000000
_cell_angle_beta 32.557260
_cell_angle_gamma 90.000000
_cell_volume 1343.098517
_symmetry_space_group_name_H-M "C 2"
_symmetry_group_IT_number 5
_symmetry_cell_setting 'monoclinic'
loop_
_space_group_symop_operation_xyz
x,y,z
-x,y,-z
1/2+x,1/2+y,z
1/2-x,1/2+y,-z
loop_
_atom_site_type_symbol
_atom_site_label
_atom_site_fract_x
_atom_site_fract_y
_atom_site_fract_z
Si Si1 0.979317 0.893450 0.229662
Si Si2 0.500000 0.522779 0.000000
Si Si3 0.729613 0.270728 0.911387
Si Si4 0.217627 0.308769 0.465892
Si Si5 0.294668 0.751653 0.195431
Si Si6 0.856420 0.494376 0.633472
Si Si7 0.157337 0.577006 0.816808
Si Si8 0.438969 0.709727 0.828652
O O1 0.829219 0.855325 0.410790
O O2 0.995767 0.921234 0.096315
O O3 0.021574 0.043088 0.225722
O O4 0.091104 0.780062 0.125001
O O5 0.382918 0.634307 0.147890
O O6 0.762368 0.422431 0.821495
O O7 0.713273 0.152463 0.847831
O O8 0.848000 0.244532 0.844830
O O9 0.185958 0.420964 0.416970
O O10 0.278620 0.167483 0.343634
O O11 0.077821 0.285849 0.673260
O O12 0.160046 0.666188 0.349336
O O13 0.303108 0.910156 0.226596
O O14 0.358217 0.748735 0.016422
O O15 0.000000 0.453587 0.500000
O O16 0.000000 0.586197 0.000000
#
# Coordination Sequence:
#
# PCOD9120102 Si02
#       8
#     4   2   4   4   4   4   4   4
#     4  11  21  42  70  94 129 177 225 261 330 403
#     4  10  16  36  68  90 114 170 222 258 302 394
#     4  11  22  42  68  95 132 179 219 265 332 407
#     4  11  23  44  69  97 130 176 226 272 323 402
#     4  11  23  40  67  93 136 166 218 277 332 381
#     4  11  21  42  72  95 125 183 233 261 324 413
#     4  11  23  39  70  99 127 171 230 272 323 391
#     4  11  26  41  65 102 138 168 215 284 336 383
#
# _framework density 22.336410999999998
#
# number of rings (size 3 to 8) (size 9 to 14) (size 15 to 20)
#    0.000    1.067    7.333    0.800    1.867    1.067 
#    2.400    0.000    0.000    0.000    0.000    0.000 
#    0.000    0.000    0.000    0.000    0.000    0.000 
#
# Total GULP energy -83812.290522 kJ/mol
# GULP energy per Si atom -5587.486035 kJ/mol
# Density = 2.228557 g / cm^3
# Si number density = 22.336411 Si / 1000 Ang^3
#
#
#
# Elastic Constant Matrix: (Units=GPa)
#
#
# Indices 1 2 3 4 5 6 
#
# 1 34.8738 7.7605 18.3269 0.0000 -11.7636 0.0000
# 2 7.7605 105.9192 13.1078 0.0000 3.6986 0.0000
# 3 18.3269 13.1078 72.6825 0.0000 -19.9330 0.0000
# 4 0.0000 0.0000 0.0000 23.5476 0.0000 -2.5463
# 5 -11.7636 3.6986 -19.9330 0.0000 31.6095 0.0000
# 6 0.0000 0.0000 0.0000 -2.5463 0.0000 8.3074
#
#
#
# Elastic Compliance Matrix: (Units=1/GPa)
#
#
# Indices 1 2 3 4 5 6 
#
# 1 0.035561 -0.002219 -0.005883 0.000000 0.009784 0.000000
# 2 -0.002219 0.009989 -0.002163 0.000000 -0.003359 0.000000
# 3 -0.005883 -0.002163 0.018259 0.000000 0.009578 0.000000
# 4 0.000000 0.000000 0.000000 0.043923 0.000000 0.013463
# 5 0.009784 -0.003359 0.009578 0.000000 0.041710 0.000000
# 6 0.000000 0.000000 0.000000 0.013463 0.000000 0.124501
#
#
# Mechanical properties :
#
#
# Convention : Reuss Voigt Hill
#
# Bulk Modulus (GPa) = 23.10670 32.42954 27.76812
# Shear Modulus (GPa) = 16.18660 24.31160 20.24910
#
# Velocity S-wave (km/s) = 2.69490 3.30271 3.01416
# Velocity P-wave (km/s) = 4.47779 5.39389 4.95705
#
# Compressibility (1/GPa) = 0.04327749
#
# Stress axis : x y z
#
# Youngs Moduli (GPa) = 28.12101 100.11323 54.76869
#
# Poissons Ratio (x) = 0.22215 0.32222
# Poissons Ratio (y) = 0.06240 0.11846
# Poissons Ratio (z) = 0.16544 0.21654
#
# Static dielectric constant tensor:
#      x y z
#    x 1.862860 0.000000 -0.023230 
#    y 0.000000 1.829370 0.000000 
#    z -0.023230 0.000000 1.886410 
# 
# From -- ./inp_files/62766.got.cif
#   From: 2010.05.17/outbox.cif.g08.bks.cpg/sg5_32_cif.got.tgz:62766.got - 2010.06.03 18:56:24.
