data_PCOD9120914
_publ_section_title
;
Structure prediction by ZEFSAII (Michael W. Deem and Ramdas Pophale) SiO2 
 PCOD9120914
Probable space group: C 2
;
_chemical_formula_sum "Si O2"
_cell_formula_units_Z 28
_cell_length_a 14.106954
_cell_length_b 13.196495
_cell_length_c 9.425919
_cell_angle_alpha 90.000000
_cell_angle_beta 51.292028
_cell_angle_gamma 90.000000
_cell_volume 1369.308536
_symmetry_space_group_name_H-M "C 2"
_symmetry_group_IT_number 5
_symmetry_cell_setting 'monoclinic'
loop_
_space_group_symop_operation_xyz
x,y,z
-x,y,-z
1/2+x,1/2+y,z
1/2-x,1/2+y,-z
loop_
_atom_site_type_symbol
_atom_site_label
_atom_site_fract_x
_atom_site_fract_y
_atom_site_fract_z
Si Si1 0.410401 0.156970 0.945449
Si Si2 0.355322 0.931582 0.646706
Si Si3 0.368549 0.868983 0.183878
Si Si4 0.021282 0.879695 0.143237
Si Si5 0.237700 0.978889 0.058960
Si Si6 0.870994 0.566882 0.379760
Si Si7 0.766548 0.776888 0.438319
O O1 0.397033 0.276914 0.942295
O O2 0.494408 0.114902 0.738638
O O3 0.500000 0.143422 0.000000
O O4 0.291063 0.088048 0.056708
O O5 0.500000 0.925955 0.500000
O O6 0.303370 0.829869 0.624521
O O7 0.320736 0.024102 0.573877
O O8 0.303837 0.950303 0.849761
O O9 0.281899 0.900406 0.136611
O O10 0.307081 0.790616 0.347722
O O11 0.382612 0.970237 0.266798
O O12 0.500000 0.840465 0.000000
O O13 0.095261 0.962856 0.161701
O O14 0.894038 0.839431 0.325635
O O15 0.000000 0.912431 0.000000
O O16 0.792207 0.658886 0.393261
#
# Coordination Sequence:
#
# PCOD9120914 Si02
#       7
#     4   4   4   4   4   4   4
#     4  10  18  36  63  90 115 164 219 257 306 386
#     4  11  21  36  64  94 122 161 216 267 312 376
#     4  11  21  40  68  96 127 166 216 272 318 375
#     4  10  22  38  61  92 128 170 205 263 323 377
#     4  12  20  34  63  93 126 157 216 265 315 371
#     4  10  19  39  65  87 121 168 208 258 316 376
#     4  10  23  41  65  91 133 165 213 262 326 380
#
# _framework density 20.448277000000001
#
# number of rings (size 3 to 8) (size 9 to 14) (size 15 to 20)
#    0.000    1.429    5.714    0.857    0.000    1.714 
#    0.000    0.000   25.143    0.857    0.000    0.000 
#    0.000    0.000    0.000    0.000    0.000    0.000 
#
# Total GULP energy -78141.832015 kJ/mol
# GULP energy per Si atom -5581.559430 kJ/mol
# Density = 2.040174 g / cm^3
# Si number density = 20.448277 Si / 1000 Ang^3
#
#
#
# Elastic Constant Matrix: (Units=GPa)
#
#
# Indices 1 2 3 4 5 6 
#
# 1 77.5246 24.3144 8.0763 0.0000 -1.2774 0.0000
# 2 24.3144 63.9462 2.7447 0.0000 -6.9404 0.0000
# 3 8.0763 2.7447 107.0746 0.0000 4.2821 0.0000
# 4 0.0000 0.0000 0.0000 26.5816 0.0000 -9.1975
# 5 -1.2774 -6.9404 4.2821 0.0000 29.0314 0.0000
# 6 0.0000 0.0000 0.0000 -9.1975 0.0000 33.6391
#
#
#
# Elastic Compliance Matrix: (Units=1/GPa)
#
#
# Indices 1 2 3 4 5 6 
#
# 1 0.014754 -0.005630 -0.000946 0.000000 -0.000557 0.000000
# 2 -0.005630 0.018237 -0.000209 0.000000 0.004143 0.000000
# 3 -0.000946 -0.000209 0.009476 0.000000 -0.001489 0.000000
# 4 0.000000 0.000000 0.000000 0.041551 0.000000 0.011361
# 5 -0.000557 0.004143 -0.001489 0.000000 0.035631 0.000000
# 6 0.000000 0.000000 0.000000 0.011361 0.000000 0.032834
#
#
# Mechanical properties :
#
#
# Convention : Reuss Voigt Hill
#
# Bulk Modulus (GPa) = 34.60467 35.42403 35.01435
# Shear Modulus (GPa) = 28.46004 32.07773 30.26888
#
# Velocity S-wave (km/s) = 3.73474 3.96501 3.85160
# Velocity P-wave (km/s) = 5.96301 6.19056 6.07785
#
# Compressibility (1/GPa) = 0.02889783
#
# Stress axis : x y z
#
# Youngs Moduli (GPa) = 67.77698 54.83229 105.53472
#
# Poissons Ratio (x) = 0.30870 0.09986
# Poissons Ratio (y) = 0.38158 0.02201
# Poissons Ratio (z) = 0.06414 0.01143
#
# Static dielectric constant tensor:
#      x y z
#    x 1.756190 0.000000 0.000270 
#    y 0.000000 1.735980 0.000000 
#    z 0.000270 0.000000 1.766220 
# 
# From -- ./inp_files/20542.got.cif
#   From: 2010.05.17/outbox.cif.g08.bks.cpg/sg5_11_cif.got.tgz:20542.got - 2010.06.03 18:56:24.
