data_PCOD9120990
_publ_section_title
;
Structure prediction by ZEFSAII (Michael W. Deem and Ramdas Pophale) SiO2 
 PCOD9120990
Probable space group: C 2
;
_chemical_formula_sum "Si O2"
_cell_formula_units_Z 28
_cell_length_a 15.485167
_cell_length_b 17.556536
_cell_length_c 7.245968
_cell_angle_alpha 90.000000
_cell_angle_beta 141.629715
_cell_angle_gamma 90.000000
_cell_volume 1222.817783
_symmetry_space_group_name_H-M "C 2"
_symmetry_group_IT_number 5
_symmetry_cell_setting 'monoclinic'
loop_
_space_group_symop_operation_xyz
x,y,z
-x,y,-z
1/2+x,1/2+y,z
1/2-x,1/2+y,-z
loop_
_atom_site_type_symbol
_atom_site_label
_atom_site_fract_x
_atom_site_fract_y
_atom_site_fract_z
Si Si1 0.615152 0.745340 0.917350
Si Si2 0.687718 0.812507 0.675849
Si Si3 0.888245 0.449421 0.684592
Si Si4 0.719957 0.201891 0.440434
Si Si5 0.835498 0.042107 0.468508
Si Si6 0.858711 0.069263 0.086522
Si Si7 0.928885 0.594856 0.573406
O O1 0.699444 0.797768 0.913274
O O2 0.457940 0.773936 0.635067
O O3 0.617295 0.659341 0.843667
O O4 0.681899 0.736400 0.231615
O O5 0.669076 0.898337 0.577596
O O6 0.800068 0.766373 0.745535
O O7 0.759210 0.480936 0.586674
O O8 0.981767 0.520436 0.766215
O O9 0.000000 0.405280 0.000000
O O10 0.787161 0.126517 0.456041
O O11 0.587021 0.167572 0.324391
O O12 0.822265 0.036024 0.224702
O O13 0.002214 0.036534 0.771823
O O14 0.727204 0.067563 0.735085
O O15 0.000000 0.611816 0.500000
#
# Coordination Sequence:
#
# PCOD9120990 Si02
#       7
#     4   4   4   4   4   4   4
#     4  10  19  31  60  92 115 143 202 267 304 347
#     4  11  20  36  56  90 125 157 203 255 310 360
#     4  11  24  37  56  87 132 172 204 253 314 383
#     4  10  19  34  61  84 117 151 200 256 302 359
#     4  10  19  36  61  94 117 160 209 254 318 360
#     4  10  18  37  67  90 120 150 214 275 299 366
#     4  10  23  37  58  89 123 163 206 254 314 372
#
# _framework density 22.897932999999998
#
# number of rings (size 3 to 8) (size 9 to 14) (size 15 to 20)
#    0.000    1.714    2.857    3.000    4.000    1.714 
#    2.571    0.000    3.143    3.429    0.000    0.000 
#    0.000    0.000    0.000    0.000    0.000    0.000 
#
# Total GULP energy -78217.594519 kJ/mol
# GULP energy per Si atom -5586.971037 kJ/mol
# Density = 2.284582 g / cm^3
# Si number density = 22.897933 Si / 1000 Ang^3
#
#
#
# Elastic Constant Matrix: (Units=GPa)
#
#
# Indices 1 2 3 4 5 6 
#
# 1 150.9613 31.0507 6.3254 0.0000 -1.3697 0.0000
# 2 31.0507 72.7252 -2.6043 0.0000 6.1631 0.0000
# 3 6.3254 -2.6043 59.7684 0.0000 -6.1604 0.0000
# 4 0.0000 0.0000 0.0000 12.3484 0.0000 1.6611
# 5 -1.3697 6.1631 -6.1604 0.0000 32.4797 0.0000
# 6 0.0000 0.0000 0.0000 1.6611 0.0000 10.5346
#
#
#
# Elastic Compliance Matrix: (Units=1/GPa)
#
#
# Indices 1 2 3 4 5 6 
#
# 1 0.007329 -0.003224 -0.000838 0.000000 0.000762 0.000000
# 2 -0.003224 0.015400 0.000711 0.000000 -0.002923 0.000000
# 3 -0.000838 0.000711 0.017169 0.000000 0.003086 0.000000
# 4 0.000000 0.000000 0.000000 0.082737 0.000000 -0.013046
# 5 0.000762 -0.002923 0.003086 0.000000 0.031961 0.000000
# 6 0.000000 0.000000 0.000000 -0.013046 0.000000 0.096982
#
#
# Mechanical properties :
#
#
# Convention : Reuss Voigt Hill
#
# Bulk Modulus (GPa) = 30.12306 39.22205 34.67256
# Shear Modulus (GPa) = 18.56352 27.65142 23.10747
#
# Velocity S-wave (km/s) = 2.85038 3.47882 3.18016
# Velocity P-wave (km/s) = 4.90070 5.77083 5.35347
#
# Compressibility (1/GPa) = 0.03319716
#
# Stress axis : x y z
#
# Youngs Moduli (GPa) = 136.43800 64.93489 58.24458
#
# Poissons Ratio (x) = 0.20934 0.04879
# Poissons Ratio (y) = 0.43986 -0.04141
# Poissons Ratio (z) = 0.11428 -0.04616
#
# Static dielectric constant tensor:
#      x y z
#    x 1.894220 0.000000 0.005590 
#    y 0.000000 1.892570 0.000000 
#    z 0.005590 0.000000 1.912780 
# 
# From -- ./inp_files/25220.got.cif
#   From: 2010.05.17/outbox.cif.g08.bks.cpg/sg5_13_cif.got.tgz:25220.got - 2010.06.03 18:56:24.
