data_PCOD9120436
_publ_section_title
;
Structure prediction by ZEFSAII (Michael W. Deem and Ramdas Pophale) SiO2 
 PCOD9120436
Probable space group: C 2
;
_chemical_formula_sum "Si O2"
_cell_formula_units_Z 26
_cell_length_a 7.310585
_cell_length_b 19.806916
_cell_length_c 11.864264
_cell_angle_alpha 90.000000
_cell_angle_beta 141.663216
_cell_angle_gamma 90.000000
_cell_volume 1065.612935
_symmetry_space_group_name_H-M "C 2"
_symmetry_group_IT_number 5
_symmetry_cell_setting 'monoclinic'
loop_
_space_group_symop_operation_xyz
x,y,z
-x,y,-z
1/2+x,1/2+y,z
1/2-x,1/2+y,-z
loop_
_atom_site_type_symbol
_atom_site_label
_atom_site_fract_x
_atom_site_fract_y
_atom_site_fract_z
Si Si1 0.733029 0.884760 0.456892
Si Si2 0.556878 0.160867 0.398103
Si Si3 0.175966 0.978546 0.969251
Si Si4 0.500000 0.602779 0.000000
Si Si5 0.077216 0.336473 0.882958
Si Si6 0.294853 0.525876 0.571740
Si Si7 0.994359 0.792609 0.252571
O O1 0.474630 0.842889 0.274475
O O2 0.711195 0.965193 0.447871
O O3 0.000000 0.871666 0.500000
O O4 0.812261 0.856487 0.616951
O O5 0.500000 0.182656 0.500000
O O6 0.643619 0.224169 0.363591
O O7 0.797030 0.099657 0.515922
O O8 0.231456 0.139641 0.192759
O O9 0.027761 0.996148 0.775566
O O10 0.395091 0.915592 0.064859
O O11 0.224208 0.054999 0.036037
O O12 0.000000 0.955417 0.000000
O O13 0.800168 0.302233 0.811475
O O14 0.363256 0.298326 0.065544
O O15 0.000000 0.535224 0.500000
#
# Coordination Sequence:
#
# PCOD9120436 Si02
#       7
#     4   4   4   2   4   4   4
#     4  10  20  35  55  81 112 146 181 230 281 331
#     4  11  19  33  51  80 113 139 183 229 278 325
#     4  10  18  32  53  83 109 142 184 236 279 319
#     4  10  18  30  50  80 104 140 174 230 282 316
#     4  10  18  33  49  76 113 137 180 222 272 327
#     4  11  19  35  56  82 112 144 189 234 274 327
#     4  10  21  32  52  79 111 147 180 221 281 332
#
# _framework density 24.399101000000002
#
# number of rings (size 3 to 8) (size 9 to 14) (size 15 to 20)
#    0.462    1.231    4.615    4.154    0.000    0.000 
#    0.000    0.000    0.000    0.923    8.000    0.000 
#    4.615    0.000    0.000    0.000    0.000    0.000 
#
# Total GULP energy -72368.909154 kJ/mol
# GULP energy per Si atom -5566.839166 kJ/mol
# Density = 2.434357 g / cm^3
# Si number density = 24.399101 Si / 1000 Ang^3
#
#
#
# Elastic Constant Matrix: (Units=GPa)
#
#
# Indices 1 2 3 4 5 6 
#
# 1 56.3940 -0.7964 8.1716 0.0000 0.1635 0.0000
# 2 -0.7964 137.4678 46.9277 0.0000 -4.3196 0.0000
# 3 8.1716 46.9277 129.5386 0.0000 -27.2936 0.0000
# 4 0.0000 0.0000 0.0000 19.4684 0.0000 -3.3960
# 5 0.1635 -4.3196 -27.2936 0.0000 26.8181 0.0000
# 6 0.0000 0.0000 0.0000 -3.3960 0.0000 26.6666
#
#
#
# Elastic Compliance Matrix: (Units=1/GPa)
#
#
# Indices 1 2 3 4 5 6 
#
# 1 0.017999 0.000644 -0.001744 0.000000 -0.001781 0.000000
# 2 0.000644 0.008427 -0.003575 0.000000 -0.002285 0.000000
# 3 -0.001744 -0.003575 0.011464 0.000000 0.011102 0.000000
# 4 0.000000 0.000000 0.000000 0.052532 0.000000 0.006690
# 5 -0.001781 -0.002285 0.011102 0.000000 0.048230 0.000000
# 6 0.000000 0.000000 0.000000 0.006690 0.000000 0.038352
#
#
# Mechanical properties :
#
#
# Convention : Reuss Voigt Hill
#
# Bulk Modulus (GPa) = 35.03845 48.00068 41.51957
# Shear Modulus (GPa) = 25.52746 32.53045 29.02896
#
# Velocity S-wave (km/s) = 3.23808 3.65535 3.45302
# Velocity P-wave (km/s) = 5.32653 6.12628 5.74035
#
# Compressibility (1/GPa) = 0.02854007
#
# Stress axis : x y z
#
# Youngs Moduli (GPa) = 55.55766 118.67074 87.23028
#
# Poissons Ratio (x) = -0.07638 0.15211
# Poissons Ratio (y) = -0.03576 0.31182
# Poissons Ratio (z) = 0.09688 0.42421
#
# Static dielectric constant tensor:
#      x y z
#    x 1.888220 0.000000 0.037830 
#    y 0.000000 2.006390 0.000000 
#    z 0.037830 0.000000 2.056190 
# 
# From -- ./inp_files/53361.got.cif
#   From: 2010.05.17/outbox.cif.g08.bks.cpg/sg5_27_cif.got.tgz:53361.got - 2010.06.03 18:56:24.
