data_PCOD9120640
_publ_section_title
;
Structure prediction by ZEFSAII (Michael W. Deem and Ramdas Pophale) SiO2 
 PCOD9120640
Probable space group: C 2
;
_chemical_formula_sum "Si O2"
_cell_formula_units_Z 30
_cell_length_a 25.400499
_cell_length_b 7.152578
_cell_length_c 9.536954
_cell_angle_alpha 90.000000
_cell_angle_beta 140.676563
_cell_angle_gamma 90.000000
_cell_volume 1097.985077
_symmetry_space_group_name_H-M "C 2"
_symmetry_group_IT_number 5
_symmetry_cell_setting 'monoclinic'
loop_
_space_group_symop_operation_xyz
x,y,z
-x,y,-z
1/2+x,1/2+y,z
1/2-x,1/2+y,-z
loop_
_atom_site_type_symbol
_atom_site_label
_atom_site_fract_x
_atom_site_fract_y
_atom_site_fract_z
Si Si1 0.585699 0.905570 0.988452
Si Si2 0.906231 0.269381 0.584128
Si Si3 0.885597 0.840926 0.994920
Si Si4 0.836583 0.758708 0.186766
Si Si5 0.852565 0.685276 0.525606
Si Si6 0.281055 0.776510 0.522437
Si Si7 0.642099 0.819961 0.806228
Si Si8 0.500000 0.366052 0.000000
O O1 0.494992 0.823268 0.827472
O O2 0.619871 0.794980 0.922727
O O3 0.649637 0.892345 0.247984
O O4 0.580952 0.126267 0.943487
O O5 0.858759 0.469730 0.492700
O O6 0.843389 0.150524 0.553231
O O7 0.910574 0.227096 0.427958
O O8 0.874696 0.878889 0.137980
O O9 0.795067 0.835750 0.735849
O O10 0.948560 0.955037 0.024558
O O11 0.736935 0.764464 0.970704
O O12 0.855232 0.802303 0.386682
O O13 0.865241 0.545341 0.223034
O O14 0.770791 0.703634 0.450823
O O15 0.929370 0.746894 0.777957
#
# Coordination Sequence:
#
# PCOD9120640 Si02
#       8
#     4   4   4   4   4   4   4   2
#     4  11  21  36  59  90 116 151 203 258 295 345
#     4  11  21  36  59  90 116 151 203 258 295 345
#     4  10  21  35  57  86 122 150 196 251 304 345
#     4  10  20  39  58  91 119 159 203 247 302 367
#     4  10  21  35  57  86 122 150 196 251 304 345
#     4  11  20  31  54  86 120 155 181 240 319 351
#     4  10  21  38  61  92 115 159 203 256 295 364
#     4  10  18  34  52  88 118 146 194 254 300 334
#
# _framework density 27.322775
#
# number of rings (size 3 to 8) (size 9 to 14) (size 15 to 20)
#    0.000    1.600    4.000    2.400    0.000    0.533 
#    0.000    0.000    0.000    0.000   90.133    0.000 
#    0.000    0.000    0.000    0.000    0.000    0.000 
#
# Total GULP energy -83883.369748 kJ/mol
# GULP energy per Si atom -5592.224650 kJ/mol
# Density = 2.726059 g / cm^3
# Si number density = 27.322775 Si / 1000 Ang^3
#
#
#
# Elastic Constant Matrix: (Units=GPa)
#
#
# Indices 1 2 3 4 5 6 
#
# 1 247.5477 24.5553 80.7967 0.0000 -19.8302 0.0000
# 2 24.5553 72.7671 27.4277 0.0000 -1.0994 0.0000
# 3 80.7967 27.4277 127.1266 0.0000 -13.7939 0.0000
# 4 0.0000 0.0000 0.0000 22.3069 0.0000 -6.2795
# 5 -19.8302 -1.0994 -13.7939 0.0000 69.5603 0.0000
# 6 0.0000 0.0000 0.0000 -6.2795 0.0000 80.9588
#
#
#
# Elastic Compliance Matrix: (Units=1/GPa)
#
#
# Indices 1 2 3 4 5 6 
#
# 1 0.005166 -0.000575 -0.003067 0.000000 0.000856 0.000000
# 2 -0.000575 0.015034 -0.002934 0.000000 -0.000508 0.000000
# 3 -0.003067 -0.002934 0.010576 0.000000 0.001177 0.000000
# 4 0.000000 0.000000 0.000000 0.045830 0.000000 0.003555
# 5 0.000856 -0.000508 0.001177 0.000000 0.014845 0.000000
# 6 0.000000 0.000000 0.000000 0.003555 0.000000 0.012628
#
#
# Mechanical properties :
#
#
# Convention : Reuss Voigt Hill
#
# Bulk Modulus (GPa) = 56.73184 79.22229 67.97707
# Shear Modulus (GPa) = 40.61603 55.54264 48.07934
#
# Velocity S-wave (km/s) = 3.85973 4.51359 4.19940
# Velocity P-wave (km/s) = 6.37746 7.49808 6.96036
#
# Compressibility (1/GPa) = 0.01762679
#
# Stress axis : x y z
#
# Youngs Moduli (GPa) = 193.57212 66.51399 94.55579
#
# Poissons Ratio (x) = 0.03821 0.28996
# Poissons Ratio (y) = 0.11121 0.27740
# Poissons Ratio (z) = 0.59360 0.19513
#
# Static dielectric constant tensor:
#      x y z
#    x 2.265720 0.000000 -0.073800 
#    y 0.000000 2.382240 0.000000 
#    z -0.073800 0.000000 2.040860 
# 
# From -- ./inp_files/30946.got.cif
#   From: 2010.05.17/outbox.cif.g08.bks.cpg/sg5_16_cif.got.tgz:30946.got - 2010.06.03 18:56:24.
