data_PCOD9120105
_publ_section_title
;
Structure prediction by ZEFSAII (Michael W. Deem and Ramdas Pophale) SiO2 
 PCOD9120105
Probable space group: C 2
;
_chemical_formula_sum "Si O2"
_cell_formula_units_Z 18
_cell_length_a 20.012494
_cell_length_b 4.962302
_cell_length_c 10.315814
_cell_angle_alpha 90.000000
_cell_angle_beta 142.485601
_cell_angle_gamma 90.000000
_cell_volume 623.845774
_symmetry_space_group_name_H-M "C 2"
_symmetry_group_IT_number 5
_symmetry_cell_setting 'monoclinic'
loop_
_space_group_symop_operation_xyz
x,y,z
-x,y,-z
1/2+x,1/2+y,z
1/2-x,1/2+y,-z
loop_
_atom_site_type_symbol
_atom_site_label
_atom_site_fract_x
_atom_site_fract_y
_atom_site_fract_z
Si Si1 0.443973 0.026080 0.179617
Si Si2 0.285350 0.686371 0.226064
Si Si3 0.096135 0.019981 0.023357
Si Si4 0.188807 0.182135 0.433003
Si Si5 0.000000 0.892498 0.500000
O O1 0.503375 0.180900 0.385894
O O2 0.312414 0.031339 0.999017
O O3 0.453268 0.225869 0.071995
O O4 0.468097 0.730745 0.166107
O O5 0.311940 0.605184 0.416594
O O6 0.396975 0.595095 0.329736
O O7 0.220213 0.969005 0.152640
O O8 0.110826 0.104064 0.193370
O O9 0.294388 0.002244 0.550880
#
# Coordination Sequence:
#
# PCOD9120105 Si02
#       5
#     4   4   4   4   2
#     4  10  23  44  68 107 148 196 246 303 360 436
#     4   9  23  43  74 110 150 191 247 307 372 443
#     4   9  19  44  71 103 143 192 243 307 373 424
#     4  10  16  36  75 102 135 191 238 298 382 430
#     4  12  26  50  74 116 152 206 250 296 374 454
#
# _framework density 28.853287999999999
#
# number of rings (size 3 to 8) (size 9 to 14) (size 15 to 20)
#    1.333    0.889    2.222    0.000    0.000    2.667 
#    8.000    1.111    0.000    2.667    0.000    0.000 
#    0.000    0.000    0.000    0.000    0.000    0.000 
#
# Total GULP energy -50252.138821 kJ/mol
# GULP energy per Si atom -5583.570980 kJ/mol
# Density = 2.878762 g / cm^3
# Si number density = 28.853288 Si / 1000 Ang^3
#
#
#
# Elastic Constant Matrix: (Units=GPa)
#
#
# Indices 1 2 3 4 5 6 
#
# 1 106.5006 32.1604 17.0677 0.0000 -14.8839 0.0000
# 2 32.1604 126.5896 29.0212 0.0008 4.3643 0.0001
# 3 17.0677 29.0212 152.8302 0.0000 -9.2425 0.0001
# 4 0.0000 0.0008 0.0000 40.3537 0.0000 -1.8803
# 5 -14.8839 4.3643 -9.2425 0.0000 55.5476 0.0000
# 6 0.0000 0.0001 0.0001 -1.8803 0.0000 27.1775
#
#
#
# Elastic Compliance Matrix: (Units=1/GPa)
#
#
# Indices 1 2 3 4 5 6 
#
# 1 0.010707 -0.002709 -0.000500 0.000000 0.002999 0.000000
# 2 -0.002709 0.008991 -0.001507 0.000000 -0.001683 0.000000
# 3 -0.000500 -0.001507 0.006954 0.000000 0.001142 0.000000
# 4 0.000000 0.000000 0.000000 0.024861 0.000000 0.001720
# 5 0.002999 -0.001683 0.001142 0.000000 0.019128 0.000000
# 6 0.000000 0.000000 0.000000 0.001720 0.000000 0.036914
#
#
# Mechanical properties :
#
#
# Convention : Reuss Voigt Hill
#
# Bulk Modulus (GPa) = 58.06778 60.26878 59.16828
# Shear Modulus (GPa) = 40.74092 45.12717 42.93404
#
# Velocity S-wave (km/s) = 3.76174 3.95906 3.86166
# Velocity P-wave (km/s) = 6.24792 6.46779 6.35880
#
# Compressibility (1/GPa) = 0.01722125
#
# Stress axis : x y z
#
# Youngs Moduli (GPa) = 93.39859 111.22050 143.79855
#
# Poissons Ratio (x) = 0.30128 0.07190
# Poissons Ratio (y) = 0.25300 0.21665
# Poissons Ratio (z) = 0.04670 0.16757
#
# Static dielectric constant tensor:
#      x y z
#    x 2.416510 0.000000 0.188710 
#    y 0.000000 2.145930 0.000000 
#    z 0.188710 0.000000 2.199140 
# 
# From -- ./inp_files/47663.got.cif
#   From: 2010.05.17/outbox.cif.g08.bks.cpg/sg5_24_cif.got.tgz:47663.got - 2010.06.03 18:56:24.
