data_PCOD9120198
_publ_section_title
;
Structure prediction by ZEFSAII (Michael W. Deem and Ramdas Pophale) SiO2 
 PCOD9120198
Probable space group: C 2
;
_chemical_formula_sum "Si O2"
_cell_formula_units_Z 28
_cell_length_a 15.079517
_cell_length_b 12.134549
_cell_length_c 11.625574
_cell_angle_alpha 90.000000
_cell_angle_beta 139.910547
_cell_angle_gamma 90.000000
_cell_volume 1369.934340
_symmetry_space_group_name_H-M "C 2"
_symmetry_group_IT_number 5
_symmetry_cell_setting 'monoclinic'
loop_
_space_group_symop_operation_xyz
x,y,z
-x,y,-z
1/2+x,1/2+y,z
1/2-x,1/2+y,-z
loop_
_atom_site_type_symbol
_atom_site_label
_atom_site_fract_x
_atom_site_fract_y
_atom_site_fract_z
Si Si1 0.975408 0.618040 0.842897
Si Si2 0.169984 0.845033 0.262433
Si Si3 0.766007 0.047217 0.116105
Si Si4 0.413639 0.780396 0.679390
Si Si5 0.626100 0.787023 0.715204
Si Si6 0.261347 0.944460 0.666907
Si Si7 0.038985 0.018841 0.275669
O O1 0.933352 0.745066 0.809048
O O2 0.846613 0.541877 0.685552
O O3 0.116680 0.585167 0.921977
O O4 0.000000 0.586347 0.000000
O O5 0.298011 0.819862 0.473967
O O6 0.238679 0.841816 0.204954
O O7 0.097452 0.957597 0.222809
O O8 0.832674 0.158643 0.236207
O O9 0.876088 0.007556 0.133087
O O10 0.752850 0.966517 0.212050
O O11 0.560850 0.820268 0.773433
O O12 0.354242 0.836988 0.734568
O O13 0.424233 0.648415 0.691401
O O14 0.500000 0.798338 0.500000
O O15 0.114140 0.956464 0.457816
#
# Coordination Sequence:
#
# PCOD9120198 Si02
#       7
#     4   4   4   4   4   4   4
#     4  10  18  31  51  77  96 130 170 211 245 287
#     4  10  17  31  53  75 105 129 171 210 247 295
#     4  10  18  31  51  76  97 130 171 210 241 294
#     4   9  18  30  52  78  99 132 167 212 252 292
#     4   9  15  29  51  75  96 127 173 208 239 288
#     4  10  17  31  55  72 101 129 172 208 245 295
#     4  10  19  32  52  77 101 133 168 208 253 294
#
# _framework density 20.438935000000001
#
# number of rings (size 3 to 8) (size 9 to 14) (size 15 to 20)
#    0.000    2.286    4.286    2.143    0.000    0.000 
#    5.143    0.000    3.143    6.000    0.000    0.000 
#    0.000    0.000    0.000    0.000    0.000    0.000 
#
# Total GULP energy -77981.853642 kJ/mol
# GULP energy per Si atom -5570.132403 kJ/mol
# Density = 2.039242 g / cm^3
# Si number density = 20.438935 Si / 1000 Ang^3
#
#
#
# Elastic Constant Matrix: (Units=GPa)
#
#
# Indices 1 2 3 4 5 6 
#
# 1 126.8972 60.7423 24.1255 0.0000 40.5282 0.0000
# 2 60.7423 69.9664 1.8001 0.0000 18.4564 0.0000
# 3 24.1255 1.8001 44.7462 0.0000 26.3662 0.0000
# 4 0.0000 0.0000 0.0000 7.2270 0.0000 4.7203
# 5 40.5282 18.4564 26.3662 0.0000 32.9789 0.0000
# 6 0.0000 0.0000 0.0000 4.7203 0.0000 36.8497
#
#
#
# Elastic Compliance Matrix: (Units=1/GPa)
#
#
# Indices 1 2 3 4 5 6 
#
# 1 0.018939 -0.012085 0.000007 0.000000 -0.016517 0.000000
# 2 -0.012085 0.026743 0.010413 0.000000 -0.008440 0.000000
# 3 0.000007 0.010413 0.047956 0.000000 -0.044177 0.000000
# 4 0.000000 0.000000 0.000000 0.151005 0.000000 -0.019343
# 5 -0.016517 -0.008440 -0.044177 0.000000 0.090663 0.000000
# 6 0.000000 0.000000 0.000000 -0.019343 0.000000 0.029615
#
#
# Mechanical properties :
#
#
# Convention : Reuss Voigt Hill
#
# Bulk Modulus (GPa) = 11.07309 46.10507 28.58908
# Shear Modulus (GPa) = 12.55165 25.74056 19.14611
#
# Velocity S-wave (km/s) = 2.48080 3.55264 3.06395
# Velocity P-wave (km/s) = 3.69259 6.27971 5.15121
#
# Compressibility (1/GPa) = 0.09030905
#
# Stress axis : x y z
#
# Youngs Moduli (GPa) = 52.80085 37.39271 20.85225
#
# Poissons Ratio (x) = 0.45191 -0.00015
# Poissons Ratio (y) = 0.63812 -0.21714
# Poissons Ratio (z) = -0.00038 -0.38938
#
# Static dielectric constant tensor:
#      x y z
#    x 1.773750 0.000000 0.033530 
#    y 0.000000 1.743720 0.000000 
#    z 0.033530 0.000000 1.818160 
# 
# From -- ./inp_files/23658.got.cif
#   From: 2010.05.17/outbox.cif.g08.bks.cpg/sg5_12_cif.got.tgz:23658.got - 2010.06.03 18:56:24.
