data_PCOD9120166
_publ_section_title
;
Structure prediction by ZEFSAII (Michael W. Deem and Ramdas Pophale) SiO2 
 PCOD9120166
Probable space group: C 2
;
_chemical_formula_sum "Si O2"
_cell_formula_units_Z 32
_cell_length_a 24.129878
_cell_length_b 7.831158
_cell_length_c 8.187222
_cell_angle_alpha 90.000000
_cell_angle_beta 71.611031
_cell_angle_gamma 90.000000
_cell_volume 1468.097679
_symmetry_space_group_name_H-M "C 2"
_symmetry_group_IT_number 5
_symmetry_cell_setting 'monoclinic'
loop_
_space_group_symop_operation_xyz
x,y,z
-x,y,-z
1/2+x,1/2+y,z
1/2-x,1/2+y,-z
loop_
_atom_site_type_symbol
_atom_site_label
_atom_site_fract_x
_atom_site_fract_y
_atom_site_fract_z
Si Si1 0.776612 0.404710 0.450165
Si Si2 0.199832 0.621869 0.262782
Si Si3 0.939411 0.240250 0.485802
Si Si4 0.644906 0.103163 0.857485
Si Si5 0.177079 0.075284 0.398856
Si Si6 0.244526 0.266224 0.086773
Si Si7 0.416354 0.056513 0.743738
Si Si8 0.532634 0.027994 0.796826
O O1 0.784189 0.557251 0.573949
O O2 0.819126 0.454748 0.264029
O O3 0.798597 0.238350 0.521282
O O4 0.710522 0.415285 0.444906
O O5 0.213453 0.443812 0.151513
O O6 0.131443 0.668500 0.308782
O O7 0.239234 0.744588 0.116640
O O8 0.891459 0.093739 0.520070
O O9 0.919053 0.382186 0.637899
O O10 0.948227 0.352777 0.312863
O O11 0.000000 0.173602 0.500000
O O12 0.694392 0.240799 0.866717
O O13 0.590165 0.138921 0.786841
O O14 0.613657 0.042109 0.051547
O O15 0.200982 0.119945 0.196196
O O16 0.483208 0.107496 0.722177
O O17 0.500000 0.993777 0.000000
#
# Coordination Sequence:
#
# PCOD9120166 Si02
#       8
#     4   4   4   4   4   4   4   4
#     4  10  19  31  49  70 103 131 162 204 248 299
#     4  10  18  33  46  75  98 133 165 205 250 300
#     4  10  17  30  48  69 100 131 162 210 248 291
#     4   9  16  28  44  69  98 129 159 197 246 297
#     4  10  19  34  47  75  99 129 164 203 252 300
#     4   9  19  30  49  67 104 129 165 204 245 298
#     4   9  16  26  46  66 100 122 160 202 247 281
#     4   9  16  26  44  71  97 127 159 204 252 283
#
# _framework density 21.796914000000001
#
# number of rings (size 3 to 8) (size 9 to 14) (size 15 to 20)
#    0.000    2.500    3.750    0.000    0.000    3.000 
#    0.000    0.000    0.000    0.000    0.000   30.625 
#    0.000    0.000    0.000    0.000    0.000    0.000 
#
# Total GULP energy -89148.435542 kJ/mol
# GULP energy per Si atom -5571.777221 kJ/mol
# Density = 2.174730 g / cm^3
# Si number density = 21.796914 Si / 1000 Ang^3
#
#
#
# Elastic Constant Matrix: (Units=GPa)
#
#
# Indices 1 2 3 4 5 6 
#
# 1 165.1052 -4.0570 32.6587 0.0000 -11.7492 0.0000
# 2 -4.0570 37.9019 -1.3325 0.0000 -1.0032 0.0000
# 3 32.6587 -1.3325 48.7671 0.0000 -1.5430 0.0000
# 4 0.0000 0.0000 0.0000 18.2627 0.0000 -3.0532
# 5 -11.7492 -1.0032 -1.5430 0.0000 33.1132 0.0000
# 6 0.0000 0.0000 0.0000 -3.0532 0.0000 29.9458
#
#
#
# Elastic Compliance Matrix: (Units=1/GPa)
#
#
# Indices 1 2 3 4 5 6 
#
# 1 0.007172 0.000664 -0.004710 0.000000 0.002345 0.000000
# 2 0.000664 0.026494 0.000312 0.000000 0.001053 0.000000
# 3 -0.004710 0.000312 0.023651 0.000000 -0.000560 0.000000
# 4 0.000000 0.000000 0.000000 0.055706 0.000000 0.005680
# 5 0.002345 0.001053 -0.000560 0.000000 0.031037 0.000000
# 6 0.000000 0.000000 0.000000 0.005680 0.000000 0.033973
#
#
# Mechanical properties :
#
#
# Convention : Reuss Voigt Hill
#
# Bulk Modulus (GPa) = 20.06065 34.03473 27.04769
# Shear Modulus (GPa) = 24.73819 31.23134 27.98476
#
# Velocity S-wave (km/s) = 3.37254 3.78938 3.58702
# Velocity P-wave (km/s) = 4.93850 5.89867 5.43981
#
# Compressibility (1/GPa) = 0.04984883
#
# Stress axis : x y z
#
# Youngs Moduli (GPa) = 139.43664 37.74460 42.28150
#
# Poissons Ratio (x) = -0.02507 0.19917
# Poissons Ratio (y) = -0.09260 -0.01321
# Poissons Ratio (z) = 0.65681 -0.01179
#
# Static dielectric constant tensor:
#      x y z
#    x 1.905680 0.000000 0.032640 
#    y 0.000000 1.833010 0.000000 
#    z 0.032640 0.000000 1.833960 
# 
# From -- ./inp_files/30790.got.cif
#   From: 2010.05.17/outbox.cif.g08.bks.cpg/sg5_16_cif.got.tgz:30790.got - 2010.06.03 18:56:24.
