data_PCOD9120888
_publ_section_title
;
Structure prediction by ZEFSAII (Michael W. Deem and Ramdas Pophale) SiO2 
 PCOD9120888
Probable space group: C 2
;
_chemical_formula_sum "Si O2"
_cell_formula_units_Z 28
_cell_length_a 15.206880
_cell_length_b 12.037173
_cell_length_c 16.589861
_cell_angle_alpha 90.000000
_cell_angle_beta 156.132455
_cell_angle_gamma 90.000000
_cell_volume 1228.736126
_symmetry_space_group_name_H-M "C 2"
_symmetry_group_IT_number 5
_symmetry_cell_setting 'monoclinic'
loop_
_space_group_symop_operation_xyz
x,y,z
-x,y,-z
1/2+x,1/2+y,z
1/2-x,1/2+y,-z
loop_
_atom_site_type_symbol
_atom_site_label
_atom_site_fract_x
_atom_site_fract_y
_atom_site_fract_z
Si Si1 0.976737 0.766220 0.137243
Si Si2 0.795246 0.797021 0.378512
Si Si3 0.791747 0.334001 0.928770
Si Si4 0.245565 0.124571 0.218024
Si Si5 0.210911 0.449002 0.863429
Si Si6 0.650119 0.758698 0.428300
Si Si7 0.695742 0.569716 0.888041
O O1 0.210381 0.754650 0.373408
O O2 0.813279 0.788303 0.076564
O O3 0.928830 0.872746 0.041642
O O4 0.890017 0.652747 0.026603
O O5 0.784715 0.667516 0.340297
O O6 0.803584 0.791287 0.481700
O O7 0.000000 0.845856 0.500000
O O8 0.554757 0.844275 0.157357
O O9 0.748097 0.240034 0.826472
O O10 0.697510 0.456945 0.838131
O O11 0.365886 0.027491 0.273409
O O12 0.000000 0.086011 0.000000
O O13 0.023089 0.357636 0.713525
O O14 0.252259 0.526616 0.977016
O O15 0.521902 0.643659 0.302864
#
# Coordination Sequence:
#
# PCOD9120888 Si02
#       7
#     4   4   4   4   4   4   4
#     4  10  20  36  61  90 126 162 219 261 307 373
#     4  11  21  36  59  93 139 157 205 264 327 389
#     4  10  19  38  56  89 130 168 199 261 325 381
#     4  10  20  38  63  90 130 164 204 262 338 379
#     4  10  20  39  60  90 129 167 210 262 319 386
#     4  11  22  39  62  97 125 167 219 261 316 388
#     4  10  18  36  61  84 126 162 218 257 310 374
#
# _framework density 22.787642000000002
#
# number of rings (size 3 to 8) (size 9 to 14) (size 15 to 20)
#    0.000    1.714    5.714    1.714    0.000    2.286 
#    7.714    0.000    0.000   10.286    0.000    0.000 
#    0.000    0.000    0.000    0.000    0.000    0.000 
#
# Total GULP energy -78077.584263 kJ/mol
# GULP energy per Si atom -5576.970305 kJ/mol
# Density = 2.273578 g / cm^3
# Si number density = 22.787642 Si / 1000 Ang^3
#
#
#
# Elastic Constant Matrix: (Units=GPa)
#
#
# Indices 1 2 3 4 5 6 
#
# 1 40.7907 33.1887 6.9704 -0.0032 -2.2639 -0.0022
# 2 33.1887 167.0705 35.4865 -0.0038 -4.0883 -0.0048
# 3 6.9704 35.4865 107.5289 -0.0007 8.6441 -0.0009
# 4 -0.0032 -0.0038 -0.0007 23.7919 -0.0010 -10.3853
# 5 -2.2639 -4.0883 8.6441 -0.0010 30.7896 0.0001
# 6 -0.0022 -0.0048 -0.0009 -10.3853 0.0001 27.5585
#
#
#
# Elastic Compliance Matrix: (Units=1/GPa)
#
#
# Indices 1 2 3 4 5 6 
#
# 1 0.029302 -0.005762 -0.000112 0.000004 0.001421 0.000003
# 2 -0.005762 0.007637 -0.002245 0.000001 0.001221 0.000001
# 3 -0.000112 -0.002245 0.010305 0.000000 -0.003199 0.000000
# 4 0.000004 0.000001 0.000000 0.050306 0.000002 0.018958
# 5 0.001421 0.001221 -0.003199 0.000002 0.033643 0.000001
# 6 0.000003 0.000001 0.000000 0.018958 0.000001 0.043431
#
#
# Mechanical properties :
#
#
# Convention : Reuss Voigt Hill
#
# Bulk Modulus (GPa) = 32.25244 51.85351 42.05297
# Shear Modulus (GPa) = 24.85122 32.41096 28.63109
#
# Velocity S-wave (km/s) = 3.30594 3.77544 3.54846
# Velocity P-wave (km/s) = 5.36251 6.46604 5.93996
#
# Compressibility (1/GPa) = 0.03100541
#
# Stress axis : x y z
#
# Youngs Moduli (GPa) = 34.12767 130.94369 97.03896
#
# Poissons Ratio (x) = 0.75453 0.01087
# Poissons Ratio (y) = 0.19665 0.21784
# Poissons Ratio (z) = 0.00382 0.29396
#
# Static dielectric constant tensor:
#      x y z
#    x 1.913860 0.000000 -0.001170 
#    y 0.000000 1.857930 0.000000 
#    z -0.001170 0.000000 1.998170 
# 
# From -- ./inp_files/66726.got.cif
#   From: 2010.05.17/outbox.cif.g08.bks.cpg/sg5_34_cif.got.tgz:66726.got - 2010.06.03 18:56:24.
