data_PCOD9120330
_publ_section_title
;
Structure prediction by ZEFSAII (Michael W. Deem and Ramdas Pophale) SiO2 
 PCOD9120330
Probable space group: C 2
;
_chemical_formula_sum "Si O2"
_cell_formula_units_Z 32
_cell_length_a 14.349326
_cell_length_b 12.457875
_cell_length_c 13.484602
_cell_angle_alpha 90.000000
_cell_angle_beta 141.076156
_cell_angle_gamma 90.000000
_cell_volume 1514.508066
_symmetry_space_group_name_H-M "C 2"
_symmetry_group_IT_number 5
_symmetry_cell_setting 'monoclinic'
loop_
_space_group_symop_operation_xyz
x,y,z
-x,y,-z
1/2+x,1/2+y,z
1/2-x,1/2+y,-z
loop_
_atom_site_type_symbol
_atom_site_label
_atom_site_fract_x
_atom_site_fract_y
_atom_site_fract_z
Si Si1 0.513718 0.921100 0.147795
Si Si2 0.319345 0.759987 0.345888
Si Si3 0.163412 0.217644 0.219628
Si Si4 0.834990 0.726947 0.573337
Si Si5 0.419442 0.341973 0.328575
Si Si6 0.232154 0.532428 0.189713
Si Si7 0.758923 0.491425 0.277659
Si Si8 0.534337 0.007895 0.366497
O O1 0.526214 0.798455 0.121373
O O2 0.503930 0.921228 0.257439
O O3 0.665565 0.976483 0.234136
O O4 0.387588 0.994966 0.992461
O O5 0.500000 0.773335 0.500000
O O6 0.262995 0.745342 0.411732
O O7 0.269586 0.655203 0.242401
O O8 0.237157 0.866331 0.234913
O O9 0.244829 0.224527 0.395002
O O10 0.273004 0.269109 0.226691
O O11 0.144865 0.090419 0.185020
O O12 0.916960 0.613560 0.650570
O O13 0.969694 0.808893 0.666215
O O14 0.500000 0.327829 0.500000
O O15 0.376881 0.465528 0.282286
O O16 0.833972 0.482939 0.448605
O O17 0.890278 0.528680 0.313057
#
# Coordination Sequence:
#
# PCOD9120330 Si02
#       8
#     4   4   4   4   4   4   4   4
#     4  10  20  38  64  84 122 168 222 245 311 376
#     4  12  23  38  57  93 137 165 205 263 315 379
#     4   9  18  33  63  94 113 152 208 267 306 372
#     4  10  19  34  62  88 125 161 199 259 331 368
#     4   9  17  35  60  90 115 151 216 272 308 349
#     4  10  22  38  58  87 124 174 207 259 301 370
#     4  10  20  35  60  92 127 150 207 266 330 361
#     4  10  17  36  61  89 121 169 199 252 325 377
#
# _framework density 21.128973999999999
#
# number of rings (size 3 to 8) (size 9 to 14) (size 15 to 20)
#    0.000    2.000    3.750    1.125    0.000    0.000 
#    4.500    1.250    0.000    6.000    0.000    0.000 
#    0.000    0.000    0.000    0.000    0.000    0.000 
#
# Total GULP energy -89157.549136 kJ/mol
# GULP energy per Si atom -5572.346821 kJ/mol
# Density = 2.108088 g / cm^3
# Si number density = 21.128974 Si / 1000 Ang^3
#
#
#
# Elastic Constant Matrix: (Units=GPa)
#
#
# Indices 1 2 3 4 5 6 
#
# 1 101.3684 42.0599 28.7867 0.0000 -3.1352 0.0000
# 2 42.0599 179.0137 35.5749 0.0000 6.2366 0.0000
# 3 28.7867 35.5749 63.9495 0.0000 0.7996 0.0000
# 4 0.0000 0.0000 0.0000 2.8695 0.0000 2.2997
# 5 -3.1352 6.2366 0.7996 0.0000 18.4478 0.0000
# 6 0.0000 0.0000 0.0000 2.2997 0.0000 31.2743
#
#
#
# Elastic Compliance Matrix: (Units=1/GPa)
#
#
# Indices 1 2 3 4 5 6 
#
# 1 0.012039 -0.002076 -0.004301 0.000000 0.002934 0.000000
# 2 -0.002076 0.006711 -0.002768 0.000000 -0.002502 0.000000
# 3 -0.004301 -0.002768 0.019121 0.000000 -0.000624 0.000000
# 4 0.000000 0.000000 0.000000 0.370323 0.000000 -0.027231
# 5 0.002934 -0.002502 -0.000624 0.000000 0.055579 0.000000
# 6 0.000000 0.000000 0.000000 -0.027231 0.000000 0.033978
#
#
# Mechanical properties :
#
#
# Convention : Reuss Voigt Hill
#
# Bulk Modulus (GPa) = 51.06890 61.90830 56.48860
# Shear Modulus (GPa) = 9.56817 26.37898 17.97357
#
# Velocity S-wave (km/s) = 2.13033 3.53721 2.91977
# Velocity P-wave (km/s) = 5.50215 6.78574 6.17737
#
# Compressibility (1/GPa) = 0.01958139
#
# Stress axis : x y z
#
# Youngs Moduli (GPa) = 83.06674 149.00743 52.29916
#
# Poissons Ratio (x) = 0.30934 0.22493
# Poissons Ratio (y) = 0.17245 0.14474
# Poissons Ratio (z) = 0.35726 0.41239
#
# Static dielectric constant tensor:
#      x y z
#    x 1.749450 0.000000 0.006350 
#    y 0.000000 1.846680 0.000000 
#    z 0.006350 0.000000 1.807790 
# 
# From -- ./inp_files/54597.got.cif
#   From: 2010.05.17/outbox.cif.g08.bks.cpg/sg5_28_cif.got.tgz:54597.got - 2010.06.03 18:56:24.
