data_PCOD9120937
_publ_section_title
;
Structure prediction by ZEFSAII (Michael W. Deem and Ramdas Pophale) SiO2 
 PCOD9120937
Probable space group: C 2
;
_chemical_formula_sum "Si O2"
_cell_formula_units_Z 30
_cell_length_a 23.045462
_cell_length_b 5.787098
_cell_length_c 9.230390
_cell_angle_alpha 90.000000
_cell_angle_beta 90.889942
_cell_angle_gamma 90.000000
_cell_volume 1230.874903
_symmetry_space_group_name_H-M "C 2"
_symmetry_group_IT_number 5
_symmetry_cell_setting 'monoclinic'
loop_
_space_group_symop_operation_xyz
x,y,z
-x,y,-z
1/2+x,1/2+y,z
1/2-x,1/2+y,-z
loop_
_atom_site_type_symbol
_atom_site_label
_atom_site_fract_x
_atom_site_fract_y
_atom_site_fract_z
Si Si1 0.000000 0.640370 0.500000
Si Si2 0.101627 0.883174 0.779317
Si Si3 0.423132 0.757050 0.793117
Si Si4 0.688402 0.011712 0.666989
Si Si5 0.410824 0.774993 0.457595
Si Si6 0.474308 0.263844 0.808464
Si Si7 0.205284 0.132237 0.894393
Si Si8 0.785035 0.269037 0.788469
O O1 0.047538 0.485589 0.583555
O O2 0.030834 0.767084 0.368821
O O3 0.082570 0.078345 0.662182
O O4 0.146641 0.982166 0.898831
O O5 0.145112 0.723062 0.689693
O O6 0.043258 0.778200 0.843098
O O7 0.432042 0.735747 0.620366
O O8 0.446941 0.512001 0.855535
O O9 0.353611 0.776153 0.799450
O O10 0.449204 0.006656 0.845993
O O11 0.753513 0.109461 0.667537
O O12 0.656587 0.857433 0.545411
O O13 0.684810 0.860738 0.812420
O O14 0.253066 0.015770 0.790979
O O15 0.231418 0.171799 0.052288
#
# Coordination Sequence:
#
# PCOD9120937 Si02
#       8
#     2   4   4   4   4   4   4   4
#     4  10  18  36  66  88 138 176 220 248 302 402
#     4  10  20  38  68  96 127 163 226 266 312 384
#     4  11  27  39  67  96 143 170 208 259 342 387
#     4  10  21  39  66  93 121 165 223 272 312 375
#     4  10  20  38  59 103 128 175 205 264 322 387
#     4  11  22  41  63  98 134 178 206 265 316 395
#     4  10  22  40  74  87 116 168 231 275 318 374
#     4  11  23  45  65  94 122 172 219 275 320 395
#
# _framework density 24.372904999999999
#
# number of rings (size 3 to 8) (size 9 to 14) (size 15 to 20)
#    0.000    1.600    2.667    2.400    5.600    0.533 
#    7.200    0.667    0.000    0.000    0.000    0.000 
#    0.000    0.000    0.000    0.000    0.000    0.000 
#
# Total GULP energy -83657.394583 kJ/mol
# GULP energy per Si atom -5577.159639 kJ/mol
# Density = 2.431743 g / cm^3
# Si number density = 24.372905 Si / 1000 Ang^3
#
#
#
# Elastic Constant Matrix: (Units=GPa)
#
#
# Indices 1 2 3 4 5 6 
#
# 1 141.0632 60.5708 -9.0203 0.0000 2.4219 0.0000
# 2 60.5708 135.9209 15.7514 0.0000 5.3139 0.0000
# 3 -9.0203 15.7514 36.4846 0.0000 16.8675 0.0000
# 4 0.0000 0.0000 0.0000 23.8515 0.0000 16.0615
# 5 2.4219 5.3139 16.8675 0.0000 34.8780 0.0000
# 6 0.0000 0.0000 0.0000 16.0615 0.0000 41.6754
#
#
#
# Elastic Compliance Matrix: (Units=1/GPa)
#
#
# Indices 1 2 3 4 5 6 
#
# 1 0.009567 -0.004817 0.005684 0.000000 -0.002679 0.000000
# 2 -0.004817 0.010179 -0.006470 0.000000 0.001913 0.000000
# 3 0.005684 -0.006470 0.040357 0.000000 -0.018926 0.000000
# 4 0.000000 0.000000 0.000000 0.056620 0.000000 -0.021821
# 5 -0.002679 0.001913 -0.018926 0.000000 0.037719 0.000000
# 6 0.000000 0.000000 0.000000 -0.021821 0.000000 0.032405
#
#
# Mechanical properties :
#
#
# Convention : Reuss Voigt Hill
#
# Bulk Modulus (GPa) = 20.45149 49.78583 35.11866
# Shear Modulus (GPa) = 23.32607 36.49211 29.90909
#
# Velocity S-wave (km/s) = 3.09698 3.87362 3.50686
# Velocity P-wave (km/s) = 4.60409 6.36220 5.55316
#
# Compressibility (1/GPa) = 0.04889620
#
# Stress axis : x y z
#
# Youngs Moduli (GPa) = 104.52682 98.24224 24.77881
#
# Poissons Ratio (x) = 0.47326 -0.14083
# Poissons Ratio (y) = 0.50353 0.16031
# Poissons Ratio (z) = -0.59409 0.63560
#
# Static dielectric constant tensor:
#      x y z
#    x 1.943610 0.000000 -0.041240 
#    y 0.000000 2.053950 0.000000 
#    z -0.041240 0.000000 1.975640 
# 
# From -- ./inp_files/45674.got.cif
#   From: 2010.05.17/outbox.cif.g08.bks.cpg/sg5_23_cif.got.tgz:45674.got - 2010.06.03 18:56:24.
