data_PCOD9120864
_publ_section_title
;
Structure prediction by ZEFSAII (Michael W. Deem and Ramdas Pophale) SiO2 
 PCOD9120864
Probable space group: C 2
;
_chemical_formula_sum "Si O2"
_cell_formula_units_Z 26
_cell_length_a 14.192099
_cell_length_b 15.026876
_cell_length_c 11.090049
_cell_angle_alpha 90.000000
_cell_angle_beta 148.213961
_cell_angle_gamma 90.000000
_cell_volume 1245.811296
_symmetry_space_group_name_H-M "C 2"
_symmetry_group_IT_number 5
_symmetry_cell_setting 'monoclinic'
loop_
_space_group_symop_operation_xyz
x,y,z
-x,y,-z
1/2+x,1/2+y,z
1/2-x,1/2+y,-z
loop_
_atom_site_type_symbol
_atom_site_label
_atom_site_fract_x
_atom_site_fract_y
_atom_site_fract_z
Si Si1 0.695272 0.106210 0.865758
Si Si2 0.121187 0.693967 0.016103
Si Si3 0.169798 0.964182 0.277967
Si Si4 0.151661 0.806880 0.428714
Si Si5 0.000000 0.165348 0.500000
Si Si6 0.500000 0.255107 0.500000
Si Si7 0.000000 0.458836 0.500000
Si Si8 0.391443 0.633122 0.647343
O O1 0.616535 0.189863 0.708921
O O2 0.615023 0.020450 0.715657
O O3 0.636871 0.111570 0.941392
O O4 0.906825 0.118082 0.088075
O O5 0.326205 0.718507 0.266051
O O6 0.000000 0.675419 0.000000
O O7 0.017709 0.768417 0.829520
O O8 0.155418 0.905578 0.381751
O O9 0.339690 0.916690 0.399473
O O10 0.210911 0.063568 0.374902
O O11 0.000000 0.963187 0.000000
O O12 0.304923 0.731491 0.569313
O O13 0.118424 0.808781 0.534832
O O14 0.083484 0.116990 0.470831
#
# Coordination Sequence:
#
# PCOD9120864 Si02
#       8
#     4   4   4   4   2   2   2   4
#     4   9  19  37  68  97 122 176 226 266 328 393
#     4  10  18  36  58  95 131 169 217 266 324 386
#     4  12  26  44  68 101 134 172 225 277 328 398
#     4  11  24  41  67  96 136 176 219 275 337 386
#     4  10  22  34  64 100 132 180 222 258 328 404
#     4   9  20  39  64  88 130 176 218 270 328 394
#     4  11  22  43  66  94 134 168 222 284 324 392
#     4  11  22  41  67  98 135 179 217 272 332 392
#
# _framework density 20.869934000000001
#
# number of rings (size 3 to 8) (size 9 to 14) (size 15 to 20)
#    0.000    1.538    3.077    3.231    0.000    1.231 
#    5.538    0.000    0.000    3.692    0.000    0.000 
#    0.000    0.000    0.000    0.000    0.000    0.000 
#
# Total GULP energy -72368.842317 kJ/mol
# GULP energy per Si atom -5566.834024 kJ/mol
# Density = 2.082243 g / cm^3
# Si number density = 20.869934 Si / 1000 Ang^3
#
#
#
# Elastic Constant Matrix: (Units=GPa)
#
#
# Indices 1 2 3 4 5 6 
#
# 1 131.3245 -2.2085 8.3572 0.0000 -15.9525 0.0000
# 2 -2.2085 27.3371 -11.6543 0.0000 -12.4947 0.0000
# 3 8.3572 -11.6543 91.3795 0.0000 11.5915 0.0000
# 4 0.0000 0.0000 0.0000 -56.7023 0.0000 134.0774
# 5 -15.9525 -12.4947 11.5915 0.0000 31.2108 0.0000
# 6 0.0000 0.0000 0.0000 134.0774 0.0000 -290.8078
#
#
#
# Elastic Compliance Matrix: (Units=1/GPa)
#
#
# Indices 1 2 3 4 5 6 
#
# 1 0.008454 0.002891 -0.001154 0.000000 0.005907 0.000000
# 2 0.002891 0.046923 0.003306 0.000000 0.019035 0.000000
# 3 -0.001154 0.003306 0.011940 0.000000 -0.003701 0.000000
# 4 0.000000 0.000000 0.000000 0.195529 0.000000 0.090149
# 5 0.005907 0.019035 -0.003701 0.000000 0.044054 0.000000
# 6 0.000000 0.000000 0.000000 0.090149 0.000000 0.038125
#
#
# Mechanical properties :
#
#
# Convention : Reuss Voigt Hill
#
# Bulk Modulus (GPa) = 12.91945 26.55887 19.73916
# Shear Modulus (GPa) = 13.86036 -46.22342 -16.18153
#
# Velocity S-wave (km/s) = 2.57987 -4.71131 -2.78753
# Velocity P-wave (km/s) = 3.88307 4.10386 0.93901
#
# Compressibility (1/GPa) = 0.07740266
#
# Stress axis : x y z
#
# Youngs Moduli (GPa) = 118.28275 21.31149 83.75262
#
# Poissons Ratio (x) = -0.06161 0.09663
# Poissons Ratio (y) = -0.34195 -0.27684
# Poissons Ratio (z) = 0.13647 -0.07045
#
# Static dielectric constant tensor:
#      x y z
#    x 2.021900 0.000000 -0.332230 
#    y 0.000000 1.754230 0.000000 
#    z -0.332230 0.000000 2.514900 
# 
# From -- ./inp_files/43153.got.cif
#   From: 2010.05.17/outbox.cif.g08.bks.cpg/sg5_22_cif.got.tgz:43153.got - 2010.06.03 18:56:24.
