data_PCOD9120347
_publ_section_title
;
Structure prediction by ZEFSAII (Michael W. Deem and Ramdas Pophale) SiO2 
 PCOD9120347
Probable space group: C 2
;
_chemical_formula_sum "Si O2"
_cell_formula_units_Z 28
_cell_length_a 9.202150
_cell_length_b 16.190245
_cell_length_c 8.436144
_cell_angle_alpha 90.000000
_cell_angle_beta 74.741212
_cell_angle_gamma 90.000000
_cell_volume 1212.551340
_symmetry_space_group_name_H-M "C 2"
_symmetry_group_IT_number 5
_symmetry_cell_setting 'monoclinic'
loop_
_space_group_symop_operation_xyz
x,y,z
-x,y,-z
1/2+x,1/2+y,z
1/2-x,1/2+y,-z
loop_
_atom_site_type_symbol
_atom_site_label
_atom_site_fract_x
_atom_site_fract_y
_atom_site_fract_z
Si Si1 0.000000 0.922730 0.500000
Si Si2 0.864452 0.038842 0.303074
Si Si3 0.664179 0.165754 0.507823
Si Si4 0.152769 0.578354 0.859763
Si Si5 0.000000 0.919733 0.000000
Si Si6 0.573359 0.802471 0.632624
Si Si7 0.722423 0.392186 0.184330
Si Si8 0.086658 0.175430 0.138842
O O1 0.914294 0.874332 0.656852
O O2 0.877779 0.980329 0.450520
O O3 0.718216 0.094716 0.366981
O O4 0.000820 0.104227 0.262431
O O5 0.906576 0.980418 0.144398
O O6 0.500000 0.194678 0.500000
O O7 0.651886 0.121413 0.685003
O O8 0.793650 0.237516 0.459128
O O9 0.236196 0.489381 0.833407
O O10 0.248965 0.642417 0.937004
O O11 0.000000 0.565439 0.000000
O O12 0.136389 0.870812 0.045993
O O13 0.500000 0.846812 0.500000
O O14 0.639203 0.850638 0.765253
O O15 0.432699 0.754131 0.747917
O O16 0.000000 0.186061 0.000000
#
# Coordination Sequence:
#
# PCOD9120347 Si02
#       8
#     2   4   4   4   2   4   4   4
#     4  10  18  38  68  98 136 178 240 284 362 430
#     4  10  17  36  69 102 133 180 234 296 356 436
#     4  11  25  41  68 110 141 187 251 309 360 430
#     4  12  25  42  74 114 143 178 253 318 358 422
#     4  10  20  38  74 104 140 186 246 298 370 440
#     4  11  26  48  73  97 148 200 246 294 380 452
#     4  11  24  44  69 111 147 191 237 311 374 439
#     4  11  21  42  70 100 136 190 237 290 370 443
#
# _framework density 23.091806999999999
#
# number of rings (size 3 to 8) (size 9 to 14) (size 15 to 20)
#    0.000    1.143    6.429    0.000    9.000    1.143 
#    0.000    4.286    0.000    0.000    0.000    0.000 
#    0.000    0.000    0.000    0.000    0.000    0.000 
#
# Total GULP energy -78041.533385 kJ/mol
# GULP energy per Si atom -5574.395242 kJ/mol
# Density = 2.303925 g / cm^3
# Si number density = 23.091807 Si / 1000 Ang^3
#
#
#
# Elastic Constant Matrix: (Units=GPa)
#
#
# Indices 1 2 3 4 5 6 
#
# 1 99.3251 23.1165 35.8990 0.0000 13.6523 0.0000
# 2 23.1165 42.0213 18.4419 0.0000 14.4510 0.0000
# 3 35.8990 18.4419 92.1970 0.0000 14.8694 0.0000
# 4 0.0000 0.0000 0.0000 13.5388 0.0000 -0.1360
# 5 13.6523 14.4510 14.8694 0.0000 51.9529 0.0000
# 6 0.0000 0.0000 0.0000 -0.1360 0.0000 26.7787
#
#
#
# Elastic Compliance Matrix: (Units=1/GPa)
#
#
# Indices 1 2 3 4 5 6 
#
# 1 0.012736 -0.005039 -0.003814 0.000000 -0.000854 0.000000
# 2 -0.005039 0.030025 -0.003051 0.000000 -0.006154 0.000000
# 3 -0.003814 -0.003051 0.013255 0.000000 -0.001943 0.000000
# 4 0.000000 0.000000 0.000000 0.073865 0.000000 0.000375
# 5 -0.000854 -0.006154 -0.001943 0.000000 0.021740 0.000000
# 6 0.000000 0.000000 0.000000 0.000375 0.000000 0.037345
#
#
# Mechanical properties :
#
#
# Convention : Reuss Voigt Hill
#
# Bulk Modulus (GPa) = 31.04768 43.16203 37.10485
# Shear Modulus (GPa) = 22.37023 28.85982 25.61502
#
# Velocity S-wave (km/s) = 3.11585 3.53907 3.33418
# Velocity P-wave (km/s) = 5.13997 5.95248 5.56108
#
# Compressibility (1/GPa) = 0.03220853
#
# Stress axis : x y z
#
# Youngs Moduli (GPa) = 78.51498 33.30548 75.44388
#
# Poissons Ratio (x) = 0.16783 0.28771
# Poissons Ratio (y) = 0.39565 0.23019
# Poissons Ratio (z) = 0.29942 0.10162
#
# Static dielectric constant tensor:
#      x y z
#    x 1.895290 0.000000 0.070070 
#    y 0.000000 1.897600 0.000000 
#    z 0.070070 0.000000 1.907530 
# 
# From -- ./inp_files/16099.got.cif
#   From: 2010.05.17/outbox.cif.g08.bks.cpg/sg5_9_cif.got.tgz:16099.got - 2010.06.03 18:56:24.
