data_PCOD9120744
_publ_section_title
;
Structure prediction by ZEFSAII (Michael W. Deem and Ramdas Pophale) SiO2 
 PCOD9120744
Probable space group: C 2
;
_chemical_formula_sum "Si O2"
_cell_formula_units_Z 28
_cell_length_a 18.697376
_cell_length_b 6.393231
_cell_length_c 11.419833
_cell_angle_alpha 90.000000
_cell_angle_beta 68.802520
_cell_angle_gamma 90.000000
_cell_volume 1272.726220
_symmetry_space_group_name_H-M "C 2"
_symmetry_group_IT_number 5
_symmetry_cell_setting 'monoclinic'
loop_
_space_group_symop_operation_xyz
x,y,z
-x,y,-z
1/2+x,1/2+y,z
1/2-x,1/2+y,-z
loop_
_atom_site_type_symbol
_atom_site_label
_atom_site_fract_x
_atom_site_fract_y
_atom_site_fract_z
Si Si1 0.500000 0.786240 0.000000
Si Si2 0.882607 0.730191 0.562930
Si Si3 0.625356 0.090250 0.863153
Si Si4 0.368242 0.479534 0.980840
Si Si5 0.500000 0.886647 0.500000
Si Si6 0.050734 0.035781 0.293136
Si Si7 0.276412 0.700356 0.218816
Si Si8 0.618326 0.441898 0.676805
O O1 0.564749 0.633955 0.011990
O O2 0.550016 0.946290 0.892921
O O3 0.930951 0.530217 0.492788
O O4 0.807415 0.673331 0.680119
O O5 0.861388 0.881700 0.467802
O O6 0.936478 0.855426 0.620133
O O7 0.617971 0.243944 0.980466
O O8 0.632655 0.241777 0.749177
O O9 0.697486 0.935045 0.827518
O O10 0.293280 0.561860 0.093206
O O11 0.377752 0.515442 0.837569
O O12 0.536612 0.745339 0.375735
O O13 0.971837 0.994508 0.270571
O O14 0.333044 0.621480 0.289276
#
# Coordination Sequence:
#
# PCOD9120744 Si02
#       8
#     2   4   4   4   2   4   4   4
#     4  10  18  34  64 104 132 168 224 282 342 404
#     4  12  27  46  66 104 139 182 238 289 348 422
#     4  10  21  39  68 100 139 177 222 283 355 400
#     4  10  22  41  64 101 135 177 232 284 338 427
#     4  12  26  46  70  96 136 192 226 290 354 410
#     4  12  24  46  70  99 142 178 239 283 342 429
#     4  10  26  44  66 105 137 181 232 286 355 407
#     4  11  23  41  69 103 133 182 233 285 334 428
#
# _framework density 22.000018000000001
#
# number of rings (size 3 to 8) (size 9 to 14) (size 15 to 20)
#    0.000    1.143    2.857    3.857    6.000    4.571 
#    5.143    0.000    0.000    0.000    0.000    0.000 
#    0.000    0.000    0.000    0.000    0.000    0.000 
#
# Total GULP energy -78209.831879 kJ/mol
# GULP energy per Si atom -5586.416563 kJ/mol
# Density = 2.194995 g / cm^3
# Si number density = 22.000018 Si / 1000 Ang^3
#
#
#
# Elastic Constant Matrix: (Units=GPa)
#
#
# Indices 1 2 3 4 5 6 
#
# 1 59.8476 26.3848 29.6407 0.0000 -16.1671 0.0000
# 2 26.3848 107.5412 30.8257 0.0000 -6.7115 0.0000
# 3 29.6407 30.8257 145.0054 0.0000 -23.2478 0.0000
# 4 0.0000 0.0000 0.0000 21.9961 0.0000 -5.1456
# 5 -16.1671 -6.7115 -23.2478 0.0000 35.0286 0.0000
# 6 0.0000 0.0000 0.0000 -5.1456 0.0000 8.7152
#
#
#
# Elastic Compliance Matrix: (Units=1/GPa)
#
#
# Indices 1 2 3 4 5 6 
#
# 1 0.021796 -0.004199 -0.002326 0.000000 0.007711 0.000000
# 2 -0.004199 0.010721 -0.001569 0.000000 -0.000925 0.000000
# 3 -0.002326 -0.001569 0.008376 0.000000 0.004185 0.000000
# 4 0.000000 0.000000 0.000000 0.052748 0.000000 0.031144
# 5 0.007711 -0.000925 0.004185 0.000000 0.034707 0.000000
# 6 0.000000 0.000000 0.000000 0.031144 0.000000 0.133130
#
#
# Mechanical properties :
#
#
# Convention : Reuss Voigt Hill
#
# Bulk Modulus (GPa) = 40.48015 54.01074 47.24545
# Shear Modulus (GPa) = 17.48849 28.18418 22.83634
#
# Velocity S-wave (km/s) = 2.82251 3.58313 3.22532
# Velocity P-wave (km/s) = 5.39093 6.45926 5.94912
#
# Compressibility (1/GPa) = 0.02470347
#
# Stress axis : x y z
#
# Youngs Moduli (GPa) = 45.88063 93.27413 119.38439
#
# Poissons Ratio (x) = 0.39170 0.27772
# Poissons Ratio (y) = 0.19267 0.18732
# Poissons Ratio (z) = 0.10673 0.14635
#
# Static dielectric constant tensor:
#      x y z
#    x 1.793340 0.000000 -0.005620 
#    y 0.000000 1.815590 0.000000 
#    z -0.005620 0.000000 1.864920 
# 
# From -- ./inp_files/45512.got.cif
#   From: 2010.05.17/outbox.cif.g08.bks.cpg/sg5_23_cif.got.tgz:45512.got - 2010.06.03 18:56:24.
