data_PCOD9120743
_publ_section_title
;
Structure prediction by ZEFSAII (Michael W. Deem and Ramdas Pophale) SiO2 
 PCOD9120743
Probable space group: C 2
;
_chemical_formula_sum "Si O2"
_cell_formula_units_Z 30
_cell_length_a 26.829257
_cell_length_b 7.611553
_cell_length_c 8.431806
_cell_angle_alpha 90.000000
_cell_angle_beta 51.542249
_cell_angle_gamma 90.000000
_cell_volume 1348.346265
_symmetry_space_group_name_H-M "C 2"
_symmetry_group_IT_number 5
_symmetry_cell_setting 'monoclinic'
loop_
_space_group_symop_operation_xyz
x,y,z
-x,y,-z
1/2+x,1/2+y,z
1/2-x,1/2+y,-z
loop_
_atom_site_type_symbol
_atom_site_label
_atom_site_fract_x
_atom_site_fract_y
_atom_site_fract_z
Si Si1 0.037725 0.509090 0.786777
Si Si2 0.302891 0.682401 0.706213
Si Si3 0.875655 0.216013 0.259038
Si Si4 0.956127 0.924101 0.730455
Si Si5 0.575450 0.806828 0.143406
Si Si6 0.817646 0.834144 0.893188
Si Si7 0.500000 0.467962 0.000000
Si Si8 0.881616 0.513705 0.656385
O O1 0.098243 0.407475 0.739412
O O2 0.065493 0.582932 0.569974
O O3 0.984934 0.367731 0.839611
O O4 0.000000 0.611418 0.000000
O O5 0.319434 0.657085 0.487313
O O6 0.306127 0.503791 0.803823
O O7 0.356626 0.821010 0.656079
O O8 0.238010 0.784510 0.874968
O O9 0.934573 0.080166 0.158958
O O10 0.867604 0.244711 0.086280
O O11 0.947258 0.133539 0.724081
O O12 0.000000 0.860523 0.500000
O O13 0.884706 0.854069 0.850474
O O14 0.984318 0.898034 0.850922
O O15 0.592245 0.968311 0.221659
O O16 0.827124 0.659035 0.768824
#
# Coordination Sequence:
#
# PCOD9120743 Si02
#       8
#     4   4   4   4   4   4   2   4
#     4   9  16  32  61  95 132 176 213 265 348 410
#     4  11  23  43  67  93 136 181 235 295 341 416
#     4   9  17  34  64  93 133 179 221 274 346 410
#     4  11  21  37  69 100 141 179 222 284 355 417
#     4  10  18  34  63  98 132 180 220 270 354 415
#     4  12  25  42  69 102 130 187 244 287 356 421
#     4  10  18  36  66 108 134 174 228 274 358 434
#     4  11  22  37  67  94 132 178 230 289 333 421
#
# _framework density 22.249479000000001
#
# number of rings (size 3 to 8) (size 9 to 14) (size 15 to 20)
#    0.000    1.600    6.000    2.000    0.000    1.067 
#    0.000    2.667   39.600    0.000    0.000    0.000 
#    0.000    0.000    0.000    0.000    0.000    0.000 
#
# Total GULP energy -83575.519322 kJ/mol
# GULP energy per Si atom -5571.701288 kJ/mol
# Density = 2.219884 g / cm^3
# Si number density = 22.249479 Si / 1000 Ang^3
#
#
#
# Elastic Constant Matrix: (Units=GPa)
#
#
# Indices 1 2 3 4 5 6 
#
# 1 52.4142 22.4242 47.6255 0.0000 11.0685 0.0000
# 2 22.4242 77.6868 41.9142 0.0000 6.9695 0.0000
# 3 47.6255 41.9142 243.0629 0.0000 5.4481 0.0000
# 4 0.0000 0.0000 0.0000 17.8304 0.0000 -6.7704
# 5 11.0685 6.9695 5.4481 0.0000 21.7182 0.0000
# 6 0.0000 0.0000 0.0000 -6.7704 0.0000 22.9010
#
#
#
# Elastic Compliance Matrix: (Units=1/GPa)
#
#
# Indices 1 2 3 4 5 6 
#
# 1 0.027356 -0.004542 -0.004321 0.000000 -0.011400 0.000000
# 2 -0.004542 0.015294 -0.001699 0.000000 -0.002167 0.000000
# 3 -0.004321 -0.001699 0.005222 0.000000 0.001438 0.000000
# 4 0.000000 0.000000 0.000000 0.063176 0.000000 0.018677
# 5 -0.011400 -0.002167 0.001438 0.000000 0.052189 0.000000
# 6 0.000000 0.000000 0.000000 0.018677 0.000000 0.049188
#
#
# Mechanical properties :
#
#
# Convention : Reuss Voigt Hill
#
# Bulk Modulus (GPa) = 37.38682 66.34353 51.86517
# Shear Modulus (GPa) = 20.62153 29.90324 25.26239
#
# Velocity S-wave (km/s) = 3.04769 3.67003 3.37325
# Velocity P-wave (km/s) = 5.40597 6.91676 6.20750
#
# Compressibility (1/GPa) = 0.02674740
#
# Stress axis : x y z
#
# Youngs Moduli (GPa) = 36.55508 65.38409 191.51187
#
# Poissons Ratio (x) = 0.29698 0.82759
# Poissons Ratio (y) = 0.16603 0.32535
# Poissons Ratio (z) = 0.15797 0.11108
#
# Static dielectric constant tensor:
#      x y z
#    x 1.864160 0.000000 0.066640 
#    y 0.000000 1.882490 0.000000 
#    z 0.066640 0.000000 1.911000 
# 
# From -- ./inp_files/31651.got.cif
#   From: 2010.05.17/outbox.cif.g08.bks.cpg/sg5_16_cif.got.tgz:31651.got - 2010.06.03 18:56:24.
