data_PCOD9120942
_publ_section_title
;
Structure prediction by ZEFSAII (Michael W. Deem and Ramdas Pophale) SiO2 
 PCOD9120942
Probable space group: C 2
;
_chemical_formula_sum "Si O2"
_cell_formula_units_Z 20
_cell_length_a 23.073179
_cell_length_b 6.314238
_cell_length_c 5.078046
_cell_angle_alpha 90.000000
_cell_angle_beta 72.849946
_cell_angle_gamma 90.000000
_cell_volume 706.922761
_symmetry_space_group_name_H-M "C 2"
_symmetry_group_IT_number 5
_symmetry_cell_setting 'monoclinic'
loop_
_space_group_symop_operation_xyz
x,y,z
-x,y,-z
1/2+x,1/2+y,z
1/2-x,1/2+y,-z
loop_
_atom_site_type_symbol
_atom_site_label
_atom_site_fract_x
_atom_site_fract_y
_atom_site_fract_z
Si Si1 0.121371 0.444120 0.493600
Si Si2 0.671245 0.465484 0.829669
Si Si3 0.557488 0.593468 0.288247
Si Si4 0.052938 0.542378 0.095061
Si Si5 0.777826 0.729808 0.739827
O O1 0.102546 0.205681 0.440980
O O2 0.104650 0.507028 0.809932
O O3 0.189709 0.503343 0.343403
O O4 0.081808 0.591308 0.341303
O O5 0.706431 0.690089 0.806274
O O6 0.690193 0.372849 0.523972
O O7 0.600978 0.484160 0.014893
O O8 0.702139 0.318597 0.008652
O O9 0.500000 0.481087 0.500000
O O10 0.528875 0.805327 0.197140
O O11 0.000000 0.655226 0.000000
#
# Coordination Sequence:
#
# PCOD9120942 Si02
#       5
#     4   4   4   4   4
#     4  10  21  38  70  98 142 174 243 287 353 422
#     4  12  28  45  75 101 151 189 249 300 365 425
#     4  10  23  42  74 105 143 192 239 289 355 442
#     4  10  18  36  67 102 129 186 229 280 332 429
#     4  12  27  48  70 109 142 195 240 310 361 429
#
# _framework density 28.291634999999999
#
# number of rings (size 3 to 8) (size 9 to 14) (size 15 to 20)
#    1.200    0.000    2.000    4.200    5.600    0.000 
#    0.000    5.000    0.000    1.200    0.000    0.000 
#    0.000    0.000    0.000    0.000    0.000    0.000 
#
# Total GULP energy -55957.159740 kJ/mol
# GULP energy per Si atom -5595.715974 kJ/mol
# Density = 2.822724 g / cm^3
# Si number density = 28.291635 Si / 1000 Ang^3
#
#
#
# Elastic Constant Matrix: (Units=GPa)
#
#
# Indices 1 2 3 4 5 6 
#
# 1 130.5973 34.0521 47.8176 0.0000 -32.7981 0.0000
# 2 34.0521 60.7266 29.1419 0.0000 -6.4230 0.0000
# 3 47.8176 29.1419 153.0842 0.0000 -6.3605 0.0000
# 4 0.0000 0.0000 0.0000 59.5572 0.0000 -1.2508
# 5 -32.7981 -6.4230 -6.3605 0.0000 60.2372 0.0000
# 6 0.0000 0.0000 0.0000 -1.2508 0.0000 46.0663
#
#
#
# Elastic Compliance Matrix: (Units=1/GPa)
#
#
# Indices 1 2 3 4 5 6 
#
# 1 0.011017 -0.004484 -0.002369 0.000000 0.005270 0.000000
# 2 -0.004484 0.020097 -0.002449 0.000000 -0.000557 0.000000
# 3 -0.002369 -0.002449 0.007708 0.000000 -0.000737 0.000000
# 4 0.000000 0.000000 0.000000 0.016800 0.000000 0.000456
# 5 0.005270 -0.000557 -0.000737 0.000000 0.019334 0.000000
# 6 0.000000 0.000000 0.000000 0.000456 0.000000 0.021720
#
#
# Mechanical properties :
#
#
# Convention : Reuss Voigt Hill
#
# Bulk Modulus (GPa) = 49.45454 62.93681 56.19567
# Shear Modulus (GPa) = 40.97746 48.73190 44.85468
#
# Velocity S-wave (km/s) = 3.80991 4.15478 3.98608
# Velocity P-wave (km/s) = 6.07224 6.73130 6.41024
#
# Compressibility (1/GPa) = 0.02022059
#
# Stress axis : x y z
#
# Youngs Moduli (GPa) = 90.76779 49.75745 129.73918
#
# Poissons Ratio (x) = 0.22309 0.30733
# Poissons Ratio (y) = 0.40696 0.31767
# Poissons Ratio (z) = 0.21501 0.12183
#
# Static dielectric constant tensor:
#      x y z
#    x 2.161510 0.000000 0.021740 
#    y 0.000000 2.379160 0.000000 
#    z 0.021740 0.000000 2.154050 
# 
# From -- ./inp_files/10087.got.cif
#   From: 2010.05.17/outbox.cif.g08.bks.cpg/sg5_6_cif.got.tgz:10087.got - 2010.06.03 18:56:24.
