data_PCOD9120463
_publ_section_title
;
Structure prediction by ZEFSAII (Michael W. Deem and Ramdas Pophale) SiO2 
 PCOD9120463
Probable space group: C 2
;
_chemical_formula_sum "Si O2"
_cell_formula_units_Z 30
_cell_length_a 25.842250
_cell_length_b 5.556859
_cell_length_c 8.796966
_cell_angle_alpha 90.000000
_cell_angle_beta 89.814592
_cell_angle_gamma 90.000000
_cell_volume 1263.253006
_symmetry_space_group_name_H-M "C 2"
_symmetry_group_IT_number 5
_symmetry_cell_setting 'monoclinic'
loop_
_space_group_symop_operation_xyz
x,y,z
-x,y,-z
1/2+x,1/2+y,z
1/2-x,1/2+y,-z
loop_
_atom_site_type_symbol
_atom_site_label
_atom_site_fract_x
_atom_site_fract_y
_atom_site_fract_z
Si Si1 0.056431 0.653640 0.583380
Si Si2 0.071709 0.220942 0.154090
Si Si3 0.745900 0.135331 0.205228
Si Si4 0.475272 0.644385 0.334688
Si Si5 0.294918 0.136633 0.146086
Si Si6 0.896956 0.829925 0.020674
Si Si7 0.500000 0.102047 0.000000
Si Si8 0.133373 0.598353 0.303921
O O1 0.052947 0.405381 0.682052
O O2 0.100724 0.641569 0.454977
O O3 0.000000 0.667025 0.500000
O O4 0.062549 0.917743 0.657046
O O5 0.116829 0.326291 0.257536
O O6 0.026752 0.069855 0.237146
O O7 0.033141 0.435540 0.109447
O O8 0.098983 0.116069 0.003737
O O9 0.779697 0.379819 0.218807
O O10 0.694433 0.140378 0.308454
O O11 0.772635 0.876057 0.226614
O O12 0.727448 0.132834 0.027423
O O13 0.500000 0.675674 0.500000
O O14 0.355087 0.197172 0.121259
O O15 0.884492 0.755434 0.843584
O O16 0.954533 0.761574 0.062707
#
# Coordination Sequence:
#
# PCOD9120463 Si02
#       8
#     4   4   4   4   4   4   2   4
#     4  10  18  31  45  77 103 145 166 213 262 331
#     4  11  21  35  53  77 109 155 185 226 271 322
#     4   9  19  30  46  75  99 139 175 218 255 331
#     4  10  19  31  50  74 109 140 174 215 267 327
#     4   9  19  32  48  68 103 134 183 216 265 311
#     4  10  21  34  53  70 104 151 181 232 266 319
#     4  10  24  36  50  80 100 148 196 230 264 326
#     4  10  20  30  53  75 111 144 180 211 275 328
#
# _framework density 23.748213
#
# number of rings (size 3 to 8) (size 9 to 14) (size 15 to 20)
#    0.000    2.133    2.667    2.000   13.067    0.000 
#    0.000    0.000    0.000    0.000    0.000    0.000 
#    0.000    4.267    0.000    0.000    0.000    0.000 
#
# Total GULP energy -83599.764417 kJ/mol
# GULP energy per Si atom -5573.317628 kJ/mol
# Density = 2.369416 g / cm^3
# Si number density = 23.748213 Si / 1000 Ang^3
#
#
#
# Elastic Constant Matrix: (Units=GPa)
#
#
# Indices 1 2 3 4 5 6 
#
# 1 86.4307 42.9832 23.7651 0.0000 -40.5066 0.0000
# 2 42.9832 146.2832 33.1238 0.0000 -28.2270 0.0000
# 3 23.7651 33.1238 63.8588 0.0000 -37.2036 0.0000
# 4 0.0000 0.0000 0.0000 24.1068 0.0000 14.2136
# 5 -40.5066 -28.2270 -37.2036 0.0000 42.4129 0.0000
# 6 0.0000 0.0000 0.0000 14.2136 0.0000 -44.2759
#
#
#
# Elastic Compliance Matrix: (Units=1/GPa)
#
#
# Indices 1 2 3 4 5 6 
#
# 1 0.024768 -0.003792 0.010349 0.000000 0.030209 0.000000
# 2 -0.003792 0.008564 -0.003723 0.000000 -0.001187 0.000000
# 3 0.010349 -0.003723 0.036923 0.000000 0.039794 0.000000
# 4 0.000000 0.000000 0.000000 0.034880 0.000000 0.011197
# 5 0.030209 -0.001187 0.039794 0.000000 0.086545 0.000000
# 6 0.000000 0.000000 0.000000 0.011197 0.000000 -0.018991
#
#
# Mechanical properties :
#
#
# Convention : Reuss Voigt Hill
#
# Bulk Modulus (GPa) = 13.17120 55.14632 34.15876
# Shear Modulus (GPa) = 25.99723 17.56214 21.77969
#
# Velocity S-wave (km/s) = 3.31222 2.72235 3.03167
# Velocity P-wave (km/s) = 4.49288 5.75789 5.16426
#
# Compressibility (1/GPa) = 0.07592325
#
# Stress axis : x y z
#
# Youngs Moduli (GPa) = 40.37491 116.76624 27.08346
#
# Poissons Ratio (x) = 0.44277 -0.28029
# Poissons Ratio (y) = 0.15310 0.10083
# Poissons Ratio (z) = -0.41784 0.43470
#
# Static dielectric constant tensor:
#      x y z
#    x 2.013490 0.000000 -0.015310 
#    y 0.000000 2.109590 0.000000 
#    z -0.015310 0.000000 2.011490 
# 
# From -- ./inp_files/46921.got.cif
#   From: 2010.05.17/outbox.cif.g08.bks.cpg/sg5_24_cif.got.tgz:46921.got - 2010.06.03 18:56:24.
