data_PCOD9120288
_publ_section_title
;
Structure prediction by ZEFSAII (Michael W. Deem and Ramdas Pophale) SiO2 
 PCOD9120288
Probable space group: C 2
;
_chemical_formula_sum "Si O2"
_cell_formula_units_Z 28
_cell_length_a 15.083299
_cell_length_b 11.452053
_cell_length_c 8.231970
_cell_angle_alpha 90.000000
_cell_angle_beta 123.776052
_cell_angle_gamma 90.000000
_cell_volume 1181.946556
_symmetry_space_group_name_H-M "C 2"
_symmetry_group_IT_number 5
_symmetry_cell_setting 'monoclinic'
loop_
_space_group_symop_operation_xyz
x,y,z
-x,y,-z
1/2+x,1/2+y,z
1/2-x,1/2+y,-z
loop_
_atom_site_type_symbol
_atom_site_label
_atom_site_fract_x
_atom_site_fract_y
_atom_site_fract_z
Si Si1 0.446978 0.408330 0.103080
Si Si2 0.158061 0.546092 0.843212
Si Si3 0.277274 0.823095 0.263259
Si Si4 0.000000 0.683221 0.500000
Si Si5 0.643501 0.245079 0.397632
Si Si6 0.874989 0.143278 0.129548
Si Si7 0.113762 0.524359 0.163833
Si Si8 0.000000 0.299759 0.000000
O O1 0.536772 0.314260 0.233398
O O2 0.425647 0.514500 0.204563
O O3 0.500000 0.469826 0.000000
O O4 0.336503 0.342279 0.948161
O O5 0.158516 0.436228 0.724368
O O6 0.046185 0.607299 0.694050
O O7 0.265481 0.617810 0.919954
O O8 0.170759 0.516325 0.046746
O O9 0.240715 0.812498 0.412025
O O10 0.340327 0.712945 0.255305
O O11 0.890635 0.742729 0.449348
O O12 0.660238 0.114181 0.341484
O O13 0.946308 0.224250 0.086311
O O14 0.081493 0.391613 0.169397
O O15 0.000000 0.581205 0.000000
#
# Coordination Sequence:
#
# PCOD9120288 Si02
#       8
#     4   4   4   2   4   4   4   2
#     4   9  19  32  57  87 115 146 186 245 297 335
#     4  11  22  36  59  91 116 154 194 240 296 353
#     4  10  19  34  59  86 117 146 198 246 291 340
#     4  12  24  40  58  80 124 162 200 234 282 362
#     4  11  21  38  60  86 115 160 198 242 287 348
#     4  11  19  34  58  94 117 141 189 254 300 343
#     4  10  17  34  60  88 113 145 198 240 286 346
#     4  10  20  30  52  96 120 140 180 258 304 338
#
# _framework density 23.689734999999999
#
# number of rings (size 3 to 8) (size 9 to 14) (size 15 to 20)
#    0.429    1.143    5.000    2.143    0.000    0.000 
#    0.000    4.286    0.000    0.857    0.000    0.000 
#    0.000    0.000    0.000    0.000    0.000    0.000 
#
# Total GULP energy -77959.422408 kJ/mol
# GULP energy per Si atom -5568.530172 kJ/mol
# Density = 2.363582 g / cm^3
# Si number density = 23.689735 Si / 1000 Ang^3
#
#
#
# Elastic Constant Matrix: (Units=GPa)
#
#
# Indices 1 2 3 4 5 6 
#
# 1 139.5867 56.7478 17.2605 0.0000 -39.4460 0.0000
# 2 56.7478 103.6672 18.2148 0.0000 -9.3262 0.0000
# 3 17.2605 18.2148 23.2973 0.0000 -8.8862 0.0000
# 4 0.0000 0.0000 0.0000 -2.1557 0.0000 -13.2714
# 5 -39.4460 -9.3262 -8.8862 0.0000 29.0846 0.0000
# 6 0.0000 0.0000 0.0000 -13.2714 0.0000 47.6543
#
#
#
# Elastic Compliance Matrix: (Units=1/GPa)
#
#
# Indices 1 2 3 4 5 6 
#
# 1 0.015005 -0.006764 0.001252 0.000000 0.018564 0.000000
# 2 -0.006764 0.014259 -0.008933 0.000000 -0.007330 0.000000
# 3 0.001252 -0.008933 0.054937 0.000000 0.015619 0.000000
# 4 0.000000 0.000000 0.000000 -0.170890 0.000000 -0.047592
# 5 0.018564 -0.007330 0.015619 0.000000 0.061982 0.000000
# 6 0.000000 0.000000 0.000000 -0.047592 0.000000 0.007731
#
#
# Mechanical properties :
#
#
# Convention : Reuss Voigt Hill
#
# Bulk Modulus (GPa) = 18.07933 50.11082 34.09507
# Shear Modulus (GPa) = 164.74897 26.53851 95.64374
#
# Velocity S-wave (km/s) = 8.34838 3.35065 6.36091
# Velocity P-wave (km/s) = 10.02873 6.01399 8.26872
#
# Compressibility (1/GPa) = 0.05531179
#
# Stress axis : x y z
#
# Youngs Moduli (GPa) = 66.64452 70.13206 18.20261
#
# Poissons Ratio (x) = 0.47435 -0.02279
# Poissons Ratio (y) = 0.45076 0.16260
# Poissons Ratio (z) = -0.08344 0.62649
#
# Static dielectric constant tensor:
#      x y z
#    x 1.972470 0.000000 -0.087160 
#    y 0.000000 1.980750 0.000000 
#    z -0.087160 0.000000 2.019520 
# 
# From -- ./inp_files/23686.got.cif
#   From: 2010.05.17/outbox.cif.g08.bks.cpg/sg5_12_cif.got.tgz:23686.got - 2010.06.03 18:56:24.
