data_PCOD9120078
_publ_section_title
;
Structure prediction by ZEFSAII (Michael W. Deem and Ramdas Pophale) SiO2 
 PCOD9120078
Probable space group: C 2
;
_chemical_formula_sum "Si O2"
_cell_formula_units_Z 30
_cell_length_a 17.606700
_cell_length_b 12.393780
_cell_length_c 12.927141
_cell_angle_alpha 90.000000
_cell_angle_beta 30.068698
_cell_angle_gamma 90.000000
_cell_volume 1413.366870
_symmetry_space_group_name_H-M "C 2"
_symmetry_group_IT_number 5
_symmetry_cell_setting 'monoclinic'
loop_
_space_group_symop_operation_xyz
x,y,z
-x,y,-z
1/2+x,1/2+y,z
1/2-x,1/2+y,-z
loop_
_atom_site_type_symbol
_atom_site_label
_atom_site_fract_x
_atom_site_fract_y
_atom_site_fract_z
Si Si1 0.594908 0.213110 0.214149
Si Si2 0.136873 0.422535 0.915715
Si Si3 0.000858 0.643604 0.886396
Si Si4 0.093693 0.212420 0.076915
Si Si5 0.823275 0.079208 0.432628
Si Si6 0.828627 0.031152 0.187485
Si Si7 0.548348 0.431019 0.549835
Si Si8 0.000000 0.543927 0.500000
O O1 0.526630 0.214866 0.180754
O O2 0.558812 0.328888 0.306701
O O3 0.523767 0.122258 0.372737
O O4 0.772819 0.186494 0.000696
O O5 0.285213 0.391906 0.677491
O O6 0.121673 0.546216 0.968947
O O7 0.111241 0.338102 0.035708
O O8 0.000000 0.405527 0.000000
O O9 0.166289 0.591039 0.676884
O O10 0.000000 0.696579 0.000000
O O11 0.924480 0.186380 0.309687
O O12 0.132539 0.137906 0.929304
O O13 0.789887 0.050800 0.353346
O O14 0.930812 0.998133 0.370288
O O15 0.667854 0.989254 0.324776
O O16 0.000000 0.978490 0.000000
O O17 0.500000 0.490777 0.500000
#
# Coordination Sequence:
#
# PCOD9120078 Si02
#       8
#     4   4   4   4   4   4   4   2
#     4  11  22  38  63  95 125 164 218 269 327 382
#     4  11  21  39  62  93 130 161 217 268 308 385
#     4  11  24  40  58  94 133 170 213 259 324 395
#     4  10  22  37  65  97 123 167 215 275 317 385
#     4  11  22  37  61  92 130 174 206 268 334 381
#     4   9  18  34  55  95 125 158 216 259 326 383
#     4  12  23  40  64  96 125 167 221 274 321 380
#     4  10  16  34  64  88 122 162 208 274 314 374
#
# _framework density 21.225909999999999
#
# number of rings (size 3 to 8) (size 9 to 14) (size 15 to 20)
#    0.000    1.333    6.000    2.000    3.733    0.000 
#    0.000    2.000    0.000    0.000    1.733    0.000 
#    0.000    0.000    0.000    0.000    0.000    0.000 
#
# Total GULP energy -83513.078955 kJ/mol
# GULP energy per Si atom -5567.538597 kJ/mol
# Density = 2.117760 g / cm^3
# Si number density = 21.225910 Si / 1000 Ang^3
#
#
#
# Elastic Constant Matrix: (Units=GPa)
#
#
# Indices 1 2 3 4 5 6 
#
# 1 136.2817 13.0524 30.0665 0.0000 -4.0941 0.0000
# 2 13.0524 23.8073 2.2615 0.0000 -1.0741 0.0000
# 3 30.0665 2.2615 72.8904 0.0000 -1.8772 0.0000
# 4 0.0000 0.0000 0.0000 13.3877 0.0000 0.7971
# 5 -4.0941 -1.0741 -1.8772 0.0000 36.7527 0.0000
# 6 0.0000 0.0000 0.0000 0.7971 0.0000 21.4117
#
#
#
# Elastic Compliance Matrix: (Units=1/GPa)
#
#
# Indices 1 2 3 4 5 6 
#
# 1 0.008512 -0.004318 -0.003360 0.000000 0.000650 0.000000
# 2 -0.004318 0.044369 0.000426 0.000000 0.000837 0.000000
# 3 -0.003360 0.000426 0.015103 0.000000 0.000410 0.000000
# 4 0.000000 0.000000 0.000000 0.074861 0.000000 -0.002787
# 5 0.000650 0.000837 0.000410 0.000000 0.027327 0.000000
# 6 0.000000 0.000000 0.000000 -0.002787 0.000000 0.046807
#
#
# Mechanical properties :
#
#
# Convention : Reuss Voigt Hill
#
# Bulk Modulus (GPa) = 18.69904 35.97114 27.33509
# Shear Modulus (GPa) = 20.05535 26.81704 23.43619
#
# Velocity S-wave (km/s) = 3.07718 3.55830 3.32645
# Velocity P-wave (km/s) = 4.63185 5.81942 5.25926
#
# Compressibility (1/GPa) = 0.05347868
#
# Stress axis : x y z
#
# Youngs Moduli (GPa) = 117.47761 22.53834 66.21322
#
# Poissons Ratio (x) = 0.09733 0.22251
# Poissons Ratio (y) = 0.50731 -0.02822
# Poissons Ratio (z) = 0.39478 -0.00961
#
# Static dielectric constant tensor:
#      x y z
#    x 1.804880 0.000000 -0.026630 
#    y 0.000000 1.794210 0.000000 
#    z -0.026630 0.000000 1.795360 
# 
# From -- ./inp_files/44892.got.cif
#   From: 2010.05.17/outbox.cif.g08.bks.cpg/sg5_23_cif.got.tgz:44892.got - 2010.06.03 18:56:24.
