data_PCOD9120688
_publ_section_title
;
Structure prediction by ZEFSAII (Michael W. Deem and Ramdas Pophale) SiO2 
 PCOD9120688
Probable space group: C 2
;
_chemical_formula_sum "Si O2"
_cell_formula_units_Z 28
_cell_length_a 21.528182
_cell_length_b 8.680966
_cell_length_c 15.343280
_cell_angle_alpha 90.000000
_cell_angle_beta 151.071762
_cell_angle_gamma 90.000000
_cell_volume 1387.017991
_symmetry_space_group_name_H-M "C 2"
_symmetry_group_IT_number 5
_symmetry_cell_setting 'monoclinic'
loop_
_space_group_symop_operation_xyz
x,y,z
-x,y,-z
1/2+x,1/2+y,z
1/2-x,1/2+y,-z
loop_
_atom_site_type_symbol
_atom_site_label
_atom_site_fract_x
_atom_site_fract_y
_atom_site_fract_z
Si Si1 0.987961 0.119850 0.262588
Si Si2 0.532682 0.264974 0.292643
Si Si3 0.381061 0.258699 0.413570
Si Si4 0.261427 0.119386 0.927654
Si Si5 0.925212 0.598601 0.833405
Si Si6 0.615090 0.830980 0.003917
Si Si7 0.829990 0.107130 0.374384
O O1 0.849764 0.113254 0.138796
O O2 0.077337 0.197087 0.446662
O O3 0.038795 0.949758 0.302366
O O4 0.972130 0.214190 0.155696
O O5 0.597950 0.205014 0.461539
O O6 0.588539 0.188599 0.273805
O O7 0.382592 0.218063 0.106950
O O8 0.500000 0.199450 0.500000
O O9 0.232840 0.245882 0.198797
O O10 0.397264 0.444860 0.435827
O O11 0.212273 0.173681 0.770920
O O12 0.310853 0.946177 0.970845
O O13 0.791239 0.564135 0.714398
O O14 0.000000 0.695089 0.000000
O O15 0.016732 0.450126 0.929645
#
# Coordination Sequence:
#
# PCOD9120688 Si02
#       7
#     4   4   4   4   4   4   4
#     4  11  21  34  55  93 113 133 190 243 282 313
#     4  10  21  34  60  84 111 150 182 231 282 326
#     4  10  18  34  58  88 112 143 185 227 279 335
#     4  10  18  37  60  80 113 155 181 220 282 346
#     4  11  20  41  61  73 109 156 198 213 274 346
#     4  10  21  36  60  82 112 151 183 234 270 330
#     4  10  19  34  60  79 110 151 193 223 267 338
#
# _framework density 20.187190999999999
#
# number of rings (size 3 to 8) (size 9 to 14) (size 15 to 20)
#    0.000    1.714    4.286    5.571    0.000    2.286 
#    0.000    3.571    3.143    0.000    0.000    0.000 
#    0.000    0.000    0.000    0.000    0.000    0.000 
#
# Total GULP energy -77982.286927 kJ/mol
# GULP energy per Si atom -5570.163352 kJ/mol
# Density = 2.014124 g / cm^3
# Si number density = 20.187191 Si / 1000 Ang^3
#
#
#
# Elastic Constant Matrix: (Units=GPa)
#
#
# Indices 1 2 3 4 5 6 
#
# 1 79.5761 7.5384 -19.5150 0.0000 15.1742 0.0000
# 2 7.5384 24.6064 14.5127 0.0000 -9.0844 0.0000
# 3 -19.5150 14.5127 71.8173 0.0000 -22.1069 0.0000
# 4 0.0000 0.0000 0.0000 21.0395 0.0000 -10.3393
# 5 15.1742 -9.0844 -22.1069 0.0000 33.4074 0.0000
# 6 0.0000 0.0000 0.0000 -10.3393 0.0000 12.3290
#
#
#
# Elastic Compliance Matrix: (Units=1/GPa)
#
#
# Indices 1 2 3 4 5 6 
#
# 1 0.015892 -0.009953 0.004112 0.000000 -0.007204 0.000000
# 2 -0.009953 0.054144 -0.009698 0.000000 0.012827 0.000000
# 3 0.004112 -0.009698 0.019609 0.000000 0.008471 0.000000
# 4 0.000000 0.000000 0.000000 0.080849 0.000000 0.067802
# 5 -0.007204 0.012827 0.008471 0.000000 0.042299 0.000000
# 6 0.000000 0.000000 0.000000 0.067802 0.000000 0.137970
#
#
# Mechanical properties :
#
#
# Convention : Reuss Voigt Hill
#
# Bulk Modulus (GPa) = 17.07439 20.11912 18.59676
# Shear Modulus (GPa) = 12.45756 24.91944 18.68850
#
# Velocity S-wave (km/s) = 2.48685 3.51724 3.04593
# Velocity P-wave (km/s) = 4.08929 5.14612 4.64784
#
# Compressibility (1/GPa) = 0.05856724
#
# Stress axis : x y z
#
# Youngs Moduli (GPa) = 62.92631 18.46911 50.99736
#
# Poissons Ratio (x) = 0.18383 -0.20971
# Poissons Ratio (y) = 0.62633 0.49455
# Poissons Ratio (z) = -0.25876 0.17911
#
# Static dielectric constant tensor:
#      x y z
#    x 1.737370 0.000000 -0.016450 
#    y 0.000000 1.709440 0.000000 
#    z -0.016450 0.000000 1.803000 
# 
# From -- ./inp_files/56928.got.cif
#   From: 2010.05.17/outbox.cif.g08.bks.cpg/sg5_29_cif.got.tgz:56928.got - 2010.06.03 18:56:24.
