data_PCOD9120868
_publ_section_title
;
Structure prediction by ZEFSAII (Michael W. Deem and Ramdas Pophale) SiO2 
 PCOD9120868
Probable space group: C 2
;
_chemical_formula_sum "Si O2"
_cell_formula_units_Z 20
_cell_length_a 14.671680
_cell_length_b 7.756332
_cell_length_c 28.873291
_cell_angle_alpha 90.000000
_cell_angle_beta 165.061199
_cell_angle_gamma 90.000000
_cell_volume 847.020305
_symmetry_space_group_name_H-M "C 2"
_symmetry_group_IT_number 5
_symmetry_cell_setting 'monoclinic'
loop_
_space_group_symop_operation_xyz
x,y,z
-x,y,-z
1/2+x,1/2+y,z
1/2-x,1/2+y,-z
loop_
_atom_site_type_symbol
_atom_site_label
_atom_site_fract_x
_atom_site_fract_y
_atom_site_fract_z
Si Si1 0.058212 0.732620 0.801258
Si Si2 0.597473 0.889646 0.867157
Si Si3 0.234746 0.530946 0.032106
Si Si4 0.991584 0.665591 0.407894
Si Si5 0.777996 0.312749 0.455130
O O1 0.205615 0.551088 0.890388
O O2 0.660420 0.745930 0.626900
O O3 0.006540 0.747004 0.721308
O O4 0.253889 0.892940 0.921459
O O5 0.859206 0.725019 0.998394
O O6 0.218875 0.808880 0.665940
O O7 0.542751 0.957970 0.892933
O O8 0.647226 0.560748 0.219290
O O9 0.212066 0.521127 0.542453
O O10 0.199056 0.750863 0.467937
#
# Coordination Sequence:
#
# PCOD9120868 Si02
#       5
#     4   4   4   4   4
#     4  10  19  36  58  82 116 143 189 237 273 335
#     4  10  18  36  60  80 108 154 184 229 277 332
#     4   9  19  34  59  82 105 150 191 225 275 338
#     4   9  20  35  57  82 116 149 184 232 283 335
#     4  10  20  37  53  87 115 146 186 233 284 337
#
# _framework density 23.612183999999999
#
# number of rings (size 3 to 8) (size 9 to 14) (size 15 to 20)
#    1.200    1.200    2.000    1.200    0.000    0.000 
#   10.800    4.000    0.000    2.400    0.000    0.000 
#    0.000    0.000    0.000    0.000    0.000    0.000 
#
# Total GULP energy -55809.709765 kJ/mol
# GULP energy per Si atom -5580.970976 kJ/mol
# Density = 2.355844 g / cm^3
# Si number density = 23.612184 Si / 1000 Ang^3
#
#
#
# Elastic Constant Matrix: (Units=GPa)
#
#
# Indices 1 2 3 4 5 6 
#
# 1 40.4848 20.2061 12.3940 -0.0068 10.6478 0.0032
# 2 20.2061 195.9688 30.0635 0.0003 -26.8742 0.0066
# 3 12.3940 30.0635 44.2909 0.0312 -4.0307 -0.0046
# 4 -0.0068 0.0003 0.0312 32.4176 0.0010 -7.7180
# 5 10.6478 -26.8742 -4.0307 0.0010 39.9930 0.0107
# 6 0.0032 0.0066 -0.0046 -7.7180 0.0107 1.0574
#
#
#
# Elastic Compliance Matrix: (Units=1/GPa)
#
#
# Indices 1 2 3 4 5 6 
#
# 1 0.031968 -0.003769 -0.007461 -0.000024 -0.011796 -0.000162
# 2 -0.003769 0.006661 -0.002995 0.000028 0.005178 0.000111
# 3 -0.007461 -0.002995 0.026944 -0.000005 0.002689 0.000096
# 4 -0.000024 0.000028 -0.000005 -0.041811 0.000107 -0.305183
# 5 -0.011796 0.005178 0.002689 0.000107 0.031895 0.000477
# 6 -0.000162 0.000111 0.000096 -0.305183 0.000477 -1.281841
#
#
# Mechanical properties :
#
#
# Convention : Reuss Voigt Hill
#
# Bulk Modulus (GPa) = 26.93803 45.11908 36.02855
# Shear Modulus (GPa) = -4.21813 29.23232 12.50709
#
# Velocity S-wave (km/s) = -1.33802 3.52237 2.30399
# Velocity P-wave (km/s) = 3.00770 5.97433 4.72963
#
# Compressibility (1/GPa) = 0.03712224
#
# Stress axis : x y z
#
# Youngs Moduli (GPa) = 31.28091 150.12619 37.11444
#
# Poissons Ratio (x) = 0.56587 0.27690
# Poissons Ratio (y) = 0.11791 0.11117
# Poissons Ratio (z) = 0.23338 0.44969
#
# Static dielectric constant tensor:
#      x y z
#    x 1.881170 -0.000010 0.071720 
#    y -0.000010 1.922130 -0.000010 
#    z 0.071720 -0.000010 1.926210 
# 
# From -- ./inp_files/28506.got.cif
#   From: 2010.05.17/outbox.cif.g08.bks.cpg/sg5_15_cif.got.tgz:28506.got - 2010.06.03 18:56:24.
