data_PCOD9120911
_publ_section_title
;
Structure prediction by ZEFSAII (Michael W. Deem and Ramdas Pophale) SiO2 
 PCOD9120911
Probable space group: C 2
;
_chemical_formula_sum "Si O2"
_cell_formula_units_Z 26
_cell_length_a 19.310196
_cell_length_b 13.104962
_cell_length_c 9.011965
_cell_angle_alpha 90.000000
_cell_angle_beta 37.624041
_cell_angle_gamma 90.000000
_cell_volume 1392.232098
_symmetry_space_group_name_H-M "C 2"
_symmetry_group_IT_number 5
_symmetry_cell_setting 'monoclinic'
loop_
_space_group_symop_operation_xyz
x,y,z
-x,y,-z
1/2+x,1/2+y,z
1/2-x,1/2+y,-z
loop_
_atom_site_type_symbol
_atom_site_label
_atom_site_fract_x
_atom_site_fract_y
_atom_site_fract_z
Si Si1 0.755797 0.257440 0.108560
Si Si2 0.869021 0.599836 0.259374
Si Si3 0.000000 0.958632 0.000000
Si Si4 0.151725 0.652385 0.018659
Si Si5 0.429863 0.288178 0.342037
Si Si6 0.725011 0.538928 0.769320
Si Si7 0.624244 0.943016 0.230441
O O1 0.737873 0.213914 0.973746
O O2 0.641078 0.294484 0.386397
O O3 0.785642 0.154507 0.148848
O O4 0.834228 0.356090 0.954132
O O5 0.868399 0.712566 0.331007
O O6 0.813519 0.533538 0.481918
O O7 0.805853 0.609686 0.210394
O O8 0.000000 0.571845 0.000000
O O9 0.948666 0.890341 0.219917
O O10 0.896190 0.014043 0.095408
O O11 0.109367 0.553486 0.179242
O O12 0.047768 0.729659 0.169820
O O13 0.779830 0.466946 0.805161
O O14 0.500000 0.913549 0.500000
#
# Coordination Sequence:
#
# PCOD9120911 Si02
#       7
#     4   4   2   4   4   4   4
#     4  10  22  39  56  90 122 158 202 244 311 361
#     4   9  17  35  62  87 115 152 203 249 297 342
#     4  12  22  40  64  90 124 160 200 250 308 366
#     4  10  18  36  63  87 118 154 199 259 292 346
#     4  10  19  36  62  90 115 155 209 252 292 349
#     4  10  24  41  60  88 128 160 196 256 305 357
#     4  11  22  39  63  88 120 161 205 250 300 358
#
# _framework density 18.675048
#
# number of rings (size 3 to 8) (size 9 to 14) (size 15 to 20)
#    0.000    1.846    2.308    5.077    2.154    0.000 
#    2.769    0.000    5.077    0.000    0.000    0.000 
#    0.000    0.000    0.000    0.000    0.000    0.000 
#
# Total GULP energy -72391.163099 kJ/mol
# GULP energy per Si atom -5568.551008 kJ/mol
# Density = 1.863254 g / cm^3
# Si number density = 18.675048 Si / 1000 Ang^3
#
#
#
# Elastic Constant Matrix: (Units=GPa)
#
#
# Indices 1 2 3 4 5 6 
#
# 1 96.2794 24.4187 18.1664 0.0000 6.4419 0.0000
# 2 24.4187 57.3298 6.1795 0.0000 -9.9774 0.0000
# 3 18.1664 6.1795 34.2012 0.0000 2.5692 0.0000
# 4 0.0000 0.0000 0.0000 22.9802 0.0000 -1.7600
# 5 6.4419 -9.9774 2.5692 0.0000 24.3100 0.0000
# 6 0.0000 0.0000 0.0000 -1.7600 0.0000 17.8939
#
#
#
# Elastic Compliance Matrix: (Units=1/GPa)
#
#
# Indices 1 2 3 4 5 6 
#
# 1 0.013328 -0.006017 -0.005586 0.000000 -0.005411 0.000000
# 2 -0.006017 0.022061 -0.001603 0.000000 0.010818 0.000000
# 3 -0.005586 -0.001603 0.032693 0.000000 -0.002633 0.000000
# 4 0.000000 0.000000 0.000000 0.043846 0.000000 0.004313
# 5 -0.005411 0.010818 -0.002633 0.000000 0.047288 0.000000
# 6 0.000000 0.000000 0.000000 0.004313 0.000000 0.056309
#
#
# Mechanical properties :
#
#
# Convention : Reuss Voigt Hill
#
# Bulk Modulus (GPa) = 23.99705 31.70440 27.85073
# Shear Modulus (GPa) = 19.54445 22.30652 20.92549
#
# Velocity S-wave (km/s) = 3.23856 3.45984 3.35103
# Velocity P-wave (km/s) = 5.18286 5.74233 5.46975
#
# Compressibility (1/GPa) = 0.04167179
#
# Stress axis : x y z
#
# Youngs Moduli (GPa) = 75.02765 45.32863 30.58734
#
# Poissons Ratio (x) = 0.27272 0.17086
# Poissons Ratio (y) = 0.45141 0.04903
# Poissons Ratio (z) = 0.41911 0.07266
#
# Static dielectric constant tensor:
#      x y z
#    x 1.686840 0.000000 0.010870 
#    y 0.000000 1.641790 0.000000 
#    z 0.010870 0.000000 1.676100 
# 
# From -- ./inp_files/29579.got.cif
#   From: 2010.05.17/outbox.cif.g08.bks.cpg/sg5_15_cif.got.tgz:29579.got - 2010.06.03 18:56:24.
