data_PCOD9120106
_publ_section_title
;
Structure prediction by ZEFSAII (Michael W. Deem and Ramdas Pophale) SiO2 
 PCOD9120106
Probable space group: C 2
;
_chemical_formula_sum "Si O2"
_cell_formula_units_Z 30
_cell_length_a 8.202485
_cell_length_b 16.482985
_cell_length_c 11.252432
_cell_angle_alpha 90.000000
_cell_angle_beta 72.046043
_cell_angle_gamma 90.000000
_cell_volume 1447.262379
_symmetry_space_group_name_H-M "C 2"
_symmetry_group_IT_number 5
_symmetry_cell_setting 'monoclinic'
loop_
_space_group_symop_operation_xyz
x,y,z
-x,y,-z
1/2+x,1/2+y,z
1/2-x,1/2+y,-z
loop_
_atom_site_type_symbol
_atom_site_label
_atom_site_fract_x
_atom_site_fract_y
_atom_site_fract_z
Si Si1 0.697244 0.677130 0.191653
Si Si2 0.772905 0.589503 0.660530
Si Si3 0.539902 0.529326 0.124463
Si Si4 0.862776 0.804460 0.429533
Si Si5 0.500000 0.266672 0.000000
Si Si6 0.868039 0.273530 0.317305
Si Si7 0.151762 0.612445 0.617684
Si Si8 0.627235 0.364595 0.189637
O O1 0.622624 0.618580 0.107557
O O2 0.566408 0.749295 0.256061
O O3 0.724504 0.616928 0.297825
O O4 0.875151 0.712529 0.108059
O O5 0.633448 0.539449 0.761848
O O6 0.722076 0.684911 0.676599
O O7 0.775613 0.572671 0.518559
O O8 0.960802 0.578099 0.673950
O O9 0.650590 0.459207 0.159909
O O10 0.500000 0.504426 0.000000
O O11 0.683161 0.810408 0.541865
O O12 0.875908 0.708619 0.400141
O O13 0.000000 0.825587 0.500000
O O14 0.942616 0.849661 0.297928
O O15 0.388669 0.319049 0.932658
O O16 0.778498 0.328108 0.236817
#
# Coordination Sequence:
#
# PCOD9120106 Si02
#       8
#     4   4   4   4   2   4   4   4
#     4  11  25  38  65  99 123 169 218 273 307 394
#     4   9  18  37  67  90 124 166 208 265 311 378
#     4  11  26  41  59  92 133 171 211 262 328 381
#     4   9  15  33  65  90 116 157 205 264 313 367
#     4  12  24  40  68  88 116 174 222 262 314 394
#     4   9  19  37  63  92 120 159 213 267 313 376
#     4  10  16  37  64  95 120 160 217 266 312 358
#     4  11  21  43  62  87 125 172 207 263 333 383
#
# _framework density 20.728791000000001
#
# number of rings (size 3 to 8) (size 9 to 14) (size 15 to 20)
#    0.000    1.867    6.000    0.000    5.600    4.800 
#    7.200    2.667    2.933    0.000    0.000    0.000 
#    0.000    0.000    0.000    0.000    0.000    0.000 
#
# Total GULP energy -83609.522788 kJ/mol
# GULP energy per Si atom -5573.968186 kJ/mol
# Density = 2.068161 g / cm^3
# Si number density = 20.728791 Si / 1000 Ang^3
#
#
#
# Elastic Constant Matrix: (Units=GPa)
#
#
# Indices 1 2 3 4 5 6 
#
# 1 72.0534 7.8424 25.3380 0.0000 -4.4173 0.0000
# 2 7.8424 37.8679 12.0966 0.0000 -2.9027 0.0000
# 3 25.3380 12.0966 61.6315 0.0000 2.3169 0.0000
# 4 0.0000 0.0000 0.0000 8.8820 0.0000 3.5308
# 5 -4.4173 -2.9027 2.3169 0.0000 31.0758 0.0000
# 6 0.0000 0.0000 0.0000 3.5308 0.0000 17.8041
#
#
#
# Elastic Compliance Matrix: (Units=1/GPa)
#
#
# Indices 1 2 3 4 5 6 
#
# 1 0.016513 -0.001075 -0.006681 0.000000 0.002745 0.000000
# 2 -0.001075 0.028536 -0.005268 0.000000 0.002905 0.000000
# 3 -0.006681 -0.005268 0.020117 0.000000 -0.002942 0.000000
# 4 0.000000 0.000000 0.000000 0.122223 0.000000 -0.024238
# 5 0.002745 0.002905 -0.002942 0.000000 0.033060 0.000000
# 6 0.000000 0.000000 0.000000 -0.024238 0.000000 0.060974
#
#
# Mechanical properties :
#
#
# Convention : Reuss Voigt Hill
#
# Bulk Modulus (GPa) = 25.56419 29.12297 27.34358
# Shear Modulus (GPa) = 15.60009 19.97076 17.78543
#
# Velocity S-wave (km/s) = 2.74630 3.10729 2.93235
# Velocity P-wave (km/s) = 4.73452 5.19169 4.96837
#
# Compressibility (1/GPa) = 0.03911721
#
# Stress axis : x y z
#
# Youngs Moduli (GPa) = 60.55697 35.04375 49.70973
#
# Poissons Ratio (x) = 0.03768 0.33212
# Poissons Ratio (y) = 0.06511 0.26187
# Poissons Ratio (z) = 0.40459 0.18461
#
# Static dielectric constant tensor:
#      x y z
#    x 1.763960 0.000000 0.006810 
#    y 0.000000 1.711840 0.000000 
#    z 0.006810 0.000000 1.796490 
# 
# From -- ./inp_files/36356.got.cif
#   From: 2010.05.17/outbox.cif.g08.bks.cpg/sg5_19_cif.got.tgz:36356.got - 2010.06.03 18:56:24.
