data_PCOD9120249
_publ_section_title
;
Structure prediction by ZEFSAII (Michael W. Deem and Ramdas Pophale) SiO2 
 PCOD9120249
Probable space group: C 2
;
_chemical_formula_sum "Si O2"
_cell_formula_units_Z 28
_cell_length_a 15.563041
_cell_length_b 11.519482
_cell_length_c 8.795112
_cell_angle_alpha 90.000000
_cell_angle_beta 58.759322
_cell_angle_gamma 90.000000
_cell_volume 1348.133818
_symmetry_space_group_name_H-M "C 2"
_symmetry_group_IT_number 5
_symmetry_cell_setting 'monoclinic'
loop_
_space_group_symop_operation_xyz
x,y,z
-x,y,-z
1/2+x,1/2+y,z
1/2-x,1/2+y,-z
loop_
_atom_site_type_symbol
_atom_site_label
_atom_site_fract_x
_atom_site_fract_y
_atom_site_fract_z
Si Si1 0.889421 0.505060 0.559007
Si Si2 0.472275 0.662206 0.695650
Si Si3 0.310281 0.119140 0.344601
Si Si4 0.157863 0.282380 0.584583
Si Si5 0.500000 0.437671 0.500000
Si Si6 0.787159 0.897379 0.710188
Si Si7 0.352785 0.881317 0.904016
Si Si8 0.500000 0.021879 0.000000
O O1 0.826151 0.589828 0.508869
O O2 0.895834 0.392240 0.443032
O O3 0.846813 0.457130 0.756286
O O4 0.000000 0.550223 0.500000
O O5 0.500000 0.706111 0.500000
O O6 0.575148 0.684998 0.690243
O O7 0.462931 0.525443 0.669214
O O8 0.388377 0.749229 0.835572
O O9 0.248578 0.237993 0.394911
O O10 0.417524 0.099517 0.165356
O O11 0.235929 0.026124 0.333314
O O12 0.207084 0.321164 0.694212
O O13 0.400140 0.366516 0.561282
O O14 0.753850 0.885737 0.913689
O O15 0.434684 0.942786 0.942673
#
# Coordination Sequence:
#
# PCOD9120249 Si02
#       8
#     4   4   4   4   2   4   4   2
#     4  11  18  35  61  83 117 150 198 243 295 350
#     4  10  17  32  66  84 110 153 204 228 283 366
#     4  10  20  36  56  90 114 160 190 249 301 356
#     4  11  19  37  58  86 113 161 195 238 303 368
#     4  10  20  42  56  86 118 168 182 244 310 370
#     4  10  23  36  61  83 125 151 199 251 307 347
#     4  11  18  35  59  94 109 154 202 259 280 350
#     4  10  20  32  58  88 130 138 202 260 300 338
#
# _framework density 20.769449999999999
#
# number of rings (size 3 to 8) (size 9 to 14) (size 15 to 20)
#    0.429    1.143    5.714    1.714    0.000    0.000 
#    3.857    1.429    0.000    2.571    0.000    0.000 
#    0.000    0.000    0.000    0.000    0.000    0.000 
#
# Total GULP energy -77997.194789 kJ/mol
# GULP energy per Si atom -5571.228199 kJ/mol
# Density = 2.072218 g / cm^3
# Si number density = 20.769450 Si / 1000 Ang^3
#
#
#
# Elastic Constant Matrix: (Units=GPa)
#
#
# Indices 1 2 3 4 5 6 
#
# 1 73.2493 -9.0595 24.1209 0.0000 -5.3154 0.0000
# 2 -9.0595 20.0630 4.0833 0.0000 1.0744 0.0000
# 3 24.1209 4.0833 97.5565 0.0000 -4.3115 0.0000
# 4 0.0000 0.0000 0.0000 20.1957 0.0000 -7.3131
# 5 -5.3154 1.0744 -4.3115 0.0000 30.6362 0.0000
# 6 0.0000 0.0000 0.0000 -7.3131 0.0000 20.1577
#
#
#
# Elastic Compliance Matrix: (Units=1/GPa)
#
#
# Indices 1 2 3 4 5 6 
#
# 1 0.016192 0.008075 -0.004256 0.000000 0.001927 0.000000
# 2 0.008075 0.054429 -0.004324 0.000000 -0.001116 0.000000
# 3 -0.004256 -0.004324 0.011530 0.000000 0.001036 0.000000
# 4 0.000000 0.000000 0.000000 0.057004 0.000000 0.020681
# 5 0.001927 -0.001116 0.001036 0.000000 0.033160 0.000000
# 6 0.000000 0.000000 0.000000 0.020681 0.000000 0.057112
#
#
# Mechanical properties :
#
#
# Convention : Reuss Voigt Hill
#
# Bulk Modulus (GPa) = 12.32448 25.46202 18.89325
# Shear Modulus (GPa) = 19.41863 25.64620 22.53241
#
# Velocity S-wave (km/s) = 3.06103 3.51779 3.29733
# Velocity P-wave (km/s) = 4.29419 5.36524 4.85931
#
# Compressibility (1/GPa) = 0.08113931
#
# Stress axis : x y z
#
# Youngs Moduli (GPa) = 61.75847 18.37261 86.73333
#
# Poissons Ratio (x) = -0.14835 0.36916
# Poissons Ratio (y) = -0.49868 0.37503
# Poissons Ratio (z) = 0.26286 0.07944
#
# Static dielectric constant tensor:
#      x y z
#    x 1.793710 0.000000 0.032140 
#    y 0.000000 1.774160 0.000000 
#    z 0.032140 0.000000 1.783240 
# 
# From -- ./inp_files/24330.got.cif
#   From: 2010.05.17/outbox.cif.g08.bks.cpg/sg5_13_cif.got.tgz:24330.got - 2010.06.03 18:56:24.
