data_PCOD9120391
_publ_section_title
;
Structure prediction by ZEFSAII (Michael W. Deem and Ramdas Pophale) SiO2 
 PCOD9120391
Probable space group: C 2
;
_chemical_formula_sum "Si O2"
_cell_formula_units_Z 24
_cell_length_a 4.992667
_cell_length_b 23.282113
_cell_length_c 13.675892
_cell_angle_alpha 90.000000
_cell_angle_beta 57.180514
_cell_angle_gamma 90.000000
_cell_volume 1335.941879
_symmetry_space_group_name_H-M "C 2"
_symmetry_group_IT_number 5
_symmetry_cell_setting 'monoclinic'
loop_
_space_group_symop_operation_xyz
x,y,z
-x,y,-z
1/2+x,1/2+y,z
1/2-x,1/2+y,-z
loop_
_atom_site_type_symbol
_atom_site_label
_atom_site_fract_x
_atom_site_fract_y
_atom_site_fract_z
Si Si1 0.634241 0.093890 0.583010
Si Si2 0.632189 0.961302 0.583830
Si Si3 0.408774 0.245603 0.130559
Si Si4 0.288480 0.196035 0.743979
Si Si5 0.046084 0.804767 0.606197
Si Si6 0.384670 0.851933 0.720499
O O1 0.500000 0.095322 0.500000
O O2 0.411891 0.132855 0.695169
O O3 0.000000 0.113857 0.500000
O O4 0.637212 0.027402 0.616483
O O5 0.500000 0.959458 0.500000
O O6 0.423948 0.919787 0.694184
O O7 0.000000 0.941233 0.500000
O O8 0.654206 0.215664 0.155993
O O9 0.365890 0.312684 0.170456
O O10 0.071562 0.212516 0.213452
O O11 0.500000 0.241418 0.000000
O O12 0.517471 0.237656 0.635153
O O13 0.716671 0.834341 0.705817
O O14 0.000000 0.812575 0.500000
O O15 0.321382 0.828816 0.621832
#
# Coordination Sequence:
#
# PCOD9120391 Si02
#       6
#     4   4   4   4   4   4
#     4  10  20  33  50  75 107 137 162 192 237 300
#     4  10  19  31  48  72 104 136 161 189 233 297
#     4  10  21  36  53  72  96 129 170 218 259 286
#     4  10  20  33  51  74  98 131 167 202 250 299
#     4  10  18  27  44  70 100 125 153 196 242 295
#     4  10  19  30  47  71  96 128 163 197 242 291
#
# _framework density 17.964852
#
# number of rings (size 3 to 8) (size 9 to 14) (size 15 to 20)
#    0.000    2.000    0.000    5.000    0.000    2.667 
#    0.000    0.000    0.000    2.000    0.000    0.000 
#    0.000    0.000    0.000    0.000    0.000    0.000 
#
# Total GULP energy -66803.153633 kJ/mol
# GULP energy per Si atom -5566.929469 kJ/mol
# Density = 1.792396 g / cm^3
# Si number density = 17.964852 Si / 1000 Ang^3
#
#
#
# Elastic Constant Matrix: (Units=GPa)
#
#
# Indices 1 2 3 4 5 6 
#
# 1 94.9087 -6.7502 -1.1624 0.0000 12.2335 0.0000
# 2 -6.7502 96.7368 27.1053 0.0000 -3.7620 0.0000
# 3 -1.1624 27.1053 48.8581 0.0000 8.3686 0.0000
# 4 0.0000 0.0000 0.0000 1608.5092 0.0000 1108.2991
# 5 12.2335 -3.7620 8.3686 0.0000 19.9320 0.0000
# 6 0.0000 0.0000 0.0000 1108.2991 0.0000 807.2391
#
#
#
# Elastic Compliance Matrix: (Units=1/GPa)
#
#
# Indices 1 2 3 4 5 6 
#
# 1 0.011558 0.000068 0.001563 0.000000 -0.007737 0.000000
# 2 0.000068 0.012841 -0.008113 0.000000 0.005788 0.000000
# 3 0.001563 -0.008113 0.027403 0.000000 -0.013996 0.000000
# 4 0.000000 0.000000 0.000000 0.011511 0.000000 -0.015805
# 5 -0.007737 0.005788 -0.013996 0.000000 0.061888 0.000000
# 6 0.000000 0.000000 0.000000 -0.015805 0.000000 0.022938
#
#
# Mechanical properties :
#
#
# Convention : Reuss Voigt Hill
#
# Bulk Modulus (GPa) = 25.74996 30.98766 28.36881
# Shear Modulus (GPa) = 28.72741 501.89010 265.30875
#
# Velocity S-wave (km/s) = 4.00320 16.73260 12.16564
# Velocity P-wave (km/s) = 5.97764 19.76343 14.60009
#
# Compressibility (1/GPa) = 0.03883500
#
# Stress axis : x y z
#
# Youngs Moduli (GPa) = 86.52265 77.87840 36.49231
#
# Poissons Ratio (x) = -0.00528 -0.05702
# Poissons Ratio (y) = -0.00586 0.29608
# Poissons Ratio (z) = -0.13520 0.63186
#
# Static dielectric constant tensor:
#      x y z
#    x -2.356410 0.000000 -3.047140 
#    y 0.000000 1.654780 0.000000 
#    z -3.047140 0.000000 -0.666450 
# 
# From -- ./inp_files/12823.got.cif
#   From: 2010.05.17/outbox.cif.g08.bks.cpg/sg5_7_cif.got.tgz:12823.got - 2010.06.03 18:56:24.
