data_PCOD9120595
_publ_section_title
;
Structure prediction by ZEFSAII (Michael W. Deem and Ramdas Pophale) SiO2 
 PCOD9120595
Probable space group: C 2
;
_chemical_formula_sum "Si O2"
_cell_formula_units_Z 32
_cell_length_a 13.736576
_cell_length_b 7.701888
_cell_length_c 22.089789
_cell_angle_alpha 90.000000
_cell_angle_beta 36.493643
_cell_angle_gamma 90.000000
_cell_volume 1389.919765
_symmetry_space_group_name_H-M "C 2"
_symmetry_group_IT_number 5
_symmetry_cell_setting 'monoclinic'
loop_
_space_group_symop_operation_xyz
x,y,z
-x,y,-z
1/2+x,1/2+y,z
1/2-x,1/2+y,-z
loop_
_atom_site_type_symbol
_atom_site_label
_atom_site_fract_x
_atom_site_fract_y
_atom_site_fract_z
Si Si1 0.174165 0.863090 0.442205
Si Si2 0.986703 0.849817 0.270863
Si Si3 0.197945 0.067462 0.024892
Si Si4 0.824675 0.221843 0.096447
Si Si5 0.487042 0.218130 0.143792
Si Si6 0.192768 0.404538 0.232514
Si Si7 0.519833 0.732004 0.766658
Si Si8 0.617186 0.100650 0.573471
O O1 0.310422 0.836791 0.321421
O O2 0.157417 0.683454 0.488836
O O3 0.000000 0.909650 0.500000
O O4 0.245471 0.997593 0.456636
O O5 0.952807 0.715395 0.232841
O O6 0.923987 0.764822 0.362991
O O7 0.183080 0.858973 0.177226
O O8 0.931203 0.039068 0.280271
O O9 0.086547 0.197695 0.120414
O O10 0.199213 0.120056 0.954447
O O11 0.392226 0.072232 0.943190
O O12 0.107500 0.885256 0.077210
O O13 0.800022 0.072504 0.159186
O O14 0.000000 0.302413 0.000000
O O15 0.317263 0.264478 0.197138
O O16 0.099317 0.324111 0.221891
O O17 0.044657 0.478211 0.347815
#
# Coordination Sequence:
#
# PCOD9120595 Si02
#       8
#     4   4   4   4   4   4   4   4
#     4  11  25  45  73  99 129 175 220 278 348 390
#     4   9  21  39  59  86 132 160 206 274 324 387
#     4  10  20  33  55  83 126 158 212 257 303 385
#     4  10  18  33  56  82 118 172 209 253 317 379
#     4  10  20  37  57  91 119 176 207 253 329 380
#     4  10  21  38  64  87 125 166 217 264 325 392
#     4  10  22  39  58  94 125 163 216 270 321 398
#     4  10  23  47  67  97 131 162 222 283 325 416
#
# _framework density 23.022912000000002
#
# number of rings (size 3 to 8) (size 9 to 14) (size 15 to 20)
#    0.000    2.000    1.250    1.500    3.500    1.000 
#   13.500    0.625    0.000    0.000    0.000    0.000 
#    0.000    0.000    0.000    0.000    0.000    0.000 
#
# Total GULP energy -89335.782498 kJ/mol
# GULP energy per Si atom -5583.486406 kJ/mol
# Density = 2.297051 g / cm^3
# Si number density = 23.022912 Si / 1000 Ang^3
#
#
#
# Elastic Constant Matrix: (Units=GPa)
#
#
# Indices 1 2 3 4 5 6 
#
# 1 46.1214 0.2436 38.8843 0.0000 -23.3028 0.0000
# 2 0.2436 63.7970 23.9186 0.0000 -6.9554 0.0000
# 3 38.8843 23.9186 112.9355 0.0000 -14.3512 0.0000
# 4 0.0000 0.0000 0.0000 26.4818 0.0000 -1.5368
# 5 -23.3028 -6.9554 -14.3512 0.0000 44.4012 0.0000
# 6 0.0000 0.0000 0.0000 -1.5368 0.0000 27.0621
#
#
#
# Elastic Compliance Matrix: (Units=1/GPa)
#
#
# Indices 1 2 3 4 5 6 
#
# 1 0.043086 0.007146 -0.013903 0.000000 0.019238 0.000000
# 2 0.007146 0.018317 -0.005734 0.000000 0.004766 0.000000
# 3 -0.013903 -0.005734 0.014406 0.000000 -0.003539 0.000000
# 4 0.000000 0.000000 0.000000 0.037887 0.000000 0.002151
# 5 0.019238 0.004766 -0.003539 0.000000 0.032221 0.000000
# 6 0.000000 0.000000 0.000000 0.002151 0.000000 0.037074
#
#
# Mechanical properties :
#
#
# Convention : Reuss Voigt Hill
#
# Bulk Modulus (GPa) = 19.67516 38.77189 29.22353
# Shear Modulus (GPa) = 22.23045 30.24283 26.23664
#
# Velocity S-wave (km/s) = 3.11075 3.62829 3.37944
# Velocity P-wave (km/s) = 4.63323 5.86769 5.28661
#
# Compressibility (1/GPa) = 0.05082550
#
# Stress axis : x y z
#
# Youngs Moduli (GPa) = 23.20945 54.59466 69.41391
#
# Poissons Ratio (x) = -0.39011 0.96509
# Poissons Ratio (y) = -0.16584 0.39801
# Poissons Ratio (z) = 0.32269 0.31304
#
# Static dielectric constant tensor:
#      x y z
#    x 1.899610 0.000000 -0.031020 
#    y 0.000000 1.899210 0.000000 
#    z -0.031020 0.000000 1.878830 
# 
# From -- ./inp_files/70601.got.cif
#   From: 2010.05.17/outbox.cif.g08.bks.cpg/sg5_36_cif.got.tgz:70601.got - 2010.06.03 18:56:24.
