data_PCOD9120220
_publ_section_title
;
Structure prediction by ZEFSAII (Michael W. Deem and Ramdas Pophale) SiO2 
 PCOD9120220
Probable space group: C 2
;
_chemical_formula_sum "Si O2"
_cell_formula_units_Z 30
_cell_length_a 10.651716
_cell_length_b 28.530834
_cell_length_c 5.559414
_cell_angle_alpha 90.000000
_cell_angle_beta 57.634500
_cell_angle_gamma 90.000000
_cell_volume 1427.052864
_symmetry_space_group_name_H-M "C 2"
_symmetry_group_IT_number 5
_symmetry_cell_setting 'monoclinic'
loop_
_space_group_symop_operation_xyz
x,y,z
-x,y,-z
1/2+x,1/2+y,z
1/2-x,1/2+y,-z
loop_
_atom_site_type_symbol
_atom_site_label
_atom_site_fract_x
_atom_site_fract_y
_atom_site_fract_z
Si Si1 0.325633 0.273120 0.417297
Si Si2 0.105098 0.124015 0.705135
Si Si3 0.845149 0.980087 0.307947
Si Si4 0.170407 0.735847 0.095641
Si Si5 0.500000 0.544382 0.500000
Si Si6 0.405526 0.379049 0.345821
Si Si7 0.169063 0.558822 0.249402
Si Si8 0.831403 0.638564 0.084341
O O1 0.498550 0.254628 0.256388
O O2 0.257531 0.255027 0.735872
O O3 0.324820 0.329221 0.430065
O O4 0.266437 0.253882 0.224379
O O5 0.995860 0.082269 0.720479
O O6 0.239792 0.095586 0.684384
O O7 0.192396 0.149118 0.402018
O O8 0.000000 0.150660 0.000000
O O9 0.811312 0.926771 0.413624
O O10 0.734873 0.008283 0.246856
O O11 0.875777 0.009284 0.521943
O O12 0.000000 0.980007 0.000000
O O13 0.175808 0.679649 0.105031
O O14 0.500000 0.382591 0.500000
O O15 0.500000 0.377069 0.000000
O O16 0.000000 0.559569 0.500000
O O17 0.179415 0.584142 0.980888
O O18 0.000000 0.644756 0.000000
#
# Coordination Sequence:
#
# PCOD9120220 Si02
#       8
#     4   4   4   4   2   4   4   4
#     4  10  17  32  50  83 125 160 197 259 325 380
#     4  11  23  39  60  80 120 168 212 262 310 373
#     4  10  21  35  57  83 122 163 210 262 316 388
#     4  10  20  30  54  81 129 161 197 258 320 383
#     4  10  18  38  54  78 110 162 208 254 312 356
#     4  11  18  32  55  85 119 166 202 259 331 385
#     4  11  23  38  58  86 123 167 216 265 309 377
#     4  12  23  36  57  88 123 177 213 258 320 382
#
# _framework density 21.022348000000001
#
# number of rings (size 3 to 8) (size 9 to 14) (size 15 to 20)
#    0.000    1.333    6.000    3.200    3.733    0.000 
#    0.000    0.000    0.000    0.000    0.000    0.000 
#    6.000    0.000    0.000    0.267    0.000    0.000 
#
# Total GULP energy -83536.430832 kJ/mol
# GULP energy per Si atom -5569.095389 kJ/mol
# Density = 2.097450 g / cm^3
# Si number density = 21.022348 Si / 1000 Ang^3
#
#
#
# Elastic Constant Matrix: (Units=GPa)
#
#
# Indices 1 2 3 4 5 6 
#
# 1 62.3840 32.2125 44.1650 0.0000 0.3461 0.0000
# 2 32.2125 154.6790 48.3106 0.0000 7.1445 0.0000
# 3 44.1650 48.3106 111.1815 0.0000 18.0012 0.0000
# 4 0.0000 0.0000 0.0000 26.4259 0.0000 11.6977
# 5 0.3461 7.1445 18.0012 0.0000 42.9477 0.0000
# 6 0.0000 0.0000 0.0000 11.6977 0.0000 20.0614
#
#
#
# Elastic Compliance Matrix: (Units=1/GPa)
#
#
# Indices 1 2 3 4 5 6 
#
# 1 0.023564 -0.002275 -0.009014 0.000000 0.003967 0.000000
# 2 -0.002275 0.007700 -0.002401 0.000000 -0.000256 0.000000
# 3 -0.009014 -0.002401 0.014528 0.000000 -0.005617 0.000000
# 4 0.000000 0.000000 0.000000 0.051007 0.000000 -0.029742
# 5 0.003967 -0.000256 -0.005617 0.000000 0.025649 0.000000
# 6 0.000000 0.000000 0.000000 -0.029742 0.000000 0.067189
#
#
# Mechanical properties :
#
#
# Convention : Reuss Voigt Hill
#
# Bulk Modulus (GPa) = 54.31178 64.18010 59.24594
# Shear Modulus (GPa) = 22.40590 31.45742 26.93166
#
# Velocity S-wave (km/s) = 3.26822 3.87250 3.58312
# Velocity P-wave (km/s) = 6.33506 7.11272 6.73513
#
# Compressibility (1/GPa) = 0.01841221
#
# Stress axis : x y z
#
# Youngs Moduli (GPa) = 42.43738 129.86215 68.83428
#
# Poissons Ratio (x) = 0.29546 0.62048
# Poissons Ratio (y) = 0.09655 0.16525
# Poissons Ratio (z) = 0.38254 0.31176
#
# Static dielectric constant tensor:
#      x y z
#    x 1.781450 0.000000 0.060210 
#    y 0.000000 1.754200 0.000000 
#    z 0.060210 0.000000 1.900640 
# 
# From -- ./inp_files/6124.got.cif
#   From: 2010.05.17/outbox.cif.g08.bks.cpg/sg5_4_cif.got.tgz:6124.got - 2010.06.03 18:56:24.
