data_PCOD9120543
_publ_section_title
;
Structure prediction by ZEFSAII (Michael W. Deem and Ramdas Pophale) SiO2 
 PCOD9120543
Probable space group: C 2
;
_chemical_formula_sum "Si O2"
_cell_formula_units_Z 28
_cell_length_a 7.404451
_cell_length_b 13.176164
_cell_length_c 13.750502
_cell_angle_alpha 90.000000
_cell_angle_beta 62.852461
_cell_angle_gamma 90.000000
_cell_volume 1193.739767
_symmetry_space_group_name_H-M "C 2"
_symmetry_group_IT_number 5
_symmetry_cell_setting 'monoclinic'
loop_
_space_group_symop_operation_xyz
x,y,z
-x,y,-z
1/2+x,1/2+y,z
1/2-x,1/2+y,-z
loop_
_atom_site_type_symbol
_atom_site_label
_atom_site_fract_x
_atom_site_fract_y
_atom_site_fract_z
Si Si1 0.782195 0.339100 0.051082
Si Si2 0.319463 0.314849 0.466299
Si Si3 0.644620 0.705727 0.789257
Si Si4 0.038653 0.599042 0.601001
Si Si5 0.883539 0.863143 0.232894
Si Si6 0.308530 0.199347 0.102388
Si Si7 0.559773 0.902220 0.684382
O O1 0.810421 0.237875 0.111207
O O2 0.596065 0.401304 0.139771
O O3 0.727321 0.297666 0.958965
O O4 0.000000 0.391592 0.000000
O O5 0.500000 0.334832 0.500000
O O6 0.317484 0.195217 0.448309
O O7 0.374820 0.364803 0.350742
O O8 0.116150 0.349536 0.568505
O O9 0.826329 0.643785 0.695502
O O10 0.420512 0.656656 0.834475
O O11 0.634443 0.818574 0.742074
O O12 0.134357 0.516384 0.650023
O O13 0.000000 0.559105 0.500000
O O14 0.866603 0.748118 0.192286
O O15 0.680654 0.915719 0.246166
O O16 0.500000 0.147301 0.000000
#
# Coordination Sequence:
#
# PCOD9120543 Si02
#       7
#     4   4   4   4   4   4   4
#     4   9  16  31  59  87 111 162 208 250 318 368
#     4  11  20  37  58  84 127 161 209 257 303 376
#     4  10  18  36  62  85 122 161 212 253 303 385
#     4  11  21  37  61  87 125 168 207 242 320 370
#     4  10  18  32  56  87 117 157 208 259 299 371
#     4   8  17  30  56  91 112 153 215 254 314 368
#     4  11  22  37  61  90 124 164 205 256 307 373
#
# _framework density 23.455698999999999
#
# number of rings (size 3 to 8) (size 9 to 14) (size 15 to 20)
#    0.000    2.000    4.286    1.286    0.000    0.000 
#    0.000    1.429    9.429   26.571    7.429    0.000 
#    0.000    0.000    0.000    0.000    0.000    0.000 
#
# Total GULP energy -78067.978615 kJ/mol
# GULP energy per Si atom -5576.284187 kJ/mol
# Density = 2.340231 g / cm^3
# Si number density = 23.455699 Si / 1000 Ang^3
#
#
#
# Elastic Constant Matrix: (Units=GPa)
#
#
# Indices 1 2 3 4 5 6 
#
# 1 73.5712 10.5162 26.5742 0.0000 -17.7003 0.0000
# 2 10.5162 72.3310 11.5383 0.0000 -10.8933 0.0000
# 3 26.5742 11.5383 133.0433 0.0000 -11.2784 0.0000
# 4 0.0000 0.0000 0.0000 0.4844 0.0000 -0.7734
# 5 -17.7003 -10.8933 -11.2784 0.0000 56.6179 0.0000
# 6 0.0000 0.0000 0.0000 -0.7734 0.0000 12.7295
#
#
#
# Elastic Compliance Matrix: (Units=1/GPa)
#
#
# Indices 1 2 3 4 5 6 
#
# 1 0.015736 -0.001235 -0.002684 0.000000 0.004147 0.000000
# 2 -0.001235 0.014472 -0.000819 0.000000 0.002235 0.000000
# 3 -0.002684 -0.000819 0.008177 0.000000 0.000632 0.000000
# 4 0.000000 0.000000 0.000000 2.285983 0.000000 0.138891
# 5 0.004147 0.002235 0.000632 0.000000 0.019515 0.000000
# 6 0.000000 0.000000 0.000000 0.138891 0.000000 0.086996
#
#
# Mechanical properties :
#
#
# Convention : Reuss Voigt Hill
#
# Bulk Modulus (GPa) = 34.59184 41.80032 38.19608
# Shear Modulus (GPa) = 2.04082 29.32083 15.68082
#
# Velocity S-wave (km/s) = 0.93379 3.53944 2.58840
# Velocity P-wave (km/s) = 3.99279 5.87905 5.02521
#
# Compressibility (1/GPa) = 0.02890855
#
# Stress axis : x y z
#
# Youngs Moduli (GPa) = 63.54765 69.09821 122.29178
#
# Poissons Ratio (x) = 0.08534 0.32829
# Poissons Ratio (y) = 0.07849 0.10015
# Poissons Ratio (z) = 0.17059 0.05659
#
# Static dielectric constant tensor:
#      x y z
#    x 1.983160 0.000000 -0.035510 
#    y 0.000000 1.859890 0.000000 
#    z -0.035510 0.000000 1.941790 
# 
# From -- ./inp_files/50699.got.cif
#   From: 2010.05.17/outbox.cif.g08.bks.cpg/sg5_26_cif.got.tgz:50699.got - 2010.06.03 18:56:24.
