data_PCOD9120384
_publ_section_title
;
Structure prediction by ZEFSAII (Michael W. Deem and Ramdas Pophale) SiO2 
 PCOD9120384
Probable space group: C 2
;
_chemical_formula_sum "Si O2"
_cell_formula_units_Z 26
_cell_length_a 16.825865
_cell_length_b 8.663386
_cell_length_c 16.110061
_cell_angle_alpha 90.000000
_cell_angle_beta 25.564496
_cell_angle_gamma 90.000000
_cell_volume 1013.374701
_symmetry_space_group_name_H-M "C 2"
_symmetry_group_IT_number 5
_symmetry_cell_setting 'monoclinic'
loop_
_space_group_symop_operation_xyz
x,y,z
-x,y,-z
1/2+x,1/2+y,z
1/2-x,1/2+y,-z
loop_
_atom_site_type_symbol
_atom_site_label
_atom_site_fract_x
_atom_site_fract_y
_atom_site_fract_z
Si Si1 0.000000 0.787350 0.000000
Si Si2 0.445701 0.906232 0.456614
Si Si3 0.709157 0.603768 0.386518
Si Si4 0.552550 0.532914 0.828626
Si Si5 0.723950 0.782664 0.956631
Si Si6 0.980145 0.568584 0.779622
Si Si7 0.705735 0.818139 0.788471
O O1 0.841619 0.688600 0.193220
O O2 0.067981 0.910040 0.005521
O O3 0.500000 0.951083 0.500000
O O4 0.460332 0.719559 0.439862
O O5 0.537662 0.999148 0.295910
O O6 0.230739 0.936866 0.634096
O O7 0.682661 0.434842 0.373717
O O8 0.820799 0.582247 0.366729
O O9 0.655311 0.660628 0.789584
O O10 0.425996 0.643629 0.892556
O O11 0.888741 0.736654 0.861399
O O12 0.786926 0.785829 0.801849
O O13 0.630556 0.945418 0.061551
O O14 0.500000 0.885275 0.000000
#
# Coordination Sequence:
#
# PCOD9120384 Si02
#       7
#     2   4   4   4   4   4   4
#     4  10  18  34  70  96 126 176 232 262 346 386
#     4  11  28  46  66  99 141 190 230 279 356 416
#     4  11  23  41  70  98 141 181 223 291 339 408
#     4  10  20  40  71  93 134 184 228 275 337 414
#     4  11  24  41  70 105 136 179 234 291 340 413
#     4  12  27  44  67 108 142 175 235 289 351 402
#     4  10  17  40  66  95 124 174 230 275 330 405
#
# _framework density 25.656846999999999
#
# number of rings (size 3 to 8) (size 9 to 14) (size 15 to 20)
#    0.000    1.231    6.154    0.923    8.615    1.231 
#    0.000    5.385    0.000    0.000    0.000    0.000 
#    0.000    0.000    0.000    0.000    0.000    0.000 
#
# Total GULP energy -72644.120452 kJ/mol
# GULP energy per Si atom -5588.009266 kJ/mol
# Density = 2.559845 g / cm^3
# Si number density = 25.656847 Si / 1000 Ang^3
#
#
#
# Elastic Constant Matrix: (Units=GPa)
#
#
# Indices 1 2 3 4 5 6 
#
# 1 146.8133 21.4976 20.3303 -0.0001 0.0344 0.0000
# 2 21.4976 87.9959 5.4242 -0.0001 7.9386 0.0000
# 3 20.3303 5.4242 24.7435 -0.0002 -1.0884 -0.0001
# 4 -0.0001 -0.0001 -0.0002 34.7832 0.0001 2.0712
# 5 0.0344 7.9386 -1.0884 0.0001 29.2567 0.0001
# 6 0.0000 0.0000 -0.0001 2.0712 0.0001 44.0676
#
#
#
# Elastic Compliance Matrix: (Units=1/GPa)
#
#
# Indices 1 2 3 4 5 6 
#
# 1 0.007890 -0.001566 -0.006131 0.000000 0.000188 0.000000
# 2 -0.001566 0.012143 -0.001522 0.000000 -0.003350 0.000000
# 3 -0.006131 -0.001522 0.045879 0.000000 0.002127 0.000000
# 4 0.000000 0.000000 0.000000 0.028830 0.000000 -0.001355
# 5 0.000188 -0.003350 0.002127 0.000000 0.035168 0.000000
# 6 0.000000 0.000000 0.000000 -0.001355 0.000000 0.022756
#
#
# Mechanical properties :
#
#
# Convention : Reuss Voigt Hill
#
# Bulk Modulus (GPa) = 21.06470 39.33967 30.20218
# Shear Modulus (GPa) = 26.74808 35.77488 31.26148
#
# Velocity S-wave (km/s) = 3.23233 3.73816 3.49441
# Velocity P-wave (km/s) = 4.70729 5.83079 5.29890
#
# Compressibility (1/GPa) = 0.04747280
#
# Stress axis : x y z
#
# Youngs Moduli (GPa) = 126.74780 82.35281 21.79637
#
# Poissons Ratio (x) = 0.12900 0.13363
# Poissons Ratio (y) = 0.19855 0.03318
# Poissons Ratio (z) = 0.77707 0.12535
#
# Static dielectric constant tensor:
#      x y z
#    x 2.000730 0.000000 0.003880 
#    y 0.000000 2.055490 0.000000 
#    z 0.003880 0.000000 2.108030 
# 
# From -- ./inp_files/54288.got.cif
#   From: 2010.05.17/outbox.cif.g08.bks.cpg/sg5_28_cif.got.tgz:54288.got - 2010.06.03 18:56:24.
