data_PCOD9120520
_publ_section_title
;
Structure prediction by ZEFSAII (Michael W. Deem and Ramdas Pophale) SiO2 
 PCOD9120520
Probable space group: C 2
;
_chemical_formula_sum "Si O2"
_cell_formula_units_Z 28
_cell_length_a 26.161689
_cell_length_b 9.311755
_cell_length_c 8.867590
_cell_angle_alpha 90.000000
_cell_angle_beta 40.205217
_cell_angle_gamma 90.000000
_cell_volume 1394.496704
_symmetry_space_group_name_H-M "C 2"
_symmetry_group_IT_number 5
_symmetry_cell_setting 'monoclinic'
loop_
_space_group_symop_operation_xyz
x,y,z
-x,y,-z
1/2+x,1/2+y,z
1/2-x,1/2+y,-z
loop_
_atom_site_type_symbol
_atom_site_label
_atom_site_fract_x
_atom_site_fract_y
_atom_site_fract_z
Si Si1 0.080864 0.022260 0.254599
Si Si2 0.920673 0.646400 0.258538
Si Si3 0.169200 0.580879 0.947514
Si Si4 0.646154 0.250894 0.294634
Si Si5 0.808986 0.268371 0.095836
Si Si6 0.750261 0.562315 0.529934
Si Si7 0.613173 0.353176 0.905512
O O1 0.000000 0.082174 0.500000
O O2 0.108957 0.887435 0.292853
O O3 0.146739 0.144141 0.095302
O O4 0.066650 0.961191 0.117298
O O5 0.913896 0.673946 0.452599
O O6 0.840260 0.562710 0.391303
O O7 0.913042 0.805435 0.200097
O O8 0.000000 0.585703 0.000000
O O9 0.142807 0.415890 0.007546
O O10 0.243532 0.575979 0.664127
O O11 0.115626 0.701691 0.988189
O O12 0.176425 0.639080 0.099678
O O13 0.723808 0.297308 0.212609
O O14 0.791493 0.198935 0.298257
O O15 0.699440 0.425965 0.696327
#
# Coordination Sequence:
#
# PCOD9120520 Si02
#       7
#     4   4   4   4   4   4   4
#     4  10  20  36  55  80 109 139 175 220 265 310
#     4  10  19  33  54  82 108 135 175 225 264 303
#     4  10  18  32  53  77 103 136 179 218 253 308
#     4  10  20  33  54  80 107 140 178 216 262 316
#     4  10  20  34  54  80 107 140 178 219 262 310
#     4   9  18  34  54  76 103 140 180 214 258 318
#     4   9  19  34  56  77 103 144 181 210 258 323
#
# _framework density 20.078928000000001
#
# number of rings (size 3 to 8) (size 9 to 14) (size 15 to 20)
#    0.000    2.286    0.000    4.286    0.000    1.143 
#    0.000    5.714    0.000    0.000    0.000   30.000 
#    0.000    0.000    0.000    0.000    0.000    0.000 
#
# Total GULP energy -77961.734276 kJ/mol
# GULP energy per Si atom -5568.695305 kJ/mol
# Density = 2.003323 g / cm^3
# Si number density = 20.078928 Si / 1000 Ang^3
#
#
#
# Elastic Constant Matrix: (Units=GPa)
#
#
# Indices 1 2 3 4 5 6 
#
# 1 32.2448 14.6060 36.8597 0.0000 12.3878 0.0000
# 2 14.6060 77.4454 28.0441 0.0000 7.2735 0.0000
# 3 36.8597 28.0441 136.1310 0.0000 12.0305 0.0000
# 4 0.0000 0.0000 0.0000 21.9802 0.0000 2.5209
# 5 12.3878 7.2735 12.0305 0.0000 40.2466 0.0000
# 6 0.0000 0.0000 0.0000 2.5209 0.0000 20.6878
#
#
#
# Elastic Compliance Matrix: (Units=1/GPa)
#
#
# Indices 1 2 3 4 5 6 
#
# 1 0.050896 -0.004221 -0.011909 0.000000 -0.011343 0.000000
# 2 -0.004221 0.014418 -0.001758 0.000000 -0.000781 0.000000
# 3 -0.011909 -0.001758 0.010868 0.000000 0.000735 0.000000
# 4 0.000000 0.000000 0.000000 0.046140 0.000000 -0.005623
# 5 -0.011343 -0.000781 0.000735 0.000000 0.028260 0.000000
# 6 0.000000 0.000000 0.000000 -0.005623 0.000000 0.049023
#
#
# Mechanical properties :
#
#
# Convention : Reuss Voigt Hill
#
# Bulk Modulus (GPa) = 24.74927 44.98230 34.86579
# Shear Modulus (GPa) = 20.09243 27.67033 23.88138
#
# Velocity S-wave (km/s) = 3.16677 3.71627 3.45247
# Velocity P-wave (km/s) = 5.07188 6.39262 5.77017
#
# Compressibility (1/GPa) = 0.04040523
#
# Stress axis : x y z
#
# Youngs Moduli (GPa) = 19.64801 69.35539 92.01583
#
# Poissons Ratio (x) = 0.29276 1.09580
# Poissons Ratio (y) = 0.08294 0.16180
# Poissons Ratio (z) = 0.23399 0.12195
#
# Static dielectric constant tensor:
#      x y z
#    x 1.761930 0.000000 0.021660 
#    y 0.000000 1.716870 0.000000 
#    z 0.021660 0.000000 1.756090 
# 
# From -- ./inp_files/32468.got.cif
#   From: 2010.05.17/outbox.cif.g08.bks.cpg/sg5_17_cif.got.tgz:32468.got - 2010.06.03 18:56:24.
