data_PCOD9120976
_publ_section_title
;
Structure prediction by ZEFSAII (Michael W. Deem and Ramdas Pophale) SiO2 
 PCOD9120976
Probable space group: C 2
;
_chemical_formula_sum "Si O2"
_cell_formula_units_Z 30
_cell_length_a 19.275233
_cell_length_b 8.927545
_cell_length_c 16.029932
_cell_angle_alpha 90.000000
_cell_angle_beta 32.528659
_cell_angle_gamma 90.000000
_cell_volume 1483.271614
_symmetry_space_group_name_H-M "C 2"
_symmetry_group_IT_number 5
_symmetry_cell_setting 'monoclinic'
loop_
_space_group_symop_operation_xyz
x,y,z
-x,y,-z
1/2+x,1/2+y,z
1/2-x,1/2+y,-z
loop_
_atom_site_type_symbol
_atom_site_label
_atom_site_fract_x
_atom_site_fract_y
_atom_site_fract_z
Si Si1 0.584571 0.255600 0.339370
Si Si2 0.000000 0.221356 0.000000
Si Si3 0.086042 0.960687 0.589395
Si Si4 0.518937 0.769620 0.581037
Si Si5 0.297249 0.296257 0.250570
Si Si6 0.768875 0.451900 0.258381
Si Si7 0.004176 0.971846 0.852054
Si Si8 0.274007 0.963766 0.844741
O O1 0.500000 0.181157 0.500000
O O2 0.494771 0.315861 0.356975
O O3 0.652959 0.394061 0.317153
O O4 0.684588 0.135489 0.204056
O O5 0.879736 0.333195 0.128733
O O6 0.999782 0.114198 0.081734
O O7 0.219657 0.945865 0.403859
O O8 0.090671 0.988067 0.682370
O O9 0.014616 0.104871 0.623067
O O10 0.500000 0.764259 0.500000
O O11 0.669227 0.816628 0.437987
O O12 0.403892 0.871311 0.733598
O O13 0.427870 0.339602 0.164853
O O14 0.272942 0.407673 0.198599
O O15 0.300218 0.126326 0.213637
O O16 0.857312 0.942418 0.970654
#
# Coordination Sequence:
#
# PCOD9120976 Si02
#       8
#     4   2   4   4   4   4   4   4
#     4  10  18  37  63  91 122 162 209 260 313 371
#     4  12  24  42  66  92 126 166 212 260 312 374
#     4  10  23  40  61  91 131 162 206 261 312 371
#     4   9  19  39  66  89 115 165 216 252 308 375
#     4  10  20  39  63  89 116 165 212 250 307 378
#     4  10  22  40  67  92 119 166 214 256 309 375
#     4  12  24  40  61  92 133 165 202 261 318 370
#     4  11  20  36  62  94 121 165 206 258 305 376
#
# _framework density 20.225560000000002
#
# number of rings (size 3 to 8) (size 9 to 14) (size 15 to 20)
#    0.000    1.600    2.667    4.000    1.867    4.267 
#    0.000    1.333    0.000    0.000    0.000    0.000 
#    0.000    0.000    0.000    0.000    0.000    0.000 
#
# Total GULP energy -83669.366333 kJ/mol
# GULP energy per Si atom -5577.957756 kJ/mol
# Density = 2.017953 g / cm^3
# Si number density = 20.225560 Si / 1000 Ang^3
#
#
#
# Elastic Constant Matrix: (Units=GPa)
#
#
# Indices 1 2 3 4 5 6 
#
# 1 31.5629 15.2442 20.6195 0.0000 6.4796 0.0000
# 2 15.2442 72.9075 10.4557 0.0000 -7.4721 0.0000
# 3 20.6195 10.4557 45.9772 0.0000 -8.9269 0.0000
# 4 0.0000 0.0000 0.0000 34.2194 0.0000 -11.2057
# 5 6.4796 -7.4721 -8.9269 0.0000 32.6039 0.0000
# 6 0.0000 0.0000 0.0000 -11.2057 0.0000 11.0423
#
#
#
# Elastic Compliance Matrix: (Units=1/GPa)
#
#
# Indices 1 2 3 4 5 6 
#
# 1 0.060443 -0.010776 -0.029010 0.000000 -0.022425 0.000000
# 2 -0.010776 0.016295 0.002395 0.000000 0.006532 0.000000
# 3 -0.029010 0.002395 0.037431 0.000000 0.016563 0.000000
# 4 0.000000 0.000000 0.000000 0.043768 0.000000 0.044415
# 5 -0.022425 0.006532 0.016563 0.000000 0.041160 0.000000
# 6 0.000000 0.000000 0.000000 0.044415 0.000000 0.135633
#
#
# Mechanical properties :
#
#
# Convention : Reuss Voigt Hill
#
# Bulk Modulus (GPa) = 25.38888 27.00961 26.19924
# Shear Modulus (GPa) = 11.83035 22.51500 17.17268
#
# Velocity S-wave (km/s) = 2.42114 3.34008 2.91702
# Velocity P-wave (km/s) = 4.51619 5.31583 4.93224
#
# Compressibility (1/GPa) = 0.03938732
#
# Stress axis : x y z
#
# Youngs Moduli (GPa) = 16.54449 61.36823 26.71551
#
# Poissons Ratio (x) = 0.66130 0.77503
# Poissons Ratio (y) = 0.17828 -0.06399
# Poissons Ratio (z) = 0.47996 -0.14699
#
# Static dielectric constant tensor:
#      x y z
#    x 1.710630 0.000000 -0.027080 
#    y 0.000000 1.703350 0.000000 
#    z -0.027080 0.000000 1.805300 
# 
# From -- ./inp_files/44334.got.cif
#   From: 2010.05.17/outbox.cif.g08.bks.cpg/sg5_23_cif.got.tgz:44334.got - 2010.06.03 18:56:24.
