data_PCOD9120939
_publ_section_title
;
Structure prediction by ZEFSAII (Michael W. Deem and Ramdas Pophale) SiO2 
 PCOD9120939
Probable space group: C 2
;
_chemical_formula_sum "Si O2"
_cell_formula_units_Z 28
_cell_length_a 13.512862
_cell_length_b 4.957206
_cell_length_c 21.428549
_cell_angle_alpha 90.000000
_cell_angle_beta 55.476982
_cell_angle_gamma 90.000000
_cell_volume 1182.635262
_symmetry_space_group_name_H-M "C 2"
_symmetry_group_IT_number 5
_symmetry_cell_setting 'monoclinic'
loop_
_space_group_symop_operation_xyz
x,y,z
-x,y,-z
1/2+x,1/2+y,z
1/2-x,1/2+y,-z
loop_
_atom_site_type_symbol
_atom_site_label
_atom_site_fract_x
_atom_site_fract_y
_atom_site_fract_z
Si Si1 0.178850 0.525950 0.550782
Si Si2 0.237931 0.050188 0.858706
Si Si3 0.934916 0.693476 0.631744
Si Si4 0.762781 0.301886 0.637485
Si Si5 0.214970 0.035239 0.238827
Si Si6 0.500000 0.585226 0.500000
Si Si7 0.500000 0.283004 0.000000
Si Si8 0.673902 0.171418 0.042733
O O1 0.255559 0.247144 0.518951
O O2 0.171458 0.693442 0.618887
O O3 0.035991 0.462390 0.596451
O O4 0.290900 0.809175 0.798048
O O5 0.329709 0.106705 0.882772
O O6 0.212818 0.317532 0.827413
O O7 0.111667 0.951574 0.932692
O O8 0.807047 0.583985 0.651290
O O9 0.905588 0.865604 0.703361
O O10 0.993919 0.891851 0.561222
O O11 0.744333 0.127658 0.706778
O O12 0.880108 0.250400 0.551921
O O13 0.560272 0.132044 0.037863
O O14 0.778686 0.977379 0.978812
#
# Coordination Sequence:
#
# PCOD9120939 Si02
#       8
#     4   4   4   4   4   2   2   4
#     4  12  26  42  68 104 132 172 251 302 336 414
#     4  11  23  46  70 105 138 180 230 286 343 423
#     4  11  23  43  66  93 137 188 224 290 354 402
#     4  11  23  43  66  95 137 185 225 296 346 411
#     4  11  25  44  68  97 147 185 229 277 353 428
#     4  10  18  36  66  92 118 172 236 276 346 386
#     4  10  24  46  80 106 136 182 230 292 348 404
#     4  10  22  42  73 106 139 172 222 285 343 411
#
# _framework density 23.675936
#
# number of rings (size 3 to 8) (size 9 to 14) (size 15 to 20)
#    0.000    1.143    2.857    3.857    4.000    5.143 
#    2.571    2.857    0.000    0.000    0.000    0.000 
#    0.000    0.000    0.000    0.000    0.000    0.000 
#
# Total GULP energy -77991.255814 kJ/mol
# GULP energy per Si atom -5570.803987 kJ/mol
# Density = 2.362205 g / cm^3
# Si number density = 23.675936 Si / 1000 Ang^3
#
#
#
# Elastic Constant Matrix: (Units=GPa)
#
#
# Indices 1 2 3 4 5 6 
#
# 1 91.2985 4.8819 25.7129 0.0074 16.8620 0.0078
# 2 4.8819 107.1267 29.3684 0.0125 12.0307 0.0222
# 3 25.7129 29.3684 122.5463 -0.0027 31.6713 -0.0069
# 4 0.0074 0.0125 -0.0027 42.3946 0.0026 -2.8527
# 5 16.8620 12.0307 31.6713 0.0026 23.4493 0.0103
# 6 0.0078 0.0222 -0.0069 -2.8527 0.0103 17.5809
#
#
#
# Elastic Compliance Matrix: (Units=1/GPa)
#
#
# Indices 1 2 3 4 5 6 
#
# 1 0.012677 0.000546 -0.000557 -0.000002 -0.008644 -0.000002
# 2 0.000546 0.010145 -0.001689 -0.000004 -0.003317 -0.000012
# 3 -0.000557 -0.001689 0.012834 0.000004 -0.016068 0.000017
# 4 -0.000002 -0.000004 0.000004 0.023848 -0.000006 0.003870
# 5 -0.008644 -0.003317 -0.016068 -0.000006 0.072264 -0.000041
# 6 -0.000002 -0.000012 0.000017 0.003870 -0.000041 0.057508
#
#
# Mechanical properties :
#
#
# Convention : Reuss Voigt Hill
#
# Bulk Modulus (GPa) = 31.00076 48.98865 39.99470
# Shear Modulus (GPa) = 24.57864 34.08553 29.33209
#
# Velocity S-wave (km/s) = 3.22549 3.79841 3.52362
# Velocity P-wave (km/s) = 5.19557 6.32246 5.78651
#
# Compressibility (1/GPa) = 0.03225728
#
# Stress axis : x y z
#
# Youngs Moduli (GPa) = 78.88200 98.56796 77.91640
#
# Poissons Ratio (x) = -0.05379 0.04338
# Poissons Ratio (y) = -0.04304 0.13157
# Poissons Ratio (z) = 0.04392 0.16645
#
# Static dielectric constant tensor:
#      x y z
#    x 2.333750 -0.000030 0.104280 
#    y -0.000030 1.941940 -0.000010 
#    z 0.104280 -0.000010 1.916140 
# 
# From -- ./inp_files/60979.got.cif
#   From: 2010.05.17/outbox.cif.g08.bks.cpg/sg5_31_cif.got.tgz:60979.got - 2010.06.03 18:56:24.
