data_PCOD9120030
_publ_section_title
;
Structure prediction by ZEFSAII (Michael W. Deem and Ramdas Pophale) SiO2 
 PCOD9120030
Probable space group: C 2
;
_chemical_formula_sum "Si O2"
_cell_formula_units_Z 26
_cell_length_a 15.312479
_cell_length_b 15.672818
_cell_length_c 5.095539
_cell_angle_alpha 90.000000
_cell_angle_beta 90.184335
_cell_angle_gamma 90.000000
_cell_volume 1222.870529
_symmetry_space_group_name_H-M "C 2"
_symmetry_group_IT_number 5
_symmetry_cell_setting 'monoclinic'
loop_
_space_group_symop_operation_xyz
x,y,z
-x,y,-z
1/2+x,1/2+y,z
1/2-x,1/2+y,-z
loop_
_atom_site_type_symbol
_atom_site_label
_atom_site_fract_x
_atom_site_fract_y
_atom_site_fract_z
Si Si1 0.176210 0.332730 0.423698
Si Si2 0.835194 0.923412 0.263512
Si Si3 0.500000 0.419291 0.500000
Si Si4 0.599582 0.010117 0.455567
Si Si5 0.284616 0.049182 0.037173
Si Si6 0.224264 0.229861 0.900627
Si Si7 0.413965 0.285759 0.900937
O O1 0.263827 0.390490 0.468785
O O2 0.103783 0.406313 0.436408
O O3 0.171080 0.260898 0.646092
O O4 0.192088 0.290159 0.139748
O O5 0.920128 0.971772 0.373460
O O6 0.781377 0.973205 0.042766
O O7 0.877863 0.838600 0.146880
O O8 0.449526 0.356787 0.701123
O O9 0.500000 0.037489 0.500000
O O10 0.641208 0.044208 0.187225
O O11 0.663933 0.040565 0.690067
O O12 0.226608 0.134034 0.007441
O O13 0.326562 0.239592 0.812476
O O14 0.500000 0.235250 0.000000
#
# Coordination Sequence:
#
# PCOD9120030 Si02
#       7
#     4   4   2   4   4   4   4
#     4  10  20  38  63  83 114 162 209 243 286 363
#     4   9  19  33  56  84 113 155 202 239 287 361
#     4  10  16  32  56  82 110 148 198 244 280 350
#     4  11  23  42  65  91 119 164 216 257 299 361
#     4  11  24  38  61  92 125 161 195 255 319 366
#     4  11  21  38  56  89 121 158 192 243 312 365
#     4   9  18  30  51  80 110 145 191 231 286 348
#
# _framework density 21.261451000000001
#
# number of rings (size 3 to 8) (size 9 to 14) (size 15 to 20)
#    0.000    1.846    1.538    4.154    2.154    1.231 
#    1.385    0.000    1.692    0.000    0.000    0.000 
#    0.000    0.000    0.000    0.000    0.000    0.000 
#
# Total GULP energy -72410.687995 kJ/mol
# GULP energy per Si atom -5570.052923 kJ/mol
# Density = 2.121306 g / cm^3
# Si number density = 21.261451 Si / 1000 Ang^3
#
#
#
# Elastic Constant Matrix: (Units=GPa)
#
#
# Indices 1 2 3 4 5 6 
#
# 1 45.4178 -17.5010 -3.9452 0.0000 -1.1948 0.0000
# 2 -17.5010 56.1944 -5.1219 0.0000 0.7506 0.0000
# 3 -3.9452 -5.1219 79.8051 0.0000 -12.7076 0.0000
# 4 0.0000 0.0000 0.0000 14.5469 0.0000 1.1574
# 5 -1.1948 0.7506 -12.7076 0.0000 19.9726 0.0000
# 6 0.0000 0.0000 0.0000 1.1574 0.0000 13.5419
#
#
#
# Elastic Compliance Matrix: (Units=1/GPa)
#
#
# Indices 1 2 3 4 5 6 
#
# 1 0.025386 0.008071 0.002188 0.000000 0.002608 0.000000
# 2 0.008071 0.020466 0.001855 0.000000 0.000894 0.000000
# 3 0.002188 0.001855 0.014207 0.000000 0.009100 0.000000
# 4 0.000000 0.000000 0.000000 0.069214 0.000000 -0.005916
# 5 0.002608 0.000894 0.009100 0.000000 0.055981 0.000000
# 6 0.000000 0.000000 0.000000 -0.005916 0.000000 0.074351
#
#
# Mechanical properties :
#
#
# Convention : Reuss Voigt Hill
#
# Bulk Modulus (GPa) = 11.86421 14.25346 13.05883
# Shear Modulus (GPa) = 18.97730 23.47797 21.22764
#
# Velocity S-wave (km/s) = 2.99083 3.32663 3.16319
# Velocity P-wave (km/s) = 4.18557 4.63398 4.41547
#
# Compressibility (1/GPa) = 0.08428712
#
# Stress axis : x y z
#
# Youngs Moduli (GPa) = 39.39112 48.86139 70.38873
#
# Poissons Ratio (x) = -0.39435 -0.15403
# Poissons Ratio (y) = -0.31792 -0.13056
# Poissons Ratio (z) = -0.08620 -0.09063
#
# Static dielectric constant tensor:
#      x y z
#    x 1.928100 0.000000 0.042140 
#    y 0.000000 1.810440 0.000000 
#    z 0.042140 0.000000 1.827760 
# 
# From -- ./inp_files/7093.got.cif
#   From: 2010.05.17/outbox.cif.g08.bks.cpg/sg5_4_cif.got.tgz:7093.got - 2010.06.03 18:56:24.
