data_PCOD9120110
_publ_section_title
;
Structure prediction by ZEFSAII (Michael W. Deem and Ramdas Pophale) SiO2 
 PCOD9120110
Probable space group: C 2
;
_chemical_formula_sum "Si O2"
_cell_formula_units_Z 22
_cell_length_a 14.958214
_cell_length_b 13.259979
_cell_length_c 7.653930
_cell_angle_alpha 90.000000
_cell_angle_beta 128.838186
_cell_angle_gamma 90.000000
_cell_volume 1182.496922
_symmetry_space_group_name_H-M "C 2"
_symmetry_group_IT_number 5
_symmetry_cell_setting 'monoclinic'
loop_
_space_group_symop_operation_xyz
x,y,z
-x,y,-z
1/2+x,1/2+y,z
1/2-x,1/2+y,-z
loop_
_atom_site_type_symbol
_atom_site_label
_atom_site_fract_x
_atom_site_fract_y
_atom_site_fract_z
Si Si1 0.344201 0.905190 0.110976
Si Si2 0.370302 0.123248 0.312122
Si Si3 0.790324 0.585045 0.594327
Si Si4 0.000000 0.454470 0.000000
Si Si5 0.628269 0.491005 0.647591
Si Si6 0.215163 0.201297 0.818923
O O1 0.435216 0.890952 0.067340
O O2 0.340371 0.809661 0.231125
O O3 0.375559 0.008877 0.245616
O O4 0.220964 0.926598 0.868820
O O5 0.500000 0.159004 0.500000
O O6 0.301498 0.117836 0.409436
O O7 0.305806 0.187187 0.086243
O O8 0.684359 0.512654 0.524912
O O9 0.775325 0.679378 0.707297
O O10 0.904868 0.525401 0.792086
O O11 0.500000 0.451219 0.500000
O O12 0.631076 0.604525 0.733412
#
# Coordination Sequence:
#
# PCOD9120110 Si02
#       6
#     4   4   4   2   4   4
#     4  10  20  36  60  89 116 149 200 245 283 346
#     4  11  19  36  64  81 113 161 194 235 298 341
#     4   9  18  36  58  80 115 153 190 231 295 337
#     4  10  16  38  60  86 114 152 192 250 282 338
#     4   8  18  38  56  73 124 155 180 238 293 337
#     4   9  21  37  52  87 120 143 194 244 281 343
#
# _framework density 18.604699
#
# number of rings (size 3 to 8) (size 9 to 14) (size 15 to 20)
#    1.091    1.455    3.636    0.000    0.000    1.455 
#    9.818    2.727    4.000    0.000    0.000    0.000 
#    0.000    0.000    0.000    0.000    0.000    0.000 
#
# Total GULP energy -61242.903699 kJ/mol
# GULP energy per Si atom -5567.536700 kJ/mol
# Density = 1.856235 g / cm^3
# Si number density = 18.604699 Si / 1000 Ang^3
#
#
#
# Elastic Constant Matrix: (Units=GPa)
#
#
# Indices 1 2 3 4 5 6 
#
# 1 112.7220 -6.1338 36.3183 0.0000 -0.3642 0.0000
# 2 -6.1338 32.2361 -18.4771 0.0000 7.1634 0.0000
# 3 36.3183 -18.4771 47.2334 0.0000 0.8259 0.0000
# 4 0.0000 0.0000 0.0000 -6.1305 0.0000 -4.6477
# 5 -0.3642 7.1634 0.8259 0.0000 36.2995 0.0000
# 6 0.0000 0.0000 0.0000 -4.6477 0.0000 17.6541
#
#
#
# Elastic Compliance Matrix: (Units=1/GPa)
#
#
# Indices 1 2 3 4 5 6 
#
# 1 0.012218 -0.004311 -0.011102 0.000000 0.001226 0.000000
# 2 -0.004311 0.044141 0.020744 0.000000 -0.009226 0.000000
# 3 -0.011102 0.020744 0.037912 0.000000 -0.005068 0.000000
# 4 0.000000 0.000000 0.000000 -0.135980 0.000000 -0.035798
# 5 0.001226 -0.009226 -0.005068 0.000000 0.029497 0.000000
# 6 0.000000 0.000000 0.000000 -0.035798 0.000000 0.047220
#
#
# Mechanical properties :
#
#
# Convention : Reuss Voigt Hill
#
# Bulk Modulus (GPa) = 9.53016 23.95624 16.74320
# Shear Modulus (GPa) = 84.28322 21.59692 52.94007
#
# Velocity S-wave (km/s) = 6.73799 3.41079 5.34013
# Velocity P-wave (km/s) = 8.10355 5.33064 6.85869
#
# Compressibility (1/GPa) = 0.10493007
#
# Stress axis : x y z
#
# Youngs Moduli (GPa) = 81.84729 22.65478 26.37716
#
# Poissons Ratio (x) = 0.09767 0.29285
# Poissons Ratio (y) = 0.35287 -0.54716
# Poissons Ratio (z) = 0.90871 -0.46994
#
# Static dielectric constant tensor:
#      x y z
#    x 1.670220 0.000000 0.028800 
#    y 0.000000 1.629370 0.000000 
#    z 0.028800 0.000000 1.671930 
# 
# From -- ./inp_files/24254.got.cif
#   From: 2010.05.17/outbox.cif.g08.bks.cpg/sg5_13_cif.got.tgz:24254.got - 2010.06.03 18:56:24.
