data_PCOD9120407
_publ_section_title
;
Structure prediction by ZEFSAII (Michael W. Deem and Ramdas Pophale) SiO2 
 PCOD9120407
Probable space group: C 2
;
_chemical_formula_sum "Si O2"
_cell_formula_units_Z 30
_cell_length_a 25.753269
_cell_length_b 6.880254
_cell_length_c 22.781719
_cell_angle_alpha 90.000000
_cell_angle_beta 164.192915
_cell_angle_gamma 90.000000
_cell_volume 1099.585999
_symmetry_space_group_name_H-M "C 2"
_symmetry_group_IT_number 5
_symmetry_cell_setting 'monoclinic'
loop_
_space_group_symop_operation_xyz
x,y,z
-x,y,-z
1/2+x,1/2+y,z
1/2-x,1/2+y,-z
loop_
_atom_site_type_symbol
_atom_site_label
_atom_site_fract_x
_atom_site_fract_y
_atom_site_fract_z
Si Si1 0.933891 0.777110 0.764473
Si Si2 0.253621 0.773756 0.798805
Si Si3 0.201937 0.394271 0.894983
Si Si4 0.817756 0.225110 0.620222
Si Si5 0.713348 0.757941 0.292310
Si Si6 0.760119 0.339919 0.932067
Si Si7 0.000000 0.402484 0.500000
Si Si8 0.327731 0.810998 0.426660
O O1 0.810743 0.703726 0.576068
O O2 0.856109 0.711080 0.743386
O O3 0.889331 0.009050 0.714180
O O4 0.153633 0.763880 0.986198
O O5 0.214114 0.848163 0.689575
O O6 0.199253 0.887539 0.799110
O O7 0.159662 0.556509 0.698164
O O8 0.484266 0.764761 0.048789
O O9 0.200520 0.613537 0.871021
O O10 0.991439 0.311287 0.654808
O O11 0.282460 0.414659 0.048772
O O12 0.710262 0.313887 0.560057
O O13 0.008889 0.344965 0.817021
O O14 0.768593 0.532419 0.348061
O O15 0.079789 0.267265 0.535070
#
# Coordination Sequence:
#
# PCOD9120407 Si02
#       8
#     4   4   4   4   4   4   2   4
#     4  10  21  33  51  76 109 138 174 213 266 314
#     4   9  16  30  48  78 104 137 175 220 263 308
#     4  11  22  33  53  78 110 139 176 219 261 322
#     4   9  18  33  50  78 105 138 173 216 260 318
#     4   8  17  29  50  73 109 135 172 222 262 305
#     4  10  20  34  50  78 109 136 180 215 264 313
#     4  10  18  28  54  74 104 138 174 222 260 308
#     4  10  19  33  48  76 104 136 169 219 259 309
#
# _framework density 27.282993999999999
#
# number of rings (size 3 to 8) (size 9 to 14) (size 15 to 20)
#    0.000    2.400    2.667    0.800    3.733    0.000 
#    0.000    0.000    0.000    0.000    3.467    0.000 
#    0.000    0.000    0.000    0.000    0.000    0.000 
#
# Total GULP energy -83814.987449 kJ/mol
# GULP energy per Si atom -5587.665830 kJ/mol
# Density = 2.722090 g / cm^3
# Si number density = 27.282994 Si / 1000 Ang^3
#
#
#
# Elastic Constant Matrix: (Units=GPa)
#
#
# Indices 1 2 3 4 5 6 
#
# 1 251.7485 18.6579 37.0012 -0.0002 -12.7463 0.0001
# 2 18.6579 75.1493 15.3508 0.0000 -2.7270 0.0002
# 3 37.0012 15.3508 108.3271 -0.0014 4.2242 -0.0004
# 4 -0.0002 0.0000 -0.0014 25.8529 -0.0008 -6.6388
# 5 -12.7463 -2.7270 4.2242 -0.0008 35.5968 -0.0001
# 6 0.0001 0.0002 -0.0004 -6.6388 -0.0001 12.3306
#
#
#
# Elastic Compliance Matrix: (Units=1/GPa)
#
#
# Indices 1 2 3 4 5 6 
#
# 1 0.004321 -0.000719 -0.001439 0.000000 0.001663 0.000000
# 2 -0.000719 0.013882 -0.001761 0.000000 0.001015 0.000000
# 3 -0.001439 -0.001761 0.010044 0.000001 -0.001842 0.000001
# 4 0.000000 0.000000 0.000001 0.044886 0.000001 0.024167
# 5 0.001663 0.001015 -0.001842 0.000001 0.028984 0.000001
# 6 0.000000 0.000000 0.000001 0.024167 0.000001 0.094110
#
#
# Mechanical properties :
#
#
# Convention : Reuss Voigt Hill
#
# Bulk Modulus (GPa) = 48.99672 64.13829 56.56751
# Shear Modulus (GPa) = 23.71138 39.03706 31.37422
#
# Velocity S-wave (km/s) = 2.95123 3.78672 3.39478
# Velocity P-wave (km/s) = 5.44157 6.53288 6.01204
#
# Compressibility (1/GPa) = 0.02040953
#
# Stress axis : x y z
#
# Youngs Moduli (GPa) = 231.41861 72.03646 99.55955
#
# Poissons Ratio (x) = 0.05176 0.14327
# Poissons Ratio (y) = 0.16629 0.17536
# Poissons Ratio (z) = 0.33301 0.12688
#
# Static dielectric constant tensor:
#      x y z
#    x 2.280840 0.000000 0.026480 
#    y 0.000000 2.167010 0.000000 
#    z 0.026480 0.000000 2.100420 
# 
# From -- ./inp_files/67399.got.cif
#   From: 2010.05.17/outbox.cif.g08.bks.cpg/sg5_34_cif.got.tgz:67399.got - 2010.06.03 18:56:24.
