data_PCOD9120006
_publ_section_title
;
Structure prediction by ZEFSAII (Michael W. Deem and Ramdas Pophale) SiO2 
 PCOD9120006
Probable space group: C 2
;
_chemical_formula_sum "Si O2"
_cell_formula_units_Z 24
_cell_length_a 8.510025
_cell_length_b 18.515454
_cell_length_c 14.176465
_cell_angle_alpha 90.000000
_cell_angle_beta 27.958764
_cell_angle_gamma 90.000000
_cell_volume 1047.258961
_symmetry_space_group_name_H-M "C 2"
_symmetry_group_IT_number 5
_symmetry_cell_setting 'monoclinic'
loop_
_space_group_symop_operation_xyz
x,y,z
-x,y,-z
1/2+x,1/2+y,z
1/2-x,1/2+y,-z
loop_
_atom_site_type_symbol
_atom_site_label
_atom_site_fract_x
_atom_site_fract_y
_atom_site_fract_z
Si Si1 0.731547 0.161480 0.782286
Si Si2 0.130050 0.428546 0.247060
Si Si3 0.809316 0.497379 0.238656
Si Si4 0.985204 0.939042 0.783201
Si Si5 0.374604 0.779058 0.336225
Si Si6 0.716980 0.274646 0.074450
O O1 0.056111 0.205116 0.645381
O O2 0.771769 0.081643 0.722114
O O3 0.500000 0.156293 0.000000
O O4 0.552371 0.212353 0.800285
O O5 0.214993 0.459528 0.304968
O O6 0.885903 0.468520 0.302677
O O7 0.993960 0.347567 0.332360
O O8 0.500000 0.424491 0.000000
O O9 0.541057 0.458279 0.312777
O O10 0.164537 0.479826 0.999071
O O11 0.927228 0.852889 0.822043
O O12 0.604423 0.782848 0.121364
O O13 0.000000 0.786360 0.500000
O O14 0.000000 0.254535 0.000000
#
# Coordination Sequence:
#
# PCOD9120006 Si02
#       6
#     4   4   4   4   4   4
#     4  10  20  35  55  82 113 150 188 237 285 336
#     4  10  17  33  60  82 109 145 192 235 281 336
#     4  10  18  31  56  88 114 136 188 245 287 324
#     4  10  16  30  56  87 108 137 185 246 274 332
#     4  11  21  36  58  82 116 157 190 229 287 342
#     4  11  19  35  61  86 110 143 198 239 279 337
#
# _framework density 22.916968000000001
#
# number of rings (size 3 to 8) (size 9 to 14) (size 15 to 20)
#    0.000    1.667    8.333    0.500    0.000    2.000 
#    0.000    0.833    3.667    0.000    0.000    0.000 
#    0.000    0.000    0.000    0.000    0.000    0.000 
#
# Total GULP energy -67110.545608 kJ/mol
# GULP energy per Si atom -5592.545467 kJ/mol
# Density = 2.286481 g / cm^3
# Si number density = 22.916968 Si / 1000 Ang^3
#
#
#
# Elastic Constant Matrix: (Units=GPa)
#
#
# Indices 1 2 3 4 5 6 
#
# 1 214.3410 77.9886 57.5614 0.0051 -37.6889 0.0012
# 2 77.9886 175.0736 26.2989 -0.0258 -14.3317 -0.0161
# 3 57.5614 26.2989 58.0769 -0.0826 -4.6102 -0.0032
# 4 0.0051 -0.0258 -0.0826 5.8112 0.0135 -11.5114
# 5 -37.6889 -14.3317 -4.6102 0.0135 51.1821 0.0052
# 6 0.0012 -0.0161 -0.0032 -11.5114 0.0052 33.9666
#
#
#
# Elastic Compliance Matrix: (Units=1/GPa)
#
#
# Indices 1 2 3 4 5 6 
#
# 1 0.008087 -0.002218 -0.006636 -0.000388 0.004737 -0.000134
# 2 -0.002218 0.006850 -0.000887 0.000078 0.000205 0.000030
# 3 -0.006636 -0.000887 0.023962 0.001078 -0.002977 0.000368
# 4 -0.000388 0.000078 0.001078 0.523625 -0.000323 0.177459
# 5 0.004737 0.000205 -0.002977 -0.000323 0.022815 -0.000113
# 6 -0.000134 0.000030 0.000368 0.177459 -0.000113 0.089582
#
#
# Mechanical properties :
#
#
# Convention : Reuss Voigt Hill
#
# Bulk Modulus (GPa) = 51.49895 85.68769 68.59332
# Shear Modulus (GPa) = 7.13392 37.23484 22.18438
#
# Velocity S-wave (km/s) = 1.76627 4.03522 3.11470
# Velocity P-wave (km/s) = 5.16530 7.69300 6.55220
#
# Compressibility (1/GPa) = 0.01941787
#
# Stress axis : x y z
#
# Youngs Moduli (GPa) = 123.64772 145.98498 41.73205
#
# Poissons Ratio (x) = 0.32382 0.27693
# Poissons Ratio (y) = 0.27427 0.03702
# Poissons Ratio (z) = 0.82050 0.12949
#
# Static dielectric constant tensor:
#      x y z
#    x 1.866820 0.000000 0.024610 
#    y 0.000000 1.789610 0.000020 
#    z 0.024610 0.000020 1.927140 
# 
# From -- ./inp_files/15810.got.cif
#   From: 2010.05.17/outbox.cif.g08.bks.cpg/sg5_8_cif.got.tgz:15810.got - 2010.06.03 18:56:24.
