data_PCOD9120188
_publ_section_title
;
Structure prediction by ZEFSAII (Michael W. Deem and Ramdas Pophale) SiO2 
 PCOD9120188
Probable space group: C 2
;
_chemical_formula_sum "Si O2"
_cell_formula_units_Z 32
_cell_length_a 13.027610
_cell_length_b 15.043609
_cell_length_c 10.629077
_cell_angle_alpha 90.000000
_cell_angle_beta 121.244564
_cell_angle_gamma 90.000000
_cell_volume 1780.978543
_symmetry_space_group_name_H-M "C 2"
_symmetry_group_IT_number 5
_symmetry_cell_setting 'monoclinic'
loop_
_space_group_symop_operation_xyz
x,y,z
-x,y,-z
1/2+x,1/2+y,z
1/2-x,1/2+y,-z
loop_
_atom_site_type_symbol
_atom_site_label
_atom_site_fract_x
_atom_site_fract_y
_atom_site_fract_z
Si Si1 0.521850 0.636540 0.222561
Si Si2 0.871353 0.857198 0.870310
Si Si3 0.297976 0.538946 0.956741
Si Si4 0.874922 0.447683 0.979148
Si Si5 0.341740 0.780141 0.124638
Si Si6 0.240713 0.200586 0.196589
Si Si7 0.168802 0.877357 0.677530
Si Si8 0.574181 0.446844 0.358292
O O1 0.444126 0.713702 0.238868
O O2 0.620351 0.688796 0.202958
O O3 0.576130 0.553184 0.333888
O O4 0.421200 0.587255 0.073667
O O5 0.761326 0.794134 0.837753
O O6 0.883102 0.891635 0.735706
O O7 0.840901 0.945424 0.931001
O O8 0.000000 0.822247 0.000000
O O9 0.227737 0.598100 0.809858
O O10 0.208580 0.523613 0.015145
O O11 0.795113 0.403703 0.818764
O O12 0.891822 0.373579 0.100533
O O13 0.000000 0.476157 0.000000
O O14 0.283755 0.738607 0.959816
O O15 0.330328 0.269896 0.318202
O O16 0.148756 0.917845 0.527817
O O17 0.062483 0.917019 0.696491
#
# Coordination Sequence:
#
# PCOD9120188 Si02
#       8
#     4   4   4   4   4   4   4   4
#     4  11  18  34  60  90 111 152 199 242 288 346
#     4  11  17  32  56  89 116 154 199 248 292 339
#     4  10  17  30  59  91 111 142 205 247 284 348
#     4  10  18  34  57  87 119 153 185 252 309 344
#     4   9  19  28  53  90 118 137 194 253 292 335
#     4  10  18  33  57  83 113 147 194 247 287 345
#     4  10  22  38  57  86 123 155 201 234 305 364
#     4  11  21  37  62  82 119 169 195 241 286 364
#
# _framework density 17.967649000000002
#
# number of rings (size 3 to 8) (size 9 to 14) (size 15 to 20)
#    0.000    1.750    3.750    4.500    0.000    0.000 
#    0.000    7.500    5.500    6.000    0.000    0.000 
#    0.000    0.000    0.000    0.000    0.000    0.000 
#
# Total GULP energy -89087.897363 kJ/mol
# GULP energy per Si atom -5567.993585 kJ/mol
# Density = 1.792675 g / cm^3
# Si number density = 17.967649 Si / 1000 Ang^3
#
#
#
# Elastic Constant Matrix: (Units=GPa)
#
#
# Indices 1 2 3 4 5 6 
#
# 1 120.6694 18.2546 25.5469 0.0000 -18.8101 0.0000
# 2 18.2546 50.7982 13.7980 0.0000 1.0851 0.0000
# 3 25.5469 13.7980 57.8394 0.0000 -7.9174 0.0000
# 4 0.0000 0.0000 0.0000 27.0411 0.0000 2.6626
# 5 -18.8101 1.0851 -7.9174 0.0000 18.3868 0.0000
# 6 0.0000 0.0000 0.0000 2.6626 0.0000 34.8331
#
#
#
# Elastic Compliance Matrix: (Units=1/GPa)
#
#
# Indices 1 2 3 4 5 6 
#
# 1 0.010968 -0.003452 -0.002611 0.000000 0.010300 0.000000
# 2 -0.003452 0.022365 -0.004755 0.000000 -0.006899 0.000000
# 3 -0.002611 -0.004755 0.020455 0.000000 0.006418 0.000000
# 4 0.000000 0.000000 0.000000 0.037261 0.000000 -0.002848
# 5 0.010300 -0.006899 0.006418 0.000000 0.068094 0.000000
# 6 0.000000 0.000000 0.000000 -0.002848 0.000000 0.028926
#
#
# Mechanical properties :
#
#
# Convention : Reuss Voigt Hill
#
# Bulk Modulus (GPa) = 31.10211 38.27845 34.69028
# Shear Modulus (GPa) = 22.68368 27.49935 25.09152
#
# Velocity S-wave (km/s) = 3.55699 3.91640 3.74101
# Velocity P-wave (km/s) = 5.84954 6.46539 6.16516
#
# Compressibility (1/GPa) = 0.03215216
#
# Stress axis : x y z
#
# Youngs Moduli (GPa) = 91.17778 44.71234 48.88714
#
# Poissons Ratio (x) = 0.15435 0.12764
# Poissons Ratio (y) = 0.31475 0.23246
# Poissons Ratio (z) = 0.23805 0.21261
#
# Static dielectric constant tensor:
#      x y z
#    x 1.631300 0.000000 -0.004750 
#    y 0.000000 1.710250 0.000000 
#    z -0.004750 0.000000 1.617320 
# 
# From -- ./inp_files/39883.got.cif
#   From: 2010.05.17/outbox.cif.g08.bks.cpg/sg5_20_cif.got.tgz:39883.got - 2010.06.03 18:56:24.
