data_PCOD9120162
_publ_section_title
;
Structure prediction by ZEFSAII (Michael W. Deem and Ramdas Pophale) SiO2 
 PCOD9120162
Probable space group: C 2
;
_chemical_formula_sum "Si O2"
_cell_formula_units_Z 24
_cell_length_a 34.075607
_cell_length_b 5.311162
_cell_length_c 8.489867
_cell_angle_alpha 90.000000
_cell_angle_beta 135.407672
_cell_angle_gamma 90.000000
_cell_volume 1078.715319
_symmetry_space_group_name_H-M "C 2"
_symmetry_group_IT_number 5
_symmetry_cell_setting 'monoclinic'
loop_
_space_group_symop_operation_xyz
x,y,z
-x,y,-z
1/2+x,1/2+y,z
1/2-x,1/2+y,-z
loop_
_atom_site_type_symbol
_atom_site_label
_atom_site_fract_x
_atom_site_fract_y
_atom_site_fract_z
Si Si1 0.500423 0.378210 0.686250
Si Si2 0.264446 0.581856 0.132239
Si Si3 0.375913 0.502553 0.309063
Si Si4 0.344430 0.001406 0.022842
Si Si5 0.088684 0.576826 0.102282
Si Si6 0.938070 0.078286 0.890667
O O1 0.500000 0.333351 0.500000
O O2 0.438969 0.477728 0.549886
O O3 0.546768 0.580239 0.875738
O O4 0.526314 0.137100 0.851274
O O5 0.330224 0.534809 0.315456
O O6 0.255569 0.872454 0.054978
O O7 0.223199 0.517657 0.158130
O O8 0.365873 0.744616 0.167156
O O9 0.364860 0.243436 0.182273
O O10 0.369113 0.031116 0.919453
O O11 0.099505 0.833589 0.225951
O O12 0.086730 0.345759 0.214616
O O13 0.000000 0.040934 0.000000
#
# Coordination Sequence:
#
# PCOD9120162 Si02
#       6
#     4   4   4   4   4   4
#     4  10  20  31  50  77 101 129 160 203 254 291
#     4   8  16  27  42  63  96 136 158 193 241 297
#     4  10  18  28  45  69 105 130 161 199 250 297
#     4  10  17  30  45  71 100 130 166 198 248 290
#     4  10  20  31  50  70  96 130 166 201 243 289
#     4  10  22  36  49  69 101 136 170 195 242 302
#
# _framework density 22.248688000000001
#
# number of rings (size 3 to 8) (size 9 to 14) (size 15 to 20)
#    1.000    1.333    1.667    2.500    2.333    0.667 
#    0.000    0.000    0.000    0.000    0.000    2.333 
#    0.000    0.000    0.000    0.000    0.000    0.000 
#
# Total GULP energy -66812.961131 kJ/mol
# GULP energy per Si atom -5567.746761 kJ/mol
# Density = 2.219805 g / cm^3
# Si number density = 22.248688 Si / 1000 Ang^3
#
#
#
# Elastic Constant Matrix: (Units=GPa)
#
#
# Indices 1 2 3 4 5 6 
#
# 1 143.3805 44.1972 12.1645 0.0000 32.4442 0.0000
# 2 44.1972 150.5993 16.9142 0.0000 6.2798 0.0000
# 3 12.1645 16.9142 37.6066 0.0000 2.7120 0.0000
# 4 0.0000 0.0000 0.0000 15.6385 0.0000 0.4323
# 5 32.4442 6.2798 2.7120 0.0000 29.8718 0.0000
# 6 0.0000 0.0000 0.0000 0.4323 0.0000 32.5880
#
#
#
# Elastic Compliance Matrix: (Units=1/GPa)
#
#
# Indices 1 2 3 4 5 6 
#
# 1 0.010199 -0.002393 -0.001470 0.000000 -0.010441 0.000000
# 2 -0.002393 0.007597 -0.002733 0.000000 0.001250 0.000000
# 3 -0.001470 -0.002733 0.028325 0.000000 -0.000400 0.000000
# 4 0.000000 0.000000 0.000000 0.063968 0.000000 -0.000849
# 5 -0.010441 0.001250 -0.000400 0.000000 0.044590 0.000000
# 6 0.000000 0.000000 0.000000 -0.000849 0.000000 0.030697
#
#
# Mechanical properties :
#
#
# Convention : Reuss Voigt Hill
#
# Bulk Modulus (GPa) = 30.36793 53.12645 41.74719
# Shear Modulus (GPa) = 23.86115 32.84035 28.35075
#
# Velocity S-wave (km/s) = 3.27842 3.84612 3.57356
# Velocity P-wave (km/s) = 5.29241 6.60710 5.98596
#
# Compressibility (1/GPa) = 0.03292948
#
# Stress axis : x y z
#
# Youngs Moduli (GPa) = 98.04519 131.62734 35.30490
#
# Poissons Ratio (x) = 0.31495 0.05190
# Poissons Ratio (y) = 0.23460 0.09649
# Poissons Ratio (z) = 0.14413 0.35975
#
# Static dielectric constant tensor:
#      x y z
#    x 1.921250 0.000000 -0.048710 
#    y 0.000000 1.894850 0.000000 
#    z -0.048710 0.000000 1.844830 
# 
# From -- ./inp_files/46704.got.cif
#   From: 2010.05.17/outbox.cif.g08.bks.cpg/sg5_24_cif.got.tgz:46704.got - 2010.06.03 18:56:24.
