data_PCOD9120586
_publ_section_title
;
Structure prediction by ZEFSAII (Michael W. Deem and Ramdas Pophale) SiO2 
 PCOD9120586
Probable space group: C 2
;
_chemical_formula_sum "Si O2"
_cell_formula_units_Z 24
_cell_length_a 12.618494
_cell_length_b 6.896092
_cell_length_c 27.573980
_cell_angle_alpha 90.000000
_cell_angle_beta 155.224428
_cell_angle_gamma 90.000000
_cell_volume 1005.521668
_symmetry_space_group_name_H-M "C 2"
_symmetry_group_IT_number 5
_symmetry_cell_setting 'monoclinic'
loop_
_space_group_symop_operation_xyz
x,y,z
-x,y,-z
1/2+x,1/2+y,z
1/2-x,1/2+y,-z
loop_
_atom_site_type_symbol
_atom_site_label
_atom_site_fract_x
_atom_site_fract_y
_atom_site_fract_z
Si Si1 0.248283 0.031540 0.236892
Si Si2 0.402328 0.464749 0.301582
Si Si3 0.137054 0.143455 0.988650
Si Si4 0.778128 0.666208 0.599274
Si Si5 0.590536 0.198680 0.238672
Si Si6 0.525291 0.082016 0.065856
O O1 0.244081 0.263930 0.242845
O O2 0.550151 0.004566 0.355665
O O3 0.119054 0.907649 0.224917
O O4 0.091617 0.004602 0.121949
O O5 0.680744 0.372952 0.410833
O O6 0.340631 0.589780 0.322947
O O7 0.283112 0.581328 0.206021
O O8 0.345355 0.091850 0.115141
O O9 0.303166 0.159248 0.008510
O O10 0.031066 0.350730 0.960058
O O11 0.500000 0.615545 0.500000
O O12 0.920355 0.707841 0.709014
O O13 0.500000 0.154330 0.000000
#
# Coordination Sequence:
#
# PCOD9120586 Si02
#       6
#     4   4   4   4   4   4
#     4   9  21  38  58  91 120 149 203 238 289 367
#     4   8  21  38  54  90 112 147 209 229 287 367
#     4  10  19  32  58  88 113 150 191 221 296 360
#     4  10  23  42  61  86 116 157 209 248 290 347
#     4  11  20  40  64  81 127 159 179 258 301 333
#     4  10  18  33  54  78 118 149 176 230 283 341
#
# _framework density 23.868209
#
# number of rings (size 3 to 8) (size 9 to 14) (size 15 to 20)
#    1.000    1.333    1.667    1.000    0.000    1.333 
#    3.000    6.667    0.000    0.000    0.000    0.000 
#    0.000    0.000    0.000    0.000    0.000    0.000 
#
# Total GULP energy -66852.851571 kJ/mol
# GULP energy per Si atom -5571.070964 kJ/mol
# Density = 2.381388 g / cm^3
# Si number density = 23.868209 Si / 1000 Ang^3
#
#
#
# Elastic Constant Matrix: (Units=GPa)
#
#
# Indices 1 2 3 4 5 6 
#
# 1 60.7794 -0.0789 -3.2157 -0.0005 -15.4505 0.0002
# 2 -0.0789 50.9764 -4.1223 0.0000 -2.0864 0.0003
# 3 -3.2157 -4.1223 48.6390 0.0019 24.9979 -0.0002
# 4 -0.0005 0.0000 0.0019 19.6599 0.0002 11.6160
# 5 -15.4505 -2.0864 24.9979 0.0002 33.3130 -0.0002
# 6 0.0002 0.0003 -0.0002 11.6160 -0.0002 41.4010
#
#
#
# Elastic Compliance Matrix: (Units=1/GPa)
#
#
# Indices 1 2 3 4 5 6 
#
# 1 0.019508 0.000127 -0.005459 0.000001 0.013152 0.000000
# 2 0.000127 0.019753 0.001654 0.000000 0.000055 0.000000
# 3 -0.005459 0.001654 0.035139 -0.000004 -0.028796 0.000001
# 4 0.000001 0.000000 -0.000004 0.060973 0.000003 -0.017107
# 5 0.013152 0.000055 -0.028796 0.000003 0.057730 -0.000001
# 6 0.000000 0.000000 0.000001 -0.017107 -0.000001 0.028954
#
#
# Mechanical properties :
#
#
# Convention : Reuss Voigt Hill
#
# Bulk Modulus (GPa) = 14.91543 16.17344 15.54443
# Shear Modulus (GPa) = 19.86033 30.06223 24.96128
#
# Velocity S-wave (km/s) = 2.88771 3.55281 3.23739
# Velocity P-wave (km/s) = 4.16907 4.86012 4.52780
#
# Compressibility (1/GPa) = 0.06704467
#
# Stress axis : x y z
#
# Youngs Moduli (GPa) = 51.26228 50.62487 28.45880
#
# Poissons Ratio (x) = -0.00643 0.15535
# Poissons Ratio (y) = -0.00651 -0.04708
# Poissons Ratio (z) = 0.27983 -0.08376
#
# Static dielectric constant tensor:
#      x y z
#    x 1.892310 0.000000 0.011570 
#    y 0.000000 1.951280 0.000000 
#    z 0.011570 0.000000 2.015270 
# 
# From -- ./inp_files/63587.got.cif
#   From: 2010.05.17/outbox.cif.g08.bks.cpg/sg5_32_cif.got.tgz:63587.got - 2010.06.03 18:56:24.
