data_PCOD9120055
_publ_section_title
;
Structure prediction by ZEFSAII (Michael W. Deem and Ramdas Pophale) SiO2 
 PCOD9120055
Probable space group: C 2
;
_chemical_formula_sum "Si O2"
_cell_formula_units_Z 24
_cell_length_a 27.729945
_cell_length_b 7.886570
_cell_length_c 9.483436
_cell_angle_alpha 90.000000
_cell_angle_beta 151.661060
_cell_angle_gamma 90.000000
_cell_volume 984.486507
_symmetry_space_group_name_H-M "C 2"
_symmetry_group_IT_number 5
_symmetry_cell_setting 'monoclinic'
loop_
_space_group_symop_operation_xyz
x,y,z
-x,y,-z
1/2+x,1/2+y,z
1/2-x,1/2+y,-z
loop_
_atom_site_type_symbol
_atom_site_label
_atom_site_fract_x
_atom_site_fract_y
_atom_site_fract_z
Si Si1 0.049481 0.502690 0.280822
Si Si2 0.925811 0.674798 0.178004
Si Si3 0.790598 0.356149 0.761122
Si Si4 0.727086 0.857966 0.615707
Si Si5 0.903250 0.013012 0.649913
Si Si6 0.017736 0.176043 0.710774
O O1 0.168839 0.494199 0.560734
O O2 0.993489 0.657523 0.211464
O O3 0.023568 0.346672 0.318415
O O4 0.000000 0.474936 0.000000
O O5 0.000000 0.688035 0.500000
O O6 0.857223 0.503073 0.008220
O O7 0.841824 0.819172 0.952396
O O8 0.780257 0.399517 0.568741
O O9 0.678919 0.366055 0.538747
O O10 0.861281 0.190390 0.950460
O O11 0.660258 0.684136 0.469212
O O12 0.951364 0.035306 0.619257
O O13 0.000000 0.998974 0.000000
O O14 0.000000 0.175425 0.500000
#
# Coordination Sequence:
#
# PCOD9120055 Si02
#       6
#     4   4   4   4   4   4
#     4  10  16  33  63  90 119 164 216 250 304 380
#     4  10  21  35  63  95 127 162 204 265 317 361
#     4  10  18  34  66  90 115 168 206 246 311 371
#     4  10  18  35  65  88 118 164 210 251 302 372
#     4  10  19  35  64  88 119 156 211 258 298 369
#     4  10  18  33  62  88 123 165 202 255 317 362
#
# _framework density 24.378191000000001
#
# number of rings (size 3 to 8) (size 9 to 14) (size 15 to 20)
#    0.000    2.000    5.000    3.000    0.000    0.000 
#    0.000    0.833   55.000    0.000    0.000    0.000 
#    0.000    0.000    0.000    0.000    0.000    0.000 
#
# Total GULP energy -67139.733499 kJ/mol
# GULP energy per Si atom -5594.977792 kJ/mol
# Density = 2.432270 g / cm^3
# Si number density = 24.378191 Si / 1000 Ang^3
#
#
#
# Elastic Constant Matrix: (Units=GPa)
#
#
# Indices 1 2 3 4 5 6 
#
# 1 216.6635 38.1907 109.8622 0.0000 16.6751 0.0000
# 2 38.1907 107.9277 34.1835 0.0000 19.2864 0.0000
# 3 109.8622 34.1835 197.8977 0.0000 24.0734 0.0000
# 4 0.0000 0.0000 0.0000 25.8086 0.0000 13.3526
# 5 16.6751 19.2864 24.0734 0.0000 64.7069 0.0000
# 6 0.0000 0.0000 0.0000 13.3526 0.0000 21.9144
#
#
#
# Elastic Compliance Matrix: (Units=1/GPa)
#
#
# Indices 1 2 3 4 5 6 
#
# 1 0.006577 -0.001231 -0.003432 0.000000 -0.000051 0.000000
# 2 -0.001231 0.010401 -0.000811 0.000000 -0.002481 0.000000
# 3 -0.003432 -0.000811 0.007292 0.000000 -0.001586 0.000000
# 4 0.000000 0.000000 0.000000 0.056584 0.000000 -0.034477
# 5 -0.000051 -0.002481 -0.001586 0.000000 0.016797 0.000000
# 6 0.000000 0.000000 0.000000 -0.034477 0.000000 0.066639
#
#
# Mechanical properties :
#
#
# Convention : Reuss Voigt Hill
#
# Bulk Modulus (GPa) = 75.07263 98.55131 86.81197
# Shear Modulus (GPa) = 27.82733 45.16949 36.49841
#
# Velocity S-wave (km/s) = 3.38225 4.30916 3.87353
# Velocity P-wave (km/s) = 6.79078 8.07913 7.46281
#
# Compressibility (1/GPa) = 0.01332043
#
# Stress axis : x y z
#
# Youngs Moduli (GPa) = 152.05186 96.14050 137.14354
#
# Poissons Ratio (x) = 0.11835 0.47070
# Poissons Ratio (y) = 0.18718 0.11129
# Poissons Ratio (z) = 0.52187 0.07801
#
# Static dielectric constant tensor:
#      x y z
#    x 1.894930 0.000000 0.069130 
#    y 0.000000 2.089570 0.000000 
#    z 0.069130 0.000000 1.897280 
# 
# From -- ./inp_files/30962.got.cif
#   From: 2010.05.17/outbox.cif.g08.bks.cpg/sg5_16_cif.got.tgz:30962.got - 2010.06.03 18:56:24.
