data_PCOD9120529
_publ_section_title
;
Structure prediction by ZEFSAII (Michael W. Deem and Ramdas Pophale) SiO2 
 PCOD9120529
Probable space group: C 2
;
_chemical_formula_sum "Si O2"
_cell_formula_units_Z 24
_cell_length_a 5.461308
_cell_length_b 25.189973
_cell_length_c 6.986658
_cell_angle_alpha 90.000000
_cell_angle_beta 101.787034
_cell_angle_gamma 90.000000
_cell_volume 940.888667
_symmetry_space_group_name_H-M "C 2"
_symmetry_group_IT_number 5
_symmetry_cell_setting 'monoclinic'
loop_
_space_group_symop_operation_xyz
x,y,z
-x,y,-z
1/2+x,1/2+y,z
1/2-x,1/2+y,-z
loop_
_atom_site_type_symbol
_atom_site_label
_atom_site_fract_x
_atom_site_fract_y
_atom_site_fract_z
Si Si1 0.518654 0.220750 0.732416
Si Si2 0.170479 0.061060 0.289286
Si Si3 0.436297 0.439622 0.762443
Si Si4 0.337178 0.101625 0.733044
Si Si5 0.015315 0.259831 0.717340
Si Si6 0.063120 0.381026 0.236730
O O1 0.500000 0.229628 0.500000
O O2 0.428546 0.161656 0.764572
O O3 0.187562 0.229515 0.186500
O O4 0.312598 0.257948 0.801301
O O5 0.252008 0.088949 0.501093
O O6 0.416230 0.066143 0.197924
O O7 0.911960 0.088853 0.189762
O O8 0.108739 0.999637 0.309579
O O9 0.177695 0.407530 0.703175
O O10 0.676845 0.412501 0.703514
O O11 0.500000 0.442056 0.000000
O O12 0.000000 0.236100 0.500000
O O13 0.918963 0.320044 0.698793
O O14 0.000000 0.380060 0.000000
#
# Coordination Sequence:
#
# PCOD9120529 Si02
#       6
#     4   4   4   4   4   4
#     4  10  18  32  55  79 109 141 180 212 279 337
#     4  10  19  32  53  81 106 139 189 216 267 327
#     4  10  21  38  59  78 107 151 189 226 271 329
#     4  10  19  32  53  83 107 146 170 224 277 327
#     4  10  21  34  55  85 108 142 179 235 272 320
#     4  10  21  40  59  78 110 153 187 222 281 336
#
# _framework density 25.507802000000002
#
# number of rings (size 3 to 8) (size 9 to 14) (size 15 to 20)
#    0.000    2.000    1.667    3.000    4.667    0.000 
#    9.000    0.000    0.000    6.000    0.000    0.000 
#    0.000    0.000    0.000    0.000    0.000    0.000 
#
# Total GULP energy -67169.434198 kJ/mol
# GULP energy per Si atom -5597.452850 kJ/mol
# Density = 2.544975 g / cm^3
# Si number density = 25.507802 Si / 1000 Ang^3
#
#
#
# Elastic Constant Matrix: (Units=GPa)
#
#
# Indices 1 2 3 4 5 6 
#
# 1 296.0596 86.1563 37.3928 0.0000 -1.8265 0.0000
# 2 86.1563 156.6454 -17.5678 0.0000 0.9745 0.0000
# 3 37.3928 -17.5678 97.1633 0.0000 -1.1802 0.0000
# 4 0.0000 0.0000 0.0000 84.7054 0.0000 1.1882
# 5 -1.8265 0.9745 -1.1802 0.0000 44.3630 0.0000
# 6 0.0000 0.0000 0.0000 1.1882 0.0000 55.6220
#
#
#
# Elastic Compliance Matrix: (Units=1/GPa)
#
#
# Indices 1 2 3 4 5 6 
#
# 1 0.004438 -0.002688 -0.002192 0.000000 0.000183 0.000000
# 2 -0.002688 0.008144 0.002504 0.000000 -0.000223 0.000000
# 3 -0.002192 0.002504 0.011590 0.000000 0.000163 0.000000
# 4 0.000000 0.000000 0.000000 0.011809 0.000000 -0.000252
# 5 0.000183 -0.000223 0.000163 0.000000 0.022558 0.000000
# 6 0.000000 0.000000 0.000000 -0.000252 0.000000 0.017984
#
#
# Mechanical properties :
#
#
# Convention : Reuss Voigt Hill
#
# Bulk Modulus (GPa) = 51.48792 84.64789 68.06791
# Shear Modulus (GPa) = 56.98153 66.53054 61.75603
#
# Velocity S-wave (km/s) = 4.73153 5.11264 4.92577
# Velocity P-wave (km/s) = 7.07664 8.25283 7.68726
#
# Compressibility (1/GPa) = 0.01942203
#
# Stress axis : x y z
#
# Youngs Moduli (GPa) = 225.33699 122.78423 86.28023
#
# Poissons Ratio (x) = 0.33001 0.18909
# Poissons Ratio (y) = 0.60565 -0.21606
# Poissons Ratio (z) = 0.49385 -0.30748
#
# Static dielectric constant tensor:
#      x y z
#    x 2.039050 0.000000 0.020250 
#    y 0.000000 1.909420 0.000000 
#    z 0.020250 0.000000 2.035270 
# 
# From -- ./inp_files/33667.got.cif
#   From: 2010.05.17/outbox.cif.g08.bks.cpg/sg5_17_cif.got.tgz:33667.got - 2010.06.03 18:56:24.
