data_PCOD9120137
_publ_section_title
;
Structure prediction by ZEFSAII (Michael W. Deem and Ramdas Pophale) SiO2 
 PCOD9120137
Probable space group: C 2
;
_chemical_formula_sum "Si O2"
_cell_formula_units_Z 30
_cell_length_a 29.486527
_cell_length_b 5.261668
_cell_length_c 20.030973
_cell_angle_alpha 90.000000
_cell_angle_beta 142.856759
_cell_angle_gamma 90.000000
_cell_volume 1876.502867
_symmetry_space_group_name_H-M "C 2"
_symmetry_group_IT_number 5
_symmetry_cell_setting 'monoclinic'
loop_
_space_group_symop_operation_xyz
x,y,z
-x,y,-z
1/2+x,1/2+y,z
1/2-x,1/2+y,-z
loop_
_atom_site_type_symbol
_atom_site_label
_atom_site_fract_x
_atom_site_fract_y
_atom_site_fract_z
Si Si1 0.392273 0.331410 0.523436
Si Si2 0.879268 0.329520 0.327030
Si Si3 0.471816 0.833020 0.575422
Si Si4 0.800431 0.828204 0.275829
Si Si5 0.372619 0.387206 0.775577
Si Si6 0.152773 0.403607 0.175578
Si Si7 0.000000 0.640705 0.000000
Si Si8 0.299837 0.331296 0.550966
O O1 0.444883 0.578049 0.579854
O O2 0.340121 0.327000 0.395799
O O3 0.341153 0.338084 0.528695
O O4 0.443011 0.079697 0.580320
O O5 0.927653 0.335022 0.452596
O O6 0.825391 0.572292 0.268232
O O7 0.940533 0.339456 0.340247
O O8 0.832849 0.070029 0.274939
O O9 0.712638 0.853361 0.188460
O O10 0.350886 0.658510 0.780847
O O11 0.457726 0.314158 0.896020
O O12 0.356666 0.373756 0.679062
O O13 0.326262 0.159569 0.758191
O O14 0.068059 0.468518 0.052491
O O15 0.240305 0.560405 0.486287
#
# Coordination Sequence:
#
# PCOD9120137 Si02
#       8
#     4   4   4   4   4   4   2   4
#     4  10  19  29  44  65  93 136 164 193 234 292
#     4   9  17  27  43  65  89 128 159 203 240 286
#     4   9  17  30  43  60  93 127 169 195 234 290
#     4  10  17  27  44  68  96 123 164 195 246 296
#     4  10  20  35  51  71  99 136 172 208 247 295
#     4  10  19  33  51  72  97 132 164 210 257 295
#     4   8  22  34  56  70  94 142 166 218 260 286
#     4  12  23  34  49  74 107 140 174 204 243 295
#
# _framework density 15.987185
#
# number of rings (size 3 to 8) (size 9 to 14) (size 15 to 20)
#    0.800    1.333    0.000    5.200    0.000    5.333 
#    0.000    0.000    0.000    0.000    0.000    0.000 
#    0.000    4.267    0.000    0.000    0.000    0.000 
#
# Total GULP energy -83569.608167 kJ/mol
# GULP energy per Si atom -5571.307211 kJ/mol
# Density = 1.595080 g / cm^3
# Si number density = 15.987185 Si / 1000 Ang^3
#
#
#
# Elastic Constant Matrix: (Units=GPa)
#
#
# Indices 1 2 3 4 5 6 
#
# 1 104.6654 25.8806 5.7890 0.0002 15.9539 0.0007
# 2 25.8806 91.2882 -3.8307 -0.0007 1.1159 -0.0002
# 3 5.7890 -3.8307 40.8604 -0.0003 7.4350 0.0000
# 4 0.0002 -0.0007 -0.0003 8.0445 0.0003 2.4399
# 5 15.9539 1.1159 7.4350 0.0003 19.8046 0.0005
# 6 0.0007 -0.0002 0.0000 2.4399 0.0005 23.1201
#
#
#
# Elastic Compliance Matrix: (Units=1/GPa)
#
#
# Indices 1 2 3 4 5 6 
#
# 1 0.011772 -0.003238 -0.000299 0.000000 -0.009188 0.000000
# 2 -0.003238 0.011910 0.001312 0.000001 0.001444 0.000000
# 3 -0.000299 0.001312 0.026413 0.000001 -0.009749 0.000000
# 4 0.000000 0.000001 0.000001 0.128418 -0.000002 -0.013552
# 5 -0.009188 0.001444 -0.009749 -0.000002 0.061473 -0.000001
# 6 0.000000 0.000000 0.000000 -0.013552 -0.000001 0.044683
#
#
# Mechanical properties :
#
#
# Convention : Reuss Voigt Hill
#
# Bulk Modulus (GPa) = 21.90815 32.49907 27.20361
# Shear Modulus (GPa) = 16.42936 24.12552 20.27744
#
# Velocity S-wave (km/s) = 3.20919 3.88887 3.56526
# Velocity P-wave (km/s) = 5.24072 6.36685 5.83103
#
# Compressibility (1/GPa) = 0.04564512
#
# Stress axis : x y z
#
# Youngs Moduli (GPa) = 84.94779 83.96570 37.86029
#
# Poissons Ratio (x) = 0.27185 0.01134
# Poissons Ratio (y) = 0.27503 -0.04969
# Poissons Ratio (z) = 0.02544 -0.11020
#
# Static dielectric constant tensor:
#      x y z
#    x 1.514280 0.000000 0.019150 
#    y 0.000000 1.548440 0.000000 
#    z 0.019150 0.000000 1.528030 
# 
# From -- ./inp_files/63495.got.cif
#   From: 2010.05.17/outbox.cif.g08.bks.cpg/sg5_32_cif.got.tgz:63495.got - 2010.06.03 18:56:24.
