data_PCOD9120659
_publ_section_title
;
Structure prediction by ZEFSAII (Michael W. Deem and Ramdas Pophale) SiO2 
 PCOD9120659
Probable space group: C 2
;
_chemical_formula_sum "Si O2"
_cell_formula_units_Z 32
_cell_length_a 10.272028
_cell_length_b 18.873800
_cell_length_c 12.484696
_cell_angle_alpha 90.000000
_cell_angle_beta 41.660961
_cell_angle_gamma 90.000000
_cell_volume 1608.915451
_symmetry_space_group_name_H-M "C 2"
_symmetry_group_IT_number 5
_symmetry_cell_setting 'monoclinic'
loop_
_space_group_symop_operation_xyz
x,y,z
-x,y,-z
1/2+x,1/2+y,z
1/2-x,1/2+y,-z
loop_
_atom_site_type_symbol
_atom_site_label
_atom_site_fract_x
_atom_site_fract_y
_atom_site_fract_z
Si Si1 0.041440 0.475600 0.744476
Si Si2 0.140368 0.930638 0.311263
Si Si3 0.224284 0.168429 0.881210
Si Si4 0.985605 0.785839 0.380525
Si Si5 0.793379 0.014022 0.187938
Si Si6 0.318158 0.686744 0.533705
Si Si7 0.379467 0.539717 0.382436
Si Si8 0.026531 0.621129 0.106670
O O1 0.146365 0.422822 0.764810
O O2 0.213690 0.505359 0.561486
O O3 0.970504 0.538763 0.865112
O O4 0.862389 0.461277 0.772822
O O5 0.000000 0.934901 0.500000
O O6 0.056351 0.863453 0.298758
O O7 0.089677 0.003935 0.282016
O O8 0.354960 0.230164 0.756203
O O9 0.282247 0.093916 0.790481
O O10 0.273507 0.155923 0.974634
O O11 0.000000 0.181457 0.000000
O O12 0.778990 0.754540 0.465744
O O13 0.000000 0.786849 0.500000
O O14 0.826003 0.016325 0.294940
O O15 0.000000 0.006534 0.000000
O O16 0.500000 0.702600 0.500000
O O17 0.373258 0.623186 0.416377
O O18 0.147865 0.654963 0.715369
O O19 0.000000 0.633619 0.000000
#
# Coordination Sequence:
#
# PCOD9120659 Si02
#       8
#     4   4   4   4   4   4   4   4
#     4   9  18  32  51  76 103 138 176 212 268 322
#     4   9  19  35  54  77 105 136 177 223 269 318
#     4   9  19  33  49  74 106 137 174 216 266 316
#     4  10  20  36  55  77 104 138 182 224 262 322
#     4  10  20  32  51  81 110 135 174 226 271 314
#     4  10  20  33  55  83 108 139 181 222 268 319
#     4  10  18  34  56  78 107 140 175 222 269 315
#     4   9  18  31  50  78 108 133 169 221 267 312
#
# _framework density 19.889175000000002
#
# number of rings (size 3 to 8) (size 9 to 14) (size 15 to 20)
#    0.000    2.500    0.000    3.750    0.000    7.000 
#    0.000    5.625    0.000    3.000    0.000    0.000 
#    0.000    0.000    0.000    0.000    0.000    0.000 
#
# Total GULP energy -89108.563747 kJ/mol
# GULP energy per Si atom -5569.285234 kJ/mol
# Density = 1.984391 g / cm^3
# Si number density = 19.889175 Si / 1000 Ang^3
#
#
#
# Elastic Constant Matrix: (Units=GPa)
#
#
# Indices 1 2 3 4 5 6 
#
# 1 180.5546 45.7069 36.2260 0.0000 -2.8060 0.0000
# 2 45.7069 61.9677 12.9433 -0.0001 -5.5060 0.0000
# 3 36.2260 12.9433 41.6396 0.0001 4.9751 -0.0001
# 4 0.0000 -0.0001 0.0001 7.4497 0.0000 -1.0858
# 5 -2.8060 -5.5060 4.9751 0.0000 33.2861 0.0000
# 6 0.0000 0.0000 -0.0001 -1.0858 0.0000 27.8388
#
#
#
# Elastic Compliance Matrix: (Units=1/GPa)
#
#
# Indices 1 2 3 4 5 6 
#
# 1 0.007795 -0.004546 -0.005454 0.000000 0.000720 0.000000
# 2 -0.004546 0.020375 -0.002785 0.000000 0.003403 0.000000
# 3 -0.005454 -0.002785 0.030277 0.000000 -0.005446 0.000000
# 4 0.000000 0.000000 0.000000 0.135001 0.000000 0.005265
# 5 0.000720 0.003403 -0.005446 0.000000 0.031480 0.000000
# 6 0.000000 0.000000 0.000000 0.005265 0.000000 0.036126
#
#
# Mechanical properties :
#
#
# Convention : Reuss Voigt Hill
#
# Bulk Modulus (GPa) = 30.41731 52.65716 41.53723
# Shear Modulus (GPa) = 16.80199 26.33396 21.56798
#
# Velocity S-wave (km/s) = 2.90966 3.64268 3.29661
# Velocity P-wave (km/s) = 5.15895 6.65018 5.95146
#
# Compressibility (1/GPa) = 0.03287602
#
# Stress axis : x y z
#
# Youngs Moduli (GPa) = 128.28900 49.08040 33.02815
#
# Poissons Ratio (x) = 0.22313 0.18015
# Poissons Ratio (y) = 0.58323 0.09198
# Poissons Ratio (z) = 0.69974 0.13668
#
# Static dielectric constant tensor:
#      x y z
#    x 1.777360 0.000000 -0.036230 
#    y 0.000000 1.747090 0.000000 
#    z -0.036230 0.000000 1.699020 
# 
# From -- ./inp_files/37362.got.cif
#   From: 2010.05.17/outbox.cif.g08.bks.cpg/sg5_19_cif.got.tgz:37362.got - 2010.06.03 18:56:24.
