data_PCOD9120359
_publ_section_title
;
Structure prediction by ZEFSAII (Michael W. Deem and Ramdas Pophale) SiO2 
 PCOD9120359
Probable space group: C 2
;
_chemical_formula_sum "Si O2"
_cell_formula_units_Z 30
_cell_length_a 8.630411
_cell_length_b 20.077203
_cell_length_c 13.352786
_cell_angle_alpha 90.000000
_cell_angle_beta 36.059962
_cell_angle_gamma 90.000000
_cell_volume 1361.915448
_symmetry_space_group_name_H-M "C 2"
_symmetry_group_IT_number 5
_symmetry_cell_setting 'monoclinic'
loop_
_space_group_symop_operation_xyz
x,y,z
-x,y,-z
1/2+x,1/2+y,z
1/2-x,1/2+y,-z
loop_
_atom_site_type_symbol
_atom_site_label
_atom_site_fract_x
_atom_site_fract_y
_atom_site_fract_z
Si Si1 0.189709 0.529650 0.538357
Si Si2 0.603230 0.807762 0.665075
Si Si3 0.246574 0.615715 0.940930
Si Si4 0.000000 0.922549 0.500000
Si Si5 0.125690 0.003878 0.784044
Si Si6 0.706551 0.748508 0.981839
Si Si7 0.098376 0.852507 0.833714
Si Si8 0.746178 0.165411 0.446573
O O1 0.386889 0.475946 0.480888
O O2 0.264371 0.522025 0.382741
O O3 0.220704 0.608579 0.544876
O O4 0.884934 0.511858 0.717084
O O5 0.451593 0.775892 0.838869
O O6 0.755089 0.744895 0.536122
O O7 0.763658 0.868973 0.628722
O O8 0.405702 0.836393 0.684657
O O9 0.384996 0.554360 0.925210
O O10 0.179312 0.676155 0.050282
O O11 0.476619 0.646643 0.750323
O O12 0.000000 0.596812 0.000000
O O13 0.043436 0.927504 0.830370
O O14 0.500000 0.744034 0.000000
O O15 0.942800 0.800743 0.846131
O O16 0.000000 0.845114 0.000000
O O17 0.500000 0.153957 0.500000
#
# Coordination Sequence:
#
# PCOD9120359 Si02
#       8
#     4   4   4   2   4   4   4   4
#     4  10  21  38  61  90 120 160 202 264 311 367
#     4  10  21  37  64  89 118 168 205 246 315 381
#     4  10  20  38  61  87 116 163 204 251 309 372
#     4  12  22  36  64  92 124 152 210 270 310 360
#     4  10  20  39  63  82 120 164 204 245 313 374
#     4  10  22  38  59  88 124 156 203 257 305 364
#     4  10  21  40  58  85 126 161 198 253 311 364
#     4  10  17  37  64  82 115 165 206 240 306 377
#
# _framework density 22.027799999999999
#
# number of rings (size 3 to 8) (size 9 to 14) (size 15 to 20)
#    0.000    1.867    4.667    2.000    1.867    1.067 
#    7.200    4.000    2.933    0.000    0.000    0.000 
#    0.000    0.000    0.000    0.000    0.000    0.000 
#
# Total GULP energy -83586.392743 kJ/mol
# GULP energy per Si atom -5572.426183 kJ/mol
# Density = 2.197766 g / cm^3
# Si number density = 22.027800 Si / 1000 Ang^3
#
#
#
# Elastic Constant Matrix: (Units=GPa)
#
#
# Indices 1 2 3 4 5 6 
#
# 1 48.2161 38.4367 17.7186 -0.0002 -18.3224 -0.0003
# 2 38.4367 187.9425 25.0397 -0.0001 -19.3860 -0.0003
# 3 17.7186 25.0397 46.8853 -0.0017 -21.7297 -0.0011
# 4 -0.0002 -0.0001 -0.0017 23.2905 0.0006 -17.0992
# 5 -18.3224 -19.3860 -21.7297 0.0006 26.2781 0.0002
# 6 -0.0003 -0.0003 -0.0011 -17.0992 0.0002 22.4151
#
#
#
# Elastic Compliance Matrix: (Units=1/GPa)
#
#
# Indices 1 2 3 4 5 6 
#
# 1 0.031439 -0.004439 -0.001409 0.000000 0.017481 0.000000
# 2 -0.004439 0.006480 -0.001625 0.000000 0.000342 0.000000
# 3 -0.001409 -0.001625 0.035213 0.000007 0.026938 0.000006
# 4 0.000000 0.000000 0.000007 0.097594 0.000002 0.074449
# 5 0.017481 0.000342 0.026938 0.000002 0.072771 0.000002
# 6 0.000000 0.000000 0.000006 0.074449 0.000002 0.101406
#
#
# Mechanical properties :
#
#
# Convention : Reuss Voigt Hill
#
# Bulk Modulus (GPa) = 17.18560 49.49265 33.33913
# Shear Modulus (GPa) = 13.18412 27.85333 20.51872
#
# Velocity S-wave (km/s) = 2.44912 3.55979 3.05535
# Velocity P-wave (km/s) = 3.97698 6.27799 5.25497
#
# Compressibility (1/GPa) = 0.05818824
#
# Stress axis : x y z
#
# Youngs Moduli (GPa) = 31.80743 154.31266 28.39833
#
# Poissons Ratio (x) = 0.68497 0.04000
# Poissons Ratio (y) = 0.14119 0.04614
# Poissons Ratio (z) = 0.04480 0.25073
#
# Static dielectric constant tensor:
#      x y z
#    x 1.859970 0.000000 0.001580 
#    y 0.000000 1.853220 0.000000 
#    z 0.001580 0.000000 1.892370 
# 
# From -- ./inp_files/59897.got.cif
#   From: 2010.05.17/outbox.cif.g08.bks.cpg/sg5_30_cif.got.tgz:59897.got - 2010.06.03 18:56:24.
