data_PCOD9120265
_publ_section_title
;
Structure prediction by ZEFSAII (Michael W. Deem and Ramdas Pophale) SiO2 
 PCOD9120265
Probable space group: C 2
;
_chemical_formula_sum "Si O2"
_cell_formula_units_Z 32
_cell_length_a 7.379719
_cell_length_b 15.821741
_cell_length_c 20.664787
_cell_angle_alpha 90.000000
_cell_angle_beta 144.739186
_cell_angle_gamma 90.000000
_cell_volume 1392.919665
_symmetry_space_group_name_H-M "C 2"
_symmetry_group_IT_number 5
_symmetry_cell_setting 'monoclinic'
loop_
_space_group_symop_operation_xyz
x,y,z
-x,y,-z
1/2+x,1/2+y,z
1/2-x,1/2+y,-z
loop_
_atom_site_type_symbol
_atom_site_label
_atom_site_fract_x
_atom_site_fract_y
_atom_site_fract_z
Si Si1 0.333324 0.194360 0.518014
Si Si2 0.662672 0.890704 0.476044
Si Si3 0.959054 0.148391 0.763970
Si Si4 0.708935 0.145182 0.282873
Si Si5 0.324203 0.294013 0.126327
Si Si6 0.748808 0.817752 0.873396
Si Si7 0.958922 0.960970 0.755980
Si Si8 0.747946 0.963694 0.297855
O O1 0.500000 0.167001 0.500000
O O2 0.265783 0.294310 0.494770
O O3 0.591311 0.169478 0.645855
O O4 0.990470 0.154338 0.416211
O O5 0.500000 0.891436 0.500000
O O6 0.397608 0.924967 0.349677
O O7 0.983100 0.943706 0.571678
O O8 0.132386 0.151655 0.743308
O O9 0.109063 0.224946 0.848202
O O10 0.992263 0.052466 0.798362
O O11 0.469554 0.222946 0.215140
O O12 0.570169 0.052316 0.253362
O O13 0.563998 0.308018 0.138102
O O14 0.311684 0.386346 0.154490
O O15 0.000000 0.266675 0.000000
O O16 0.476821 0.884791 0.780071
O O17 0.000000 0.845361 0.000000
O O18 0.050868 0.976090 0.708694
#
# Coordination Sequence:
#
# PCOD9120265 Si02
#       8
#     4   4   4   4   4   4   4   4
#     4  10  17  33  59  84 114 150 185 223 273 340
#     4  10  19  31  55  88 120 148 179 225 281 330
#     4   9  19  35  59  85 112 148 187 225 276 336
#     4   9  19  35  59  85 112 148 187 225 276 336
#     4  11  23  40  59  82 110 148 192 238 284 330
#     4  11  23  40  59  82 110 148 192 238 284 330
#     4  10  20  37  59  86 117 150 186 228 278 336
#     4  10  20  37  59  86 117 150 186 228 278 336
#
# _framework density 22.973327000000001
#
# number of rings (size 3 to 8) (size 9 to 14) (size 15 to 20)
#    0.000    2.000    2.500    1.500    0.000    4.000 
#    0.000    6.250    0.000    1.500    0.000    0.000 
#    0.000    0.000    0.000    0.000    0.000    0.000 
#
# Total GULP energy -89395.230941 kJ/mol
# GULP energy per Si atom -5587.201934 kJ/mol
# Density = 2.292104 g / cm^3
# Si number density = 22.973327 Si / 1000 Ang^3
#
#
#
# Elastic Constant Matrix: (Units=GPa)
#
#
# Indices 1 2 3 4 5 6 
#
# 1 48.1559 -8.2745 -1.3698 -0.0036 6.1243 0.0020
# 2 -8.2745 139.9194 21.5164 -0.0099 14.2253 0.0056
# 3 -1.3698 21.5164 81.2158 -0.0318 13.7615 0.0209
# 4 -0.0036 -0.0099 -0.0318 -20.7582 -0.0062 24.9351
# 5 6.1243 14.2253 13.7615 -0.0062 24.9582 0.0049
# 6 0.0020 0.0056 0.0209 24.9351 0.0049 -29.9090
#
#
#
# Elastic Compliance Matrix: (Units=1/GPa)
#
#
# Indices 1 2 3 4 5 6 
#
# 1 0.022012 0.001853 0.001075 0.001751 -0.007050 0.001462
# 2 0.001853 0.007892 -0.001346 0.000556 -0.004211 0.000463
# 3 0.001075 -0.001346 0.013902 0.005917 -0.007162 0.004941
# 4 0.001751 0.000556 0.005917 33.060525 -0.001243 27.562556
# 5 -0.007050 -0.004211 -0.007162 -0.001243 0.048146 -0.001034
# 6 0.001462 0.000463 0.004941 27.562556 -0.001034 22.945465
#
#
# Mechanical properties :
#
#
# Convention : Reuss Voigt Hill
#
# Bulk Modulus (GPa) = 21.29004 32.55951 26.92477
# Shear Modulus (GPa) = 0.08911 12.01946 6.05429
#
# Velocity S-wave (km/s) = 0.19716 2.28982 1.62514
# Velocity P-wave (km/s) = 3.05602 4.60375 3.90729
#
# Compressibility (1/GPa) = 0.04697033
#
# Stress axis : x y z
#
# Youngs Moduli (GPa) = 45.43063 126.71645 71.93145
#
# Poissons Ratio (x) = -0.23483 -0.07734
# Poissons Ratio (y) = -0.08419 0.09681
# Poissons Ratio (z) = -0.04885 0.17055
#
# Static dielectric constant tensor:
#      x y z
#    x 2.020630 0.000000 -0.160490 
#    y 0.000000 1.875610 0.000000 
#    z -0.160490 0.000000 2.035210 
# 
# From -- ./inp_files/68021.got.cif
#   From: 2010.05.17/outbox.cif.g08.bks.cpg/sg5_35_cif.got.tgz:68021.got - 2010.06.03 18:56:24.
