data_PCOD9120949
_publ_section_title
;
Structure prediction by ZEFSAII (Michael W. Deem and Ramdas Pophale) SiO2 
 PCOD9120949
Probable space group: C 2
;
_chemical_formula_sum "Si O2"
_cell_formula_units_Z 28
_cell_length_a 11.611062
_cell_length_b 9.640147
_cell_length_c 10.485387
_cell_angle_alpha 90.000000
_cell_angle_beta 66.959810
_cell_angle_gamma 90.000000
_cell_volume 1080.032219
_symmetry_space_group_name_H-M "C 2"
_symmetry_group_IT_number 5
_symmetry_cell_setting 'monoclinic'
loop_
_space_group_symop_operation_xyz
x,y,z
-x,y,-z
1/2+x,1/2+y,z
1/2-x,1/2+y,-z
loop_
_atom_site_type_symbol
_atom_site_label
_atom_site_fract_x
_atom_site_fract_y
_atom_site_fract_z
Si Si1 0.158576 0.457990 0.845755
Si Si2 0.354522 0.469453 0.580206
Si Si3 0.363267 0.743012 0.708243
Si Si4 0.830223 0.977715 0.235370
Si Si5 0.357250 0.760316 0.349715
Si Si6 0.252886 0.607219 0.018962
Si Si7 0.500735 0.227091 0.847942
O O1 0.253343 0.365771 0.558089
O O2 0.105448 0.320444 0.808767
O O3 0.164791 0.488659 0.990670
O O4 0.089880 0.588836 0.804616
O O5 0.500000 0.438674 0.500000
O O6 0.335894 0.636289 0.602228
O O7 0.304411 0.442408 0.744801
O O8 0.293170 0.885741 0.718875
O O9 0.509800 0.766359 0.643078
O O10 0.315647 0.684038 0.868998
O O11 0.935638 0.866682 0.230258
O O12 0.820678 0.101899 0.339796
O O13 0.840874 0.042631 0.088059
O O14 0.141294 0.697142 0.130280
O O15 0.500000 0.252463 0.000000
#
# Coordination Sequence:
#
# PCOD9120949 Si02
#       7
#     4   4   4   4   4   4   4
#     4   8  18  39  58  84 122 159 196 246 294 358
#     4   9  20  46  69  81 120 162 199 264 324 360
#     4  11  23  41  61  92 123 158 212 241 304 373
#     4  12  23  36  60  88 128 163 198 248 289 358
#     4  10  24  38  60  92 121 154 206 257 299 359
#     4  10  22  33  60  85 126 173 194 225 299 360
#     4  10  18  37  53  82 127 160 198 234 283 357
#
# _framework density 25.925151
#
# number of rings (size 3 to 8) (size 9 to 14) (size 15 to 20)
#    0.857    1.143    4.286    0.857    4.000    1.143 
#    0.000    3.571    0.000    0.000    0.000    0.000 
#    0.000    0.000    0.000    0.000    0.000    0.000 
#
# Total GULP energy -78012.412846 kJ/mol
# GULP energy per Si atom -5572.315203 kJ/mol
# Density = 2.586614 g / cm^3
# Si number density = 25.925151 Si / 1000 Ang^3
#
#
#
# Elastic Constant Matrix: (Units=GPa)
#
#
# Indices 1 2 3 4 5 6 
#
# 1 120.8179 67.5886 59.7532 0.0000 -40.4465 0.0000
# 2 67.5886 178.5617 54.9686 0.0000 -14.5329 0.0000
# 3 59.7532 54.9686 97.2837 0.0000 -27.8447 0.0000
# 4 0.0000 0.0000 0.0000 30.8093 0.0000 -6.5193
# 5 -40.4465 -14.5329 -27.8447 0.0000 46.7059 0.0000
# 6 0.0000 0.0000 0.0000 -6.5193 0.0000 20.8311
#
#
#
# Elastic Compliance Matrix: (Units=1/GPa)
#
#
# Indices 1 2 3 4 5 6 
#
# 1 0.016141 -0.003782 -0.004960 0.000000 0.009844 0.000000
# 2 -0.003782 0.007667 -0.002730 0.000000 -0.002517 0.000000
# 3 -0.004960 -0.002730 0.016152 0.000000 0.004485 0.000000
# 4 0.000000 0.000000 0.000000 0.034760 0.000000 0.010878
# 5 0.009844 -0.002517 0.004485 0.000000 0.031826 0.000000
# 6 0.000000 0.000000 0.000000 0.010878 0.000000 0.051410
#
#
# Mechanical properties :
#
#
# Convention : Reuss Voigt Hill
#
# Bulk Modulus (GPa) = 58.76256 84.58714 71.67485
# Shear Modulus (GPa) = 26.79959 33.95945 30.37952
#
# Velocity S-wave (km/s) = 3.21865 3.62319 3.42689
# Velocity P-wave (km/s) = 6.04387 7.08531 6.58521
#
# Compressibility (1/GPa) = 0.01701764
#
# Stress axis : x y z
#
# Youngs Moduli (GPa) = 61.95418 130.42502 61.91348
#
# Poissons Ratio (x) = 0.49322 0.30707
# Poissons Ratio (y) = 0.23429 0.16901
# Poissons Ratio (z) = 0.30727 0.35603
#
# Static dielectric constant tensor:
#      x y z
#    x 2.035310 0.000000 0.000140 
#    y 0.000000 2.205590 0.000000 
#    z 0.000140 0.000000 2.151870 
# 
# From -- ./inp_files/54002.got.cif
#   From: 2010.05.17/outbox.cif.g08.bks.cpg/sg5_28_cif.got.tgz:54002.got - 2010.06.03 18:56:24.
