data_PCOD9120797
_publ_section_title
;
Structure prediction by ZEFSAII (Michael W. Deem and Ramdas Pophale) SiO2 
 PCOD9120797
Probable space group: C 2
;
_chemical_formula_sum "Si O2"
_cell_formula_units_Z 26
_cell_length_a 9.229977
_cell_length_b 16.185212
_cell_length_c 7.660194
_cell_angle_alpha 90.000000
_cell_angle_beta 107.086339
_cell_angle_gamma 90.000000
_cell_volume 1093.841696
_symmetry_space_group_name_H-M "C 2"
_symmetry_group_IT_number 5
_symmetry_cell_setting 'monoclinic'
loop_
_space_group_symop_operation_xyz
x,y,z
-x,y,-z
1/2+x,1/2+y,z
1/2-x,1/2+y,-z
loop_
_atom_site_type_symbol
_atom_site_label
_atom_site_fract_x
_atom_site_fract_y
_atom_site_fract_z
Si Si1 0.677447 0.802280 0.094432
Si Si2 0.083810 0.463614 0.266015
Si Si3 0.000000 0.232810 0.500000
Si Si4 0.591643 0.138670 0.347949
Si Si5 0.259357 0.968380 0.298907
Si Si6 0.840553 0.145390 0.697517
Si Si7 0.805557 0.800648 0.756063
O O1 0.667352 0.892338 0.185472
O O2 0.729651 0.723679 0.228278
O O3 0.500000 0.784286 0.000000
O O4 0.765293 0.797704 0.944879
O O5 0.075425 0.560980 0.214556
O O6 0.166847 0.469652 0.482438
O O7 0.904487 0.445060 0.229417
O O8 0.002111 0.179180 0.321625
O O9 0.149385 0.289679 0.584519
O O10 0.500000 0.129251 0.500000
O O11 0.760695 0.135436 0.482308
O O12 0.581701 0.228258 0.259512
O O13 0.140738 0.893937 0.256953
O O14 0.186263 0.056918 0.225010
#
# Coordination Sequence:
#
# PCOD9120797 Si02
#       7
#     4   4   2   4   4   4   4
#     4  12  22  35  58  94 123 155 191 257 308 346
#     4  10  18  36  63  87 115 147 213 257 286 342
#     4  10  18  36  58  84 114 160 210 254 278 356
#     4  10  20  40  63  90 117 159 209 250 292 356
#     4  10  18  35  60  87 110 155 208 250 285 353
#     4  10  20  35  60  87 121 153 206 250 300 349
#     4  11  22  35  59  90 121 158 201 246 305 356
#
# _framework density 23.769435000000001
#
# number of rings (size 3 to 8) (size 9 to 14) (size 15 to 20)
#    0.000    1.538    6.154    2.769    0.000    1.231 
#    1.385    0.769    0.000    0.000    0.000    0.000 
#    0.000    0.000    0.000    0.000    0.000    0.000 
#
# Total GULP energy -72386.530093 kJ/mol
# GULP energy per Si atom -5568.194623 kJ/mol
# Density = 2.371533 g / cm^3
# Si number density = 23.769435 Si / 1000 Ang^3
#
#
#
# Elastic Constant Matrix: (Units=GPa)
#
#
# Indices 1 2 3 4 5 6 
#
# 1 29.6025 31.8941 12.2722 0.0000 -11.0021 0.0000
# 2 31.8941 262.0588 55.3177 0.0000 -26.9524 0.0000
# 3 12.2722 55.3177 86.7782 0.0000 -17.3462 0.0000
# 4 0.0000 0.0000 0.0000 7.4718 0.0000 -6.4012
# 5 -11.0021 -26.9524 -17.3462 0.0000 28.2444 0.0000
# 6 0.0000 0.0000 0.0000 -6.4012 0.0000 34.7800
#
#
#
# Elastic Compliance Matrix: (Units=1/GPa)
#
#
# Indices 1 2 3 4 5 6 
#
# 1 0.042877 -0.003679 -0.001233 0.000000 0.012434 0.000000
# 2 -0.003679 0.004933 -0.002245 0.000000 0.001895 0.000000
# 3 -0.001233 -0.002245 0.014369 0.000000 0.006202 0.000000
# 4 0.000000 0.000000 0.000000 0.158889 0.000000 0.029243
# 5 0.012434 0.001895 0.006202 0.000000 0.045866 0.000000
# 6 0.000000 0.000000 0.000000 0.029243 0.000000 0.034134
#
#
# Mechanical properties :
#
#
# Convention : Reuss Voigt Hill
#
# Bulk Modulus (GPa) = 20.89255 64.15639 42.52447
# Shear Modulus (GPa) = 15.09035 32.69629 23.89332
#
# Velocity S-wave (km/s) = 2.52238 3.71288 3.17395
# Velocity P-wave (km/s) = 4.15836 6.74020 5.60010
#
# Compressibility (1/GPa) = 0.04786396
#
# Stress axis : x y z
#
# Youngs Moduli (GPa) = 23.32232 202.73456 69.59467
#
# Poissons Ratio (x) = 0.74594 0.08580
# Poissons Ratio (y) = 0.08581 0.15626
# Poissons Ratio (z) = 0.02875 0.45518
#
# Static dielectric constant tensor:
#      x y z
#    x 2.062250 0.000000 -0.007530 
#    y 0.000000 2.094550 0.000000 
#    z -0.007530 0.000000 1.929350 
# 
# From -- ./inp_files/20099.got.cif
#   From: 2010.05.17/outbox.cif.g08.bks.cpg/sg5_11_cif.got.tgz:20099.got - 2010.06.03 18:56:24.
