data_PCOD9120341
_publ_section_title
;
Structure prediction by ZEFSAII (Michael W. Deem and Ramdas Pophale) SiO2 
 PCOD9120341
Probable space group: C 2
;
_chemical_formula_sum "Si O2"
_cell_formula_units_Z 30
_cell_length_a 11.877803
_cell_length_b 14.624531
_cell_length_c 11.519068
_cell_angle_alpha 90.000000
_cell_angle_beta 51.338213
_cell_angle_gamma 90.000000
_cell_volume 1562.433291
_symmetry_space_group_name_H-M "C 2"
_symmetry_group_IT_number 5
_symmetry_cell_setting 'monoclinic'
loop_
_space_group_symop_operation_xyz
x,y,z
-x,y,-z
1/2+x,1/2+y,z
1/2-x,1/2+y,-z
loop_
_atom_site_type_symbol
_atom_site_label
_atom_site_fract_x
_atom_site_fract_y
_atom_site_fract_z
Si Si1 0.634667 0.864620 0.327219
Si Si2 0.272268 0.848626 0.308937
Si Si3 0.000000 0.591297 0.000000
Si Si4 0.303721 0.283172 0.873966
Si Si5 0.217427 0.179879 0.151177
Si Si6 0.618025 0.356423 0.647004
Si Si7 0.589106 0.932236 0.115858
Si Si8 0.566791 0.510990 0.342153
O O1 0.500000 0.872601 0.500000
O O2 0.639999 0.765941 0.260232
O O3 0.778173 0.868943 0.311494
O O4 0.625401 0.937811 0.228708
O O5 0.243244 0.773090 0.229260
O O6 0.208434 0.823327 0.475744
O O7 0.439477 0.875056 0.205330
O O8 0.182466 0.937354 0.318700
O O9 0.055833 0.524357 0.066383
O O10 0.866897 0.655325 0.119673
O O11 0.475687 0.297248 0.765725
O O12 0.255474 0.206968 0.995500
O O13 0.217889 0.374392 0.973521
O O14 0.128340 0.087926 0.220603
O O15 0.551786 0.452526 0.648101
O O16 0.500000 0.556321 0.500000
#
# Coordination Sequence:
#
# PCOD9120341 Si02
#       8
#     4   4   2   4   4   4   4   4
#     4  11  23  38  59  90 119 152 197 248 298 342
#     4  10  17  36  64  89 109 155 206 242 276 349
#     4  12  20  38  62  84 116 162 200 234 290 358
#     4  10  20  34  56  93 117 148 195 242 287 342
#     4  11  22  34  57  90 124 147 191 245 298 347
#     4  10  20  37  62  87 118 153 199 247 288 346
#     4  11  20  35  65  85 113 158 203 239 273 356
#     4   9  18  34  60  88 113 153 200 240 288 349
#
# _framework density 19.200821000000001
#
# number of rings (size 3 to 8) (size 9 to 14) (size 15 to 20)
#    0.000    1.600    4.000    3.200    0.000    1.600 
#    0.000    0.000   11.733    3.200    0.000    0.000 
#    0.000    0.000    0.000    0.000    0.000    0.000 
#
# Total GULP energy -83688.158036 kJ/mol
# GULP energy per Si atom -5579.210536 kJ/mol
# Density = 1.915712 g / cm^3
# Si number density = 19.200821 Si / 1000 Ang^3
#
#
#
# Elastic Constant Matrix: (Units=GPa)
#
#
# Indices 1 2 3 4 5 6 
#
# 1 110.5052 2.3852 32.3633 0.0000 17.7376 0.0000
# 2 2.3852 40.3350 16.5961 0.0000 15.4062 0.0000
# 3 32.3633 16.5961 116.1331 0.0000 12.2053 0.0000
# 4 0.0000 0.0000 0.0000 34.7953 0.0000 4.7338
# 5 17.7376 15.4062 12.2053 0.0000 37.5190 0.0000
# 6 0.0000 0.0000 0.0000 4.7338 0.0000 20.8782
#
#
#
# Elastic Compliance Matrix: (Units=1/GPa)
#
#
# Indices 1 2 3 4 5 6 
#
# 1 0.010635 0.002478 -0.002777 0.000000 -0.005142 0.000000
# 2 0.002478 0.031054 -0.003795 0.000000 -0.012688 0.000000
# 3 -0.002777 -0.003795 0.009966 0.000000 -0.000371 0.000000
# 4 0.000000 0.000000 0.000000 0.029654 0.000000 -0.006724
# 5 -0.005142 -0.012688 -0.000371 0.000000 0.034415 0.000000
# 6 0.000000 0.000000 0.000000 -0.006724 0.000000 0.049421
#
#
# Mechanical properties :
#
#
# Convention : Reuss Voigt Hill
#
# Bulk Modulus (GPa) = 23.00665 41.07359 32.04012
# Shear Modulus (GPa) = 26.62100 33.01373 29.81737
#
# Velocity S-wave (km/s) = 3.72755 4.15105 3.94499
# Velocity P-wave (km/s) = 5.52578 6.66431 6.12157
#
# Compressibility (1/GPa) = 0.04346569
#
# Stress axis : x y z
#
# Youngs Moduli (GPa) = 94.03321 32.20235 100.34089
#
# Poissons Ratio (x) = -0.07979 0.27868
# Poissons Ratio (y) = -0.23299 0.38076
# Poissons Ratio (z) = 0.26116 0.12220
#
# Static dielectric constant tensor:
#      x y z
#    x 1.684060 0.000000 0.003150 
#    y 0.000000 1.652430 0.000000 
#    z 0.003150 0.000000 1.716860 
# 
# From -- ./inp_files/40041.got.cif
#   From: 2010.05.17/outbox.cif.g08.bks.cpg/sg5_21_cif.got.tgz:40041.got - 2010.06.03 18:56:24.
