data_PCOD9120368
_publ_section_title
;
Structure prediction by ZEFSAII (Michael W. Deem and Ramdas Pophale) SiO2 
 PCOD9120368
Probable space group: C 2
;
_chemical_formula_sum "Si O2"
_cell_formula_units_Z 24
_cell_length_a 9.126597
_cell_length_b 17.107819
_cell_length_c 8.896128
_cell_angle_alpha 90.000000
_cell_angle_beta 124.956615
_cell_angle_gamma 90.000000
_cell_volume 1138.411155
_symmetry_space_group_name_H-M "C 2"
_symmetry_group_IT_number 5
_symmetry_cell_setting 'monoclinic'
loop_
_space_group_symop_operation_xyz
x,y,z
-x,y,-z
1/2+x,1/2+y,z
1/2-x,1/2+y,-z
loop_
_atom_site_type_symbol
_atom_site_label
_atom_site_fract_x
_atom_site_fract_y
_atom_site_fract_z
Si Si1 0.403101 0.731360 0.796948
Si Si2 0.842789 0.307797 0.299942
Si Si3 0.303584 0.651133 0.450362
Si Si4 0.043960 0.516688 0.200212
Si Si5 0.178740 0.884800 0.704872
Si Si6 0.675512 0.448136 0.043690
O O1 0.555354 0.774211 0.785836
O O2 0.321512 0.668396 0.636685
O O3 0.259142 0.797534 0.756303
O O4 0.500000 0.699390 0.000000
O O5 0.763586 0.234136 0.344711
O O6 0.705817 0.372508 0.167034
O O7 0.000000 0.340356 0.500000
O O8 0.500000 0.627684 0.500000
O O9 0.156593 0.587603 0.330246
O O10 0.168301 0.439676 0.278112
O O11 0.854504 0.498487 0.162515
O O12 0.000000 0.532592 0.000000
O O13 0.000000 0.887681 0.500000
O O14 0.155355 0.919056 0.859421
O O15 0.500000 0.490038 0.000000
#
# Coordination Sequence:
#
# PCOD9120368 Si02
#       6
#     4   4   4   4   4   4
#     4  10  17  38  65 102 133 169 220 279 328 392
#     4   9  19  36  63  98 133 167 220 283 330 394
#     4   9  21  37  68 103 132 182 217 275 341 403
#     4  10  21  43  65  95 138 181 222 274 340 399
#     4  11  22  37  68  98 134 174 227 273 335 401
#     4  11  23  37  66 105 127 176 228 287 329 388
#
# _framework density 21.082014000000001
#
# number of rings (size 3 to 8) (size 9 to 14) (size 15 to 20)
#    0.000    2.333    3.333    1.000    4.667    0.667 
#    0.000    0.000    0.000   54.000    0.000    0.000 
#    0.000    0.000    0.000    0.000    0.000    0.000 
#
# Total GULP energy -67068.148812 kJ/mol
# GULP energy per Si atom -5589.012401 kJ/mol
# Density = 2.103403 g / cm^3
# Si number density = 21.082014 Si / 1000 Ang^3
#
#
#
# Elastic Constant Matrix: (Units=GPa)
#
#
# Indices 1 2 3 4 5 6 
#
# 1 104.6447 43.9790 51.6522 0.0000 18.6906 0.0000
# 2 43.9790 78.5522 78.5675 0.0000 20.8811 0.0000
# 3 51.6522 78.5675 153.4888 0.0000 12.1783 0.0000
# 4 0.0000 0.0000 0.0000 41.4228 0.0000 16.6252
# 5 18.6906 20.8811 12.1783 0.0000 32.9737 0.0000
# 6 0.0000 0.0000 0.0000 16.6252 0.0000 -22.2547
#
#
#
# Elastic Compliance Matrix: (Units=1/GPa)
#
#
# Indices 1 2 3 4 5 6 
#
# 1 0.013007 -0.004466 -0.001783 0.000000 -0.003886 0.000000
# 2 -0.004466 0.033147 -0.014422 0.000000 -0.013132 0.000000
# 3 -0.001783 -0.014422 0.014106 0.000000 0.004934 0.000000
# 4 0.000000 0.000000 0.000000 0.018573 0.000000 0.013875
# 5 -0.003886 -0.013132 0.004934 0.000000 0.039024 0.000000
# 6 0.000000 0.000000 0.000000 0.013875 0.000000 -0.034569
#
#
# Mechanical properties :
#
#
# Convention : Reuss Voigt Hill
#
# Bulk Modulus (GPa) = 52.86027 76.12035 64.49031
# Shear Modulus (GPa) = 38.18669 21.26081 29.72375
#
# Velocity S-wave (km/s) = 4.26060 3.17910 3.75895
# Velocity P-wave (km/s) = 7.02365 7.04704 7.03536
#
# Compressibility (1/GPa) = 0.01891780
#
# Stress axis : x y z
#
# Youngs Moduli (GPa) = 76.88035 30.16879 70.89196
#
# Poissons Ratio (x) = 0.13474 0.12638
# Poissons Ratio (y) = 0.34337 1.02242
# Poissons Ratio (z) = 0.13705 0.43510
#
# Static dielectric constant tensor:
#      x y z
#    x 1.779510 0.000000 -0.012530 
#    y 0.000000 1.746270 0.000000 
#    z -0.012530 0.000000 1.751320 
# 
# From -- ./inp_files/16849.got.cif
#   From: 2010.05.17/outbox.cif.g08.bks.cpg/sg5_9_cif.got.tgz:16849.got - 2010.06.03 18:56:24.
