data_PCOD9120625
_publ_section_title
;
Structure prediction by ZEFSAII (Michael W. Deem and Ramdas Pophale) SiO2 
 PCOD9120625
Probable space group: C 2
;
_chemical_formula_sum "Si O2"
_cell_formula_units_Z 32
_cell_length_a 19.028545
_cell_length_b 14.981557
_cell_length_c 7.234535
_cell_angle_alpha 90.000000
_cell_angle_beta 137.644849
_cell_angle_gamma 90.000000
_cell_volume 1389.489493
_symmetry_space_group_name_H-M "C 2"
_symmetry_group_IT_number 5
_symmetry_cell_setting 'monoclinic'
loop_
_space_group_symop_operation_xyz
x,y,z
-x,y,-z
1/2+x,1/2+y,z
1/2-x,1/2+y,-z
loop_
_atom_site_type_symbol
_atom_site_label
_atom_site_fract_x
_atom_site_fract_y
_atom_site_fract_z
Si Si1 0.466827 0.060860 0.218161
Si Si2 0.701346 0.488612 0.192990
Si Si3 0.572309 0.859698 0.902972
Si Si4 0.171152 0.660156 0.543107
Si Si5 0.646715 0.842901 0.632080
Si Si6 0.702454 0.347726 0.523146
Si Si7 0.342178 0.224729 0.055869
Si Si8 0.992175 0.880890 0.210968
O O1 0.500000 0.051335 0.500000
O O2 0.568045 0.101325 0.317729
O O3 0.373809 0.131203 0.028580
O O4 0.433637 0.965750 0.081806
O O5 0.732432 0.591120 0.280410
O O6 0.793459 0.438589 0.258752
O O7 0.705829 0.428294 0.385665
O O8 0.584568 0.464252 0.894507
O O9 0.601060 0.838244 0.747344
O O10 0.451976 0.831353 0.695645
O O11 0.677345 0.828117 0.201590
O O12 0.165212 0.747320 0.403447
O O13 0.167791 0.701881 0.744839
O O14 0.735514 0.769379 0.782683
O O15 0.614848 0.381650 0.501000
O O16 0.433602 0.295642 0.184177
O O17 0.000000 0.873976 0.000000
#
# Coordination Sequence:
#
# PCOD9120625 Si02
#       8
#     4   4   4   4   4   4   4   4
#     4  10  18  33  59  90 119 154 207 270 317 366
#     4  10  22  42  63  89 134 175 211 274 336 381
#     4  11  20  37  61  91 128 163 211 274 325 389
#     4  11  20  38  65  94 121 171 228 266 323 390
#     4  10  19  37  60  88 129 168 201 265 337 381
#     4  11  23  40  64  94 128 170 223 270 320 395
#     4  10  19  34  66  95 117 165 224 262 315 391
#     4   9  20  40  64  91 133 168 212 267 334 389
#
# _framework density 23.030041000000001
#
# number of rings (size 3 to 8) (size 9 to 14) (size 15 to 20)
#    0.000    1.750    5.000    0.750    0.000    0.500 
#    6.750    1.250    5.500    0.000    0.000    0.000 
#    0.000    0.000    0.000    0.000    0.000    0.000 
#
# Total GULP energy -89281.472295 kJ/mol
# GULP energy per Si atom -5580.092018 kJ/mol
# Density = 2.297762 g / cm^3
# Si number density = 23.030041 Si / 1000 Ang^3
#
#
#
# Elastic Constant Matrix: (Units=GPa)
#
#
# Indices 1 2 3 4 5 6 
#
# 1 110.0607 24.3981 31.2557 0.0000 24.5269 0.0000
# 2 24.3981 91.7361 16.6069 0.0000 16.5609 0.0000
# 3 31.2557 16.6069 71.2895 0.0000 30.4160 0.0000
# 4 0.0000 0.0000 0.0000 35.7873 0.0000 11.8607
# 5 24.5269 16.5609 30.4160 0.0000 37.3226 0.0000
# 6 0.0000 0.0000 0.0000 11.8607 0.0000 35.8324
#
#
#
# Elastic Compliance Matrix: (Units=1/GPa)
#
#
# Indices 1 2 3 4 5 6 
#
# 1 0.011201 -0.001698 -0.002600 0.000000 -0.004488 0.000000
# 2 -0.001698 0.012137 -0.000400 0.000000 -0.003943 0.000000
# 3 -0.002600 -0.000400 0.022161 0.000000 -0.016174 0.000000
# 4 0.000000 0.000000 0.000000 0.031386 0.000000 -0.010389
# 5 -0.004488 -0.003943 -0.016174 0.000000 0.044673 0.000000
# 6 0.000000 0.000000 0.000000 -0.010389 0.000000 0.031346
#
#
# Mechanical properties :
#
#
# Convention : Reuss Voigt Hill
#
# Bulk Modulus (GPa) = 27.69988 46.40086 37.05037
# Shear Modulus (GPa) = 28.68022 35.17684 31.92853
#
# Velocity S-wave (km/s) = 3.53277 3.91248 3.72746
# Velocity P-wave (km/s) = 5.35672 6.37195 5.88626
#
# Compressibility (1/GPa) = 0.03610124
#
# Stress axis : x y z
#
# Youngs Moduli (GPa) = 89.27796 82.39423 45.12377
#
# Poissons Ratio (x) = 0.13991 0.11734
# Poissons Ratio (y) = 0.15160 0.01807
# Poissons Ratio (z) = 0.23216 0.03299
#
# Static dielectric constant tensor:
#      x y z
#    x 2.096770 0.000000 -0.018740 
#    y 0.000000 1.795820 0.000000 
#    z -0.018740 0.000000 2.032940 
# 
# From -- ./inp_files/29819.got.cif
#   From: 2010.05.17/outbox.cif.g08.bks.cpg/sg5_15_cif.got.tgz:29819.got - 2010.06.03 18:56:24.
