data_PCOD9120697
_publ_section_title
;
Structure prediction by ZEFSAII (Michael W. Deem and Ramdas Pophale) SiO2 
 PCOD9120697
Probable space group: C 2
;
_chemical_formula_sum "Si O2"
_cell_formula_units_Z 24
_cell_length_a 17.962302
_cell_length_b 12.127111
_cell_length_c 13.188962
_cell_angle_alpha 90.000000
_cell_angle_beta 158.781328
_cell_angle_gamma 90.000000
_cell_volume 1039.806690
_symmetry_space_group_name_H-M "C 2"
_symmetry_group_IT_number 5
_symmetry_cell_setting 'monoclinic'
loop_
_space_group_symop_operation_xyz
x,y,z
-x,y,-z
1/2+x,1/2+y,z
1/2-x,1/2+y,-z
loop_
_atom_site_type_symbol
_atom_site_label
_atom_site_fract_x
_atom_site_fract_y
_atom_site_fract_z
Si Si1 0.182986 0.380090 0.312333
Si Si2 0.500000 0.202789 0.500000
Si Si3 0.174237 0.110347 0.479539
Si Si4 0.773553 0.278982 0.168222
Si Si5 0.877825 0.303839 0.085014
Si Si6 0.933867 0.655966 0.632457
Si Si7 0.500000 0.272904 0.000000
O O1 0.306790 0.491320 0.448249
O O2 0.339017 0.279426 0.507986
O O3 0.057800 0.372213 0.259855
O O4 0.000000 0.367120 0.000000
O O5 0.461572 0.128558 0.550537
O O6 0.686803 0.282874 0.768922
O O7 0.262646 0.093139 0.478525
O O8 0.967887 0.179715 0.214488
O O9 0.332261 0.192890 0.735759
O O10 0.811499 0.345000 0.111722
O O11 0.628128 0.330516 0.071813
O O12 0.000000 0.254016 0.500000
O O13 0.642940 0.171879 0.962962
#
# Coordination Sequence:
#
# PCOD9120697 Si02
#       7
#     4   2   4   4   4   4   2
#     4  11  20  38  64  93 122 161 214 265 307 364
#     4  10  18  38  60  86 122 172 208 250 314 388
#     4  10  20  35  62  91 121 158 207 261 311 362
#     4  10  19  36  62  87 122 165 204 253 315 378
#     4  10  21  37  64  92 126 168 207 256 323 371
#     4   9  21  36  61  88 121 159 207 256 310 370
#     4  10  18  34  58  98 116 148 202 264 312 362
#
# _framework density 23.081212000000001
#
# number of rings (size 3 to 8) (size 9 to 14) (size 15 to 20)
#    0.000    2.000    4.167    0.000    0.000    0.000 
#    0.000   11.667   18.333    0.000    0.000    0.000 
#    0.000    0.000    0.000    0.000    0.000    0.000 
#
# Total GULP energy -66922.544990 kJ/mol
# GULP energy per Si atom -5576.878749 kJ/mol
# Density = 2.302868 g / cm^3
# Si number density = 23.081212 Si / 1000 Ang^3
#
#
#
# Elastic Constant Matrix: (Units=GPa)
#
#
# Indices 1 2 3 4 5 6 
#
# 1 160.1710 -22.8861 16.6695 0.0006 1.4357 0.0001
# 2 -22.8861 37.0997 33.6576 0.0005 5.9256 0.0000
# 3 16.6695 33.6576 146.6617 0.0008 -4.9868 0.0004
# 4 0.0006 0.0005 0.0008 8.1891 0.0006 -3.8277
# 5 1.4357 5.9256 -4.9868 0.0006 36.4102 0.0002
# 6 0.0001 0.0000 0.0004 -3.8277 0.0002 -3.2313
#
#
#
# Elastic Compliance Matrix: (Units=1/GPa)
#
#
# Indices 1 2 3 4 5 6 
#
# 1 0.007580 0.007338 -0.002608 0.000000 -0.001850 0.000000
# 2 0.007338 0.042822 -0.010959 -0.000002 -0.008760 0.000000
# 3 -0.002608 -0.010959 0.009739 0.000000 0.003220 0.000001
# 4 0.000000 -0.000002 0.000000 0.078596 0.000000 -0.093103
# 5 -0.001850 -0.008760 0.003220 0.000000 0.029404 0.000003
# 6 0.000000 0.000000 0.000001 -0.093103 0.000003 -0.199184
#
#
# Mechanical properties :
#
#
# Convention : Reuss Voigt Hill
#
# Bulk Modulus (GPa) = 20.97228 44.31270 32.64249
# Shear Modulus (GPa) = -1859.88554 29.37302 -915.25626
#
# Velocity S-wave (km/s) = -28.41742 3.57121 -19.93485
# Velocity P-wave (km/s) = 32.67457 6.02039 22.70883
#
# Compressibility (1/GPa) = 0.04768198
#
# Stress axis : x y z
#
# Youngs Moduli (GPa) = 131.92897 23.35226 102.67543
#
# Poissons Ratio (x) = -0.17135 0.26782
# Poissons Ratio (y) = -0.96806 1.12524
# Poissons Ratio (z) = 0.34412 0.25592
#
# Static dielectric constant tensor:
#      x y z
#    x 2.004430 0.000000 -0.014800 
#    y 0.000000 1.814840 0.000000 
#    z -0.014800 0.000000 1.864570 
# 
# From -- ./inp_files/57071.got.cif
#   From: 2010.05.17/outbox.cif.g08.bks.cpg/sg5_29_cif.got.tgz:57071.got - 2010.06.03 18:56:24.
