data_PCOD9120170
_publ_section_title
;
Structure prediction by ZEFSAII (Michael W. Deem and Ramdas Pophale) SiO2 
 PCOD9120170
Probable space group: C 2
;
_chemical_formula_sum "Si O2"
_cell_formula_units_Z 24
_cell_length_a 22.847782
_cell_length_b 5.715340
_cell_length_c 7.023949
_cell_angle_alpha 90.000000
_cell_angle_beta 115.210759
_cell_angle_gamma 90.000000
_cell_volume 829.840562
_symmetry_space_group_name_H-M "C 2"
_symmetry_group_IT_number 5
_symmetry_cell_setting 'monoclinic'
loop_
_space_group_symop_operation_xyz
x,y,z
-x,y,-z
1/2+x,1/2+y,z
1/2-x,1/2+y,-z
loop_
_atom_site_type_symbol
_atom_site_label
_atom_site_fract_x
_atom_site_fract_y
_atom_site_fract_z
Si Si1 0.758416 0.458090 0.405361
Si Si2 0.572939 0.958089 0.015437
Si Si3 0.097773 0.458089 0.586794
Si Si4 0.925888 0.958089 0.964564
Si Si5 0.284034 0.458088 0.036284
Si Si6 0.916735 0.958090 0.404297
O O1 0.750000 0.708091 0.499999
O O2 0.829047 0.458089 0.395173
O O3 0.701917 0.458088 0.167513
O O4 0.600429 0.713576 0.126661
O O5 0.600429 0.202603 0.126661
O O6 0.500000 0.958089 0.000000
O O7 0.590494 0.958089 0.810506
O O8 0.065724 0.706350 0.486105
O O9 0.065724 0.209829 0.486106
O O10 0.000000 0.958090 0.000000
O O11 0.934314 0.958089 0.206187
O O12 0.250000 0.708088 1.000000
O O13 0.339089 0.458089 0.270888
#
# Coordination Sequence:
#
# PCOD9120170 Si02
#       6
#     4   4   4   4   4   4
#     4  12  24  36  50  74 109 145 182 214 258 317
#     4   8  14  24  41  66  95 120 152 203 265 300
#     4  10  18  31  49  70 101 133 165 215 259 302
#     4   8  14  23  39  66  99 118 143 201 264 303
#     4  12  21  36  55  74 100 143 180 224 263 302
#     4  10  17  30  50  72  95 130 171 209 266 299
#
# _framework density 28.921220000000002
#
# number of rings (size 3 to 8) (size 9 to 14) (size 15 to 20)
#    0.000    2.000    3.333    2.000    0.000    0.000 
#    0.000    0.000    0.000    0.000    0.000    0.000 
#    0.000  128.000    0.000    0.000    0.000    0.000 
#
# Total GULP energy -66977.121738 kJ/mol
# GULP energy per Si atom -5581.426811 kJ/mol
# Density = 2.885539 g / cm^3
# Si number density = 28.921220 Si / 1000 Ang^3
#
#
#
# Elastic Constant Matrix: (Units=GPa)
#
#
# Indices 1 2 3 4 5 6 
#
# 1 124.4236 49.0103 5.8072 0.0000 -23.3012 0.0000
# 2 49.0103 398.7030 40.3191 0.0000 3.0567 0.0000
# 3 5.8072 40.3191 129.4709 0.0000 -37.4341 0.0000
# 4 0.0000 0.0000 0.0000 22.0446 0.0000 -23.4499
# 5 -23.3012 3.0567 -37.4341 0.0000 53.7016 0.0000
# 6 0.0000 0.0000 0.0000 -23.4499 0.0000 47.1259
#
#
#
# Elastic Compliance Matrix: (Units=1/GPa)
#
#
# Indices 1 2 3 4 5 6 
#
# 1 0.009485 -0.001359 0.001516 0.000000 0.005249 0.000000
# 2 -0.001359 0.002819 -0.001295 0.000000 -0.001653 0.000000
# 3 0.001516 -0.001295 0.010358 0.000000 0.007952 0.000000
# 4 0.000000 0.000000 0.000000 0.096378 0.000000 0.047958
# 5 0.005249 -0.001653 0.007952 0.000000 0.026536 0.000000
# 6 0.000000 0.000000 0.000000 0.047958 0.000000 0.045084
#
#
# Mechanical properties :
#
#
# Convention : Reuss Voigt Hill
#
# Bulk Modulus (GPa) = 49.05613 93.65229 71.35421
# Shear Modulus (GPa) = 25.03367 61.73846 43.38606
#
# Velocity S-wave (km/s) = 2.94527 4.62531 3.87737
# Velocity P-wave (km/s) = 5.34462 7.80876 6.69110
#
# Compressibility (1/GPa) = 0.02038481
#
# Stress axis : x y z
#
# Youngs Moduli (GPa) = 105.43093 354.75529 96.54319
#
# Poissons Ratio (x) = 0.48227 -0.14633
# Poissons Ratio (y) = 0.14333 0.12500
# Poissons Ratio (z) = -0.15980 0.45932
#
# Static dielectric constant tensor:
#      x y z
#    x 2.102200 0.000000 0.278640 
#    y 0.000000 2.158750 0.000000 
#    z 0.278640 0.000000 1.760950 
# 
# From -- ./inp_files/31260.got.cif
#   From: 2010.05.17/outbox.cif.g08.bks.cpg/sg5_16_cif.got.tgz:31260.got - 2010.06.03 18:56:24.
