data_PCOD9120670
_publ_section_title
;
Structure prediction by ZEFSAII (Michael W. Deem and Ramdas Pophale) SiO2 
 PCOD9120670
Probable space group: C 2
;
_chemical_formula_sum "Si O2"
_cell_formula_units_Z 28
_cell_length_a 12.453085
_cell_length_b 9.089430
_cell_length_c 13.716019
_cell_angle_alpha 90.000000
_cell_angle_beta 129.536820
_cell_angle_gamma 90.000000
_cell_volume 1197.340079
_symmetry_space_group_name_H-M "C 2"
_symmetry_group_IT_number 5
_symmetry_cell_setting 'monoclinic'
loop_
_space_group_symop_operation_xyz
x,y,z
-x,y,-z
1/2+x,1/2+y,z
1/2-x,1/2+y,-z
loop_
_atom_site_type_symbol
_atom_site_label
_atom_site_fract_x
_atom_site_fract_y
_atom_site_fract_z
Si Si1 0.562104 0.908010 0.207877
Si Si2 0.279809 0.156240 0.613667
Si Si3 0.500000 0.084131 0.000000
Si Si4 0.552104 0.619188 0.825157
Si Si5 0.728938 0.276419 0.174621
Si Si6 0.024475 0.832167 0.692360
Si Si7 0.786699 0.569689 0.119868
Si Si8 0.500000 0.527682 0.500000
O O1 0.567468 0.734318 0.215937
O O2 0.651204 0.994549 0.338771
O O3 0.590903 0.974451 0.118464
O O4 0.404252 0.972861 0.130204
O O5 0.303073 0.229285 0.733852
O O6 0.373674 0.252436 0.595868
O O7 0.116105 0.126950 0.513395
O O8 0.616197 0.203632 0.035844
O O9 0.628909 0.701159 0.779020
O O10 0.513914 0.457745 0.768555
O O11 0.659864 0.611330 0.976837
O O12 0.733454 0.450664 0.167146
O O13 0.134164 0.708694 0.788912
O O14 0.065053 0.918920 0.618199
#
# Coordination Sequence:
#
# PCOD9120670 Si02
#       8
#     4   4   2   4   4   4   4   2
#     4   9  20  35  62  93 136 172 225 275 338 415
#     4  10  24  47  68  94 131 182 237 295 345 408
#     4  10  18  34  56  94 136 184 220 270 330 420
#     4  11  20  38  68  99 139 184 215 277 352 426
#     4  10  20  38  63  91 138 180 224 280 349 407
#     4  11  25  47  70 104 138 177 239 287 349 418
#     4  10  21  37  64 104 138 179 221 274 348 431
#     4  12  26  52  76  92 138 192 236 302 354 394
#
# _framework density 23.385169000000001
#
# number of rings (size 3 to 8) (size 9 to 14) (size 15 to 20)
#    0.000    1.714    2.857    1.714    4.000    1.143 
#   10.286    0.000    0.000    0.000    0.000    0.000 
#    0.000    0.000    0.000    0.000    0.000    0.000 
#
# Total GULP energy -78153.378227 kJ/mol
# GULP energy per Si atom -5582.384159 kJ/mol
# Density = 2.333194 g / cm^3
# Si number density = 23.385169 Si / 1000 Ang^3
#
#
#
# Elastic Constant Matrix: (Units=GPa)
#
#
# Indices 1 2 3 4 5 6 
#
# 1 34.9801 27.9588 3.3633 0.0000 12.4443 0.0000
# 2 27.9588 177.9751 36.2777 0.0000 8.1228 0.0000
# 3 3.3633 36.2777 55.2805 0.0000 6.9164 0.0000
# 4 0.0000 0.0000 0.0000 20.4545 0.0000 6.3484
# 5 12.4443 8.1228 6.9164 0.0000 27.8915 0.0000
# 6 0.0000 0.0000 0.0000 6.3484 0.0000 35.1034
#
#
#
# Elastic Compliance Matrix: (Units=1/GPa)
#
#
# Indices 1 2 3 4 5 6 
#
# 1 0.039018 -0.006133 0.003721 0.000000 -0.016545 0.000000
# 2 -0.006133 0.007470 -0.004747 0.000000 0.001738 0.000000
# 3 0.003721 -0.004747 0.021686 0.000000 -0.005655 0.000000
# 4 0.000000 0.000000 0.000000 0.051796 0.000000 -0.009367
# 5 -0.016545 0.001738 -0.005655 0.000000 0.044131 0.000000
# 6 0.000000 0.000000 0.000000 -0.009367 0.000000 0.030181
#
#
# Mechanical properties :
#
#
# Convention : Reuss Voigt Hill
#
# Bulk Modulus (GPa) = 18.56788 44.82613 31.69701
# Shear Modulus (GPa) = 22.06994 30.06560 26.06777
#
# Velocity S-wave (km/s) = 3.07540 3.58951 3.34236
# Velocity P-wave (km/s) = 4.53520 6.03239 5.33656
#
# Compressibility (1/GPa) = 0.05385643
#
# Stress axis : x y z
#
# Youngs Moduli (GPa) = 25.62943 133.86113 46.11315
#
# Poissons Ratio (x) = 0.82094 -0.17158
# Poissons Ratio (y) = 0.15718 0.21889
# Poissons Ratio (z) = -0.09536 0.63540
#
# Static dielectric constant tensor:
#      x y z
#    x 2.048420 0.000000 -0.039370 
#    y 0.000000 1.869300 0.000000 
#    z -0.039370 0.000000 1.932890 
# 
# From -- ./inp_files/47962.got.cif
#   From: 2010.05.17/outbox.cif.g08.bks.cpg/sg5_24_cif.got.tgz:47962.got - 2010.06.03 18:56:24.
