data_PCOD9120882
_publ_section_title
;
Structure prediction by ZEFSAII (Michael W. Deem and Ramdas Pophale) SiO2 
 PCOD9120882
Probable space group: C 2
;
_chemical_formula_sum "Si O2"
_cell_formula_units_Z 26
_cell_length_a 15.307203
_cell_length_b 7.430670
_cell_length_c 20.254253
_cell_angle_alpha 90.000000
_cell_angle_beta 150.549555
_cell_angle_gamma 90.000000
_cell_volume 1132.698416
_symmetry_space_group_name_H-M "C 2"
_symmetry_group_IT_number 5
_symmetry_cell_setting 'monoclinic'
loop_
_space_group_symop_operation_xyz
x,y,z
-x,y,-z
1/2+x,1/2+y,z
1/2-x,1/2+y,-z
loop_
_atom_site_type_symbol
_atom_site_label
_atom_site_fract_x
_atom_site_fract_y
_atom_site_fract_z
Si Si1 0.954594 0.764140 0.321994
Si Si2 0.288024 0.802940 0.627930
Si Si3 0.000000 0.566812 0.000000
Si Si4 0.008765 0.611891 0.212899
Si Si5 0.118828 0.137918 0.784565
Si Si6 0.901209 0.227487 0.846763
Si Si7 0.645554 0.459730 0.947415
O O1 0.997250 0.692988 0.277989
O O2 0.766789 0.682646 0.219242
O O3 0.109097 0.737647 0.476571
O O4 0.932594 0.978704 0.299408
O O5 0.447774 0.766454 0.680267
O O6 0.325601 0.711680 0.722663
O O7 0.304060 0.010257 0.662520
O O8 0.178424 0.681817 0.103755
O O9 0.032884 0.422649 0.082283
O O10 0.957675 0.771923 0.129251
O O11 0.855303 0.459810 0.100942
O O12 0.135643 0.048684 0.868323
O O13 0.061913 0.088319 0.947810
#
# Coordination Sequence:
#
# PCOD9120882 Si02
#       7
#     4   4   2   4   4   4   4
#     4  10  21  38  58  86 120 160 201 245 300 367
#     4  11  21  37  58  86 120 165 201 236 300 372
#     4  10  18  36  60  92 120 150 198 258 316 352
#     4  11  22  36  62  88 122 161 204 259 305 368
#     4   9  19  34  58  81 114 152 192 244 295 359
#     4  10  20  35  61  85 117 157 200 252 302 362
#     4  10  19  36  57  89 118 154 202 249 314 356
#
# _framework density 22.954035999999999
#
# number of rings (size 3 to 8) (size 9 to 14) (size 15 to 20)
#    0.000    1.846    0.000    6.923    0.000    0.000 
#    0.000    6.154    0.000   10.154    0.000    0.000 
#    0.000    0.000    0.000    0.000    0.000    0.000 
#
# Total GULP energy -72504.385259 kJ/mol
# GULP energy per Si atom -5577.260405 kJ/mol
# Density = 2.290179 g / cm^3
# Si number density = 22.954036 Si / 1000 Ang^3
#
#
#
# Elastic Constant Matrix: (Units=GPa)
#
#
# Indices 1 2 3 4 5 6 
#
# 1 57.8250 1.9500 25.4172 0.0000 0.3486 0.0000
# 2 1.9500 45.3018 -0.9638 0.0000 0.5709 0.0000
# 3 25.4172 -0.9638 90.6463 0.0000 -17.2436 0.0000
# 4 0.0000 0.0000 0.0000 24.3298 0.0000 2.1460
# 5 0.3486 0.5709 -17.2436 0.0000 35.7031 0.0000
# 6 0.0000 0.0000 0.0000 2.1460 0.0000 25.4855
#
#
#
# Elastic Compliance Matrix: (Units=1/GPa)
#
#
# Indices 1 2 3 4 5 6 
#
# 1 0.020094 -0.000958 -0.006253 0.000000 -0.003201 0.000000
# 2 -0.000958 0.022127 0.000483 0.000000 -0.000111 0.000000
# 3 -0.006253 0.000483 0.014096 0.000000 0.006861 0.000000
# 4 0.000000 0.000000 0.000000 0.041409 0.000000 -0.003487
# 5 -0.003201 -0.000111 0.006861 0.000000 0.031355 0.000000
# 6 0.000000 0.000000 0.000000 -0.003487 0.000000 0.039532
#
#
# Mechanical properties :
#
#
# Convention : Reuss Voigt Hill
#
# Bulk Modulus (GPa) = 23.33198 27.39778 25.36488
# Shear Modulus (GPa) = 25.46389 28.26169 26.86279
#
# Velocity S-wave (km/s) = 3.33429 3.51269 3.42466
# Velocity P-wave (km/s) = 5.00101 5.33047 5.16836
#
# Compressibility (1/GPa) = 0.04285964
#
# Stress axis : x y z
#
# Youngs Moduli (GPa) = 49.76645 45.19355 70.94377
#
# Poissons Ratio (x) = 0.04328 0.44364
# Poissons Ratio (y) = 0.04766 -0.03424
# Poissons Ratio (z) = 0.31121 -0.02181
#
# Static dielectric constant tensor:
#      x y z
#    x 1.883630 0.000000 0.022550 
#    y 0.000000 1.956040 0.000000 
#    z 0.022550 0.000000 1.844760 
# 
# From -- ./inp_files/56783.got.cif
#   From: 2010.05.17/outbox.cif.g08.bks.cpg/sg5_29_cif.got.tgz:56783.got - 2010.06.03 18:56:24.
