data_PCOD9120031
_publ_section_title
;
Structure prediction by ZEFSAII (Michael W. Deem and Ramdas Pophale) SiO2 
 PCOD9120031
Probable space group: C 2
;
_chemical_formula_sum "Si O2"
_cell_formula_units_Z 26
_cell_length_a 19.503204
_cell_length_b 8.124974
_cell_length_c 8.394584
_cell_angle_alpha 90.000000
_cell_angle_beta 55.814921
_cell_angle_gamma 90.000000
_cell_volume 1100.403046
_symmetry_space_group_name_H-M "C 2"
_symmetry_group_IT_number 5
_symmetry_cell_setting 'monoclinic'
loop_
_space_group_symop_operation_xyz
x,y,z
-x,y,-z
1/2+x,1/2+y,z
1/2-x,1/2+y,-z
loop_
_atom_site_type_symbol
_atom_site_label
_atom_site_fract_x
_atom_site_fract_y
_atom_site_fract_z
Si Si1 0.229828 0.678750 0.451842
Si Si2 0.865070 0.374038 0.090880
Si Si3 0.222577 0.116647 0.249445
Si Si4 0.592316 0.429365 0.581749
Si Si5 0.532145 0.772489 0.746162
Si Si6 0.000000 0.683343 0.500000
Si Si7 0.637978 0.929571 0.347572
O O1 0.295090 0.748358 0.240254
O O2 0.270602 0.645163 0.567957
O O3 0.160324 0.815736 0.577908
O O4 0.190246 0.523731 0.416125
O O5 0.810122 0.527643 0.100319
O O6 0.920639 0.382720 0.181439
O O7 0.934653 0.306841 0.881447
O O8 0.199977 0.289934 0.195974
O O9 0.142473 0.996125 0.358102
O O10 0.554077 0.579398 0.732054
O O11 0.523681 0.301727 0.613720
O O12 0.570212 0.822541 0.529762
O O13 0.080435 0.573360 0.350938
#
# Coordination Sequence:
#
# PCOD9120031 Si02
#       7
#     4   4   4   4   4   2   4
#     4  10  16  32  56  83 113 146 181 233 277 352
#     4  10  19  31  53  85 124 140 175 222 309 351
#     4  10  17  31  56  83 112 150 181 234 280 349
#     4   9  19  33  56  80 113 147 198 231 276 320
#     4  10  19  33  53  84 119 152 169 238 292 346
#     4  10  22  36  56  82 108 154 208 246 252 326
#     4  10  19  34  58  80 112 150 193 228 280 327
#
# _framework density 23.627706
#
# number of rings (size 3 to 8) (size 9 to 14) (size 15 to 20)
#    0.000    2.154    4.615    0.923    0.000    2.462 
#    0.000    3.077    0.000   22.154    0.000    0.000 
#    0.000    0.000    0.000    0.000    0.000    0.000 
#
# Total GULP energy -72473.466820 kJ/mol
# GULP energy per Si atom -5574.882063 kJ/mol
# Density = 2.357393 g / cm^3
# Si number density = 23.627706 Si / 1000 Ang^3
#
#
#
# Elastic Constant Matrix: (Units=GPa)
#
#
# Indices 1 2 3 4 5 6 
#
# 1 101.8458 54.1574 21.0676 0.0000 -32.8153 0.0000
# 2 54.1574 126.1725 37.1685 0.0000 -32.9231 0.0000
# 3 21.0676 37.1685 102.7245 0.0000 -36.1275 0.0000
# 4 0.0000 0.0000 0.0000 24.5867 0.0000 -16.3323
# 5 -32.8153 -32.9231 -36.1275 0.0000 32.5927 0.0000
# 6 0.0000 0.0000 0.0000 -16.3323 0.0000 45.6233
#
#
#
# Elastic Compliance Matrix: (Units=1/GPa)
#
#
# Indices 1 2 3 4 5 6 
#
# 1 0.016600 -0.003783 0.004094 0.000000 0.017430 0.000000
# 2 -0.003783 0.011625 -0.001049 0.000000 0.006772 0.000000
# 3 0.004094 -0.001049 0.016966 0.000000 0.021868 0.000000
# 4 0.000000 0.000000 0.000000 0.053362 0.000000 0.019102
# 5 0.017430 0.006772 0.021868 0.000000 0.079311 0.000000
# 6 0.000000 0.000000 0.000000 0.019102 0.000000 0.028757
#
#
# Mechanical properties :
#
#
# Convention : Reuss Voigt Hill
#
# Bulk Modulus (GPa) = 22.87534 61.72553 42.30044
# Shear Modulus (GPa) = 22.45504 35.11715 28.78610
#
# Velocity S-wave (km/s) = 3.08615 3.85940 3.49423
# Velocity P-wave (km/s) = 4.73304 6.78534 5.84990
#
# Compressibility (1/GPa) = 0.04371519
#
# Stress axis : x y z
#
# Youngs Moduli (GPa) = 60.24273 86.01795 58.94301
#
# Poissons Ratio (x) = 0.32541 -0.24134
# Poissons Ratio (y) = 0.22790 0.06183
# Poissons Ratio (z) = -0.24666 0.09023
#
# Static dielectric constant tensor:
#      x y z
#    x 1.997150 0.000000 0.005350 
#    y 0.000000 1.960610 0.000000 
#    z 0.005350 0.000000 1.914850 
# 
# From -- ./inp_files/47173.got.cif
#   From: 2010.05.17/outbox.cif.g08.bks.cpg/sg5_24_cif.got.tgz:47173.got - 2010.06.03 18:56:24.
