data_PCOD9120454
_publ_section_title
;
Structure prediction by ZEFSAII (Michael W. Deem and Ramdas Pophale) SiO2 
 PCOD9120454
Probable space group: C 2
;
_chemical_formula_sum "Si O2"
_cell_formula_units_Z 24
_cell_length_a 8.763425
_cell_length_b 25.739831
_cell_length_c 5.571810
_cell_angle_alpha 90.000000
_cell_angle_beta 83.128712
_cell_angle_gamma 90.000000
_cell_volume 1247.800779
_symmetry_space_group_name_H-M "C 2"
_symmetry_group_IT_number 5
_symmetry_cell_setting 'monoclinic'
loop_
_space_group_symop_operation_xyz
x,y,z
-x,y,-z
1/2+x,1/2+y,z
1/2-x,1/2+y,-z
loop_
_atom_site_type_symbol
_atom_site_label
_atom_site_fract_x
_atom_site_fract_y
_atom_site_fract_z
Si Si1 0.000000 0.776800 0.000000
Si Si2 0.500000 0.590502 0.000000
Si Si3 0.500000 0.805801 0.000000
Si Si4 0.290115 0.744159 0.679903
Si Si5 0.500000 0.653739 0.500000
Si Si6 0.820665 0.950153 0.526788
Si Si7 0.289612 0.334337 0.675910
Si Si8 0.676255 0.488957 0.973094
O O1 0.930025 0.814673 0.811308
O O2 0.138888 0.742010 0.873736
O O3 0.492264 0.621951 0.251235
O O4 0.356160 0.550464 0.017865
O O5 0.573557 0.768495 0.186199
O O6 0.360492 0.839448 0.128080
O O7 0.351938 0.691335 0.555482
O O8 0.249062 0.787066 0.491464
O O9 0.817201 0.888006 0.536976
O O10 0.000000 0.968513 0.500000
O O11 0.751784 0.970844 0.290916
O O12 0.751933 0.970671 0.790567
O O13 0.500000 0.465369 0.000000
#
# Coordination Sequence:
#
# PCOD9120454 Si02
#       8
#     2   2   2   4   2   4   4   4
#     4  10  24  35  56  80 130 160 209 250 290 346
#     4  10  21  37  58  88 116 150 207 267 320 346
#     4  10  21  38  54  76 134 164 206 247 288 352
#     4  11  22  39  55  87 125 167 205 252 290 375
#     4  12  22  36  66  86 118 170 200 248 326 360
#     4  10  18  30  55  82 116 156 184 240 312 354
#     4  11  22  35  56  86 123 172 202 241 300 373
#     4   8  18  33  50  80 119 135 190 264 304 342
#
# _framework density 19.233839
#
# number of rings (size 3 to 8) (size 9 to 14) (size 15 to 20)
#    0.500    1.333    1.667    3.000   10.500    0.000 
#    0.000    0.000    0.000    0.000    0.000    7.000 
#    0.000    0.000    0.000    0.000    0.000    0.000 
#
# Total GULP energy -66905.738434 kJ/mol
# GULP energy per Si atom -5575.478203 kJ/mol
# Density = 1.919006 g / cm^3
# Si number density = 19.233839 Si / 1000 Ang^3
#
#
#
# Elastic Constant Matrix: (Units=GPa)
#
#
# Indices 1 2 3 4 5 6 
#
# 1 56.2546 21.3110 23.6882 0.0000 -2.3558 0.0000
# 2 21.3110 124.5405 84.0004 0.0000 1.5136 0.0000
# 3 23.6882 84.0004 178.1685 0.0000 15.1312 0.0000
# 4 0.0000 0.0000 0.0000 46.6691 0.0000 -10.2597
# 5 -2.3558 1.5136 15.1312 0.0000 33.7192 0.0000
# 6 0.0000 0.0000 0.0000 -10.2597 0.0000 30.0318
#
#
#
# Elastic Compliance Matrix: (Units=1/GPa)
#
#
# Indices 1 2 3 4 5 6 
#
# 1 0.019430 -0.002172 -0.001749 0.000000 0.002240 0.000000
# 2 -0.002172 0.012153 -0.005595 0.000000 0.001813 0.000000
# 3 -0.001749 -0.005595 0.008808 0.000000 -0.003823 0.000000
# 4 0.000000 0.000000 0.000000 0.023167 0.000000 0.007915
# 5 0.002240 0.001813 -0.003823 0.000000 0.031448 0.000000
# 6 0.000000 0.000000 0.000000 0.007915 0.000000 0.036002
#
#
# Mechanical properties :
#
#
# Convention : Reuss Voigt Hill
#
# Bulk Modulus (GPa) = 46.82181 68.55142 57.68661
# Shear Modulus (GPa) = 31.81497 37.41495 34.61496
#
# Velocity S-wave (km/s) = 4.07149 4.41530 4.24688
# Velocity P-wave (km/s) = 6.81902 7.85567 7.35563
#
# Compressibility (1/GPa) = 0.02135757
#
# Stress axis : x y z
#
# Youngs Moduli (GPa) = 51.46780 82.28578 113.53626
#
# Poissons Ratio (x) = 0.17872 0.19863
# Poissons Ratio (y) = 0.11179 0.63522
# Poissons Ratio (z) = 0.09004 0.46038
#
# Static dielectric constant tensor:
#      x y z
#    x 1.676780 0.000000 -0.037520 
#    y 0.000000 1.647740 0.000000 
#    z -0.037520 0.000000 1.748040 
# 
# From -- ./inp_files/3552.got.cif
#   From: 2010.05.17/outbox.cif.g08.bks.cpg/sg5_2_cif.got.tgz:3552.got - 2010.06.03 18:56:24.
