data_PCOD9120228
_publ_section_title
;
Structure prediction by ZEFSAII (Michael W. Deem and Ramdas Pophale) SiO2 
 PCOD9120228
Probable space group: C 2
;
_chemical_formula_sum "Si O2"
_cell_formula_units_Z 28
_cell_length_a 24.792876
_cell_length_b 7.864074
_cell_length_c 19.284299
_cell_angle_alpha 90.000000
_cell_angle_beta 18.957785
_cell_angle_gamma 90.000000
_cell_volume 1221.489840
_symmetry_space_group_name_H-M "C 2"
_symmetry_group_IT_number 5
_symmetry_cell_setting 'monoclinic'
loop_
_space_group_symop_operation_xyz
x,y,z
-x,y,-z
1/2+x,1/2+y,z
1/2-x,1/2+y,-z
loop_
_atom_site_type_symbol
_atom_site_label
_atom_site_fract_x
_atom_site_fract_y
_atom_site_fract_z
Si Si1 0.463390 0.506280 0.421478
Si Si2 0.997432 0.796232 0.174601
Si Si3 0.913343 0.329550 0.947461
Si Si4 0.257044 0.975509 0.442544
Si Si5 0.656753 0.139283 0.863260
Si Si6 0.901309 0.647853 0.685476
Si Si7 0.825587 0.572659 0.932069
O O1 0.335252 0.457321 0.517365
O O2 0.345601 0.636440 0.606703
O O3 0.520829 0.337792 0.393656
O O4 0.628361 0.580977 0.185137
O O5 0.883729 0.955027 0.328777
O O6 0.865228 0.645039 0.317860
O O7 0.093174 0.734110 0.127176
O O8 0.120741 0.791615 0.960344
O O9 0.882291 0.412041 0.909261
O O10 0.109125 0.324526 0.716584
O O11 0.855567 0.467542 0.075390
O O12 0.790210 0.174237 0.103091
O O13 0.500000 0.137033 0.000000
O O14 0.889209 0.563136 0.776193
O O15 0.000000 0.574222 0.500000
#
# Coordination Sequence:
#
# PCOD9120228 Si02
#       7
#     4   4   4   4   4   4   4
#     4  11  19  34  58  81 114 149 192 238 294 331
#     4  10  21  36  58  90 122 145 197 239 289 341
#     4   9  20  32  53  84 116 139 194 234 283 335
#     4  10  20  36  58  87 115 156 185 244 282 345
#     4  10  17  32  54  89 111 141 191 250 271 335
#     4  11  20  32  56  82 109 143 191 246 284 328
#     4   9  21  34  49  84 114 149 184 238 286 349
#
# _framework density 22.922827999999999
#
# number of rings (size 3 to 8) (size 9 to 14) (size 15 to 20)
#    0.000    2.286    5.714    0.000    2.000    0.000 
#    0.000    0.000    0.000    6.857    7.429    0.000 
#    0.000    0.000    0.000    0.000    0.000    0.000 
#
# Total GULP energy -78111.540715 kJ/mol
# GULP energy per Si atom -5579.395765 kJ/mol
# Density = 2.287065 g / cm^3
# Si number density = 22.922828 Si / 1000 Ang^3
#
#
#
# Elastic Constant Matrix: (Units=GPa)
#
#
# Indices 1 2 3 4 5 6 
#
# 1 123.7162 12.4459 62.2597 -0.0001 9.2699 0.0000
# 2 12.4459 44.8234 18.3531 -0.0002 3.3595 0.0000
# 3 62.2597 18.3531 167.4871 -0.0001 13.3796 0.0000
# 4 -0.0001 -0.0002 -0.0001 27.5079 0.0000 7.6194
# 5 9.2699 3.3595 13.3796 0.0000 53.2677 0.0000
# 6 0.0000 0.0000 0.0000 7.6194 0.0000 4.6020
#
#
#
# Elastic Compliance Matrix: (Units=1/GPa)
#
#
# Indices 1 2 3 4 5 6 
#
# 1 0.010048 -0.001285 -0.003532 0.000000 -0.000780 0.000000
# 2 -0.001285 0.023560 -0.002044 0.000000 -0.000749 -0.000001
# 3 -0.003532 -0.002044 0.007601 0.000000 -0.001166 0.000000
# 4 0.000000 0.000000 0.000000 0.067146 0.000000 -0.111171
# 5 -0.000780 -0.000749 -0.001166 0.000000 0.019249 0.000000
# 6 0.000000 -0.000001 0.000000 -0.111171 0.000000 0.401357
#
#
# Mechanical properties :
#
#
# Convention : Reuss Voigt Hill
#
# Bulk Modulus (GPa) = 36.38246 58.01603 47.19924
# Shear Modulus (GPa) = 9.06050 33.27340 21.16695
#
# Velocity S-wave (km/s) = 1.99027 3.81404 3.04205
# Velocity P-wave (km/s) = 4.60302 6.69030 5.74229
#
# Compressibility (1/GPa) = 0.02748578
#
# Stress axis : x y z
#
# Youngs Moduli (GPa) = 99.51943 42.44533 131.56757
#
# Poissons Ratio (x) = 0.05456 0.46470
# Poissons Ratio (y) = 0.12792 0.26893
# Poissons Ratio (z) = 0.35151 0.08676
#
# Static dielectric constant tensor:
#      x y z
#    x 1.867390 0.000000 0.037420 
#    y 0.000000 1.918400 0.000000 
#    z 0.037420 0.000000 1.918910 
# 
# From -- ./inp_files/63356.got.cif
#   From: 2010.05.17/outbox.cif.g08.bks.cpg/sg5_32_cif.got.tgz:63356.got - 2010.06.03 18:56:24.
