data_PCOD9120334
_publ_section_title
;
Structure prediction by ZEFSAII (Michael W. Deem and Ramdas Pophale) SiO2 
 PCOD9120334
Probable space group: C 2
;
_chemical_formula_sum "Si O2"
_cell_formula_units_Z 16
_cell_length_a 10.332512
_cell_length_b 9.683010
_cell_length_c 7.247452
_cell_angle_alpha 90.000000
_cell_angle_beta 62.273568
_cell_angle_gamma 90.000000
_cell_volume 641.848886
_symmetry_space_group_name_H-M "C 2"
_symmetry_group_IT_number 5
_symmetry_cell_setting 'monoclinic'
loop_
_space_group_symop_operation_xyz
x,y,z
-x,y,-z
1/2+x,1/2+y,z
1/2-x,1/2+y,-z
loop_
_atom_site_type_symbol
_atom_site_label
_atom_site_fract_x
_atom_site_fract_y
_atom_site_fract_z
Si Si1 0.179445 0.131640 0.170892
Si Si2 0.500000 0.154356 0.000000
Si Si3 0.629663 0.870399 0.518122
Si Si4 0.543971 0.380209 0.662441
Si Si5 0.500000 0.782255 0.000000
O O1 0.153602 0.237238 0.361904
O O2 0.137700 0.204738 0.005842
O O3 0.346602 0.079884 0.066131
O O4 0.066940 0.006444 0.247955
O O5 0.523389 0.260341 0.819986
O O6 0.500000 0.951221 0.500000
O O7 0.790034 0.934087 0.431098
O O8 0.428870 0.841733 0.237031
O O9 0.500000 0.314645 0.500000
#
# Coordination Sequence:
#
# PCOD9120334 Si02
#       5
#     4   2   4   4   2
#     4  10  21  38  62  95 129 161 207 259 305 369
#     4  10  23  42  63  92 128 162 205 258 307 366
#     4   9  20  37  60  91 127 162 205 258 306 366
#     4  11  21  38  64  92 124 166 207 251 313 370
#     4  10  17  36  63  84 118 168 203 250 315 360
#
# _framework density 24.927987000000002
#
# number of rings (size 3 to 8) (size 9 to 14) (size 15 to 20)
#    0.000    2.000    0.000    4.500    0.000    0.000 
#    0.000   12.500    0.000    7.500    0.000    0.000 
#    0.000    0.000    0.000    0.000    0.000    0.000 
#
# Total GULP energy -44683.448217 kJ/mol
# GULP energy per Si atom -5585.431027 kJ/mol
# Density = 2.487125 g / cm^3
# Si number density = 24.927987 Si / 1000 Ang^3
#
#
#
# Elastic Constant Matrix: (Units=GPa)
#
#
# Indices 1 2 3 4 5 6 
#
# 1 299.3622 57.1041 89.3262 0.0000 -20.5047 0.0000
# 2 57.1041 44.6326 22.1730 0.0000 3.5564 0.0000
# 3 89.3262 22.1730 152.7590 0.0000 31.0239 0.0000
# 4 0.0000 0.0000 0.0000 0.1921 0.0000 -7.0188
# 5 -20.5047 3.5564 31.0239 0.0000 58.8768 0.0000
# 6 0.0000 0.0000 0.0000 -7.0188 0.0000 48.8257
#
#
#
# Elastic Compliance Matrix: (Units=1/GPa)
#
#
# Indices 1 2 3 4 5 6 
#
# 1 0.005776 -0.006061 -0.003338 0.000000 0.004136 0.000000
# 2 -0.006061 0.030517 -0.000092 0.000000 -0.003906 0.000000
# 3 -0.003338 -0.000092 0.009794 0.000000 -0.006318 0.000000
# 4 0.000000 0.000000 0.000000 -1.224148 0.000000 -0.175974
# 5 0.004136 -0.003906 -0.006318 0.000000 0.021990 0.000000
# 6 0.000000 0.000000 0.000000 -0.175974 0.000000 -0.004816
#
#
# Mechanical properties :
#
#
# Convention : Reuss Voigt Hill
#
# Bulk Modulus (GPa) = 36.89304 92.66229 64.77766
# Shear Modulus (GPa) = -4.41357 43.45562 19.52102
#
# Velocity S-wave (km/s) = -1.33206 4.17975 2.80142
# Velocity P-wave (km/s) = 3.53074 7.78116 6.04204
#
# Compressibility (1/GPa) = 0.02710538
#
# Stress axis : x y z
#
# Youngs Moduli (GPa) = 173.13289 32.76862 102.09850
#
# Poissons Ratio (x) = 0.19862 0.34078
# Poissons Ratio (y) = 1.04941 0.00939
# Poissons Ratio (z) = 0.57787 0.00301
#
# Static dielectric constant tensor:
#      x y z
#    x 2.013950 0.000000 0.040050 
#    y 0.000000 2.076910 0.000000 
#    z 0.040050 0.000000 2.113290 
# 
# From -- ./inp_files/13787.got.cif
#   From: 2010.05.17/outbox.cif.g08.bks.cpg/sg5_7_cif.got.tgz:13787.got - 2010.06.03 18:56:24.
