data_PCOD9120257
_publ_section_title
;
Structure prediction by ZEFSAII (Michael W. Deem and Ramdas Pophale) SiO2 
 PCOD9120257
Probable space group: C 2
;
_chemical_formula_sum "Si O2"
_cell_formula_units_Z 28
_cell_length_a 12.595259
_cell_length_b 7.751542
_cell_length_c 13.958093
_cell_angle_alpha 90.000000
_cell_angle_beta 67.205901
_cell_angle_gamma 90.000000
_cell_volume 1256.338156
_symmetry_space_group_name_H-M "C 2"
_symmetry_group_IT_number 5
_symmetry_cell_setting 'monoclinic'
loop_
_space_group_symop_operation_xyz
x,y,z
-x,y,-z
1/2+x,1/2+y,z
1/2-x,1/2+y,-z
loop_
_atom_site_type_symbol
_atom_site_label
_atom_site_fract_x
_atom_site_fract_y
_atom_site_fract_z
Si Si1 0.099399 0.392870 0.263752
Si Si2 0.206585 0.076237 0.675410
Si Si3 0.793598 0.679620 0.109774
Si Si4 0.483501 0.573849 0.392715
Si Si5 0.367403 0.188404 0.877478
Si Si6 0.470019 0.478017 0.107522
Si Si7 0.283166 0.383362 0.741588
O O1 0.190881 0.460242 0.313722
O O2 0.171943 0.275383 0.163742
O O3 0.008966 0.267890 0.345369
O O4 0.059397 0.553240 0.211794
O O5 0.250703 0.272573 0.660647
O O6 0.143348 0.020627 0.600046
O O7 0.098089 0.072754 0.786331
O O8 0.887241 0.823981 0.100024
O O9 0.793542 0.539819 0.194250
O O10 0.818563 0.613547 0.993827
O O11 0.500000 0.571900 0.500000
O O12 0.586805 0.453100 0.316480
O O13 0.425564 0.369775 0.884537
O O14 0.274183 0.246138 0.832152
O O15 0.500000 0.579305 0.000000
#
# Coordination Sequence:
#
# PCOD9120257 Si02
#       7
#     4   4   4   4   4   4   4
#     4   9  21  37  58  86 118 157 194 238 298 349
#     4  10  21  41  60  85 125 150 194 248 288 352
#     4   9  18  32  53  85 121 159 191 233 280 349
#     4  11  24  43  63  84 115 152 202 256 301 342
#     4  10  17  33  56  83 123 155 195 234 286 348
#     4   9  18  33  54  85 125 161 187 231 288 347
#     4  10  21  37  59  88 114 158 198 237 297 352
#
# _framework density 22.286992999999999
#
# number of rings (size 3 to 8) (size 9 to 14) (size 15 to 20)
#    0.000    2.286    1.429    0.857    2.000    2.286 
#    2.571    2.857    0.000    0.000    0.000    0.000 
#    0.000    0.000    0.000    0.000    0.000    0.000 
#
# Total GULP energy -78009.548731 kJ/mol
# GULP energy per Si atom -5572.110624 kJ/mol
# Density = 2.223627 g / cm^3
# Si number density = 22.286993 Si / 1000 Ang^3
#
#
#
# Elastic Constant Matrix: (Units=GPa)
#
#
# Indices 1 2 3 4 5 6 
#
# 1 75.1866 8.9748 13.6310 0.0000 17.8498 0.0000
# 2 8.9748 54.6268 10.0787 0.0000 5.0748 0.0000
# 3 13.6310 10.0787 64.7684 0.0000 26.8290 0.0000
# 4 0.0000 0.0000 0.0000 12.0242 0.0000 -0.7210
# 5 17.8498 5.0748 26.8290 0.0000 25.7893 0.0000
# 6 0.0000 0.0000 0.0000 -0.7210 0.0000 18.2769
#
#
#
# Elastic Compliance Matrix: (Units=1/GPa)
#
#
# Indices 1 2 3 4 5 6 
#
# 1 0.016269 -0.001874 0.002424 0.000000 -0.013413 0.000000
# 2 -0.001874 0.019083 -0.002736 0.000000 0.000388 0.000000
# 3 0.002424 -0.002736 0.027812 0.000000 -0.030073 0.000000
# 4 0.000000 0.000000 0.000000 0.083363 0.000000 0.003288
# 5 -0.013413 0.000388 -0.030073 0.000000 0.079269 0.000000
# 6 0.000000 0.000000 0.000000 0.003288 0.000000 0.054844
#
#
# Mechanical properties :
#
#
# Convention : Reuss Voigt Hill
#
# Bulk Modulus (GPa) = 17.00918 28.88341 22.94629
# Shear Modulus (GPa) = 16.41453 22.01123 19.21288
#
# Velocity S-wave (km/s) = 2.71681 3.14606 2.93928
# Velocity P-wave (km/s) = 4.18209 5.11711 4.67305
#
# Compressibility (1/GPa) = 0.05879178
#
# Stress axis : x y z
#
# Youngs Moduli (GPa) = 61.46712 52.40374 35.95524
#
# Poissons Ratio (x) = 0.09820 -0.08715
# Poissons Ratio (y) = 0.11519 0.09837
# Poissons Ratio (z) = -0.14899 0.14337
#
# Static dielectric constant tensor:
#      x y z
#    x 1.944860 0.000000 0.049140 
#    y 0.000000 1.864110 0.000000 
#    z 0.049140 0.000000 1.874140 
# 
# From -- ./inp_files/52238.got.cif
#   From: 2010.05.17/outbox.cif.g08.bks.cpg/sg5_27_cif.got.tgz:52238.got - 2010.06.03 18:56:24.
