data_PCOD9120562
_publ_section_title
;
Structure prediction by ZEFSAII (Michael W. Deem and Ramdas Pophale) SiO2 
 PCOD9120562
Probable space group: C 2
;
_chemical_formula_sum "Si O2"
_cell_formula_units_Z 24
_cell_length_a 16.582776
_cell_length_b 5.578714
_cell_length_c 10.503432
_cell_angle_alpha 90.000000
_cell_angle_beta 64.843727
_cell_angle_gamma 90.000000
_cell_volume 879.516412
_symmetry_space_group_name_H-M "C 2"
_symmetry_group_IT_number 5
_symmetry_cell_setting 'monoclinic'
loop_
_space_group_symop_operation_xyz
x,y,z
-x,y,-z
1/2+x,1/2+y,z
1/2-x,1/2+y,-z
loop_
_atom_site_type_symbol
_atom_site_label
_atom_site_fract_x
_atom_site_fract_y
_atom_site_fract_z
Si Si1 0.354854 0.838650 0.671289
Si Si2 0.500000 0.069869 0.000000
Si Si3 0.052789 0.160740 0.140695
Si Si4 0.142421 0.207416 0.616851
Si Si5 0.000000 0.705677 0.500000
Si Si6 0.285220 0.390833 0.036745
Si Si7 0.385491 0.234673 0.314030
O O1 0.405625 0.696423 0.748184
O O2 0.368840 0.714998 0.527079
O O3 0.411832 0.079423 0.617816
O O4 0.257720 0.862814 0.796228
O O5 0.436457 0.886551 0.961496
O O6 0.557423 0.203014 0.853078
O O7 0.948554 0.162843 0.240561
O O8 0.110078 0.945038 0.043823
O O9 0.164216 0.477863 0.641714
O O10 0.184307 0.951534 0.620646
O O11 0.952542 0.766642 0.392502
O O12 0.258515 0.142974 0.984274
#
# Coordination Sequence:
#
# PCOD9120562 Si02
#       7
#     4   2   4   4   2   4   4
#     4  10  18  38  58  94 127 171 216 279 321 389
#     4  10  20  40  60  96 142 174 216 268 344 404
#     4  10  20  37  60  93 133 175 213 273 335 400
#     4  10  21  35  59  89 125 163 221 271 317 377
#     4  10  18  32  60  88 124 158 224 262 312 370
#     4  10  24  37  59  91 140 176 215 273 350 391
#     4  10  22  33  57  91 129 165 207 278 322 380
#
# _framework density 27.287724000000001
#
# number of rings (size 3 to 8) (size 9 to 14) (size 15 to 20)
#    0.000    2.000    5.000    0.000    4.667    6.667 
#    0.000    0.000    0.000    0.000    0.000  147.000 
#    0.000    2.000    0.000    0.000    0.000    0.000 
#
# Total GULP energy -66932.158850 kJ/mol
# GULP energy per Si atom -5577.679904 kJ/mol
# Density = 2.722562 g / cm^3
# Si number density = 27.287724 Si / 1000 Ang^3
#
#
#
# Elastic Constant Matrix: (Units=GPa)
#
#
# Indices 1 2 3 4 5 6 
#
# 1 53.5038 14.5361 48.0227 -0.0003 -0.8156 0.0004
# 2 14.5361 177.1755 58.1160 -0.0010 22.5440 0.0021
# 3 48.0227 58.1160 215.8001 -0.0001 -2.3340 0.0003
# 4 -0.0003 -0.0010 -0.0001 31.0493 -0.0002 24.2878
# 5 -0.8156 22.5440 -2.3340 -0.0002 61.0032 0.0003
# 6 0.0004 0.0021 0.0003 24.2878 0.0003 -10.0508
#
#
#
# Elastic Compliance Matrix: (Units=1/GPa)
#
#
# Indices 1 2 3 4 5 6 
#
# 1 0.023366 -0.000263 -0.005127 0.000000 0.000213 0.000000
# 2 -0.000263 0.006551 -0.001733 0.000000 -0.002491 0.000001
# 3 -0.005127 -0.001733 0.006250 0.000000 0.000811 0.000000
# 4 0.000000 0.000000 0.000000 0.011143 0.000000 0.026928
# 5 0.000213 -0.002491 0.000811 0.000000 0.017347 0.000000
# 6 0.000000 0.000001 0.000000 0.026928 0.000000 -0.034424
#
#
# Mechanical properties :
#
#
# Convention : Reuss Voigt Hill
#
# Bulk Modulus (GPa) = 45.61323 76.42544 61.01933
# Shear Modulus (GPa) = 96.55164 38.12064 67.33614
#
# Velocity S-wave (km/s) = 5.95480 3.74169 4.97292
# Velocity P-wave (km/s) = 8.00197 6.83630 7.44199
#
# Compressibility (1/GPa) = 0.02192346
#
# Stress axis : x y z
#
# Youngs Moduli (GPa) = 42.79645 152.64985 159.99480
#
# Poissons Ratio (x) = 0.04008 0.82026
# Poissons Ratio (y) = 0.01124 0.27723
# Poissons Ratio (z) = 0.21941 0.26450
#
# Static dielectric constant tensor:
#      x y z
#    x 2.189450 0.000000 -0.004840 
#    y 0.000000 2.369080 0.000000 
#    z -0.004840 0.000000 2.147690 
# 
# From -- ./inp_files/45406.got.cif
#   From: 2010.05.17/outbox.cif.g08.bks.cpg/sg5_23_cif.got.tgz:45406.got - 2010.06.03 18:56:24.
