data_PCOD9120794
_publ_section_title
;
Structure prediction by ZEFSAII (Michael W. Deem and Ramdas Pophale) SiO2 
 PCOD9120794
Probable space group: C 2
;
_chemical_formula_sum "Si O2"
_cell_formula_units_Z 24
_cell_length_a 15.764936
_cell_length_b 15.782015
_cell_length_c 8.799124
_cell_angle_alpha 90.000000
_cell_angle_beta 150.228431
_cell_angle_gamma 90.000000
_cell_volume 1087.054279
_symmetry_space_group_name_H-M "C 2"
_symmetry_group_IT_number 5
_symmetry_cell_setting 'monoclinic'
loop_
_space_group_symop_operation_xyz
x,y,z
-x,y,-z
1/2+x,1/2+y,z
1/2-x,1/2+y,-z
loop_
_atom_site_type_symbol
_atom_site_label
_atom_site_fract_x
_atom_site_fract_y
_atom_site_fract_z
Si Si1 0.383356 0.456780 0.186201
Si Si2 0.199433 0.141523 0.256899
Si Si3 0.186940 0.130040 0.873908
Si Si4 0.806386 0.299938 0.259752
Si Si5 0.184712 0.310108 0.364432
Si Si6 0.140220 0.983066 0.339390
O O1 0.500000 0.419576 0.500000
O O2 0.259383 0.531029 0.056856
O O3 0.517195 0.508575 0.286918
O O4 0.292573 0.382269 0.954880
O O5 0.279398 0.227749 0.444814
O O6 0.251701 0.054939 0.426804
O O7 0.204107 0.145512 0.082133
O O8 0.000000 0.141492 0.000000
O O9 0.271009 0.211334 0.923324
O O10 0.000000 0.131107 0.500000
O O11 0.818322 0.298931 0.459523
O O12 0.000000 0.307019 0.500000
O O13 0.261002 0.401560 0.450962
O O14 0.000000 0.310370 0.000000
O O15 0.000000 0.952361 0.000000
#
# Coordination Sequence:
#
# PCOD9120794 Si02
#       6
#     4   4   4   4   4   4
#     4  11  24  39  66  88 116 160 200 250 295 349
#     4  10  18  35  60  84 113 157 199 240 283 356
#     4  10  19  35  58  85 116 155 201 234 289 359
#     4  11  23  39  58  91 125 154 198 243 299 358
#     4  11  23  37  63  89 121 159 195 248 296 350
#     4  11  21  42  63  87 117 153 209 248 289 346
#
# _framework density 22.078015000000001
#
# number of rings (size 3 to 8) (size 9 to 14) (size 15 to 20)
#    0.000    1.333    5.000    4.000    7.000    0.000 
#    0.000    1.667    3.667    0.000    0.000    0.000 
#    0.000    0.000    0.000    0.000    0.000    0.000 
#
# Total GULP energy -66842.377099 kJ/mol
# GULP energy per Si atom -5570.198092 kJ/mol
# Density = 2.202776 g / cm^3
# Si number density = 22.078015 Si / 1000 Ang^3
#
#
#
# Elastic Constant Matrix: (Units=GPa)
#
#
# Indices 1 2 3 4 5 6 
#
# 1 57.5389 25.9143 35.3483 0.0000 -25.7539 0.0000
# 2 25.9143 199.9527 62.3558 0.0000 -17.7450 0.0000
# 3 35.3483 62.3558 79.2084 0.0000 -38.0554 0.0000
# 4 0.0000 0.0000 0.0000 13.5637 0.0000 -8.1769
# 5 -25.7539 -17.7450 -38.0554 0.0000 27.6928 0.0000
# 6 0.0000 0.0000 0.0000 -8.1769 0.0000 29.2379
#
#
#
# Elastic Compliance Matrix: (Units=1/GPa)
#
#
# Indices 1 2 3 4 5 6 
#
# 1 0.030373 -0.002131 0.003055 0.000000 0.031079 0.000000
# 2 -0.002131 0.007556 -0.010665 0.000000 -0.011795 0.000000
# 3 0.003055 -0.010665 0.052208 0.000000 0.067752 0.000000
# 4 0.000000 0.000000 0.000000 0.088677 0.000000 0.024800
# 5 0.031079 -0.011795 0.067752 0.000000 0.150560 0.000000
# 6 0.000000 0.000000 0.000000 0.024800 0.000000 0.041138
#
#
# Mechanical properties :
#
#
# Convention : Reuss Voigt Hill
#
# Bulk Modulus (GPa) = 14.15294 64.88186 39.51740
# Shear Modulus (GPa) = 12.09051 28.30432 20.19741
#
# Velocity S-wave (km/s) = 2.34268 3.58441 3.02788
# Velocity P-wave (km/s) = 3.70700 6.82510 5.49199
#
# Compressibility (1/GPa) = 0.07065672
#
# Stress axis : x y z
#
# Youngs Moduli (GPa) = 32.92348 132.33871 19.15398
#
# Poissons Ratio (x) = 0.28200 -0.05851
# Poissons Ratio (y) = 0.07016 0.20427
# Poissons Ratio (z) = -0.10057 1.41133
#
# Static dielectric constant tensor:
#      x y z
#    x 1.908830 0.000000 0.009800 
#    y 0.000000 1.937060 0.000000 
#    z 0.009800 0.000000 1.812240 
# 
# From -- ./inp_files/27760.got.cif
#   From: 2010.05.17/outbox.cif.g08.bks.cpg/sg5_14_cif.got.tgz:27760.got - 2010.06.03 18:56:24.
