data_PCOD9120239
_publ_section_title
;
Structure prediction by ZEFSAII (Michael W. Deem and Ramdas Pophale) SiO2 
 PCOD9120239
Probable space group: C 2
;
_chemical_formula_sum "Si O2"
_cell_formula_units_Z 32
_cell_length_a 34.869048
_cell_length_b 6.840355
_cell_length_c 13.492363
_cell_angle_alpha 90.000000
_cell_angle_beta 26.152252
_cell_angle_gamma 90.000000
_cell_volume 1418.426751
_symmetry_space_group_name_H-M "C 2"
_symmetry_group_IT_number 5
_symmetry_cell_setting 'monoclinic'
loop_
_space_group_symop_operation_xyz
x,y,z
-x,y,-z
1/2+x,1/2+y,z
1/2-x,1/2+y,-z
loop_
_atom_site_type_symbol
_atom_site_label
_atom_site_fract_x
_atom_site_fract_y
_atom_site_fract_z
Si Si1 0.653096 0.384650 0.802460
Si Si2 0.587976 0.299214 0.745836
Si Si3 0.660958 0.030514 0.923896
Si Si4 0.195907 0.123131 0.252739
Si Si5 0.521337 0.526062 0.718194
Si Si6 0.014129 0.662442 0.582002
Si Si7 0.741001 0.117326 0.303576
Si Si8 0.707474 0.168502 0.172332
O O1 0.647353 0.373327 0.698175
O O2 0.643428 0.164962 0.868290
O O3 0.736536 0.469381 0.661649
O O4 0.579042 0.534800 0.015439
O O5 0.562401 0.466417 0.728735
O O6 0.639145 0.153251 0.557175
O O7 0.500000 0.222118 0.000000
O O8 0.731585 0.143051 0.829714
O O9 0.704674 0.819149 0.807187
O O10 0.566853 0.026176 0.196848
O O11 0.094901 0.175442 0.508301
O O12 0.192658 0.886919 0.247274
O O13 0.232687 0.191515 0.062329
O O14 0.511785 0.354148 0.657760
O O15 0.112939 0.585670 0.363208
O O16 0.000000 0.715338 0.500000
O O17 0.751201 0.059851 0.164408
#
# Coordination Sequence:
#
# PCOD9120239 Si02
#       8
#     4   4   4   4   4   4   4   4
#     4  10  24  38  66  87 114 164 206 247 304 359
#     4  10  20  40  65  84 120 166 196 248 321 343
#     4  10  21  38  59  87 124 155 198 252 303 348
#     4  10  19  35  59  83 118 165 196 243 305 359
#     4   9  19  39  59  85 123 160 195 255 299 356
#     4  10  17  32  59  87 118 162 202 237 299 368
#     4  11  23  42  59  92 124 149 206 256 292 366
#     4  10  21  35  57  86 125 157 198 250 301 358
#
# _framework density 22.560206000000001
#
# number of rings (size 3 to 8) (size 9 to 14) (size 15 to 20)
#    0.000    2.000    5.000    0.000    3.500    1.000 
#    2.250    0.000    0.000    7.500    0.000    0.000 
#    0.000    0.000    0.000    0.000    0.000    0.000 
#
# Total GULP energy -89121.802000 kJ/mol
# GULP energy per Si atom -5570.112625 kJ/mol
# Density = 2.250886 g / cm^3
# Si number density = 22.560206 Si / 1000 Ang^3
#
#
#
# Elastic Constant Matrix: (Units=GPa)
#
#
# Indices 1 2 3 4 5 6 
#
# 1 124.3237 36.8258 14.8300 0.0000 11.7885 0.0000
# 2 36.8258 29.6036 1.4256 0.0000 1.8233 0.0000
# 3 14.8300 1.4256 97.4001 0.0000 5.3935 0.0000
# 4 0.0000 0.0000 0.0000 6.9544 0.0000 -5.0913
# 5 11.7885 1.8233 5.3935 0.0000 33.6906 0.0000
# 6 0.0000 0.0000 0.0000 -5.0913 0.0000 15.3118
#
#
#
# Elastic Compliance Matrix: (Units=1/GPa)
#
#
# Indices 1 2 3 4 5 6 
#
# 1 0.013435 -0.016416 -0.001608 0.000000 -0.003555 0.000000
# 2 -0.016416 0.053967 0.001567 0.000000 0.002573 0.000000
# 3 -0.001608 0.001567 0.010556 0.000000 -0.001212 0.000000
# 4 0.000000 0.000000 0.000000 0.190061 0.000000 0.063197
# 5 -0.003555 0.002573 -0.001212 0.000000 0.030981 0.000000
# 6 0.000000 0.000000 0.000000 0.063197 0.000000 0.086323
#
#
# Mechanical properties :
#
#
# Convention : Reuss Voigt Hill
#
# Bulk Modulus (GPa) = 22.20105 39.72112 30.96108
# Shear Modulus (GPa) = 11.54061 24.40777 17.97419
#
# Velocity S-wave (km/s) = 2.26419 3.29279 2.82569
# Velocity P-wave (km/s) = 4.08627 5.66582 4.93959
#
# Compressibility (1/GPa) = 0.04504292
#
# Stress axis : x y z
#
# Youngs Moduli (GPa) = 74.43138 18.52975 94.73277
#
# Poissons Ratio (x) = 0.30419 0.15238
# Poissons Ratio (y) = 1.22190 -0.14846
# Poissons Ratio (z) = 0.11972 -0.02904
#
# Static dielectric constant tensor:
#      x y z
#    x 1.813690 0.000000 -0.027680 
#    y 0.000000 1.901730 0.000000 
#    z -0.027680 0.000000 1.913580 
# 
# From -- ./inp_files/48382.got.cif
#   From: 2010.05.17/outbox.cif.g08.bks.cpg/sg5_25_cif.got.tgz:48382.got - 2010.06.03 18:56:24.
