data_PCOD9120701
_publ_section_title
;
Structure prediction by ZEFSAII (Michael W. Deem and Ramdas Pophale) SiO2 
 PCOD9120701
Probable space group: C 2
;
_chemical_formula_sum "Si O2"
_cell_formula_units_Z 24
_cell_length_a 20.193114
_cell_length_b 6.543087
_cell_length_c 11.669229
_cell_angle_alpha 90.000000
_cell_angle_beta 35.676988
_cell_angle_gamma 90.000000
_cell_volume 899.201126
_symmetry_space_group_name_H-M "C 2"
_symmetry_group_IT_number 5
_symmetry_cell_setting 'monoclinic'
loop_
_space_group_symop_operation_xyz
x,y,z
-x,y,-z
1/2+x,1/2+y,z
1/2-x,1/2+y,-z
loop_
_atom_site_type_symbol
_atom_site_label
_atom_site_fract_x
_atom_site_fract_y
_atom_site_fract_z
Si Si1 0.460461 0.839470 0.302381
Si Si2 0.652616 0.364702 0.977169
Si Si3 0.000000 0.801354 0.500000
Si Si4 0.214015 0.760216 0.657228
Si Si5 0.000000 0.458227 0.000000
Si Si6 0.903753 0.827751 0.401382
Si Si7 0.843337 0.511444 0.871377
O O1 0.347497 0.707394 0.479286
O O2 0.569993 0.823926 0.229837
O O3 0.419047 0.075691 0.383222
O O4 0.501733 0.830496 0.113662
O O5 0.693588 0.413440 0.792460
O O6 0.729075 0.465467 0.966706
O O7 0.519682 0.401816 0.176748
O O8 0.671820 0.125187 0.985811
O O9 0.922776 0.896003 0.506916
O O10 0.910419 0.666327 0.695627
O O11 0.112450 0.599547 0.825668
O O12 0.195306 0.843014 0.554967
#
# Coordination Sequence:
#
# PCOD9120701 Si02
#       7
#     4   4   2   4   2   4   4
#     4   9  19  33  59  84 114 161 196 247 308 352
#     4  10  18  34  59  83 121 159 198 254 303 358
#     4   8  16  34  52  76 118 144 198 240 290 368
#     4  11  17  35  64  82 112 167 199 245 308 360
#     4  10  18  40  56  88 126 144 210 258 294 366
#     4   9  18  34  52  86 113 154 199 246 303 353
#     4  10  19  35  56  86 115 157 204 246 303 364
#
# _framework density 26.690358
#
# number of rings (size 3 to 8) (size 9 to 14) (size 15 to 20)
#    0.000    2.667    5.000    2.000    0.000    0.000 
#    6.000    3.333    0.000    8.000    0.000    0.000 
#    0.000    0.000    0.000    0.000    0.000    0.000 
#
# Total GULP energy -67000.191006 kJ/mol
# GULP energy per Si atom -5583.349251 kJ/mol
# Density = 2.662961 g / cm^3
# Si number density = 26.690358 Si / 1000 Ang^3
#
#
#
# Elastic Constant Matrix: (Units=GPa)
#
#
# Indices 1 2 3 4 5 6 
#
# 1 239.6845 41.0133 65.4699 -0.0010 5.1127 -0.0001
# 2 41.0133 58.9100 20.5672 -0.0051 -6.8243 0.0025
# 3 65.4699 20.5672 137.4343 -0.0018 -9.7792 0.0014
# 4 -0.0010 -0.0051 -0.0018 22.3476 0.0008 -3.4536
# 5 5.1127 -6.8243 -9.7792 0.0008 62.6763 0.0000
# 6 -0.0001 0.0025 0.0014 -3.4536 0.0000 40.8040
#
#
#
# Elastic Compliance Matrix: (Units=1/GPa)
#
#
# Indices 1 2 3 4 5 6 
#
# 1 0.005308 -0.003074 -0.002147 -0.000001 -0.001103 0.000000
# 2 -0.003074 0.019841 -0.001348 0.000004 0.002201 -0.000001
# 3 -0.002147 -0.001348 0.008598 0.000000 0.001370 0.000000
# 4 -0.000001 0.000004 0.000000 0.045341 0.000000 0.003838
# 5 -0.001103 0.002201 0.001370 0.000000 0.016498 0.000000
# 6 0.000000 -0.000001 0.000000 0.003838 0.000000 0.024832
#
#
# Mechanical properties :
#
#
# Convention : Reuss Voigt Hill
#
# Bulk Modulus (GPa) = 48.52318 76.68109 62.60213
# Shear Modulus (GPa) = 35.60595 45.76415 40.68505
#
# Velocity S-wave (km/s) = 3.65641 4.14530 3.90851
# Velocity P-wave (km/s) = 6.00377 7.19052 6.62378
#
# Compressibility (1/GPa) = 0.02060871
#
# Stress axis : x y z
#
# Youngs Moduli (GPa) = 188.39143 50.40172 116.30214
#
# Poissons Ratio (x) = 0.15492 0.24971
# Poissons Ratio (y) = 0.57904 0.15682
# Poissons Ratio (z) = 0.40450 0.06796
#
# Static dielectric constant tensor:
#      x y z
#    x 2.103060 0.000000 -0.027280 
#    y 0.000000 2.424890 0.000000 
#    z -0.027280 0.000000 2.084200 
# 
# From -- ./inp_files/45959.got.cif
#   From: 2010.05.17/outbox.cif.g08.bks.cpg/sg5_23_cif.got.tgz:45959.got - 2010.06.03 18:56:24.
