data_PCOD9120437
_publ_section_title
;
Structure prediction by ZEFSAII (Michael W. Deem and Ramdas Pophale) SiO2 
 PCOD9120437
Probable space group: C 2
;
_chemical_formula_sum "Si O2"
_cell_formula_units_Z 30
_cell_length_a 24.452311
_cell_length_b 9.716781
_cell_length_c 11.261978
_cell_angle_alpha 90.000000
_cell_angle_beta 41.581189
_cell_angle_gamma 90.000000
_cell_volume 1775.890423
_symmetry_space_group_name_H-M "C 2"
_symmetry_group_IT_number 5
_symmetry_cell_setting 'monoclinic'
loop_
_space_group_symop_operation_xyz
x,y,z
-x,y,-z
1/2+x,1/2+y,z
1/2-x,1/2+y,-z
loop_
_atom_site_type_symbol
_atom_site_label
_atom_site_fract_x
_atom_site_fract_y
_atom_site_fract_z
Si Si1 0.754778 0.626570 0.901316
Si Si2 0.010207 0.100353 0.123418
Si Si3 0.797632 0.597087 0.107980
Si Si4 0.359760 0.390709 0.979476
Si Si5 0.500000 0.773935 0.500000
Si Si6 0.395525 0.835647 0.893283
Si Si7 0.409319 0.294573 0.634472
Si Si8 0.112572 0.068112 0.475023
O O1 0.839594 0.685951 0.713356
O O2 0.771305 0.596705 0.012080
O O3 0.719319 0.490746 0.897809
O O4 0.685103 0.744431 0.007468
O O5 0.925728 0.085950 0.333255
O O6 0.052209 0.240134 0.103195
O O7 0.069011 0.975965 0.071820
O O8 0.000000 0.099848 0.000000
O O9 0.711021 0.579986 0.314839
O O10 0.838031 0.743924 0.069863
O O11 0.862887 0.473589 0.007852
O O12 0.384652 0.359879 0.802207
O O13 0.448944 0.853801 0.685383
O O14 0.565901 0.676877 0.463308
O O15 0.500000 0.232958 0.500000
O O16 0.410528 0.419368 0.540327
#
# Coordination Sequence:
#
# PCOD9120437 Si02
#       8
#     4   4   4   4   2   4   4   4
#     4  10  18  30  52  81 117 141 166 208 259 333
#     4  10  22  40  57  72  98 145 191 230 262 315
#     4  11  19  32  53  84 111 143 164 219 274 318
#     4  10  20  34  54  78 112 141 175 211 268 325
#     4  10  18  30  50  84 114 146 174 210 264 328
#     4  10  19  34  55  81 109 141 180 215 262 324
#     4  11  17  30  52  86 110 141 175 209 267 326
#     4  11  17  31  56  76 107 140 181 212 271 322
#
# _framework density 16.892934
#
# number of rings (size 3 to 8) (size 9 to 14) (size 15 to 20)
#    0.000    1.600    6.000    1.600    0.000    0.000 
#    4.800    2.000    0.000    0.000    0.000    0.000 
#    0.000    0.000    0.000    0.000    0.000    0.000 
#
# Total GULP energy -83682.124761 kJ/mol
# GULP energy per Si atom -5578.808317 kJ/mol
# Density = 1.685448 g / cm^3
# Si number density = 16.892934 Si / 1000 Ang^3
#
#
#
# Elastic Constant Matrix: (Units=GPa)
#
#
# Indices 1 2 3 4 5 6 
#
# 1 42.1537 30.2095 38.7858 0.0000 9.1150 0.0000
# 2 30.2095 104.3221 60.9621 0.0000 -15.1954 0.0000
# 3 38.7858 60.9621 129.9638 0.0000 -12.2591 0.0000
# 4 0.0000 0.0000 0.0000 22.6157 0.0000 -6.4652
# 5 9.1150 -15.1954 -12.2591 0.0000 26.5863 0.0000
# 6 0.0000 0.0000 0.0000 -6.4652 0.0000 5.6446
#
#
#
# Elastic Compliance Matrix: (Units=1/GPa)
#
#
# Indices 1 2 3 4 5 6 
#
# 1 0.049327 -0.011448 -0.012089 0.000000 -0.029029 0.000000
# 2 -0.011448 0.016504 -0.003204 0.000000 0.011880 0.000000
# 3 -0.012089 -0.003204 0.013616 0.000000 0.008592 0.000000
# 4 0.000000 0.000000 0.000000 0.065744 0.000000 0.075302
# 5 -0.029029 0.011880 0.008592 0.000000 0.058318 0.000000
# 6 0.000000 0.000000 0.000000 0.075302 0.000000 0.263410
#
#
# Mechanical properties :
#
#
# Convention : Reuss Voigt Hill
#
# Bulk Modulus (GPa) = 38.51535 59.59493 49.05514
# Shear Modulus (GPa) = 9.45080 20.73481 15.09280
#
# Velocity S-wave (km/s) = 2.36784 3.50726 2.99229
# Velocity P-wave (km/s) = 5.50679 7.19415 6.40627
#
# Compressibility (1/GPa) = 0.02596367
#
# Stress axis : x y z
#
# Youngs Moduli (GPa) = 20.27268 60.59266 73.44380
#
# Poissons Ratio (x) = 0.69366 0.88790
# Poissons Ratio (y) = 0.23208 0.23534
# Poissons Ratio (z) = 0.24509 0.19416
#
# Static dielectric constant tensor:
#      x y z
#    x 1.536440 0.000000 -0.031970 
#    y 0.000000 1.596920 0.000000 
#    z -0.031970 0.000000 1.597070 
# 
# From -- ./inp_files/44159.got.cif
#   From: 2010.05.17/outbox.cif.g08.bks.cpg/sg5_23_cif.got.tgz:44159.got - 2010.06.03 18:56:24.
