data_PCOD9120230
_publ_section_title
;
Structure prediction by ZEFSAII (Michael W. Deem and Ramdas Pophale) SiO2 
 PCOD9120230
Probable space group: C 2
;
_chemical_formula_sum "Si O2"
_cell_formula_units_Z 32
_cell_length_a 17.769471
_cell_length_b 12.608239
_cell_length_c 14.428939
_cell_angle_alpha 90.000000
_cell_angle_beta 149.038044
_cell_angle_gamma 90.000000
_cell_volume 1663.115373
_symmetry_space_group_name_H-M "C 2"
_symmetry_group_IT_number 5
_symmetry_cell_setting 'monoclinic'
loop_
_space_group_symop_operation_xyz
x,y,z
-x,y,-z
1/2+x,1/2+y,z
1/2-x,1/2+y,-z
loop_
_atom_site_type_symbol
_atom_site_label
_atom_site_fract_x
_atom_site_fract_y
_atom_site_fract_z
Si Si1 0.392782 0.782480 0.476049
Si Si2 0.626471 0.316948 0.928101
Si Si3 0.489318 0.114439 0.714215
Si Si4 0.844695 0.518368 0.390670
Si Si5 0.045023 0.473927 0.941434
Si Si6 0.307867 0.553603 0.957729
Si Si7 0.334335 0.164790 0.862079
Si Si8 0.422612 0.769101 0.141659
O O1 0.500000 0.777502 0.500000
O O2 0.277105 0.689556 0.336919
O O3 0.479512 0.774417 0.663047
O O4 0.316888 0.897823 0.393047
O O5 0.502382 0.238096 0.756726
O O6 0.617542 0.441898 0.936585
O O7 0.676661 0.259467 0.075819
O O8 0.759807 0.302387 0.999246
O O9 0.374313 0.090470 0.511623
O O10 0.650106 0.072331 0.845110
O O11 0.459271 0.045992 0.775023
O O12 0.730639 0.552850 0.192112
O O13 0.000000 0.515951 0.500000
O O14 0.040084 0.358560 0.892692
O O15 0.185857 0.552777 0.105891
O O16 0.000000 0.459959 0.000000
O O17 0.411356 0.650908 0.091927
O O18 0.500000 0.168017 0.000000
#
# Coordination Sequence:
#
# PCOD9120230 Si02
#       8
#     4   4   4   4   4   4   4   4
#     4  11  18  32  60  92 111 144 201 248 276 331
#     4  10  17  32  55  86 115 148 190 239 292 336
#     4   9  17  29  54  82 110 149 195 236 276 347
#     4   9  15  29  51  84 112 143 188 230 281 341
#     4  10  20  36  57  77 113 157 199 228 285 356
#     4  10  18  30  54  87 115 139 184 250 299 327
#     4  10  21  36  59  85 117 153 193 237 287 344
#     4  11  20  33  59  88 113 149 196 245 285 343
#
# _framework density 19.240998000000001
#
# number of rings (size 3 to 8) (size 9 to 14) (size 15 to 20)
#    0.000    2.000    5.000    0.750    0.000    0.000 
#    0.000    1.875   13.750    1.500    0.000    0.000 
#    0.000    0.000    0.000    0.000    0.000    0.000 
#
# Total GULP energy -89068.752050 kJ/mol
# GULP energy per Si atom -5566.797003 kJ/mol
# Density = 1.919720 g / cm^3
# Si number density = 19.240998 Si / 1000 Ang^3
#
#
#
# Elastic Constant Matrix: (Units=GPa)
#
#
# Indices 1 2 3 4 5 6 
#
# 1 71.0151 44.7769 41.2086 0.0000 -36.9375 0.0000
# 2 44.7769 178.1041 61.4481 0.0000 -39.2620 0.0000
# 3 41.2086 61.4481 71.9277 0.0000 -40.7829 0.0000
# 4 0.0000 0.0000 0.0000 25.4439 0.0000 -16.8860
# 5 -36.9375 -39.2620 -40.7829 0.0000 34.8076 0.0000
# 6 0.0000 0.0000 0.0000 -16.8860 0.0000 9.8631
#
#
#
# Elastic Compliance Matrix: (Units=1/GPa)
#
#
# Indices 1 2 3 4 5 6 
#
# 1 0.031765 -0.001137 0.003451 0.000001 0.036469 0.000001
# 2 -0.001137 0.008109 -0.005286 0.000000 0.001748 0.000000
# 3 0.003451 -0.005286 0.045096 0.000001 0.050538 0.000001
# 4 0.000001 0.000000 0.000001 -0.288556 0.000002 -0.494018
# 5 0.036469 0.001748 0.050538 0.000002 0.128615 0.000003
# 6 0.000001 0.000000 0.000001 -0.494018 0.000003 -0.744389
#
#
# Mechanical properties :
#
#
# Convention : Reuss Voigt Hill
#
# Bulk Modulus (GPa) = 12.65392 68.43488 40.54440
# Shear Modulus (GPa) = -6.35264 25.59715 9.62225
#
# Velocity S-wave (km/s) = -1.81901 3.65135 2.23870
# Velocity P-wave (km/s) = 1.47618 7.30896 5.27257
#
# Compressibility (1/GPa) = 0.07902688
#
# Stress axis : x y z
#
# Youngs Moduli (GPa) = 31.48108 123.31376 22.17489
#
# Poissons Ratio (x) = 0.14022 -0.07652
# Poissons Ratio (y) = 0.03580 0.11721
# Poissons Ratio (z) = -0.10863 0.65178
#
# Static dielectric constant tensor:
#      x y z
#    x 2.027330 0.000000 0.111680 
#    y 0.000000 1.733950 0.000000 
#    z 0.111680 0.000000 1.700360 
# 
# From -- ./inp_files/56045.got.cif
#   From: 2010.05.17/outbox.cif.g08.bks.cpg/sg5_29_cif.got.tgz:56045.got - 2010.06.03 18:56:24.
