data_PCOD9120074
_publ_section_title
;
Structure prediction by ZEFSAII (Michael W. Deem and Ramdas Pophale) SiO2 
 PCOD9120074
Probable space group: C 2
;
_chemical_formula_sum "Si O2"
_cell_formula_units_Z 26
_cell_length_a 9.516365
_cell_length_b 14.040843
_cell_length_c 16.443051
_cell_angle_alpha 90.000000
_cell_angle_beta 149.985382
_cell_angle_gamma 90.000000
_cell_volume 1099.027454
_symmetry_space_group_name_H-M "C 2"
_symmetry_group_IT_number 5
_symmetry_cell_setting 'monoclinic'
loop_
_space_group_symop_operation_xyz
x,y,z
-x,y,-z
1/2+x,1/2+y,z
1/2-x,1/2+y,-z
loop_
_atom_site_type_symbol
_atom_site_label
_atom_site_fract_x
_atom_site_fract_y
_atom_site_fract_z
Si Si1 0.830533 0.830540 0.089149
Si Si2 0.662978 0.353131 0.729582
Si Si3 0.640352 0.140166 0.656207
Si Si4 0.366333 0.547364 0.352281
Si Si5 0.000000 0.824456 0.000000
Si Si6 0.182223 0.138856 0.837708
Si Si7 0.673123 0.109453 0.850656
O O1 0.940051 0.871996 0.229284
O O2 0.853737 0.716278 0.122995
O O3 0.982712 0.864892 0.082650
O O4 0.501251 0.850942 0.910879
O O5 0.597228 0.252063 0.655908
O O6 0.550817 0.439115 0.620370
O O7 0.500000 0.116657 0.500000
O O8 0.556207 0.095843 0.699930
O O9 0.969026 0.117444 0.802710
O O10 0.500000 0.589670 0.500000
O O11 0.435793 0.607653 0.307752
O O12 0.028978 0.547228 0.195574
O O13 0.265394 0.752160 0.134315
O O14 0.500000 0.097943 0.000000
O O15 0.000000 0.090270 0.000000
#
# Coordination Sequence:
#
# PCOD9120074 Si02
#       7
#     4   4   4   4   2   4   4
#     4  10  18  37  65  89 113 155 215 257 287 355
#     4  10  21  38  57  86 126 162 197 243 311 369
#     4  11  20  36  62  88 117 162 207 249 295 356
#     4  12  25  39  58  95 133 162 194 250 320 369
#     4  10  16  34  62  92 112 136 210 266 288 326
#     4  10  20  36  61  88 119 156 207 254 294 353
#     4  11  19  41  64  89 117 161 213 252 289 362
#
# _framework density 23.657278000000002
#
# number of rings (size 3 to 8) (size 9 to 14) (size 15 to 20)
#    0.462    0.923    6.154    2.308    2.154    0.000 
#    1.385    0.000    0.000    0.000    0.000    0.000 
#    0.000    0.000    0.000    0.000    0.000    0.000 
#
# Total GULP energy -72496.647431 kJ/mol
# GULP energy per Si atom -5576.665187 kJ/mol
# Density = 2.360343 g / cm^3
# Si number density = 23.657278 Si / 1000 Ang^3
#
#
#
# Elastic Constant Matrix: (Units=GPa)
#
#
# Indices 1 2 3 4 5 6 
#
# 1 181.0044 4.3033 22.5844 0.0013 -29.7725 0.0024
# 2 4.3033 28.4004 -7.0599 0.0020 -9.7519 0.0013
# 3 22.5844 -7.0599 65.0425 0.0055 -29.7628 0.0046
# 4 0.0013 0.0020 0.0055 14.2937 0.0030 -6.5993
# 5 -29.7725 -9.7519 -29.7628 0.0030 47.9170 0.0032
# 6 0.0024 0.0013 0.0046 -6.5993 0.0032 15.3761
#
#
#
# Elastic Compliance Matrix: (Units=1/GPa)
#
#
# Indices 1 2 3 4 5 6 
#
# 1 0.006168 0.000164 -0.000496 -0.000002 0.003558 -0.000003
# 2 0.000164 0.044019 0.012388 -0.000024 0.016755 -0.000021
# 3 -0.000496 0.012388 0.025013 -0.000026 0.017750 -0.000023
# 4 -0.000002 -0.000024 -0.000026 0.087250 -0.000030 0.037447
# 5 0.003558 0.016755 0.017750 -0.000030 0.037515 -0.000028
# 6 -0.000003 -0.000021 -0.000023 0.037447 -0.000028 0.081108
#
#
# Mechanical properties :
#
#
# Convention : Reuss Voigt Hill
#
# Bulk Modulus (GPa) = 10.06937 34.90034 22.48485
# Shear Modulus (GPa) = 17.23751 32.49199 24.86475
#
# Velocity S-wave (km/s) = 2.70225 3.71002 3.24549
# Velocity P-wave (km/s) = 3.74190 5.75646 4.85483
#
# Compressibility (1/GPa) = 0.09931107
#
# Stress axis : x y z
#
# Youngs Moduli (GPa) = 162.13002 22.71772 39.97846
#
# Poissons Ratio (x) = -0.00372 0.01983
# Poissons Ratio (y) = -0.02654 -0.49525
# Poissons Ratio (z) = 0.08041 -0.28142
#
# Static dielectric constant tensor:
#      x y z
#    x 1.893830 0.000000 0.015070 
#    y 0.000000 1.925430 0.000000 
#    z 0.015070 0.000000 1.964210 
# 
# From -- ./inp_files/51120.got.cif
#   From: 2010.05.17/outbox.cif.g08.bks.cpg/sg5_26_cif.got.tgz:51120.got - 2010.06.03 18:56:24.
