data_PCOD9120898
_publ_section_title
;
Structure prediction by ZEFSAII (Michael W. Deem and Ramdas Pophale) SiO2 
 PCOD9120898
Probable space group: C 2
;
_chemical_formula_sum "Si O2"
_cell_formula_units_Z 18
_cell_length_a 9.271977
_cell_length_b 15.050641
_cell_length_c 8.906709
_cell_angle_alpha 90.000000
_cell_angle_beta 136.548188
_cell_angle_gamma 90.000000
_cell_volume 854.813914
_symmetry_space_group_name_H-M "C 2"
_symmetry_group_IT_number 5
_symmetry_cell_setting 'monoclinic'
loop_
_space_group_symop_operation_xyz
x,y,z
-x,y,-z
1/2+x,1/2+y,z
1/2-x,1/2+y,-z
loop_
_atom_site_type_symbol
_atom_site_label
_atom_site_fract_x
_atom_site_fract_y
_atom_site_fract_z
Si Si1 0.220369 0.425960 0.713318
Si Si2 0.000000 0.786818 0.000000
Si Si3 0.393741 0.017226 0.071076
Si Si4 0.322478 0.115330 0.474847
Si Si5 0.595569 0.667028 0.738525
O O1 0.185030 0.449423 0.861871
O O2 0.242603 0.520972 0.649992
O O3 0.000000 0.384422 0.500000
O O4 0.399456 0.356902 0.808100
O O5 0.203514 0.732140 0.102418
O O6 0.561243 0.083587 0.283217
O O7 0.500000 0.980658 0.000000
O O8 0.197615 0.075078 0.869146
O O9 0.500000 0.153855 0.500000
O O10 0.119988 0.177416 0.331805
O O11 0.500000 0.662230 0.500000
#
# Coordination Sequence:
#
# PCOD9120898 Si02
#       5
#     4   2   4   4   4
#     4   9  21  38  62  87 118 151 204 244 291 350
#     4  12  22  36  56  92 124 164 188 230 312 358
#     4  10  18  36  62  92 112 152 201 247 295 338
#     4   9  20  38  62  94 111 151 203 254 286 340
#     4  12  21  34  60  93 124 150 196 248 288 358
#
# _framework density 21.057213000000001
#
# number of rings (size 3 to 8) (size 9 to 14) (size 15 to 20)
#    0.000    2.222    3.333    2.000    0.000    2.667 
#    0.000    0.000   14.667    0.000   11.556    0.000 
#    0.000    0.000    0.000    0.000    0.000    0.000 
#
# Total GULP energy -50104.883698 kJ/mol
# GULP energy per Si atom -5567.209300 kJ/mol
# Density = 2.100929 g / cm^3
# Si number density = 21.057213 Si / 1000 Ang^3
#
#
#
# Elastic Constant Matrix: (Units=GPa)
#
#
# Indices 1 2 3 4 5 6 
#
# 1 136.7184 38.1438 78.9827 0.0000 33.1055 0.0000
# 2 38.1438 39.0475 51.7874 0.0000 19.3317 0.0000
# 3 78.9827 51.7874 115.5563 0.0000 18.4390 0.0000
# 4 0.0000 0.0000 0.0000 31.3082 0.0000 24.7214
# 5 33.1055 19.3317 18.4390 0.0000 53.7901 0.0000
# 6 0.0000 0.0000 0.0000 24.7214 0.0000 21.0158
#
#
#
# Elastic Compliance Matrix: (Units=1/GPa)
#
#
# Indices 1 2 3 4 5 6 
#
# 1 0.013468 0.001721 -0.009050 0.000000 -0.005805 0.000000
# 2 0.001721 0.074683 -0.031941 0.000000 -0.016950 0.000000
# 3 -0.009050 -0.031941 0.027963 0.000000 0.007464 0.000000
# 4 0.000000 0.000000 0.000000 0.448875 0.000000 -0.528023
# 5 -0.005805 -0.016950 0.007464 0.000000 0.025697 0.000000
# 6 0.000000 0.000000 0.000000 -0.528023 0.000000 0.668710
#
#
# Mechanical properties :
#
#
# Convention : Reuss Voigt Hill
#
# Bulk Modulus (GPa) = 26.61485 69.90557 48.26021
# Shear Modulus (GPa) = 3.70243 29.38339 16.54291
#
# Velocity S-wave (km/s) = 1.32744 3.73957 2.80593
# Velocity P-wave (km/s) = 3.87507 7.20526 5.78498
#
# Compressibility (1/GPa) = 0.03757300
#
# Stress axis : x y z
#
# Youngs Moduli (GPa) = 74.24769 13.38994 35.76105
#
# Poissons Ratio (x) = -0.02304 0.32365
# Poissons Ratio (y) = -0.12775 1.14224
# Poissons Ratio (z) = 0.67198 0.42769
#
# Static dielectric constant tensor:
#      x y z
#    x 1.824840 0.000000 0.026540 
#    y 0.000000 1.781970 0.000000 
#    z 0.026540 0.000000 1.827610 
# 
# From -- ./inp_files/15278.got.cif
#   From: 2010.05.17/outbox.cif.g08.bks.cpg/sg5_8_cif.got.tgz:15278.got - 2010.06.03 18:56:24.
