data_PCOD9120913
_publ_section_title
;
Structure prediction by ZEFSAII (Michael W. Deem and Ramdas Pophale) SiO2 
 PCOD9120913
Probable space group: C 2
;
_chemical_formula_sum "Si O2"
_cell_formula_units_Z 30
_cell_length_a 11.781255
_cell_length_b 16.290807
_cell_length_c 9.287434
_cell_angle_alpha 90.000000
_cell_angle_beta 123.235420
_cell_angle_gamma 90.000000
_cell_volume 1490.929950
_symmetry_space_group_name_H-M "C 2"
_symmetry_group_IT_number 5
_symmetry_cell_setting 'monoclinic'
loop_
_space_group_symop_operation_xyz
x,y,z
-x,y,-z
1/2+x,1/2+y,z
1/2-x,1/2+y,-z
loop_
_atom_site_type_symbol
_atom_site_label
_atom_site_fract_x
_atom_site_fract_y
_atom_site_fract_z
Si Si1 0.000000 0.335470 0.500000
Si Si2 0.214208 0.166369 0.156491
Si Si3 0.310122 0.945126 0.547367
Si Si4 0.026583 0.580412 0.691849
Si Si5 0.673642 0.201816 0.320131
Si Si6 0.894432 0.091328 0.640822
Si Si7 0.653272 0.312752 0.567774
Si Si8 0.869877 0.200809 0.212443
O O1 0.125602 0.391950 0.538486
O O2 0.041195 0.274825 0.658865
O O3 0.314257 0.091790 0.180666
O O4 0.116152 0.125972 0.204816
O O5 0.299371 0.236523 0.300973
O O6 0.152565 0.206156 0.972372
O O7 0.259257 0.886992 0.640272
O O8 0.439679 0.001669 0.675680
O O9 0.180612 0.003289 0.419263
O O10 0.961618 0.652354 0.741267
O O11 0.000000 0.590902 0.500000
O O12 0.793855 0.149285 0.479072
O O13 0.657770 0.282763 0.404657
O O14 0.726773 0.207844 0.195901
O O15 0.047087 0.115463 0.700381
O O16 0.500000 0.335906 0.500000
#
# Coordination Sequence:
#
# PCOD9120913 Si02
#       8
#     2   4   4   4   4   4   4   4
#     4  12  20  40  62  96 118 166 206 260 308 372
#     4  11  21  39  67  94 121 166 211 258 304 367
#     4  11  22  35  72  89 121 165 209 250 312 381
#     4  11  18  39  68  89 118 166 216 245 306 380
#     4  10  18  36  63  89 116 160 212 253 288 370
#     4  10  20  39  60  92 120 164 209 249 309 366
#     4  11  20  39  65  93 125 163 205 254 315 375
#     4  12  23  36  68  93 127 156 221 263 298 363
#
# _framework density 20.121669000000001
#
# number of rings (size 3 to 8) (size 9 to 14) (size 15 to 20)
#    0.000    1.067    8.667    1.200    0.000    2.667 
#    0.000    0.000   26.400    0.000    0.000    0.000 
#    0.000    0.000    0.000    0.000    0.000    0.000 
#
# Total GULP energy -83571.862369 kJ/mol
# GULP energy per Si atom -5571.457491 kJ/mol
# Density = 2.007587 g / cm^3
# Si number density = 20.121669 Si / 1000 Ang^3
#
#
#
# Elastic Constant Matrix: (Units=GPa)
#
#
# Indices 1 2 3 4 5 6 
#
# 1 123.3906 35.9094 -0.7309 0.0000 -4.1754 0.0000
# 2 35.9094 83.4270 9.2349 0.0000 1.1794 0.0000
# 3 -0.7309 9.2349 42.0238 0.0000 -9.2135 0.0000
# 4 0.0000 0.0000 0.0000 7.0685 0.0000 -2.8612
# 5 -4.1754 1.1794 -9.2135 0.0000 19.9139 0.0000
# 6 0.0000 0.0000 0.0000 -2.8612 0.0000 42.6746
#
#
#
# Elastic Compliance Matrix: (Units=1/GPa)
#
#
# Indices 1 2 3 4 5 6 
#
# 1 0.009476 -0.004320 0.001787 0.000000 0.003070 0.000000
# 2 -0.004320 0.014342 -0.004019 0.000000 -0.003615 0.000000
# 3 0.001787 -0.004019 0.027649 0.000000 0.013405 0.000000
# 4 0.000000 0.000000 0.000000 0.145419 0.000000 0.009750
# 5 0.003070 -0.003615 0.013405 0.000000 0.057276 0.000000
# 6 0.000000 0.000000 0.000000 0.009750 0.000000 0.024087
#
#
# Mechanical properties :
#
#
# Convention : Reuss Voigt Hill
#
# Bulk Modulus (GPa) = 26.06680 37.51869 31.79274
# Shear Modulus (GPa) = 16.43973 27.55994 21.99983
#
# Velocity S-wave (km/s) = 2.86145 3.70491 3.31016
# Velocity P-wave (km/s) = 4.88875 6.08180 5.51761
#
# Compressibility (1/GPa) = 0.03836297
#
# Stress axis : x y z
#
# Youngs Moduli (GPa) = 105.52970 69.72528 36.16712
#
# Poissons Ratio (x) = 0.30121 -0.06464
# Poissons Ratio (y) = 0.45588 0.14537
# Poissons Ratio (z) = -0.18860 0.28025
#
# Static dielectric constant tensor:
#      x y z
#    x 1.765140 0.000000 0.004310 
#    y 0.000000 1.769080 0.000000 
#    z 0.004310 0.000000 1.708560 
# 
# From -- ./inp_files/21471.got.cif
#   From: 2010.05.17/outbox.cif.g08.bks.cpg/sg5_11_cif.got.tgz:21471.got - 2010.06.03 18:56:24.
