data_PCOD9120516
_publ_section_title
;
Structure prediction by ZEFSAII (Michael W. Deem and Ramdas Pophale) SiO2 
 PCOD9120516
Probable space group: C 2
;
_chemical_formula_sum "Si O2"
_cell_formula_units_Z 32
_cell_length_a 21.798910
_cell_length_b 8.107874
_cell_length_c 28.022451
_cell_angle_alpha 90.000000
_cell_angle_beta 19.091490
_cell_angle_gamma 90.000000
_cell_volume 1619.938833
_symmetry_space_group_name_H-M "C 2"
_symmetry_group_IT_number 5
_symmetry_cell_setting 'monoclinic'
loop_
_space_group_symop_operation_xyz
x,y,z
-x,y,-z
1/2+x,1/2+y,z
1/2-x,1/2+y,-z
loop_
_atom_site_type_symbol
_atom_site_label
_atom_site_fract_x
_atom_site_fract_y
_atom_site_fract_z
Si Si1 0.270704 0.977470 0.313958
Si Si2 0.358906 0.332172 0.040559
Si Si3 0.701815 0.968337 0.876965
Si Si4 0.772870 0.426408 0.768803
Si Si5 0.700635 0.098485 0.341694
Si Si6 0.918128 0.995241 0.901357
Si Si7 0.317676 0.863557 0.005837
Si Si8 0.957917 0.097869 0.608386
O O1 0.213668 0.785357 0.349782
O O2 0.495729 0.972869 0.143655
O O3 0.177328 0.070212 0.337928
O O4 0.165598 0.047980 0.437925
O O5 0.299035 0.149364 0.098034
O O6 0.254077 0.451716 0.155283
O O7 0.578100 0.345028 0.893381
O O8 0.329166 0.381362 0.008091
O O9 0.867514 0.982370 0.716232
O O10 0.500000 0.942753 0.000000
O O11 0.713334 0.852898 0.914694
O O12 0.783042 0.585222 0.727609
O O13 0.931094 0.288303 0.643477
O O14 0.500000 0.025039 0.500000
O O15 0.861055 0.995974 0.250034
O O16 0.856501 0.181703 0.957403
O O17 0.854686 0.939247 0.896345
#
# Coordination Sequence:
#
# PCOD9120516 Si02
#       8
#     4   4   4   4   4   4   4   4
#     4  10  20  34  54  79 119 152 188 240 288 340
#     4   9  16  35  54  84 114 142 192 238 294 339
#     4  11  18  33  59  86 117 152 193 249 287 344
#     4   9  17  29  53  83 113 141 182 236 291 337
#     4  10  20  35  54  84 116 150 189 240 291 335
#     4  10  23  38  60  84 117 159 194 239 292 353
#     4  11  22  39  58  84 116 161 199 238 291 351
#     4  10  18  32  52  85 112 146 186 238 291 334
#
# _framework density 19.753834000000001
#
# number of rings (size 3 to 8) (size 9 to 14) (size 15 to 20)
#    0.000    2.000    5.000    0.750    1.750    2.000 
#    2.250    0.000    2.750    0.000    0.000    0.000 
#    0.000    0.000    0.000    0.000    0.000    0.000 
#
# Total GULP energy -89229.184361 kJ/mol
# GULP energy per Si atom -5576.824023 kJ/mol
# Density = 1.970887 g / cm^3
# Si number density = 19.753834 Si / 1000 Ang^3
#
#
#
# Elastic Constant Matrix: (Units=GPa)
#
#
# Indices 1 2 3 4 5 6 
#
# 1 96.9082 18.7660 30.4876 0.0162 5.5180 0.0043
# 2 18.7660 34.1211 18.0960 0.0235 3.6838 0.0146
# 3 30.4876 18.0960 79.8346 0.0350 16.9294 0.0158
# 4 0.0162 0.0235 0.0350 12.9941 0.0216 3.9586
# 5 5.5180 3.6838 16.9294 0.0216 26.4992 0.0091
# 6 0.0043 0.0146 0.0158 3.9586 0.0091 19.8812
#
#
#
# Elastic Compliance Matrix: (Units=1/GPa)
#
#
# Indices 1 2 3 4 5 6 
#
# 1 0.012415 -0.004900 -0.003732 0.000002 0.000480 0.000003
# 2 -0.004900 0.035247 -0.006125 -0.000037 0.000034 -0.000013
# 3 -0.003732 -0.006125 0.017344 -0.000015 -0.009452 -0.000001
# 4 0.000002 -0.000037 -0.000015 0.081928 -0.000047 -0.016313
# 5 0.000480 0.000034 -0.009452 -0.000047 0.043671 -0.000003
# 6 0.000003 -0.000013 -0.000001 -0.016313 -0.000003 0.053547
#
#
# Mechanical properties :
#
#
# Convention : Reuss Voigt Hill
#
# Bulk Modulus (GPa) = 28.17661 38.39590 33.28625
# Shear Modulus (GPa) = 17.51331 21.44252 19.47792
#
# Velocity S-wave (km/s) = 2.98078 3.29825 3.14352
# Velocity P-wave (km/s) = 5.11288 5.82958 5.48295
#
# Compressibility (1/GPa) = 0.03549044
#
# Stress axis : x y z
#
# Youngs Moduli (GPa) = 80.54916 28.37093 57.65736
#
# Poissons Ratio (x) = 0.13903 0.21518
# Poissons Ratio (y) = 0.39473 0.35316
# Poissons Ratio (z) = 0.30062 0.17378
#
# Static dielectric constant tensor:
#      x y z
#    x 1.703680 -0.000010 0.045400 
#    y -0.000010 1.748490 0.000000 
#    z 0.045400 0.000000 1.750570 
# 
# From -- ./inp_files/71073.got.cif
#   From: 2010.05.17/outbox.cif.g08.bks.cpg/sg5_36_cif.got.tgz:71073.got - 2010.06.03 18:56:24.
