data_PCOD9120585
_publ_section_title
;
Structure prediction by ZEFSAII (Michael W. Deem and Ramdas Pophale) SiO2 
 PCOD9120585
Probable space group: C 2
;
_chemical_formula_sum "Si O2"
_cell_formula_units_Z 26
_cell_length_a 11.425066
_cell_length_b 25.683704
_cell_length_c 10.648202
_cell_angle_alpha 90.000000
_cell_angle_beta 26.363841
_cell_angle_gamma 90.000000
_cell_volume 1387.534871
_symmetry_space_group_name_H-M "C 2"
_symmetry_group_IT_number 5
_symmetry_cell_setting 'monoclinic'
loop_
_space_group_symop_operation_xyz
x,y,z
-x,y,-z
1/2+x,1/2+y,z
1/2-x,1/2+y,-z
loop_
_atom_site_type_symbol
_atom_site_label
_atom_site_fract_x
_atom_site_fract_y
_atom_site_fract_z
Si Si1 0.971560 0.004680 0.876549
Si Si2 0.902479 0.120107 0.239117
Si Si3 0.618668 0.185651 0.221959
Si Si4 0.495264 0.270019 0.147427
Si Si5 0.500000 0.763253 0.000000
Si Si6 0.531336 0.939527 0.621947
Si Si7 0.974346 0.325851 0.279588
O O1 0.057361 0.061857 0.748425
O O2 0.178391 0.961602 0.633943
O O3 0.000000 0.006986 0.000000
O O4 0.677588 0.984082 0.138616
O O5 0.606196 0.142974 0.527377
O O6 0.000000 0.118806 0.000000
O O7 0.123749 0.157851 0.085088
O O8 0.473175 0.222002 0.262589
O O9 0.759835 0.224933 0.187756
O O10 0.263546 0.309870 0.401154
O O11 0.500000 0.253134 0.000000
O O12 0.765951 0.298303 0.919432
O O13 0.572591 0.800326 0.812783
O O14 0.500000 0.929807 0.500000
O O15 0.488182 0.887388 0.742708
#
# Coordination Sequence:
#
# PCOD9120585 Si02
#       7
#     4   4   4   4   2   4   4
#     4   9  19  33  50  80 110 134 182 238 282 338
#     4  11  21  32  55  82 113 148 182 229 301 340
#     4  11  22  35  55  81 116 155 179 236 279 339
#     4  11  23  38  54  82 113 149 195 227 272 340
#     4  10  24  40  54  90 124 148 200 220 280 354
#     4  10  18  33  54  78 108 143 183 231 283 326
#     4  11  23  36  60  81 116 156 182 233 280 333
#
# _framework density 18.738268000000001
#
# number of rings (size 3 to 8) (size 9 to 14) (size 15 to 20)
#    0.000    1.538    0.769    5.538    2.154    5.538 
#    0.000    0.000    0.000    0.000   12.000    0.000 
#    0.000    0.000    0.000    0.000    0.000    0.000 
#
# Total GULP energy -72504.707776 kJ/mol
# GULP energy per Si atom -5577.285214 kJ/mol
# Density = 1.869562 g / cm^3
# Si number density = 18.738268 Si / 1000 Ang^3
#
#
#
# Elastic Constant Matrix: (Units=GPa)
#
#
# Indices 1 2 3 4 5 6 
#
# 1 72.7560 20.3040 3.3035 0.0000 -0.8783 0.0000
# 2 20.3040 113.2386 23.3229 0.0000 5.5539 0.0000
# 3 3.3035 23.3229 111.0723 0.0000 -6.5214 0.0000
# 4 0.0000 0.0000 0.0000 35.0662 0.0000 1.0678
# 5 -0.8783 5.5539 -6.5214 0.0000 15.5890 0.0000
# 6 0.0000 0.0000 0.0000 1.0678 0.0000 14.6031
#
#
#
# Elastic Compliance Matrix: (Units=1/GPa)
#
#
# Indices 1 2 3 4 5 6 
#
# 1 0.014524 -0.002751 0.000258 0.000000 0.001906 0.000000
# 2 -0.002751 0.010028 -0.002299 0.000000 -0.004689 0.000000
# 3 0.000258 -0.002299 0.009767 0.000000 0.004920 0.000000
# 4 0.000000 0.000000 0.000000 0.028581 0.000000 -0.002090
# 5 0.001906 -0.004689 0.004920 0.000000 0.067984 0.000000
# 6 0.000000 0.000000 0.000000 -0.002090 0.000000 0.068631
#
#
# Mechanical properties :
#
#
# Convention : Reuss Voigt Hill
#
# Bulk Modulus (GPa) = 40.43049 43.43640 41.93345
# Shear Modulus (GPa) = 23.00506 29.72743 26.36625
#
# Velocity S-wave (km/s) = 3.50766 3.98735 3.75518
# Velocity P-wave (km/s) = 6.16670 6.66555 6.42097
#
# Compressibility (1/GPa) = 0.02473381
#
# Stress axis : x y z
#
# Youngs Moduli (GPa) = 68.85390 99.72450 102.38460
#
# Poissons Ratio (x) = 0.27430 -0.02637
# Poissons Ratio (y) = 0.18939 0.23539
# Poissons Ratio (z) = -0.01773 0.22928
#
# Static dielectric constant tensor:
#      x y z
#    x 1.666650 0.000000 0.006520 
#    y 0.000000 1.671920 0.000000 
#    z 0.006520 0.000000 1.661130 
# 
# From -- ./inp_files/40834.got.cif
#   From: 2010.05.17/outbox.cif.g08.bks.cpg/sg5_21_cif.got.tgz:40834.got - 2010.06.03 18:56:24.
