data_PCOD9120584
_publ_section_title
;
Structure prediction by ZEFSAII (Michael W. Deem and Ramdas Pophale) SiO2 
 PCOD9120584
Probable space group: C 2
;
_chemical_formula_sum "Si O2"
_cell_formula_units_Z 32
_cell_length_a 8.034824
_cell_length_b 18.664083
_cell_length_c 16.106845
_cell_angle_alpha 90.000000
_cell_angle_beta 33.673750
_cell_angle_gamma 90.000000
_cell_volume 1339.264138
_symmetry_space_group_name_H-M "C 2"
_symmetry_group_IT_number 5
_symmetry_cell_setting 'monoclinic'
loop_
_space_group_symop_operation_xyz
x,y,z
-x,y,-z
1/2+x,1/2+y,z
1/2-x,1/2+y,-z
loop_
_atom_site_type_symbol
_atom_site_label
_atom_site_fract_x
_atom_site_fract_y
_atom_site_fract_z
Si Si1 0.974989 0.677900 0.261713
Si Si2 0.022865 0.267678 0.241154
Si Si3 0.410661 0.502227 0.365687
Si Si4 0.166941 0.788509 0.053709
Si Si5 0.324151 0.915462 0.401101
Si Si6 0.173725 0.956101 0.091498
Si Si7 0.813916 0.160119 0.451421
Si Si8 0.922019 0.519463 0.828990
O O1 0.643059 0.671184 0.357336
O O2 0.912837 0.689379 0.384837
O O3 0.114645 0.599968 0.187022
O O4 0.160493 0.739130 0.137847
O O5 0.362745 0.264457 0.133810
O O6 0.884384 0.335355 0.347134
O O7 0.845089 0.200016 0.350692
O O8 0.066197 0.279234 0.124638
O O9 0.227991 0.436478 0.482268
O O10 0.451034 0.489441 0.251558
O O11 0.262014 0.576390 0.456341
O O12 0.748898 0.510248 0.263155
O O13 0.130891 0.871692 0.092256
O O14 0.000000 0.936080 0.500000
O O15 0.561810 0.964297 0.254036
O O16 0.500000 0.961173 0.000000
O O17 0.196963 0.997394 0.995073
#
# Coordination Sequence:
#
# PCOD9120584 Si02
#       8
#     4   4   4   4   4   4   4   4
#     4   9  17  30  50  73 103 133 165 211 255 297
#     4  10  21  34  52  75 106 139 167 205 252 305
#     4   9  18  29  51  78  99 127 170 219 254 288
#     4  10  21  35  50  76 107 138 169 201 252 308
#     4  10  18  33  54  76  99 133 172 210 254 297
#     4  10  20  33  52  77 104 133 170 212 251 297
#     4   9  17  31  48  75 103 129 169 212 254 295
#     4   9  16  31  51  74 101 130 170 214 252 291
#
# _framework density 23.893718
#
# number of rings (size 3 to 8) (size 9 to 14) (size 15 to 20)
#    0.000    2.500    2.500    0.000    3.500    0.000 
#    0.000    0.000    0.000    3.000    0.000    0.000 
#    0.000    0.000    0.000    0.000    0.000    0.000 
#
# Total GULP energy -89433.948860 kJ/mol
# GULP energy per Si atom -5589.621804 kJ/mol
# Density = 2.383934 g / cm^3
# Si number density = 23.893718 Si / 1000 Ang^3
#
#
#
# Elastic Constant Matrix: (Units=GPa)
#
#
# Indices 1 2 3 4 5 6 
#
# 1 76.1287 -19.1372 25.0457 -0.0024 4.0476 0.0016
# 2 -19.1372 83.2512 61.5531 -0.0020 24.2634 0.0019
# 3 25.0457 61.5531 183.1345 0.0016 33.0802 0.0040
# 4 -0.0024 -0.0020 0.0016 40.5088 0.0043 -0.4456
# 5 4.0476 24.2634 33.0802 0.0043 42.4847 -0.0014
# 6 0.0016 0.0019 0.0040 -0.4456 -0.0014 13.0226
#
#
#
# Elastic Compliance Matrix: (Units=1/GPa)
#
#
# Indices 1 2 3 4 5 6 
#
# 1 0.016742 0.007928 -0.004478 0.000002 -0.002636 -0.000002
# 2 0.007928 0.021046 -0.006808 0.000003 -0.007474 -0.000003
# 3 -0.004478 -0.006808 0.008823 -0.000001 -0.002555 -0.000001
# 4 0.000002 0.000003 -0.000001 0.024695 -0.000004 0.000845
# 5 -0.002636 -0.007474 -0.002555 -0.000004 0.030047 0.000005
# 6 -0.000002 -0.000003 -0.000001 0.000845 0.000005 0.076818
#
#
# Mechanical properties :
#
#
# Convention : Reuss Voigt Hill
#
# Bulk Modulus (GPa) = 25.06658 53.04862 39.05760
# Shear Modulus (GPa) = 25.22891 37.54010 31.38450
#
# Velocity S-wave (km/s) = 3.25296 3.96805 3.62816
# Velocity P-wave (km/s) = 4.96212 6.57601 5.82523
#
# Compressibility (1/GPa) = 0.03989375
#
# Stress axis : x y z
#
# Youngs Moduli (GPa) = 59.73048 47.51511 113.34552
#
# Poissons Ratio (x) = -0.37668 0.50757
# Poissons Ratio (y) = -0.47352 0.77164
# Poissons Ratio (z) = 0.26748 0.32348
#
# Static dielectric constant tensor:
#      x y z
#    x 2.002190 0.000000 -0.044260 
#    y 0.000000 1.855290 0.000000 
#    z -0.044260 0.000000 1.901400 
# 
# From -- ./inp_files/21247.got.cif
#   From: 2010.05.17/outbox.cif.g08.bks.cpg/sg5_11_cif.got.tgz:21247.got - 2010.06.03 18:56:24.
