data_PCOD9120668
_publ_section_title
;
Structure prediction by ZEFSAII (Michael W. Deem and Ramdas Pophale) SiO2 
 PCOD9120668
Probable space group: C 2
;
_chemical_formula_sum "Si O2"
_cell_formula_units_Z 30
_cell_length_a 10.578620
_cell_length_b 11.255133
_cell_length_c 17.616793
_cell_angle_alpha 90.000000
_cell_angle_beta 43.264439
_cell_angle_gamma 90.000000
_cell_volume 1437.571279
_symmetry_space_group_name_H-M "C 2"
_symmetry_group_IT_number 5
_symmetry_cell_setting 'monoclinic'
loop_
_space_group_symop_operation_xyz
x,y,z
-x,y,-z
1/2+x,1/2+y,z
1/2-x,1/2+y,-z
loop_
_atom_site_type_symbol
_atom_site_label
_atom_site_fract_x
_atom_site_fract_y
_atom_site_fract_z
Si Si1 0.928950 0.993160 0.668855
Si Si2 0.561857 0.847975 0.243349
Si Si3 0.608379 0.621277 0.732732
Si Si4 0.680682 0.561508 0.872400
Si Si5 0.174853 0.517227 0.568741
Si Si6 0.345651 0.729395 0.635364
Si Si7 0.000000 0.566247 0.500000
Si Si8 0.989971 0.747708 0.707655
O O1 0.896834 0.854580 0.701461
O O2 0.989310 0.046292 0.724584
O O3 0.113766 0.998456 0.538071
O O4 0.806240 0.091899 0.679391
O O5 0.496343 0.746515 0.215339
O O6 0.594641 0.786399 0.310906
O O7 0.729310 0.933800 0.147784
O O8 0.396112 0.937711 0.332735
O O9 0.634288 0.562998 0.803065
O O10 0.814662 0.634692 0.606664
O O11 0.833298 0.665942 0.814249
O O12 0.500000 0.583774 0.000000
O O13 0.109246 0.653527 0.605642
O O14 0.066360 0.483767 0.539554
O O15 0.500000 0.729931 0.500000
O O16 0.154775 0.789201 0.691041
#
# Coordination Sequence:
#
# PCOD9120668 Si02
#       8
#     4   4   4   4   4   4   2   4
#     4  10  22  36  59  92 135 167 203 253 320 386
#     4  10  22  38  65  89 123 167 217 256 321 377
#     4  10  21  40  64  95 125 166 209 263 323 391
#     4  11  25  48  65  89 121 165 229 278 323 374
#     4  10  20  33  53  92 125 174 201 242 314 395
#     4  11  21  37  60 100 138 166 201 255 319 401
#     4  10  18  34  56  90 136 160 198 250 318 392
#     4  11  22  38  58  89 128 170 213 256 322 378
#
# _framework density 20.868531000000001
#
# number of rings (size 3 to 8) (size 9 to 14) (size 15 to 20)
#    0.000    1.600    4.000    1.600    6.533    2.133 
#    6.000    0.000    0.000    0.000    0.000    0.000 
#    0.000    0.000    0.000    0.000    0.000    0.000 
#
# Total GULP energy -83661.261154 kJ/mol
# GULP energy per Si atom -5577.417410 kJ/mol
# Density = 2.082103 g / cm^3
# Si number density = 20.868531 Si / 1000 Ang^3
#
#
#
# Elastic Constant Matrix: (Units=GPa)
#
#
# Indices 1 2 3 4 5 6 
#
# 1 45.8637 10.4635 10.1348 0.0000 -3.0400 0.0000
# 2 10.4635 117.9129 20.2380 0.0000 -12.4315 0.0000
# 3 10.1348 20.2380 93.7247 0.0000 -17.2412 0.0000
# 4 0.0000 0.0000 0.0000 12.5235 0.0000 -0.4850
# 5 -3.0400 -12.4315 -17.2412 0.0000 15.2333 0.0000
# 6 0.0000 0.0000 0.0000 -0.4850 0.0000 35.9624
#
#
#
# Elastic Compliance Matrix: (Units=1/GPa)
#
#
# Indices 1 2 3 4 5 6 
#
# 1 0.022656 -0.001569 -0.001913 0.000000 0.001076 0.000000
# 2 -0.001569 0.009432 -0.000642 0.000000 0.006657 0.000000
# 3 -0.001913 -0.000642 0.013701 0.000000 0.014601 0.000000
# 4 0.000000 0.000000 0.000000 0.079892 0.000000 0.001077
# 5 0.001076 0.006657 0.014601 0.000000 0.087818 0.000000
# 6 0.000000 0.000000 0.000000 0.001077 0.000000 0.027821
#
#
# Mechanical properties :
#
#
# Convention : Reuss Voigt Hill
#
# Bulk Modulus (GPa) = 26.63810 37.68600 32.16205
# Shear Modulus (GPa) = 19.07796 27.18817 23.13306
#
# Velocity S-wave (km/s) = 3.02685 3.61339 3.33305
# Velocity P-wave (km/s) = 5.00082 5.95876 5.50068
#
# Compressibility (1/GPa) = 0.03754022
#
# Stress axis : x y z
#
# Youngs Moduli (GPa) = 44.13903 106.02024 72.98691
#
# Poissons Ratio (x) = 0.16631 0.13964
# Poissons Ratio (y) = 0.06924 0.04689
# Poissons Ratio (z) = 0.08445 0.06811
#
# Static dielectric constant tensor:
#      x y z
#    x 1.858840 0.000000 0.031750 
#    y 0.000000 1.865200 0.000000 
#    z 0.031750 0.000000 1.701800 
# 
# From -- ./inp_files/58175.got.cif
#   From: 2010.05.17/outbox.cif.g08.bks.cpg/sg5_30_cif.got.tgz:58175.got - 2010.06.03 18:56:24.
