data_PCOD9120241
_publ_section_title
;
Structure prediction by ZEFSAII (Michael W. Deem and Ramdas Pophale) SiO2 
 PCOD9120241
Probable space group: C 2
;
_chemical_formula_sum "Si O2"
_cell_formula_units_Z 30
_cell_length_a 17.896995
_cell_length_b 16.633687
_cell_length_c 8.983596
_cell_angle_alpha 90.000000
_cell_angle_beta 36.803578
_cell_angle_gamma 90.000000
_cell_volume 1602.134739
_symmetry_space_group_name_H-M "C 2"
_symmetry_group_IT_number 5
_symmetry_cell_setting 'monoclinic'
loop_
_space_group_symop_operation_xyz
x,y,z
-x,y,-z
1/2+x,1/2+y,z
1/2-x,1/2+y,-z
loop_
_atom_site_type_symbol
_atom_site_label
_atom_site_fract_x
_atom_site_fract_y
_atom_site_fract_z
Si Si1 0.045922 0.471420 0.090800
Si Si2 0.227577 0.047899 0.115515
Si Si3 0.369153 0.220356 0.519264
Si Si4 0.000000 0.937976 0.500000
Si Si5 0.134242 0.228672 0.219401
Si Si6 0.382765 0.789373 0.080815
Si Si7 0.620279 0.043073 0.411637
Si Si8 0.613525 0.290697 0.168324
O O1 0.931401 0.477734 0.390111
O O2 0.151326 0.532620 0.977875
O O3 0.104852 0.382281 0.989229
O O4 0.000000 0.491296 0.000000
O O5 0.182920 0.139405 0.178402
O O6 0.271441 0.022364 0.878378
O O7 0.115664 0.993899 0.355946
O O8 0.253124 0.268361 0.634211
O O9 0.347263 0.125362 0.554857
O O10 0.509467 0.241304 0.243689
O O11 0.373574 0.250363 0.686116
O O12 0.945799 0.877976 0.711478
O O13 0.000000 0.245356 0.500000
O O14 0.114948 0.237685 0.073276
O O15 0.243047 0.287273 0.107834
O O16 0.500000 0.772793 0.000000
O O17 0.500000 0.063130 0.500000
#
# Coordination Sequence:
#
# PCOD9120241 Si02
#       8
#     4   4   4   2   4   4   4   4
#     4  10  22  37  57  89 122 156 192 245 296 354
#     4  11  19  35  56  88 118 148 193 251 298 343
#     4   9  14  31  56  78 103 150 192 230 270 352
#     4  10  20  30  52  84 114 146 186 246 290 338
#     4  11  21  36  59  85 118 150 198 257 291 345
#     4  10  21  38  57  81 120 163 195 228 302 362
#     4  10  17  32  60  85 110 145 199 243 284 341
#     4   9  16  30  54  79 106 147 196 229 289 340
#
# _framework density 18.725016
#
# number of rings (size 3 to 8) (size 9 to 14) (size 15 to 20)
#    0.000    2.133    4.667    3.200    0.000    2.667 
#    2.400    0.000    0.000    0.000    0.000    9.333 
#    0.000    0.000    0.000    0.000    0.000    0.000 
#
# Total GULP energy -83518.175398 kJ/mol
# GULP energy per Si atom -5567.878360 kJ/mol
# Density = 1.868240 g / cm^3
# Si number density = 18.725016 Si / 1000 Ang^3
#
#
#
# Elastic Constant Matrix: (Units=GPa)
#
#
# Indices 1 2 3 4 5 6 
#
# 1 77.3027 35.8580 32.9485 0.0000 -24.4044 0.0000
# 2 35.8580 79.3057 28.2007 0.0000 -9.0024 0.0000
# 3 32.9485 28.2007 102.6012 0.0000 -35.4809 0.0000
# 4 0.0000 0.0000 0.0000 1.9593 0.0000 -41.5323
# 5 -24.4044 -9.0024 -35.4809 0.0000 27.8410 0.0000
# 6 0.0000 0.0000 0.0000 -41.5323 0.0000 -13.8174
#
#
#
# Elastic Compliance Matrix: (Units=1/GPa)
#
#
# Indices 1 2 3 4 5 6 
#
# 1 0.022059 -0.008460 0.001756 0.000000 0.018839 0.000000
# 2 -0.008460 0.017227 -0.004749 0.000000 -0.007898 0.000000
# 3 0.001756 -0.004749 0.018754 0.000000 0.023905 0.000000
# 4 0.000000 0.000000 0.000000 0.007887 0.000000 -0.023706
# 5 0.018839 -0.007898 0.023905 0.000000 0.080342 0.000000
# 6 0.000000 0.000000 0.000000 -0.023706 0.000000 -0.001118
#
#
# Mechanical properties :
#
#
# Convention : Reuss Voigt Hill
#
# Bulk Modulus (GPa) = 28.46253 50.35823 39.41038
# Shear Modulus (GPa) = 27.81338 14.01008 20.91173
#
# Velocity S-wave (km/s) = 3.85822 2.73829 3.34545
# Velocity P-wave (km/s) = 5.92293 6.07862 6.00128
#
# Compressibility (1/GPa) = 0.03513392
#
# Stress axis : x y z
#
# Youngs Moduli (GPa) = 45.33202 58.04843 53.32062
#
# Poissons Ratio (x) = 0.49110 -0.09364
# Poissons Ratio (y) = 0.38351 0.25325
# Poissons Ratio (z) = -0.07961 0.27570
#
# Static dielectric constant tensor:
#      x y z
#    x 1.631240 0.000000 -0.035270 
#    y 0.000000 1.678590 0.000000 
#    z -0.035270 0.000000 1.777750 
# 
# From -- ./inp_files/27883.got.cif
#   From: 2010.05.17/outbox.cif.g08.bks.cpg/sg5_14_cif.got.tgz:27883.got - 2010.06.03 18:56:24.
