data_PCOD9120736
_publ_section_title
;
Structure prediction by ZEFSAII (Michael W. Deem and Ramdas Pophale) SiO2 
 PCOD9120736
Probable space group: C 2
;
_chemical_formula_sum "Si O2"
_cell_formula_units_Z 32
_cell_length_a 12.614237
_cell_length_b 20.270210
_cell_length_c 8.473528
_cell_angle_alpha 90.000000
_cell_angle_beta 50.819517
_cell_angle_gamma 90.000000
_cell_volume 1679.479508
_symmetry_space_group_name_H-M "C 2"
_symmetry_group_IT_number 5
_symmetry_cell_setting 'monoclinic'
loop_
_space_group_symop_operation_xyz
x,y,z
-x,y,-z
1/2+x,1/2+y,z
1/2-x,1/2+y,-z
loop_
_atom_site_type_symbol
_atom_site_label
_atom_site_fract_x
_atom_site_fract_y
_atom_site_fract_z
Si Si1 0.455094 0.947340 0.859178
Si Si2 0.943246 0.052957 0.376060
Si Si3 0.674859 0.476253 0.001230
Si Si4 0.430116 0.701759 0.395041
Si Si5 0.767236 0.455024 0.556408
Si Si6 0.311468 0.304625 0.334471
Si Si7 0.897399 0.301665 0.950701
Si Si8 0.882865 0.824738 0.899354
O O1 0.313336 0.984911 0.969940
O O2 0.576784 0.970361 0.632820
O O3 0.422973 0.871403 0.837835
O O4 0.500000 0.949478 0.000000
O O5 0.896305 0.126994 0.381016
O O6 0.000000 0.051669 0.500000
O O7 0.826006 0.998583 0.469826
O O8 0.064453 0.030894 0.145459
O O9 0.719790 0.472683 0.777385
O O10 0.610581 0.404671 0.106327
O O11 0.500000 0.700190 0.500000
O O12 0.297712 0.748976 0.518458
O O13 0.547287 0.736473 0.182476
O O14 0.743504 0.376505 0.560885
O O15 0.464195 0.297239 0.260932
O O16 0.330002 0.306291 0.125922
O O17 0.732654 0.301427 0.116166
O O18 0.000000 0.308252 0.000000
#
# Coordination Sequence:
#
# PCOD9120736 Si02
#       8
#     4   4   4   4   4   4   4   4
#     4  10  20  34  58  90 125 153 202 262 317 360
#     4  11  24  39  57  86 131 168 205 251 319 376
#     4  10  20  36  59  91 119 160 209 258 310 367
#     4  11  22  39  60  85 121 170 212 248 303 386
#     4  11  20  36  62  90 118 162 211 263 306 367
#     4  10  18  34  62  90 116 153 214 265 300 360
#     4  10  20  34  55  88 124 159 199 252 315 361
#     4   9  18  33  59  91 118 147 205 270 307 352
#
# _framework density 19.053522000000001
#
# number of rings (size 3 to 8) (size 9 to 14) (size 15 to 20)
#    0.000    1.750    3.750    1.500    0.000    1.000 
#    0.000    1.875    2.750    1.500    0.000    0.000 
#    0.000    0.000    0.000    0.000    0.000    0.000 
#
# Total GULP energy -89261.202470 kJ/mol
# GULP energy per Si atom -5578.825154 kJ/mol
# Density = 1.901016 g / cm^3
# Si number density = 19.053522 Si / 1000 Ang^3
#
#
#
# Elastic Constant Matrix: (Units=GPa)
#
#
# Indices 1 2 3 4 5 6 
#
# 1 105.6448 35.6912 20.0372 0.0000 -26.7348 0.0000
# 2 35.6912 107.2564 38.2155 0.0000 -14.5815 0.0000
# 3 20.0372 38.2155 58.7753 0.0000 -23.8113 0.0000
# 4 0.0000 0.0000 0.0000 30.4522 0.0000 -6.3490
# 5 -26.7348 -14.5815 -23.8113 0.0000 31.9866 0.0000
# 6 0.0000 0.0000 0.0000 -6.3490 0.0000 24.9696
#
#
#
# Elastic Compliance Matrix: (Units=1/GPa)
#
#
# Indices 1 2 3 4 5 6 
#
# 1 0.013047 -0.003709 0.002429 0.000000 0.011023 0.000000
# 2 -0.003709 0.013194 -0.008782 0.000000 -0.003622 0.000000
# 3 0.002429 -0.008782 0.030206 0.000000 0.020513 0.000000
# 4 0.000000 0.000000 0.000000 0.034677 0.000000 0.008817
# 5 0.011023 -0.003622 0.020513 0.000000 0.054094 0.000000
# 6 0.000000 0.000000 0.000000 0.008817 0.000000 0.042291
#
#
# Mechanical properties :
#
#
# Convention : Reuss Voigt Hill
#
# Bulk Modulus (GPa) = 27.53000 51.06271 39.29636
# Shear Modulus (GPa) = 22.75408 29.33052 26.04230
#
# Velocity S-wave (km/s) = 3.45950 3.92774 3.70103
# Velocity P-wave (km/s) = 5.51703 6.88675 6.23959
#
# Compressibility (1/GPa) = 0.03632402
#
# Stress axis : x y z
#
# Youngs Moduli (GPa) = 76.64397 75.79137 33.10591
#
# Poissons Ratio (x) = 0.28108 -0.08041
# Poissons Ratio (y) = 0.28424 0.29074
# Poissons Ratio (z) = -0.18616 0.66560
#
# Static dielectric constant tensor:
#      x y z
#    x 1.630390 0.000000 0.007240 
#    y 0.000000 1.650710 0.000000 
#    z 0.007240 0.000000 1.671070 
# 
# From -- ./inp_files/21930.got.cif
#   From: 2010.05.17/outbox.cif.g08.bks.cpg/sg5_11_cif.got.tgz:21930.got - 2010.06.03 18:56:24.
