data_PCOD9120204
_publ_section_title
;
Structure prediction by ZEFSAII (Michael W. Deem and Ramdas Pophale) SiO2 
 PCOD9120204
Probable space group: C 2
;
_chemical_formula_sum "Si O2"
_cell_formula_units_Z 32
_cell_length_a 13.269603
_cell_length_b 18.497616
_cell_length_c 8.586792
_cell_angle_alpha 90.000000
_cell_angle_beta 47.877656
_cell_angle_gamma 90.000000
_cell_volume 1563.296316
_symmetry_space_group_name_H-M "C 2"
_symmetry_group_IT_number 5
_symmetry_cell_setting 'monoclinic'
loop_
_space_group_symop_operation_xyz
x,y,z
-x,y,-z
1/2+x,1/2+y,z
1/2-x,1/2+y,-z
loop_
_atom_site_type_symbol
_atom_site_label
_atom_site_fract_x
_atom_site_fract_y
_atom_site_fract_z
Si Si1 0.656006 0.316590 0.886485
Si Si2 0.344340 0.463463 0.225838
Si Si3 0.479762 0.152827 0.703372
Si Si4 0.152401 0.238583 0.801430
Si Si5 0.746805 0.180702 0.622827
Si Si6 0.113530 0.815712 0.271743
Si Si7 0.208035 0.091970 0.938947
Si Si8 0.059035 0.048830 0.591882
O O1 0.711638 0.382479 0.724738
O O2 0.724033 0.239256 0.782907
O O3 0.500000 0.304549 0.000000
O O4 0.656476 0.347602 0.061852
O O5 0.271967 0.521910 0.190655
O O6 0.357299 0.496232 0.383310
O O7 0.500000 0.459231 0.000000
O O8 0.500000 0.129615 0.500000
O O9 0.607634 0.149832 0.687162
O O10 0.449272 0.238316 0.718552
O O11 0.343799 0.110685 0.894851
O O12 0.181529 0.224805 0.591398
O O13 0.256744 0.296407 0.760637
O O14 0.183355 0.161845 0.854804
O O15 0.000000 0.258423 0.000000
O O16 0.845498 0.114929 0.558777
O O17 0.000000 0.849816 0.500000
O O18 0.069816 0.078930 0.177048
O O19 0.000000 0.012599 0.500000
#
# Coordination Sequence:
#
# PCOD9120204 Si02
#       8
#     4   4   4   4   4   4   4   4
#     4  11  22  35  58  91 126 152 193 259 303 355
#     4   9  19  40  59  81 118 160 198 243 303 357
#     4  10  17  31  56  86 114 145 192 247 294 346
#     4  11  18  33  57  83 116 156 195 247 291 352
#     4  12  21  33  56  94 121 150 200 255 302 343
#     4  10  19  35  55  86 121 148 196 238 301 364
#     4  10  18  36  59  82 111 154 205 240 295 350
#     4  11  23  36  58  88 119 157 206 250 291 355
#
# _framework density 20.469567999999999
#
# number of rings (size 3 to 8) (size 9 to 14) (size 15 to 20)
#    0.000    1.500    7.500    0.375    3.500    0.000 
#    0.000   10.000    0.000    6.750    0.000    0.875 
#    0.000    0.000    0.000    0.000    0.000    0.000 
#
# Total GULP energy -89307.309434 kJ/mol
# GULP energy per Si atom -5581.706840 kJ/mol
# Density = 2.042298 g / cm^3
# Si number density = 20.469568 Si / 1000 Ang^3
#
#
#
# Elastic Constant Matrix: (Units=GPa)
#
#
# Indices 1 2 3 4 5 6 
#
# 1 68.9884 33.6943 28.7003 0.0000 -6.1030 0.0000
# 2 33.6943 94.7367 30.6562 0.0000 1.5364 0.0000
# 3 28.7003 30.6562 74.7406 0.0000 2.8610 0.0000
# 4 0.0000 0.0000 0.0000 11.8027 0.0000 0.8206
# 5 -6.1030 1.5364 2.8610 0.0000 38.0055 0.0000
# 6 0.0000 0.0000 0.0000 0.8206 0.0000 0.4440
#
#
#
# Elastic Compliance Matrix: (Units=1/GPa)
#
#
# Indices 1 2 3 4 5 6 
#
# 1 0.019719 -0.005278 -0.005553 0.000000 0.003798 0.000000
# 2 -0.005278 0.013584 -0.003502 0.000000 -0.001133 0.000000
# 3 -0.005553 -0.003502 0.017026 0.000000 -0.002032 0.000000
# 4 0.000000 0.000000 0.000000 0.097218 0.000000 -0.179672
# 5 0.003798 -0.001133 -0.002032 0.000000 0.027121 0.000000
# 6 0.000000 0.000000 0.000000 -0.179672 0.000000 2.584199
#
#
# Mechanical properties :
#
#
# Convention : Reuss Voigt Hill
#
# Bulk Modulus (GPa) = 46.15858 47.17413 46.66635
# Shear Modulus (GPa) = 1.78907 19.74478 10.76692
#
# Velocity S-wave (km/s) = 0.93590 3.10916 2.29595
# Velocity P-wave (km/s) = 4.87511 5.99876 5.46589
#
# Compressibility (1/GPa) = 0.02166445
#
# Stress axis : x y z
#
# Youngs Moduli (GPa) = 50.71260 73.61438 58.73441
#
# Poissons Ratio (x) = 0.38855 0.32612
# Poissons Ratio (y) = 0.26767 0.20567
# Poissons Ratio (z) = 0.28158 0.25777
#
# Static dielectric constant tensor:
#      x y z
#    x 1.743180 0.000000 0.029690 
#    y 0.000000 1.727440 0.000000 
#    z 0.029690 0.000000 1.809620 
# 
# From -- ./inp_files/25414.got.cif
#   From: 2010.05.17/outbox.cif.g08.bks.cpg/sg5_13_cif.got.tgz:25414.got - 2010.06.03 18:56:24.
