data_PCOD9120264
_publ_section_title
;
Structure prediction by ZEFSAII (Michael W. Deem and Ramdas Pophale) SiO2 
 PCOD9120264
Probable space group: C 2
;
_chemical_formula_sum "Si O2"
_cell_formula_units_Z 30
_cell_length_a 24.624121
_cell_length_b 7.571071
_cell_length_c 9.752722
_cell_angle_alpha 90.000000
_cell_angle_beta 44.345197
_cell_angle_gamma 90.000000
_cell_volume 1270.891343
_symmetry_space_group_name_H-M "C 2"
_symmetry_group_IT_number 5
_symmetry_cell_setting 'monoclinic'
loop_
_space_group_symop_operation_xyz
x,y,z
-x,y,-z
1/2+x,1/2+y,z
1/2-x,1/2+y,-z
loop_
_atom_site_type_symbol
_atom_site_label
_atom_site_fract_x
_atom_site_fract_y
_atom_site_fract_z
Si Si1 0.767107 0.232360 0.680118
Si Si2 0.660647 0.945290 0.766429
Si Si3 0.425870 0.975781 0.786112
Si Si4 0.843390 0.030114 0.195063
Si Si5 0.000000 0.087784 0.000000
Si Si6 0.340156 0.622395 0.903848
Si Si7 0.683854 0.256340 0.127177
Si Si8 0.931367 0.366741 0.325014
O O1 0.726314 0.394324 0.673294
O O2 0.732242 0.245237 0.896123
O O3 0.858112 0.264449 0.519542
O O4 0.737836 0.057423 0.656513
O O5 0.673754 0.733921 0.738114
O O6 0.607500 0.981964 0.728238
O O7 0.612078 0.987105 0.992731
O O8 0.391272 0.794302 0.785627
O O9 0.516822 0.964217 0.655146
O O10 0.390552 0.135164 0.761847
O O11 0.921133 0.978595 0.134821
O O12 0.870937 0.033885 0.987002
O O13 0.012961 0.223261 0.850051
O O14 0.251350 0.680578 0.102260
O O15 0.335652 0.459227 0.807438
#
# Coordination Sequence:
#
# PCOD9120264 Si02
#       8
#     4   4   4   4   2   4   4   4
#     4  10  23  35  54  88 112 138 193 223 278 324
#     4   9  19  36  55  77 111 149 181 219 273 333
#     4  10  18  36  55  80 111 141 188 228 271 331
#     4   9  19  37  56  80 107 148 184 229 269 334
#     4  10  18  36  58  76 112 152 182 214 284 324
#     4  10  17  33  59  80 104 142 190 227 270 329
#     4  10  20  34  58  87 100 145 189 232 269 327
#     4  11  19  36  57  82 114 151 173 232 279 328
#
# _framework density 23.605478000000002
#
# number of rings (size 3 to 8) (size 9 to 14) (size 15 to 20)
#    0.000    2.133    5.333    0.000    3.733    0.000 
#    7.200    2.000    0.000    0.000    6.933    0.000 
#    0.000    0.000    0.000    0.000    0.000    0.000 
#
# Total GULP energy -83764.751652 kJ/mol
# GULP energy per Si atom -5584.316777 kJ/mol
# Density = 2.355175 g / cm^3
# Si number density = 23.605478 Si / 1000 Ang^3
#
#
#
# Elastic Constant Matrix: (Units=GPa)
#
#
# Indices 1 2 3 4 5 6 
#
# 1 109.5575 29.3376 24.2164 0.0000 -37.1663 0.0000
# 2 29.3376 95.2181 18.5169 0.0000 -21.9247 0.0000
# 3 24.2164 18.5169 88.0831 0.0000 -21.2628 0.0000
# 4 0.0000 0.0000 0.0000 25.7267 0.0000 -8.8896
# 5 -37.1663 -21.9247 -21.2628 0.0000 42.8457 0.0000
# 6 0.0000 0.0000 0.0000 -8.8896 0.0000 35.8657
#
#
#
# Elastic Compliance Matrix: (Units=1/GPa)
#
#
# Indices 1 2 3 4 5 6 
#
# 1 0.013202 -0.001546 -0.000831 0.000000 0.010249 0.000000
# 2 -0.001546 0.012194 -0.001086 0.000000 0.004359 0.000000
# 3 -0.000831 -0.001086 0.013067 0.000000 0.005208 0.000000
# 4 0.000000 0.000000 0.000000 0.042511 0.000000 0.010537
# 5 0.010249 0.004359 0.005208 0.000000 0.037045 0.000000
# 6 0.000000 0.000000 0.000000 0.010537 0.000000 0.030493
#
#
# Mechanical properties :
#
#
# Convention : Reuss Voigt Hill
#
# Bulk Modulus (GPa) = 31.70889 48.55561 40.13225
# Shear Modulus (GPa) = 30.12957 35.60679 32.86818
#
# Velocity S-wave (km/s) = 3.57652 3.88804 3.73553
# Velocity P-wave (km/s) = 5.52425 6.38515 5.97024
#
# Compressibility (1/GPa) = 0.03153689
#
# Stress axis : x y z
#
# Youngs Moduli (GPa) = 75.74592 82.01021 76.52958
#
# Poissons Ratio (x) = 0.12682 0.06356
# Poissons Ratio (y) = 0.11713 0.08310
# Poissons Ratio (z) = 0.06291 0.08905
#
# Static dielectric constant tensor:
#      x y z
#    x 1.993180 0.000000 0.062350 
#    y 0.000000 1.892200 0.000000 
#    z 0.062350 0.000000 1.941940 
# 
# From -- ./inp_files/47306.got.cif
#   From: 2010.05.17/outbox.cif.g08.bks.cpg/sg5_24_cif.got.tgz:47306.got - 2010.06.03 18:56:24.
