data_PCOD9120558
_publ_section_title
;
Structure prediction by ZEFSAII (Michael W. Deem and Ramdas Pophale) SiO2 
 PCOD9120558
Probable space group: C 2
;
_chemical_formula_sum "Si O2"
_cell_formula_units_Z 22
_cell_length_a 11.792049
_cell_length_b 13.705822
_cell_length_c 8.589247
_cell_angle_alpha 90.000000
_cell_angle_beta 46.651163
_cell_angle_gamma 90.000000
_cell_volume 1009.476267
_symmetry_space_group_name_H-M "C 2"
_symmetry_group_IT_number 5
_symmetry_cell_setting 'monoclinic'
loop_
_space_group_symop_operation_xyz
x,y,z
-x,y,-z
1/2+x,1/2+y,z
1/2-x,1/2+y,-z
loop_
_atom_site_type_symbol
_atom_site_label
_atom_site_fract_x
_atom_site_fract_y
_atom_site_fract_z
Si Si1 0.500000 0.670250 0.500000
Si Si2 0.038236 0.883547 0.747480
Si Si3 0.791079 0.038244 0.917845
Si Si4 0.285715 0.883547 0.252520
Si Si5 0.372880 0.209634 0.754242
Si Si6 0.126672 0.360442 0.500000
O O1 0.394082 0.607860 0.711837
O O2 0.605870 0.744461 0.499999
O O3 0.953708 0.779115 0.808899
O O4 0.121912 0.900282 0.500000
O O5 0.913270 0.967481 0.889358
O O6 0.806934 0.883679 0.293359
O O7 0.697374 0.967480 0.889358
O O8 0.690123 0.108948 0.119755
O O9 0.262606 0.779114 0.191102
O O10 0.399707 0.883679 0.293358
O O11 0.500000 0.192236 0.500000
O O12 0.000000 0.403531 0.500000
#
# Coordination Sequence:
#
# PCOD9120558 Si02
#       6
#     2   4   4   4   4   4
#     4  10  18  32  60 114 128 166 240 290 332 436
#     4   8  16  36  63  99 134 183 218 288 361 405
#     4  11  17  33  71 105 132 181 240 281 359 430
#     4   8  16  36  63  99 134 183 218 288 361 405
#     4   9  18  33  65 101 141 182 235 286 357 412
#     4   8  17  32  65  96 138 180 227 281 349 419
#
# _framework density 21.793479000000001
#
# number of rings (size 3 to 8) (size 9 to 14) (size 15 to 20)
#    1.636    1.455    1.818    1.091    0.000    0.000 
#    0.000    1.818    8.000   28.364   37.818    0.000 
#    0.000    0.000    0.000    0.000    0.000    0.000 
#
# Total GULP energy -61291.042057 kJ/mol
# GULP energy per Si atom -5571.912914 kJ/mol
# Density = 2.174388 g / cm^3
# Si number density = 21.793479 Si / 1000 Ang^3
#
#
#
# Elastic Constant Matrix: (Units=GPa)
#
#
# Indices 1 2 3 4 5 6 
#
# 1 186.0639 65.7894 43.4460 0.0000 4.3731 0.0000
# 2 65.7894 156.7081 89.2769 0.0000 -1.0386 0.0000
# 3 43.4460 89.2769 99.7694 0.0000 -0.5609 0.0000
# 4 0.0000 0.0000 0.0000 63.7211 0.0000 -2.5912
# 5 4.3731 -1.0386 -0.5609 0.0000 22.0383 0.0000
# 6 0.0000 0.0000 0.0000 -2.5912 0.0000 5.0976
#
#
#
# Elastic Compliance Matrix: (Units=1/GPa)
#
#
# Indices 1 2 3 4 5 6 
#
# 1 0.006383 -0.002246 -0.000778 0.000000 -0.001392 0.000000
# 2 -0.002246 0.013810 -0.011375 0.000000 0.000807 0.000000
# 3 -0.000778 -0.011375 0.020541 0.000000 0.000141 0.000000
# 4 0.000000 0.000000 0.000000 0.016025 0.000000 0.008145
# 5 -0.001392 0.000807 0.000141 0.000000 0.045693 0.000000
# 6 0.000000 0.000000 0.000000 0.008145 0.000000 0.200310
#
#
# Mechanical properties :
#
#
# Convention : Reuss Voigt Hill
#
# Bulk Modulus (GPa) = 83.77334 93.28512 88.52923
# Shear Modulus (GPa) = 14.90144 34.44002 24.67073
#
# Velocity S-wave (km/s) = 2.61771 3.97960 3.36821
# Velocity P-wave (km/s) = 6.90360 8.00083 7.47238
#
# Compressibility (1/GPa) = 0.01193697
#
# Stress axis : x y z
#
# Youngs Moduli (GPa) = 156.66836 72.41219 48.68254
#
# Poissons Ratio (x) = 0.16263 0.03786
# Poissons Ratio (y) = 0.35185 0.55376
# Poissons Ratio (z) = 0.12184 0.82369
#
# Static dielectric constant tensor:
#      x y z
#    x 1.870010 0.000000 0.001430 
#    y 0.000000 1.748600 0.000000 
#    z 0.001430 0.000000 1.837670 
# 
# From -- ./inp_files/24075.got.cif
#   From: 2010.05.17/outbox.cif.g08.bks.cpg/sg5_13_cif.got.tgz:24075.got - 2010.06.03 18:56:24.
