data_PCOD9120878
_publ_section_title
;
Structure prediction by ZEFSAII (Michael W. Deem and Ramdas Pophale) SiO2 
 PCOD9120878
Probable space group: C 2
;
_chemical_formula_sum "Si O2"
_cell_formula_units_Z 32
_cell_length_a 22.839962
_cell_length_b 9.748864
_cell_length_c 5.609703
_cell_angle_alpha 90.000000
_cell_angle_beta 82.677080
_cell_angle_gamma 90.000000
_cell_volume 1238.889077
_symmetry_space_group_name_H-M "C 2"
_symmetry_group_IT_number 5
_symmetry_cell_setting 'monoclinic'
loop_
_space_group_symop_operation_xyz
x,y,z
-x,y,-z
1/2+x,1/2+y,z
1/2-x,1/2+y,-z
loop_
_atom_site_type_symbol
_atom_site_label
_atom_site_fract_x
_atom_site_fract_y
_atom_site_fract_z
Si Si1 0.937788 0.017640 0.799508
Si Si2 0.273042 0.279271 0.959719
Si Si3 0.021789 0.272456 0.746547
Si Si4 0.156473 0.956913 0.747591
Si Si5 0.360109 0.704609 0.494750
Si Si6 0.207710 0.517710 0.789709
Si Si7 0.147045 0.499190 0.316561
Si Si8 0.397782 0.259832 0.613300
O O1 0.897233 0.097040 0.632035
O O2 0.994055 0.117095 0.772725
O O3 0.945346 0.861002 0.709139
O O4 0.895270 0.005542 0.048674
O O5 0.337290 0.261451 0.803349
O O6 0.253399 0.141534 0.109199
O O7 0.288033 0.388234 0.156620
O O8 0.235355 0.365309 0.789785
O O9 0.092026 0.267458 0.713387
O O10 0.000000 0.325038 0.500000
O O11 0.000000 0.342058 0.000000
O O12 0.124616 0.838589 0.609797
O O13 0.181178 0.095241 0.611599
O O14 0.347187 0.835841 0.656837
O O15 0.159009 0.512680 0.026236
O O16 0.185996 0.545616 0.532771
O O17 0.090492 0.597562 0.400302
#
# Coordination Sequence:
#
# PCOD9120878 Si02
#       8
#     4   4   4   4   4   4   4   4
#     4   9  19  35  61  93 117 162 202 257 304 366
#     4  10  23  39  59  89 123 164 208 265 309 366
#     4  10  19  35  59  95 122 152 201 258 306 352
#     4  10  18  36  60  86 121 158 209 249 307 362
#     4  10  22  35  63  92 124 161 206 257 306 381
#     4  11  26  41  63  87 127 163 213 262 309 371
#     4  11  25  42  60  93 125 170 205 255 318 373
#     4   9  20  40  59  87 123 166 208 253 313 373
#
# _framework density 25.829594
#
# number of rings (size 3 to 8) (size 9 to 14) (size 15 to 20)
#    0.000    2.000    2.500    0.000    5.250    2.000 
#    0.000    0.000    0.000   11.250    0.000    0.000 
#    0.000    0.000    0.000    0.000    0.000    0.000 
#
# Total GULP energy -89121.204151 kJ/mol
# GULP energy per Si atom -5570.075259 kJ/mol
# Density = 2.577081 g / cm^3
# Si number density = 25.829594 Si / 1000 Ang^3
#
#
#
# Elastic Constant Matrix: (Units=GPa)
#
#
# Indices 1 2 3 4 5 6 
#
# 1 23.1931 -4.5715 8.9753 0.0000 -8.5812 0.0000
# 2 -4.5715 114.1174 6.6225 0.0000 5.7411 0.0000
# 3 8.9753 6.6225 107.4429 0.0000 -10.3257 0.0000
# 4 0.0000 0.0000 0.0000 23.4152 0.0000 -3.1198
# 5 -8.5812 5.7411 -10.3257 0.0000 33.4594 0.0000
# 6 0.0000 0.0000 0.0000 -3.1198 0.0000 23.6931
#
#
#
# Elastic Compliance Matrix: (Units=1/GPa)
#
#
# Indices 1 2 3 4 5 6 
#
# 1 0.048798 0.001566 -0.003088 0.000000 0.011293 0.000000
# 2 0.001566 0.008943 -0.000815 0.000000 -0.001384 0.000000
# 3 -0.003088 -0.000815 0.009845 0.000000 0.002386 0.000000
# 4 0.000000 0.000000 0.000000 0.043470 0.000000 0.005724
# 5 0.011293 -0.001384 0.002386 0.000000 0.033757 0.000000
# 6 0.000000 0.000000 0.000000 0.005724 0.000000 0.042960
#
#
# Mechanical properties :
#
#
# Convention : Reuss Voigt Hill
#
# Bulk Modulus (GPa) = 15.89523 29.64511 22.77017
# Shear Modulus (GPa) = 23.42834 31.69535 27.56184
#
# Velocity S-wave (km/s) = 3.01497 3.50679 3.27014
# Velocity P-wave (km/s) = 4.27636 5.28194 4.80553
#
# Compressibility (1/GPa) = 0.06291197
#
# Stress axis : x y z
#
# Youngs Moduli (GPa) = 20.49261 111.82460 101.57714
#
# Poissons Ratio (x) = -0.17510 0.31362
# Poissons Ratio (y) = -0.03209 0.08279
# Poissons Ratio (z) = 0.06327 0.09114
#
# Static dielectric constant tensor:
#      x y z
#    x 2.087460 0.000000 -0.020820 
#    y 0.000000 2.202790 0.000000 
#    z -0.020820 0.000000 2.155400 
# 
# From -- ./inp_files/11253.got.cif
#   From: 2010.05.17/outbox.cif.g08.bks.cpg/sg5_6_cif.got.tgz:11253.got - 2010.06.03 18:56:24.
