data_PCOD9120742
_publ_section_title
;
Structure prediction by ZEFSAII (Michael W. Deem and Ramdas Pophale) SiO2 
 PCOD9120742
Probable space group: C 2
;
_chemical_formula_sum "Si O2"
_cell_formula_units_Z 20
_cell_length_a 5.058803
_cell_length_b 13.250748
_cell_length_c 13.326704
_cell_angle_alpha 90.000000
_cell_angle_beta 95.898595
_cell_angle_gamma 90.000000
_cell_volume 888.598063
_symmetry_space_group_name_H-M "C 2"
_symmetry_group_IT_number 5
_symmetry_cell_setting 'monoclinic'
loop_
_space_group_symop_operation_xyz
x,y,z
-x,y,-z
1/2+x,1/2+y,z
1/2-x,1/2+y,-z
loop_
_atom_site_type_symbol
_atom_site_label
_atom_site_fract_x
_atom_site_fract_y
_atom_site_fract_z
Si Si1 0.754155 0.674070 0.065586
Si Si2 0.988531 0.678871 0.284084
Si Si3 0.112888 0.406670 0.108350
Si Si4 0.628904 0.410442 0.240426
Si Si5 0.035013 0.086921 0.382941
O O1 0.859616 0.634562 0.176331
O O2 0.667186 0.788627 0.088134
O O3 0.500000 0.626801 0.000000
O O4 0.000000 0.680145 0.000000
O O5 0.763670 0.665720 0.359592
O O6 0.062101 0.795416 0.268240
O O7 0.255625 0.621118 0.324368
O O8 0.391813 0.447831 0.158229
O O9 0.898189 0.410241 0.187926
O O10 0.000000 0.451465 0.000000
O O11 0.628178 0.482235 0.336477
O O12 0.000000 0.079651 0.500000
#
# Coordination Sequence:
#
# PCOD9120742 Si02
#       5
#     4   4   4   4   4
#     4  10  18  34  63  98 132 167 204 247 308 381
#     4  11  23  44  68  94 128 167 210 259 318 379
#     4  10  18  35  64  95 129 167 202 246 309 379
#     4  11  23  42  66  93 128 167 208 257 315 377
#     4  12  27  45  65  92 125 164 220 277 317 364
#
# _framework density 22.507365
#
# number of rings (size 3 to 8) (size 9 to 14) (size 15 to 20)
#    0.000    1.200    0.000   10.800    0.000    1.600 
#    0.000   10.000    0.000    0.000    0.000    0.000 
#    0.000    0.000    0.000    0.000    0.000    0.000 
#
# Total GULP energy -56013.524705 kJ/mol
# GULP energy per Si atom -5601.352471 kJ/mol
# Density = 2.245614 g / cm^3
# Si number density = 22.507365 Si / 1000 Ang^3
#
#
#
# Elastic Constant Matrix: (Units=GPa)
#
#
# Indices 1 2 3 4 5 6 
#
# 1 159.4367 33.6381 42.8702 0.0000 -19.2144 0.0000
# 2 33.6381 96.7792 60.3782 0.0000 -3.7355 0.0000
# 3 42.8702 60.3782 124.8469 0.0000 -28.6583 0.0000
# 4 0.0000 0.0000 0.0000 25.5468 0.0000 4.8166
# 5 -19.2144 -3.7355 -28.6583 0.0000 42.2862 0.0000
# 6 0.0000 0.0000 0.0000 4.8166 0.0000 6.9504
#
#
#
# Elastic Compliance Matrix: (Units=1/GPa)
#
#
# Indices 1 2 3 4 5 6 
#
# 1 0.007220 -0.001736 -0.001091 0.000000 0.002388 0.000000
# 2 -0.001736 0.015871 -0.008217 0.000000 -0.004956 0.000000
# 3 -0.001091 -0.008217 0.014303 0.000000 0.008472 0.000000
# 4 0.000000 0.000000 0.000000 0.045027 0.000000 -0.031204
# 5 0.002388 -0.004956 0.008472 0.000000 0.030037 0.000000
# 6 0.000000 0.000000 0.000000 -0.031204 0.000000 0.165502
#
#
# Mechanical properties :
#
#
# Convention : Reuss Voigt Hill
#
# Bulk Modulus (GPa) = 65.33932 72.75952 69.04942
# Shear Modulus (GPa) = 16.38535 31.23510 23.81023
#
# Velocity S-wave (km/s) = 2.70107 3.72932 3.25604
# Velocity P-wave (km/s) = 6.23065 7.13729 6.69933
#
# Compressibility (1/GPa) = 0.01530472
#
# Stress axis : x y z
#
# Youngs Moduli (GPa) = 138.51220 63.00621 69.91472
#
# Poissons Ratio (x) = 0.10940 0.07630
# Poissons Ratio (y) = 0.24051 0.57449
# Poissons Ratio (z) = 0.15116 0.51773
#
# Static dielectric constant tensor:
#      x y z
#    x 1.816780 0.000000 0.033070 
#    y 0.000000 1.882260 0.000000 
#    z 0.033070 0.000000 1.839390 
# 
# From -- ./inp_files/33246.got.cif
#   From: 2010.05.17/outbox.cif.g08.bks.cpg/sg5_17_cif.got.tgz:33246.got - 2010.06.03 18:56:24.
