data_PCOD9120093
_publ_section_title
;
Structure prediction by ZEFSAII (Michael W. Deem and Ramdas Pophale) SiO2 
 PCOD9120093
Probable space group: C 2
;
_chemical_formula_sum "Si O2"
_cell_formula_units_Z 24
_cell_length_a 17.262918
_cell_length_b 7.460653
_cell_length_c 32.478281
_cell_angle_alpha 90.000000
_cell_angle_beta 163.398957
_cell_angle_gamma 90.000000
_cell_volume 1195.097009
_symmetry_space_group_name_H-M "C 2"
_symmetry_group_IT_number 5
_symmetry_cell_setting 'monoclinic'
loop_
_space_group_symop_operation_xyz
x,y,z
-x,y,-z
1/2+x,1/2+y,z
1/2-x,1/2+y,-z
loop_
_atom_site_type_symbol
_atom_site_label
_atom_site_fract_x
_atom_site_fract_y
_atom_site_fract_z
Si Si1 0.500000 0.957110 0.000000
Si Si2 0.823270 0.850928 0.828448
Si Si3 0.429122 0.956980 0.140582
Si Si4 0.827901 0.855083 0.740643
Si Si5 0.434374 0.948217 0.052913
Si Si6 0.487087 0.741807 0.252696
Si Si7 0.500000 0.026567 0.500000
O O1 0.484173 0.854498 0.948575
O O2 0.239809 0.087623 0.869352
O O3 0.501459 0.872740 0.869090
O O4 0.625011 0.859452 0.766400
O O5 0.931524 0.644514 0.881579
O O6 0.100627 0.962701 0.974974
O O7 0.567750 0.151147 0.211189
O O8 0.514819 0.850005 0.224494
O O9 0.697480 0.883124 0.719319
O O10 0.648384 0.912738 0.610872
O O11 0.109923 0.963728 0.886208
O O12 0.772481 0.647904 0.405935
#
# Coordination Sequence:
#
# PCOD9120093 Si02
#       7
#     2   4   4   4   4   4   2
#     4  10  16  36  60  84 112 154 208 220 272 352
#     4   9  18  38  61  84 113 153 202 240 280 345
#     4  10  18  33  60  88 112 142 196 254 287 318
#     4  10  21  35  56  89 122 149 187 246 299 339
#     4   9  17  33  59  85 114 150 193 242 284 335
#     4  11  20  38  62  84 115 160 196 230 286 358
#     4  12  24  40  58  80 124 168 190 222 298 368
#
# _framework density 20.082051
#
# number of rings (size 3 to 8) (size 9 to 14) (size 15 to 20)
#    0.000    2.000    5.000    0.000    0.000    0.667 
#    3.000    6.667    0.000    0.000    0.000    0.000 
#    0.000    0.000    0.000    0.000    0.000    0.000 
#
# Total GULP energy -66887.580786 kJ/mol
# GULP energy per Si atom -5573.965066 kJ/mol
# Density = 2.003634 g / cm^3
# Si number density = 20.082051 Si / 1000 Ang^3
#
#
#
# Elastic Constant Matrix: (Units=GPa)
#
#
# Indices 1 2 3 4 5 6 
#
# 1 190.7996 33.8889 33.8734 -0.0061 -33.7718 -0.0023
# 2 33.8889 38.5844 8.5404 -0.0026 -8.2068 0.0011
# 3 33.8734 8.5404 70.2868 0.0066 -14.6916 0.0074
# 4 -0.0061 -0.0026 0.0066 25.9548 -0.0032 -1.9373
# 5 -33.7718 -8.2068 -14.6916 -0.0032 38.1516 -0.0038
# 6 -0.0023 0.0011 0.0074 -1.9373 -0.0038 25.0760
#
#
#
# Elastic Compliance Matrix: (Units=1/GPa)
#
#
# Indices 1 2 3 4 5 6 
#
# 1 0.007292 -0.004990 -0.001939 0.000002 0.004635 0.000002
# 2 -0.004990 0.030908 -0.000962 0.000002 0.001862 -0.000001
# 3 -0.001939 -0.000962 0.016179 -0.000005 0.004307 -0.000005
# 4 0.000002 0.000002 -0.000005 0.038752 0.000004 0.002994
# 5 0.004635 0.001862 0.004307 0.000004 0.032373 0.000004
# 6 0.000002 -0.000001 -0.000005 0.002994 0.000004 0.040110
#
#
# Mechanical properties :
#
#
# Convention : Reuss Voigt Hill
#
# Bulk Modulus (GPa) = 25.90790 50.25290 38.08040
# Shear Modulus (GPa) = 25.73848 32.72768 29.23308
#
# Velocity S-wave (km/s) = 3.58392 4.04133 3.81948
# Velocity P-wave (km/s) = 5.48224 6.84504 6.20119
#
# Compressibility (1/GPa) = 0.03859827
#
# Stress axis : x y z
#
# Youngs Moduli (GPa) = 137.13770 32.35366 61.80815
#
# Poissons Ratio (x) = 0.16143 0.11986
# Poissons Ratio (y) = 0.68425 0.05945
# Poissons Ratio (z) = 0.26593 0.03112
#
# Static dielectric constant tensor:
#      x y z
#    x 1.802600 0.000010 -0.026160 
#    y 0.000010 1.768230 -0.000020 
#    z -0.026160 -0.000020 1.670960 
# 
# From -- ./inp_files/70654.got.cif
#   From: 2010.05.17/outbox.cif.g08.bks.cpg/sg5_36_cif.got.tgz:70654.got - 2010.06.03 18:56:24.
