data_PCOD9120657
_publ_section_title
;
Structure prediction by ZEFSAII (Michael W. Deem and Ramdas Pophale) SiO2 
 PCOD9120657
Probable space group: C 2
;
_chemical_formula_sum "Si O2"
_cell_formula_units_Z 32
_cell_length_a 14.962210
_cell_length_b 9.894224
_cell_length_c 16.479708
_cell_angle_alpha 90.000000
_cell_angle_beta 30.171687
_cell_angle_gamma 90.000000
_cell_volume 1226.149030
_symmetry_space_group_name_H-M "C 2"
_symmetry_group_IT_number 5
_symmetry_cell_setting 'monoclinic'
loop_
_space_group_symop_operation_xyz
x,y,z
-x,y,-z
1/2+x,1/2+y,z
1/2-x,1/2+y,-z
loop_
_atom_site_type_symbol
_atom_site_label
_atom_site_fract_x
_atom_site_fract_y
_atom_site_fract_z
Si Si1 0.738024 0.081580 0.345653
Si Si2 0.393817 0.628857 0.875434
Si Si3 0.813424 0.248316 0.122331
Si Si4 0.045458 0.850605 0.553166
Si Si5 0.247179 0.481977 0.097356
Si Si6 0.054393 0.724553 0.040061
Si Si7 0.604199 0.867783 0.639380
Si Si8 0.827476 0.272590 0.588436
O O1 0.786561 0.142082 0.218528
O O2 0.613314 0.196022 0.482978
O O3 0.906580 0.064006 0.270925
O O4 0.673727 0.930457 0.384685
O O5 0.492510 0.782927 0.792300
O O6 0.298123 0.473682 0.964887
O O7 0.230392 0.671034 0.943864
O O8 0.640399 0.338424 0.254885
O O9 0.820384 0.142573 0.039749
O O10 0.000000 0.313051 0.000000
O O11 0.212337 0.917841 0.466203
O O12 0.000000 0.906520 0.500000
O O13 0.041087 0.476963 0.276786
O O14 0.369530 0.375011 0.044714
O O15 0.871927 0.723153 0.234484
O O16 0.000000 0.652836 0.000000
O O17 0.641752 0.773898 0.532205
O O18 0.000000 0.212978 0.500000
#
# Coordination Sequence:
#
# PCOD9120657 Si02
#       8
#     4   4   4   4   4   4   4   4
#     4  10  18  34  55  88 119 153 193 250 316 365
#     4  10  21  38  58  86 124 163 201 254 313 373
#     4  11  18  29  58  92 116 151 198 251 312 363
#     4   9  20  35  54  80 124 157 194 251 308 365
#     4  11  20  37  61  88 123 161 206 256 312 370
#     4  11  23  39  62  93 127 162 209 259 313 377
#     4  10  23  36  57  90 125 163 205 258 318 373
#     4  12  21  35  59  93 126 156 203 264 317 369
#
# _framework density 26.097968000000002
#
# number of rings (size 3 to 8) (size 9 to 14) (size 15 to 20)
#    0.000    1.500    2.500    5.250    1.750    0.000 
#    0.000    0.000    2.750    0.000    6.500    0.000 
#    0.000    0.000    0.000    0.000    0.000    0.000 
#
# Total GULP energy -89084.391800 kJ/mol
# GULP energy per Si atom -5567.774488 kJ/mol
# Density = 2.603857 g / cm^3
# Si number density = 26.097968 Si / 1000 Ang^3
#
#
#
# Elastic Constant Matrix: (Units=GPa)
#
#
# Indices 1 2 3 4 5 6 
#
# 1 175.2634 13.6830 85.9889 0.0000 -51.3842 -0.0002
# 2 13.6830 41.2014 18.1972 0.0002 -0.5387 -0.0004
# 3 85.9889 18.1972 163.8599 0.0005 -52.5565 -0.0008
# 4 0.0000 0.0002 0.0005 -14.7772 -0.0002 35.8766
# 5 -51.3842 -0.5387 -52.5565 -0.0002 72.6588 0.0003
# 6 -0.0002 -0.0004 -0.0008 35.8766 0.0003 -29.9755
#
#
#
# Elastic Compliance Matrix: (Units=1/GPa)
#
#
# Indices 1 2 3 4 5 6 
#
# 1 0.008408 -0.001390 -0.003065 0.000000 0.003719 0.000000
# 2 -0.001390 0.026085 -0.003152 0.000000 -0.003069 0.000000
# 3 -0.003065 -0.003152 0.009582 0.000000 0.004739 0.000000
# 4 0.000000 0.000000 0.000000 0.035508 0.000000 0.042499
# 5 0.003719 -0.003069 0.004739 0.000000 0.019798 0.000000
# 6 0.000000 0.000000 0.000000 0.042499 0.000000 0.017505
#
#
# Mechanical properties :
#
#
# Convention : Reuss Voigt Hill
#
# Bulk Modulus (GPa) = 34.64979 68.45143 51.55061
# Shear Modulus (GPa) = 35.28067 23.07827 29.17947
#
# Velocity S-wave (km/s) = 3.68075 2.97693 3.34739
# Velocity P-wave (km/s) = 5.60085 6.17266 5.89369
#
# Compressibility (1/GPa) = 0.02886020
#
# Stress axis : x y z
#
# Youngs Moduli (GPa) = 118.92760 38.33686 104.36735
#
# Poissons Ratio (x) = 0.05329 0.31992
# Poissons Ratio (y) = 0.16531 0.32895
# Poissons Ratio (z) = 0.36456 0.12083
#
# Static dielectric constant tensor:
#      x y z
#    x 2.194550 0.000000 0.073220 
#    y 0.000000 2.260830 0.000000 
#    z 0.073220 0.000000 2.124220 
# 
# From -- ./inp_files/61689.got.cif
#   From: 2010.05.17/outbox.cif.g08.bks.cpg/sg5_31_cif.got.tgz:61689.got - 2010.06.03 18:56:24.
