data_PCOD9120189
_publ_section_title
;
Structure prediction by ZEFSAII (Michael W. Deem and Ramdas Pophale) SiO2 
 PCOD9120189
Probable space group: C 2
;
_chemical_formula_sum "Si O2"
_cell_formula_units_Z 32
_cell_length_a 22.486194
_cell_length_b 9.246467
_cell_length_c 17.702338
_cell_angle_alpha 90.000000
_cell_angle_beta 23.077417
_cell_angle_gamma 90.000000
_cell_volume 1442.714065
_symmetry_space_group_name_H-M "C 2"
_symmetry_group_IT_number 5
_symmetry_cell_setting 'monoclinic'
loop_
_space_group_symop_operation_xyz
x,y,z
-x,y,-z
1/2+x,1/2+y,z
1/2-x,1/2+y,-z
loop_
_atom_site_type_symbol
_atom_site_label
_atom_site_fract_x
_atom_site_fract_y
_atom_site_fract_z
Si Si1 0.474459 0.558210 0.334374
Si Si2 0.153225 0.035165 0.363613
Si Si3 0.911104 0.614295 0.363499
Si Si4 0.716124 0.090484 0.934315
Si Si5 0.254481 0.858423 0.720665
Si Si6 0.667680 0.434665 0.976448
Si Si7 0.485615 0.097826 0.600421
Si Si8 0.246734 0.315039 0.438316
O O1 0.354976 0.496130 0.537842
O O2 0.629052 0.561298 0.202422
O O3 0.403056 0.714583 0.397900
O O4 0.533212 0.487629 0.187689
O O5 0.281446 0.008902 0.150049
O O6 0.165563 0.209908 0.348005
O O7 0.000000 0.991229 0.500000
O O8 0.954645 0.678051 0.394836
O O9 0.795351 0.480455 0.497495
O O10 0.845511 0.734538 0.384884
O O11 0.066232 0.544230 0.152453
O O12 0.702795 0.265944 0.951021
O O13 0.150433 0.930075 0.905844
O O14 0.395430 0.965313 0.542417
O O15 0.175225 0.818433 0.735043
O O16 0.817365 0.535454 0.811553
O O17 0.500000 0.166622 0.500000
#
# Coordination Sequence:
#
# PCOD9120189 Si02
#       8
#     4   4   4   4   4   4   4   4
#     4  10  19  33  59  91 128 161 211 275 320 371
#     4   8  14  28  49  83 119 153 193 262 316 362
#     4  11  22  39  61  94 127 174 214 260 320 394
#     4  10  19  32  59  89 122 160 222 260 320 379
#     4   8  15  31  54  84 117 157 206 263 304 360
#     4  10  17  30  59  97 114 156 216 272 305 377
#     4   9  16  32  60  91 122 156 208 273 323 365
#     4  10  23  39  60  91 130 169 209 267 329 377
#
# _framework density 22.180418
#
# number of rings (size 3 to 8) (size 9 to 14) (size 15 to 20)
#    0.000    2.500    1.250    4.125    1.750    0.000 
#    0.000    5.625    2.750    6.750   29.250    0.875 
#    0.000    0.000    0.000    0.000    0.000    0.000 
#
# Total GULP energy -89081.277292 kJ/mol
# GULP energy per Si atom -5567.579831 kJ/mol
# Density = 2.212993 g / cm^3
# Si number density = 22.180418 Si / 1000 Ang^3
#
#
#
# Elastic Constant Matrix: (Units=GPa)
#
#
# Indices 1 2 3 4 5 6 
#
# 1 160.0881 42.0270 59.8079 0.0000 31.1206 0.0000
# 2 42.0270 56.9330 18.6017 -0.0001 11.6959 0.0000
# 3 59.8079 18.6017 97.1822 0.0000 26.3936 0.0000
# 4 0.0000 -0.0001 0.0000 24.8146 0.0000 7.3697
# 5 31.1206 11.6959 26.3936 0.0000 47.6947 0.0000
# 6 0.0000 0.0000 0.0000 7.3697 0.0000 20.6241
#
#
#
# Elastic Compliance Matrix: (Units=1/GPa)
#
#
# Indices 1 2 3 4 5 6 
#
# 1 0.009740 -0.005242 -0.004253 0.000000 -0.002716 0.000000
# 2 -0.005242 0.021948 -0.000520 0.000000 -0.001674 0.000000
# 3 -0.004253 -0.000520 0.014380 0.000000 -0.005055 0.000000
# 4 0.000000 0.000000 0.000000 0.045083 0.000000 -0.016110
# 5 -0.002716 -0.001674 -0.005055 0.000000 0.025947 0.000000
# 6 0.000000 0.000000 0.000000 -0.016110 0.000000 0.054244
#
#
# Mechanical properties :
#
#
# Convention : Reuss Voigt Hill
#
# Bulk Modulus (GPa) = 38.40757 61.67515 50.04136
# Shear Modulus (GPa) = 24.99368 31.54446 28.26907
#
# Velocity S-wave (km/s) = 3.36048 3.77527 3.57390
# Velocity P-wave (km/s) = 5.69304 6.84617 6.29606
#
# Compressibility (1/GPa) = 0.02603653
#
# Stress axis : x y z
#
# Youngs Moduli (GPa) = 102.67387 45.56223 69.54224
#
# Poissons Ratio (x) = 0.23884 0.29576
# Poissons Ratio (y) = 0.53822 0.03619
# Poissons Ratio (z) = 0.43666 0.02371
#
# Static dielectric constant tensor:
#      x y z
#    x 1.935850 0.000000 0.086220 
#    y 0.000000 1.821490 0.000000 
#    z 0.086220 0.000000 1.847400 
# 
# From -- ./inp_files/63395.got.cif
#   From: 2010.05.17/outbox.cif.g08.bks.cpg/sg5_32_cif.got.tgz:63395.got - 2010.06.03 18:56:24.
