data_PCOD9120193
_publ_section_title
;
Structure prediction by ZEFSAII (Michael W. Deem and Ramdas Pophale) SiO2 
 PCOD9120193
Probable space group: C 2
;
_chemical_formula_sum "Si O2"
_cell_formula_units_Z 28
_cell_length_a 13.233894
_cell_length_b 19.820187
_cell_length_c 8.251526
_cell_angle_alpha 90.000000
_cell_angle_beta 37.372529
_cell_angle_gamma 90.000000
_cell_volume 1313.755962
_symmetry_space_group_name_H-M "C 2"
_symmetry_group_IT_number 5
_symmetry_cell_setting 'monoclinic'
loop_
_space_group_symop_operation_xyz
x,y,z
-x,y,-z
1/2+x,1/2+y,z
1/2-x,1/2+y,-z
loop_
_atom_site_type_symbol
_atom_site_label
_atom_site_fract_x
_atom_site_fract_y
_atom_site_fract_z
Si Si1 0.577856 0.383330 0.057413
Si Si2 0.881893 0.326711 0.513354
Si Si3 0.801771 0.201773 0.226595
Si Si4 0.189021 0.975073 0.189522
Si Si5 0.792885 0.123743 0.919041
Si Si6 0.257670 0.856765 0.335917
Si Si7 0.846603 0.175634 0.513624
O O1 0.678402 0.435216 0.035555
O O2 0.431878 0.355832 0.356177
O O3 0.500000 0.419302 0.000000
O O4 0.698637 0.328089 0.826115
O O5 0.870097 0.361602 0.354228
O O6 0.929422 0.249850 0.417423
O O7 0.000000 0.355965 0.500000
O O8 0.782440 0.282561 0.228146
O O9 0.739691 0.177997 0.484675
O O10 0.734542 0.160126 0.158725
O O11 0.000000 0.189664 0.000000
O O12 0.274741 0.922463 0.203478
O O13 0.000000 0.983707 0.500000
O O14 0.260988 0.048052 0.055696
O O15 0.757545 0.164233 0.798367
O O16 0.996121 0.124651 0.685884
#
# Coordination Sequence:
#
# PCOD9120193 Si02
#       7
#     4   4   4   4   4   4   4
#     4   9  20  34  52  81 117 155 185 230 297 348
#     4  10  18  34  58  86 115 146 193 245 291 341
#     4   9  19  31  53  86 114 146 192 240 291 338
#     4  10  19  33  50  76 121 154 187 235 292 346
#     4  10  17  31  51  80 114 148 184 241 292 326
#     4   9  20  35  50  84 125 150 190 239 292 353
#     4   9  17  30  50  82 112 137 183 246 290 328
#
# _framework density 21.312939
#
# number of rings (size 3 to 8) (size 9 to 14) (size 15 to 20)
#    0.000    2.571    2.857    0.000    2.000    1.714 
#    2.571    0.000    0.000    0.000    3.714    9.000 
#    0.000    0.000    0.000    0.000    0.000    0.000 
#
# Total GULP energy -77982.091842 kJ/mol
# GULP energy per Si atom -5570.149417 kJ/mol
# Density = 2.126443 g / cm^3
# Si number density = 21.312939 Si / 1000 Ang^3
#
#
#
# Elastic Constant Matrix: (Units=GPa)
#
#
# Indices 1 2 3 4 5 6 
#
# 1 130.2423 77.4379 37.7946 0.0000 53.1644 0.0000
# 2 77.4379 124.4409 31.3183 0.0000 33.5719 0.0000
# 3 37.7946 31.3183 55.3385 0.0000 25.5587 0.0000
# 4 0.0000 0.0000 0.0000 9.3951 0.0000 -2.6442
# 5 53.1644 33.5719 25.5587 0.0000 40.9584 0.0000
# 6 0.0000 0.0000 0.0000 -2.6442 0.0000 18.9765
#
#
#
# Elastic Compliance Matrix: (Units=1/GPa)
#
#
# Indices 1 2 3 4 5 6 
#
# 1 0.020252 -0.007019 -0.000527 0.000000 -0.020205 0.000000
# 2 -0.007019 0.013049 -0.002612 0.000000 0.000045 0.000000
# 3 -0.000527 -0.002612 0.026137 0.000000 -0.013485 0.000000
# 4 0.000000 0.000000 0.000000 0.110783 0.000000 0.015437
# 5 -0.020205 0.000045 -0.013485 0.000000 0.059019 0.000000
# 6 0.000000 0.000000 0.000000 0.015437 0.000000 0.054848
#
#
# Mechanical properties :
#
#
# Convention : Reuss Voigt Hill
#
# Bulk Modulus (GPa) = 25.56131 67.01372 46.28752
# Shear Modulus (GPa) = 15.75082 24.76405 20.25744
#
# Velocity S-wave (km/s) = 2.72145 3.41240 3.08632
# Velocity P-wave (km/s) = 4.67915 6.85835 5.87075
#
# Compressibility (1/GPa) = 0.03912162
#
# Stress axis : x y z
#
# Youngs Moduli (GPa) = 49.37865 76.63465 38.26005
#
# Poissons Ratio (x) = 0.53788 0.02017
# Poissons Ratio (y) = 0.34658 0.09993
# Poissons Ratio (z) = 0.02604 0.20016
#
# Static dielectric constant tensor:
#      x y z
#    x 1.840470 0.000000 0.003020 
#    y 0.000000 1.743190 0.000000 
#    z 0.003020 0.000000 1.873820 
# 
# From -- ./inp_files/25174.got.cif
#   From: 2010.05.17/outbox.cif.g08.bks.cpg/sg5_13_cif.got.tgz:25174.got - 2010.06.03 18:56:24.
