data_PCOD9120350
_publ_section_title
;
Structure prediction by ZEFSAII (Michael W. Deem and Ramdas Pophale) SiO2 
 PCOD9120350
Probable space group: C 2
;
_chemical_formula_sum "Si O2"
_cell_formula_units_Z 28
_cell_length_a 11.785716
_cell_length_b 14.639026
_cell_length_c 9.398673
_cell_angle_alpha 90.000000
_cell_angle_beta 65.913319
_cell_angle_gamma 90.000000
_cell_volume 1480.374963
_symmetry_space_group_name_H-M "C 2"
_symmetry_group_IT_number 5
_symmetry_cell_setting 'monoclinic'
loop_
_space_group_symop_operation_xyz
x,y,z
-x,y,-z
1/2+x,1/2+y,z
1/2-x,1/2+y,-z
loop_
_atom_site_type_symbol
_atom_site_label
_atom_site_fract_x
_atom_site_fract_y
_atom_site_fract_z
Si Si1 0.133674 0.995320 0.578408
Si Si2 0.103509 0.291845 0.333869
Si Si3 0.624518 0.098010 0.517973
Si Si4 0.227956 0.795460 0.489831
Si Si5 0.456340 0.843500 0.168655
Si Si6 0.111116 0.081891 0.276715
Si Si7 0.384202 0.049927 0.147325
O O1 0.151553 0.889819 0.528172
O O2 0.258560 0.034339 0.586567
O O3 0.127639 0.050417 0.432504
O O4 0.004505 0.022158 0.720440
O O5 0.225249 0.288255 0.369518
O O6 0.077812 0.188370 0.295588
O O7 0.000000 0.321737 0.500000
O O8 0.077652 0.352010 0.208285
O O9 0.500000 0.072109 0.500000
O O10 0.656495 0.204499 0.481898
O O11 0.608588 0.084967 0.695086
O O12 0.346977 0.801635 0.322712
O O13 0.401896 0.941176 0.151613
O O14 0.500000 0.795826 0.000000
O O15 0.250031 0.069834 0.146656
O O16 0.500000 0.087571 0.000000
#
# Coordination Sequence:
#
# PCOD9120350 Si02
#       7
#     4   4   4   4   4   4   4
#     4  10  19  33  58  87 112 151 198 245 294 335
#     4  10  18  33  60  83 113 152 202 244 277 352
#     4  11  23  37  57  93 121 148 204 256 291 341
#     4  11  20  35  58  88 116 155 201 246 295 343
#     4  10  21  35  58  89 121 153 197 242 302 354
#     4  10  17  37  59  80 114 155 196 241 285 359
#     4  10  21  40  61  84 119 160 194 235 310 363
#
# _framework density 18.914127000000001
#
# number of rings (size 3 to 8) (size 9 to 14) (size 15 to 20)
#    0.000    1.714    7.143    0.857    4.000    0.000 
#    2.571    0.000    0.000    0.000    0.000    0.000 
#    0.000    0.000    0.000    0.000    0.000    0.000 
#
# Total GULP energy -77943.158245 kJ/mol
# GULP energy per Si atom -5567.368446 kJ/mol
# Density = 1.887108 g / cm^3
# Si number density = 18.914127 Si / 1000 Ang^3
#
#
#
# Elastic Constant Matrix: (Units=GPa)
#
#
# Indices 1 2 3 4 5 6 
#
# 1 117.4542 14.0446 38.4072 0.0000 -17.3149 0.0000
# 2 14.0446 42.5513 4.5546 0.0000 -13.0289 0.0000
# 3 38.4072 4.5546 72.7750 0.0000 -14.3873 0.0000
# 4 0.0000 0.0000 0.0000 11.3675 0.0000 -1.7123
# 5 -17.3149 -13.0289 -14.3873 0.0000 26.5222 0.0000
# 6 0.0000 0.0000 0.0000 -1.7123 0.0000 14.2682
#
#
#
# Elastic Compliance Matrix: (Units=1/GPa)
#
#
# Indices 1 2 3 4 5 6 
#
# 1 0.010874 -0.002009 -0.004934 0.000000 0.003436 0.000000
# 2 -0.002009 0.028108 0.001984 0.000000 0.013573 0.000000
# 3 -0.004934 0.001984 0.017672 0.000000 0.007340 0.000000
# 4 0.000000 0.000000 0.000000 0.089589 0.000000 0.010752
# 5 0.003436 0.013573 0.007340 0.000000 0.050596 0.000000
# 6 0.000000 0.000000 0.000000 0.010752 0.000000 0.071376
#
#
# Mechanical properties :
#
#
# Convention : Reuss Voigt Hill
#
# Bulk Modulus (GPa) = 21.39656 38.53258 29.96457
# Shear Modulus (GPa) = 17.02352 22.14985 19.58669
#
# Velocity S-wave (km/s) = 3.00333 3.42581 3.22150
# Velocity P-wave (km/s) = 4.83360 6.00540 5.45108
#
# Compressibility (1/GPa) = 0.04673649
#
# Stress axis : x y z
#
# Youngs Moduli (GPa) = 91.96223 35.57754 56.58758
#
# Poissons Ratio (x) = 0.07148 0.27919
# Poissons Ratio (y) = 0.18475 -0.11229
# Poissons Ratio (z) = 0.45373 -0.07060
#
# Static dielectric constant tensor:
#      x y z
#    x 1.747010 0.000000 -0.026460 
#    y 0.000000 1.667450 0.000000 
#    z -0.026460 0.000000 1.695560 
# 
# From -- ./inp_files/20328.got.cif
#   From: 2010.05.17/outbox.cif.g08.bks.cpg/sg5_11_cif.got.tgz:20328.got - 2010.06.03 18:56:24.
