data_PCOD9120985
_publ_section_title
;
Structure prediction by ZEFSAII (Michael W. Deem and Ramdas Pophale) SiO2 
 PCOD9120985
Probable space group: C 2
;
_chemical_formula_sum "Si O2"
_cell_formula_units_Z 28
_cell_length_a 8.649990
_cell_length_b 12.949143
_cell_length_c 20.709042
_cell_angle_alpha 90.000000
_cell_angle_beta 31.453221
_cell_angle_gamma 90.000000
_cell_volume 1210.382379
_symmetry_space_group_name_H-M "C 2"
_symmetry_group_IT_number 5
_symmetry_cell_setting 'monoclinic'
loop_
_space_group_symop_operation_xyz
x,y,z
-x,y,-z
1/2+x,1/2+y,z
1/2-x,1/2+y,-z
loop_
_atom_site_type_symbol
_atom_site_label
_atom_site_fract_x
_atom_site_fract_y
_atom_site_fract_z
Si Si1 0.083898 0.663300 0.059415
Si Si2 0.743422 0.947940 0.866639
Si Si3 0.152129 0.413342 0.765798
Si Si4 0.601629 0.116740 0.736628
Si Si5 0.000000 0.849052 0.000000
Si Si6 0.671075 0.579941 0.783444
Si Si7 0.519457 0.246366 0.416013
Si Si8 0.000000 0.250850 0.500000
O O1 0.895142 0.560879 0.105450
O O2 0.065186 0.667390 0.143347
O O3 0.963513 0.769154 0.072408
O O4 0.401488 0.644552 0.912409
O O5 0.783129 0.882060 0.788648
O O6 0.500000 0.899681 0.000000
O O7 0.035318 0.977877 0.800526
O O8 0.290944 0.523848 0.699352
O O9 0.233723 0.333375 0.682634
O O10 0.797430 0.414628 0.903911
O O11 0.380434 0.056994 0.768319
O O12 0.786394 0.188913 0.624661
O O13 0.848303 0.645589 0.667142
O O14 0.500000 0.229063 0.500000
O O15 0.238527 0.287298 0.472001
#
# Coordination Sequence:
#
# PCOD9120985 Si02
#       8
#     4   4   4   4   2   4   4   2
#     4  10  18  37  66  87 126 171 214 259 322 394
#     4   9  19  37  63  90 129 162 207 261 327 402
#     4  11  25  40  62 103 134 167 220 276 346 387
#     4  10  24  40  68  93 129 170 225 277 319 397
#     4  12  22  38  64 100 138 170 218 270 346 404
#     4  10  19  42  64  95 119 173 224 265 330 407
#     4  11  25  46  68  92 133 178 223 284 333 391
#     4  10  26  48  66  96 126 180 246 256 322 420
#
# _framework density 23.133185999999998
#
# number of rings (size 3 to 8) (size 9 to 14) (size 15 to 20)
#    0.000    1.714    3.571    0.429   13.000    0.000 
#    7.714    0.000    0.000    0.000    0.000    0.000 
#    0.000    0.000    0.000    0.000    0.000    0.000 
#
# Total GULP energy -78067.849493 kJ/mol
# GULP energy per Si atom -5576.274964 kJ/mol
# Density = 2.308053 g / cm^3
# Si number density = 23.133186 Si / 1000 Ang^3
#
#
#
# Elastic Constant Matrix: (Units=GPa)
#
#
# Indices 1 2 3 4 5 6 
#
# 1 112.4388 1.5672 62.4655 0.0023 32.3787 0.0008
# 2 1.5672 29.5153 12.6460 -0.0076 16.4882 0.0016
# 3 62.4655 12.6460 88.1673 0.0135 31.7514 -0.0077
# 4 0.0023 -0.0076 0.0135 3.9296 -0.0125 10.6190
# 5 32.3787 16.4882 31.7514 -0.0125 59.4564 0.0030
# 6 0.0008 0.0016 -0.0077 10.6190 0.0030 29.1495
#
#
#
# Elastic Compliance Matrix: (Units=1/GPa)
#
#
# Indices 1 2 3 4 5 6 
#
# 1 0.016070 0.006399 -0.010540 0.002052 -0.004897 -0.000751
# 2 0.006399 0.042976 -0.006379 0.004583 -0.011995 -0.001672
# 3 -0.010540 -0.006379 0.021076 -0.006946 -0.003748 0.002537
# 4 0.002052 0.004583 -0.006946 16.358917 0.005048 -5.959472
# 5 -0.004897 -0.011995 -0.003748 0.005048 0.024815 -0.001842
# 6 -0.000751 -0.001672 0.002537 -5.959472 -0.001842 2.205312
#
#
# Mechanical properties :
#
#
# Convention : Reuss Voigt Hill
#
# Bulk Modulus (GPa) = 16.92581 42.60878 29.76729
# Shear Modulus (GPa) = 0.26724 28.73661 14.50192
#
# Velocity S-wave (km/s) = 0.34025 3.52834 2.50649
# Velocity P-wave (km/s) = 2.73622 5.92097 4.61220
#
# Compressibility (1/GPa) = 0.05908138
#
# Stress axis : x y z
#
# Youngs Moduli (GPa) = 62.22656 23.26878 47.44821
#
# Poissons Ratio (x) = -0.14889 0.50012
# Poissons Ratio (y) = -0.39818 0.30266
# Poissons Ratio (z) = 0.65589 0.14843
#
# Static dielectric constant tensor:
#      x y z
#    x 1.953060 0.000000 -0.050450 
#    y 0.000000 1.864320 -0.000020 
#    z -0.050450 -0.000020 1.867620 
# 
# From -- ./inp_files/50992.got.cif
#   From: 2010.05.17/outbox.cif.g08.bks.cpg/sg5_26_cif.got.tgz:50992.got - 2010.06.03 18:56:24.
