data_PCOD9120360
_publ_section_title
;
Structure prediction by ZEFSAII (Michael W. Deem and Ramdas Pophale) SiO2 
 PCOD9120360
Probable space group: C 2
;
_chemical_formula_sum "Si O2"
_cell_formula_units_Z 28
_cell_length_a 12.431431
_cell_length_b 10.953538
_cell_length_c 19.095580
_cell_angle_alpha 90.000000
_cell_angle_beta 154.015902
_cell_angle_gamma 90.000000
_cell_volume 1139.208293
_symmetry_space_group_name_H-M "C 2"
_symmetry_group_IT_number 5
_symmetry_cell_setting 'monoclinic'
loop_
_space_group_symop_operation_xyz
x,y,z
-x,y,-z
1/2+x,1/2+y,z
1/2-x,1/2+y,-z
loop_
_atom_site_type_symbol
_atom_site_label
_atom_site_fract_x
_atom_site_fract_y
_atom_site_fract_z
Si Si1 0.643610 0.948130 0.658889
Si Si2 0.487010 0.180584 0.354556
Si Si3 0.085859 0.545344 0.196987
Si Si4 0.506402 0.691986 0.588807
Si Si5 0.429040 0.533078 0.171499
Si Si6 0.384294 0.777289 0.756338
Si Si7 0.669571 0.262687 0.871260
O O1 0.500000 0.948392 0.500000
O O2 0.660939 0.812662 0.696313
O O3 0.493923 0.037448 0.619894
O O4 0.910663 0.007338 0.805080
O O5 0.747686 0.213646 0.473976
O O6 0.374414 0.243344 0.357792
O O7 0.283516 0.208132 0.177027
O O8 0.334612 0.573268 0.299647
O O9 0.116454 0.421953 0.260425
O O10 0.008997 0.662132 0.198335
O O11 0.858580 0.540078 0.010753
O O12 0.500000 0.683105 0.500000
O O13 0.540746 0.667963 0.254407
O O14 0.451600 0.396080 0.216097
O O15 0.605807 0.773407 0.943550
#
# Coordination Sequence:
#
# PCOD9120360 Si02
#       7
#     4   4   4   4   4   4   4
#     4  10  21  40  61  88 120 161 208 256 316 365
#     4  11  22  36  61  91 119 164 204 255 300 369
#     4  10  19  35  61  92 122 159 205 249 295 363
#     4  11  21  38  61  87 125 167 204 245 311 374
#     4   9  18  37  62  87 118 164 197 248 300 368
#     4   9  21  34  59  92 123 160 204 253 301 353
#     4  10  17  37  64  89 120 158 210 245 305 368
#
# _framework density 24.578472999999999
#
# number of rings (size 3 to 8) (size 9 to 14) (size 15 to 20)
#    0.000    2.000    2.857    1.286    2.000    0.000 
#    0.000    5.714    0.000    0.000    3.714    0.000 
#    0.000    0.000    0.000    0.000    0.000    0.000 
#
# Total GULP energy -77999.908677 kJ/mol
# GULP energy per Si atom -5571.422048 kJ/mol
# Density = 2.452253 g / cm^3
# Si number density = 24.578473 Si / 1000 Ang^3
#
#
#
# Elastic Constant Matrix: (Units=GPa)
#
#
# Indices 1 2 3 4 5 6 
#
# 1 44.9347 27.3690 30.4782 0.0020 2.1320 -0.0004
# 2 27.3690 177.1945 30.8936 0.0176 11.4173 -0.0017
# 3 30.4782 30.8936 80.0114 0.0303 22.6692 -0.0002
# 4 0.0020 0.0176 0.0303 21.5971 0.0018 -5.6524
# 5 2.1320 11.4173 22.6692 0.0018 35.4463 -0.0012
# 6 -0.0004 -0.0017 -0.0002 -5.6524 -0.0012 8.6236
#
#
#
# Elastic Compliance Matrix: (Units=1/GPa)
#
#
# Indices 1 2 3 4 5 6 
#
# 1 0.033028 -0.003242 -0.013510 0.000022 0.007698 0.000016
# 2 -0.003242 0.006378 -0.000856 -0.000004 -0.001312 -0.000002
# 3 -0.013510 -0.000856 0.021576 -0.000034 -0.012711 -0.000024
# 4 0.000022 -0.000004 -0.000034 0.055890 0.000020 0.036633
# 5 0.007698 -0.001312 -0.012711 0.000020 0.036300 0.000018
# 6 0.000016 -0.000002 -0.000024 0.036633 0.000018 0.139972
#
#
# Mechanical properties :
#
#
# Convention : Reuss Voigt Hill
#
# Bulk Modulus (GPa) = 38.81150 53.29134 46.05142
# Shear Modulus (GPa) = 14.83904 27.36006 21.09955
#
# Velocity S-wave (km/s) = 2.45978 3.34004 2.93312
# Velocity P-wave (km/s) = 4.88799 6.05010 5.49983
#
# Compressibility (1/GPa) = 0.02576556
#
# Stress axis : x y z
#
# Youngs Moduli (GPa) = 30.27774 156.78830 46.34703
#
# Poissons Ratio (x) = 0.50829 0.62616
# Poissons Ratio (y) = 0.09816 0.03968
# Poissons Ratio (z) = 0.40906 0.13422
#
# Static dielectric constant tensor:
#      x y z
#    x 2.030990 0.000000 -0.003290 
#    y 0.000000 2.044810 -0.000010 
#    z -0.003290 -0.000010 2.040810 
# 
# From -- ./inp_files/65321.got.cif
#   From: 2010.05.17/outbox.cif.g08.bks.cpg/sg5_33_cif.got.tgz:65321.got - 2010.06.03 18:56:24.
