data_PCOD9120867
_publ_section_title
;
Structure prediction by ZEFSAII (Michael W. Deem and Ramdas Pophale) SiO2 
 PCOD9120867
Probable space group: C 2
;
_chemical_formula_sum "Si O2"
_cell_formula_units_Z 26
_cell_length_a 23.249123
_cell_length_b 7.459647
_cell_length_c 9.736578
_cell_angle_alpha 90.000000
_cell_angle_beta 41.689833
_cell_angle_gamma 90.000000
_cell_volume 1123.095653
_symmetry_space_group_name_H-M "C 2"
_symmetry_group_IT_number 5
_symmetry_cell_setting 'monoclinic'
loop_
_space_group_symop_operation_xyz
x,y,z
-x,y,-z
1/2+x,1/2+y,z
1/2-x,1/2+y,-z
loop_
_atom_site_type_symbol
_atom_site_label
_atom_site_fract_x
_atom_site_fract_y
_atom_site_fract_z
Si Si1 0.085659 0.552190 0.048141
Si Si2 0.333809 0.771752 0.424137
Si Si3 0.000000 0.267535 0.000000
Si Si4 0.963923 0.834954 0.381420
Si Si5 0.648065 0.191561 0.654926
Si Si6 0.245909 0.171986 0.151274
Si Si7 0.627478 0.466033 0.182210
O O1 0.022282 0.653247 0.266362
O O2 0.106051 0.684724 0.881815
O O3 0.179872 0.522895 0.948185
O O4 0.039532 0.387928 0.054581
O O5 0.247054 0.748995 0.491094
O O6 0.312300 0.698887 0.611676
O O7 0.353498 0.984282 0.391658
O O8 0.415408 0.675387 0.210196
O O9 0.903253 0.812362 0.359412
O O10 0.906010 0.863122 0.619879
O O11 0.038866 0.987268 0.254885
O O12 0.182278 0.131184 0.139922
O O13 0.304398 0.344915 0.019709
#
# Coordination Sequence:
#
# PCOD9120867 Si02
#       7
#     4   4   2   4   4   4   4
#     4   9  17  36  62  90 121 159 202 248 318 380
#     4  10  22  38  64  96 128 157 214 262 325 369
#     4  10  18  36  60 102 116 154 194 264 332 362
#     4  10  19  38  63  88 124 164 211 248 310 376
#     4  10  20  36  67  94 123 167 204 262 322 380
#     4  10  23  42  61  92 124 170 214 259 307 371
#     4  10  24  39  64  86 127 173 217 252 305 368
#
# _framework density 23.150296999999998
#
# number of rings (size 3 to 8) (size 9 to 14) (size 15 to 20)
#    0.000    2.154    3.077    0.000    8.615    0.000 
#    0.000    9.231    0.000    0.000    0.000    0.000 
#    0.000    0.000    0.000    0.000    0.000    0.000 
#
# Total GULP energy -72583.632456 kJ/mol
# GULP energy per Si atom -5583.356343 kJ/mol
# Density = 2.309761 g / cm^3
# Si number density = 23.150297 Si / 1000 Ang^3
#
#
#
# Elastic Constant Matrix: (Units=GPa)
#
#
# Indices 1 2 3 4 5 6 
#
# 1 118.7265 19.5947 19.6078 0.0000 -31.2568 0.0000
# 2 19.5947 43.4952 7.9814 0.0000 0.3133 0.0000
# 3 19.6078 7.9814 136.0306 0.0000 -18.0106 0.0000
# 4 0.0000 0.0000 0.0000 21.1506 0.0000 -0.2670
# 5 -31.2568 0.3133 -18.0106 0.0000 27.2952 0.0000
# 6 0.0000 0.0000 0.0000 -0.2670 0.0000 28.9410
#
#
#
# Elastic Compliance Matrix: (Units=1/GPa)
#
#
# Indices 1 2 3 4 5 6 
#
# 1 0.013588 -0.006334 0.000529 0.000000 0.015982 0.000000
# 2 -0.006334 0.026234 -0.001782 0.000000 -0.008730 0.000000
# 3 0.000529 -0.001782 0.008177 0.000000 0.006022 0.000000
# 4 0.000000 0.000000 0.000000 0.047286 0.000000 0.000436
# 5 0.015982 -0.008730 0.006022 0.000000 0.059012 0.000000
# 6 0.000000 0.000000 0.000000 0.000436 0.000000 0.034557
#
#
# Mechanical properties :
#
#
# Convention : Reuss Voigt Hill
#
# Bulk Modulus (GPa) = 30.46391 43.62446 37.04418
# Shear Modulus (GPa) = 23.25908 32.21525 27.73717
#
# Velocity S-wave (km/s) = 3.17314 3.73442 3.46516
# Velocity P-wave (km/s) = 5.15876 6.12205 5.66093
#
# Compressibility (1/GPa) = 0.03282573
#
# Stress axis : x y z
#
# Youngs Moduli (GPa) = 73.59282 38.11796 122.29602
#
# Poissons Ratio (x) = 0.24143 -0.06470
# Poissons Ratio (y) = 0.46612 0.21795
# Poissons Ratio (z) = -0.03893 0.06793
#
# Static dielectric constant tensor:
#      x y z
#    x 1.910340 0.000000 -0.029890 
#    y 0.000000 1.922300 0.000000 
#    z -0.029890 0.000000 1.857840 
# 
# From -- ./inp_files/47097.got.cif
#   From: 2010.05.17/outbox.cif.g08.bks.cpg/sg5_24_cif.got.tgz:47097.got - 2010.06.03 18:56:24.
