data_PCOD9120818
_publ_section_title
;
Structure prediction by ZEFSAII (Michael W. Deem and Ramdas Pophale) SiO2 
 PCOD9120818
Probable space group: C 2
;
_chemical_formula_sum "Si O2"
_cell_formula_units_Z 24
_cell_length_a 24.732501
_cell_length_b 4.964994
_cell_length_c 7.510762
_cell_angle_alpha 90.000000
_cell_angle_beta 84.299869
_cell_angle_gamma 90.000000
_cell_volume 917.736489
_symmetry_space_group_name_H-M "C 2"
_symmetry_group_IT_number 5
_symmetry_cell_setting 'monoclinic'
loop_
_space_group_symop_operation_xyz
x,y,z
-x,y,-z
1/2+x,1/2+y,z
1/2-x,1/2+y,-z
loop_
_atom_site_type_symbol
_atom_site_label
_atom_site_fract_x
_atom_site_fract_y
_atom_site_fract_z
Si Si1 0.637453 0.218010 0.281101
Si Si2 0.769892 0.978953 0.589896
Si Si3 0.944672 0.382450 0.487431
Si Si4 0.317523 0.700731 0.906597
Si Si5 0.949292 0.634467 0.133454
Si Si6 0.618999 0.644548 0.801910
O O1 0.673817 0.308293 0.438118
O O2 0.584587 0.056096 0.352933
O O3 0.633679 0.501692 0.180536
O O4 0.673140 0.005228 0.157151
O O5 0.730095 0.756570 0.519814
O O6 0.769565 0.074663 0.798846
O O7 0.896864 0.227750 0.394877
O O8 0.000000 0.214878 0.500000
O O9 0.966675 0.587024 0.330117
O O10 0.323563 0.675514 0.116399
O O11 0.901604 0.847155 0.159650
O O12 0.921925 0.353691 0.083100
O O13 0.000000 0.715627 0.000000
#
# Coordination Sequence:
#
# PCOD9120818 Si02
#       6
#     4   4   4   4   4   4
#     4  10  22  37  62  92 127 159 208 263 321 359
#     4  10  18  35  62  99 117 151 203 264 321 383
#     4  10  26  39  59  92 130 176 214 260 308 368
#     4  10  21  35  64  89 123 159 204 258 322 374
#     4  10  23  38  56  81 118 170 216 260 298 365
#     4  10  23  38  59  84 122 166 216 255 313 366
#
# _framework density 26.151299999999999
#
# number of rings (size 3 to 8) (size 9 to 14) (size 15 to 20)
#    2.000    0.000    1.667    1.500    7.000    0.667 
#    0.000    0.000    0.000    0.000   13.000    0.000 
#    0.000    0.000    0.000    0.000    0.000    0.000 
#
# Total GULP energy -66840.273489 kJ/mol
# GULP energy per Si atom -5570.022791 kJ/mol
# Density = 2.609178 g / cm^3
# Si number density = 26.151300 Si / 1000 Ang^3
#
#
#
# Elastic Constant Matrix: (Units=GPa)
#
#
# Indices 1 2 3 4 5 6 
#
# 1 76.5153 20.0299 29.8425 0.0000 22.1021 0.0000
# 2 20.0299 134.3875 17.2171 0.0000 12.9591 0.0000
# 3 29.8425 17.2171 75.7579 0.0000 20.5056 0.0000
# 4 0.0000 0.0000 0.0000 11.8617 0.0000 9.1629
# 5 22.1021 12.9591 20.5056 0.0000 45.5993 0.0000
# 6 0.0000 0.0000 0.0000 9.1629 0.0000 31.3961
#
#
#
# Elastic Compliance Matrix: (Units=1/GPa)
#
#
# Indices 1 2 3 4 5 6 
#
# 1 0.016944 -0.001361 -0.004836 0.000000 -0.005651 0.000000
# 2 -0.001361 0.007876 -0.000941 0.000000 -0.001155 0.000000
# 3 -0.004836 -0.000941 0.016637 0.000000 -0.004870 0.000000
# 4 0.000000 0.000000 0.000000 0.108843 0.000000 -0.031766
# 5 -0.005651 -0.001155 -0.004870 0.000000 0.027188 0.000000
# 6 0.000000 0.000000 0.000000 -0.031766 0.000000 0.041122
#
#
# Mechanical properties :
#
#
# Convention : Reuss Voigt Hill
#
# Bulk Modulus (GPa) = 36.78946 46.75996 41.77471
# Shear Modulus (GPa) = 20.66586 32.40951 26.53768
#
# Velocity S-wave (km/s) = 2.81417 3.52420 3.18901
# Velocity P-wave (km/s) = 4.96567 5.87191 5.43770
#
# Compressibility (1/GPa) = 0.02718170
#
# Stress axis : x y z
#
# Youngs Moduli (GPa) = 59.01799 126.96796 60.10743
#
# Poissons Ratio (x) = 0.17280 0.29065
# Poissons Ratio (y) = 0.08032 0.05657
# Poissons Ratio (z) = 0.28538 0.11949
#
# Static dielectric constant tensor:
#      x y z
#    x 2.149800 0.000000 0.082230 
#    y 0.000000 1.949230 0.000000 
#    z 0.082230 0.000000 2.183700 
# 
# From -- ./inp_files/31285.got.cif
#   From: 2010.05.17/outbox.cif.g08.bks.cpg/sg5_16_cif.got.tgz:31285.got - 2010.06.03 18:56:24.
