data_PCOD9120991
_publ_section_title
;
Structure prediction by ZEFSAII (Michael W. Deem and Ramdas Pophale) SiO2 
 PCOD9120991
Probable space group: C 2
;
_chemical_formula_sum "Si O2"
_cell_formula_units_Z 26
_cell_length_a 15.357778
_cell_length_b 8.125523
_cell_length_c 22.344485
_cell_angle_alpha 90.000000
_cell_angle_beta 22.886544
_cell_angle_gamma 90.000000
_cell_volume 1084.417422
_symmetry_space_group_name_H-M "C 2"
_symmetry_group_IT_number 5
_symmetry_cell_setting 'monoclinic'
loop_
_space_group_symop_operation_xyz
x,y,z
-x,y,-z
1/2+x,1/2+y,z
1/2-x,1/2+y,-z
loop_
_atom_site_type_symbol
_atom_site_label
_atom_site_fract_x
_atom_site_fract_y
_atom_site_fract_z
Si Si1 0.229934 0.543980 0.860679
Si Si2 0.251921 0.017048 0.669465
Si Si3 0.202637 0.853946 0.062431
Si Si4 0.347144 0.731148 0.389379
Si Si5 0.500000 0.516088 0.500000
Si Si6 0.874797 0.775389 0.687650
Si Si7 0.989419 0.521367 0.224388
O O1 0.256210 0.485201 0.911522
O O2 0.455887 0.638328 0.701037
O O3 0.214493 0.380393 0.830524
O O4 0.000000 0.642287 0.000000
O O5 0.500000 0.942762 0.500000
O O6 0.208126 0.131962 0.637915
O O7 0.274640 0.122953 0.715651
O O8 0.038070 0.902231 0.812308
O O9 0.164879 0.671350 0.112371
O O10 0.402589 0.886600 0.889661
O O11 0.108694 0.737631 0.573378
O O12 0.441025 0.911010 0.313200
O O13 0.451602 0.398973 0.586824
O O14 0.745336 0.589150 0.358393
#
# Coordination Sequence:
#
# PCOD9120991 Si02
#       7
#     4   4   4   4   2   4   4
#     4  11  24  37  64  92 130 169 211 261 331 373
#     4   9  17  37  64  93 123 165 216 257 313 385
#     4  11  24  37  64  94 131 166 216 271 323 376
#     4   9  20  41  63  86 126 171 212 257 317 380
#     4  10  20  38  66  92 120 170 214 256 318 386
#     4  10  18  37  68  89 123 170 212 260 318 382
#     4  11  22  40  66  90 128 166 220 263 319 381
#
# _framework density 23.976008
#
# number of rings (size 3 to 8) (size 9 to 14) (size 15 to 20)
#    0.000    1.846    3.846    2.769    3.231    2.462 
#    0.000    0.769   16.923    0.000    0.000    0.000 
#    0.000    0.000    0.000    0.000    0.000    0.000 
#
# Total GULP energy -72595.423854 kJ/mol
# GULP energy per Si atom -5584.263373 kJ/mol
# Density = 2.392144 g / cm^3
# Si number density = 23.976008 Si / 1000 Ang^3
#
#
#
# Elastic Constant Matrix: (Units=GPa)
#
#
# Indices 1 2 3 4 5 6 
#
# 1 32.3483 3.1352 24.4084 -0.0012 -15.6923 -0.0001
# 2 3.1352 55.8797 21.8380 -0.0027 -12.4688 -0.0010
# 3 24.4084 21.8380 132.5481 -0.0157 -24.7020 0.0025
# 4 -0.0012 -0.0027 -0.0157 43.3848 0.0015 -5.7862
# 5 -15.6923 -12.4688 -24.7020 0.0015 37.4396 -0.0009
# 6 -0.0001 -0.0010 0.0025 -5.7862 -0.0009 18.7873
#
#
#
# Elastic Compliance Matrix: (Units=1/GPa)
#
#
# Indices 1 2 3 4 5 6 
#
# 1 0.042029 0.003132 -0.005448 -0.000001 0.015064 0.000001
# 2 0.003132 0.020180 -0.002742 0.000000 0.006225 0.000002
# 3 -0.005448 -0.002742 0.009582 0.000003 0.003125 0.000000
# 4 -0.000001 0.000000 0.000003 0.024037 0.000001 0.007403
# 5 0.015064 0.006225 0.003125 0.000001 0.037159 0.000002
# 6 0.000001 0.000002 0.000000 0.007403 0.000002 0.055508
#
#
# Mechanical properties :
#
#
# Convention : Reuss Voigt Hill
#
# Bulk Modulus (GPa) = 16.21370 35.50438 25.85904
# Shear Modulus (GPa) = 22.81364 31.34863 27.08114
#
# Velocity S-wave (km/s) = 3.08802 3.61986 3.36446
# Velocity P-wave (km/s) = 4.41493 5.68433 5.08936
#
# Compressibility (1/GPa) = 0.06167623
#
# Stress axis : x y z
#
# Youngs Moduli (GPa) = 23.79331 49.55344 104.36414
#
# Poissons Ratio (x) = -0.15522 0.56859
# Poissons Ratio (y) = -0.07453 0.28612
# Poissons Ratio (z) = 0.12963 0.13585
#
# Static dielectric constant tensor:
#      x y z
#    x 1.924740 0.000000 -0.055080 
#    y 0.000000 1.941680 0.000000 
#    z -0.055080 0.000000 1.970310 
# 
# From -- ./inp_files/70854.got.cif
#   From: 2010.05.17/outbox.cif.g08.bks.cpg/sg5_36_cif.got.tgz:70854.got - 2010.06.03 18:56:24.
