data_PCOD9120492
_publ_section_title
;
Structure prediction by ZEFSAII (Michael W. Deem and Ramdas Pophale) SiO2 
 PCOD9120492
Probable space group: C 2
;
_chemical_formula_sum "Si O2"
_cell_formula_units_Z 28
_cell_length_a 29.592949
_cell_length_b 9.342028
_cell_length_c 5.820408
_cell_angle_alpha 90.000000
_cell_angle_beta 118.375410
_cell_angle_gamma 90.000000
_cell_volume 1415.770211
_symmetry_space_group_name_H-M "C 2"
_symmetry_group_IT_number 5
_symmetry_cell_setting 'monoclinic'
loop_
_space_group_symop_operation_xyz
x,y,z
-x,y,-z
1/2+x,1/2+y,z
1/2-x,1/2+y,-z
loop_
_atom_site_type_symbol
_atom_site_label
_atom_site_fract_x
_atom_site_fract_y
_atom_site_fract_z
Si Si1 0.287326 0.843790 0.925123
Si Si2 0.380753 0.351041 0.444748
Si Si3 0.506613 0.222144 0.264594
Si Si4 0.138416 0.092621 0.946940
Si Si5 0.700890 0.161225 0.976820
Si Si6 0.527210 0.535196 0.817224
Si Si7 0.797273 0.863438 0.635871
O O1 0.256272 0.887436 0.621045
O O2 0.297928 0.994583 0.070784
O O3 0.337875 0.749255 0.018462
O O4 0.246531 0.744702 0.959125
O O5 0.437820 0.296984 0.614316
O O6 0.377431 0.507641 0.322579
O O7 0.344959 0.354581 0.578883
O O8 0.352653 0.234493 0.217827
O O9 0.500000 0.149067 0.500000
O O10 0.469385 0.361301 0.181871
O O11 0.500000 0.146058 0.000000
O O12 0.085357 0.093155 0.959819
O O13 0.184589 0.992769 0.156953
O O14 0.707941 0.210558 0.254903
O O15 0.500000 0.573440 0.500000
O O16 0.500000 0.569923 0.000000
#
# Coordination Sequence:
#
# PCOD9120492 Si02
#       7
#     4   4   4   4   4   4   4
#     4  11  22  39  57  86 121 161 203 253 311 378
#     4  10  20  35  57  89 117 158 198 255 310 366
#     4  10  18  31  56  90 121 152 205 261 304 355
#     4  11  21  35  61  91 120 161 204 260 314 369
#     4  10  22  37  57  83 122 157 204 252 307 380
#     4  10  19  34  58  93 124 157 210 264 310 360
#     4  10  20  35  57  83 120 155 203 248 309 369
#
# _framework density 19.777221999999998
#
# number of rings (size 3 to 8) (size 9 to 14) (size 15 to 20)
#    0.000    1.714    2.857    5.143    2.000    1.143 
#    0.000    0.000    0.000    0.857    0.000    1.000 
#    0.000    0.000    0.000    0.000    0.000    0.000 
#
# Total GULP energy -77979.253544 kJ/mol
# GULP energy per Si atom -5569.946682 kJ/mol
# Density = 1.973221 g / cm^3
# Si number density = 19.777222 Si / 1000 Ang^3
#
#
#
# Elastic Constant Matrix: (Units=GPa)
#
#
# Indices 1 2 3 4 5 6 
#
# 1 85.9792 34.3123 31.6216 0.0000 -1.1461 0.0000
# 2 34.3123 103.3778 12.8987 0.0000 2.6324 0.0000
# 3 31.6216 12.8987 84.9720 0.0000 -11.0095 0.0000
# 4 0.0000 0.0000 0.0000 6.1746 0.0000 -2.1609
# 5 -1.1461 2.6324 -11.0095 0.0000 31.4053 0.0000
# 6 0.0000 0.0000 0.0000 -2.1609 0.0000 19.7127
#
#
#
# Elastic Compliance Matrix: (Units=1/GPa)
#
#
# Indices 1 2 3 4 5 6 
#
# 1 0.015261 -0.004404 -0.005123 0.000000 -0.000870 0.000000
# 2 -0.004404 0.011191 -0.000212 0.000000 -0.001173 0.000000
# 3 -0.005123 -0.000212 0.014337 0.000000 0.004857 0.000000
# 4 0.000000 0.000000 0.000000 0.168414 0.000000 0.018461
# 5 -0.000870 -0.001173 0.004857 0.000000 0.033611 0.000000
# 6 0.000000 0.000000 0.000000 0.018461 0.000000 0.052752
#
#
# Mechanical properties :
#
#
# Convention : Reuss Voigt Hill
#
# Bulk Modulus (GPa) = 46.92561 47.99936 47.46248
# Shear Modulus (GPa) = 15.52084 24.49162 20.00623
#
# Velocity S-wave (km/s) = 2.80444 3.52287 3.18398
# Velocity P-wave (km/s) = 5.85364 6.39298 6.12925
#
# Compressibility (1/GPa) = 0.02131033
#
# Stress axis : x y z
#
# Youngs Moduli (GPa) = 65.52697 89.35542 69.75118
#
# Poissons Ratio (x) = 0.39351 0.35737
# Poissons Ratio (y) = 0.28857 0.01479
# Poissons Ratio (z) = 0.33572 0.01894
#
# Static dielectric constant tensor:
#      x y z
#    x 1.764000 0.000000 0.002250 
#    y 0.000000 1.661220 0.000000 
#    z 0.002250 0.000000 1.879330 
# 
# From -- ./inp_files/11155.got.cif
#   From: 2010.05.17/outbox.cif.g08.bks.cpg/sg5_6_cif.got.tgz:11155.got - 2010.06.03 18:56:24.
