data_PCOD9120414
_publ_section_title
;
Structure prediction by ZEFSAII (Michael W. Deem and Ramdas Pophale) SiO2 
 PCOD9120414
Probable space group: C 2
;
_chemical_formula_sum "Si O2"
_cell_formula_units_Z 30
_cell_length_a 12.627431
_cell_length_b 16.320001
_cell_length_c 12.440359
_cell_angle_alpha 90.000000
_cell_angle_beta 144.895292
_cell_angle_gamma 90.000000
_cell_volume 1474.316349
_symmetry_space_group_name_H-M "C 2"
_symmetry_group_IT_number 5
_symmetry_cell_setting 'monoclinic'
loop_
_space_group_symop_operation_xyz
x,y,z
-x,y,-z
1/2+x,1/2+y,z
1/2-x,1/2+y,-z
loop_
_atom_site_type_symbol
_atom_site_label
_atom_site_fract_x
_atom_site_fract_y
_atom_site_fract_z
Si Si1 0.679939 0.611250 0.090788
Si Si2 0.772576 0.625155 0.935449
Si Si3 0.940237 0.209390 0.569116
Si Si4 0.105961 0.789329 0.408120
Si Si5 0.000000 0.656212 0.500000
Si Si6 0.343339 0.893766 0.740143
Si Si7 0.301420 0.805665 0.935367
Si Si8 0.324748 0.082647 0.736320
O O1 0.852215 0.602863 0.313275
O O2 0.660888 0.710712 0.062561
O O3 0.500000 0.578795 0.000000
O O4 0.713718 0.581591 0.997240
O O5 0.622482 0.697151 0.792464
O O6 0.767723 0.583021 0.814508
O O7 0.992873 0.638695 0.130304
O O8 0.776746 0.265195 0.476322
O O9 0.839548 0.120737 0.469355
O O10 0.000000 0.235793 0.500000
O O11 0.170440 0.869140 0.525344
O O12 0.086938 0.716687 0.481995
O O13 0.905528 0.803933 0.191375
O O14 0.299661 0.859553 0.823619
O O15 0.376883 0.989627 0.758016
O O16 0.528411 0.845029 0.860689
#
# Coordination Sequence:
#
# PCOD9120414 Si02
#       8
#     4   4   4   4   2   4   4   4
#     4  11  18  30  51  78 114 143 183 235 287 327
#     4  10  20  34  52  75 112 153 188 230 283 344
#     4  10  22  37  54  80 117 156 194 231 281 349
#     4  11  19  33  54  85 112 143 186 240 292 333
#     4  10  18  30  48  84 114 130 180 238 290 330
#     4  11  19  33  55  84 114 143 177 243 300 339
#     4  10  18  29  49  82 115 133 179 236 286 334
#     4  10  22  37  53  81 115 152 192 233 294 349
#
# _framework density 20.348413999999998
#
# number of rings (size 3 to 8) (size 9 to 14) (size 15 to 20)
#    0.000    1.600    4.000    4.800    0.000    4.267 
#    0.000    0.000    0.000    0.000   17.333    0.000 
#    4.000    0.000    0.000    0.000    0.000    0.000 
#
# Total GULP energy -83603.425624 kJ/mol
# GULP energy per Si atom -5573.561708 kJ/mol
# Density = 2.030210 g / cm^3
# Si number density = 20.348414 Si / 1000 Ang^3
#
#
#
# Elastic Constant Matrix: (Units=GPa)
#
#
# Indices 1 2 3 4 5 6 
#
# 1 129.1379 2.9629 38.1993 0.0000 19.7401 0.0000
# 2 2.9629 42.5862 5.7221 0.0000 11.6602 0.0000
# 3 38.1993 5.7221 97.7449 0.0000 23.2303 0.0000
# 4 0.0000 0.0000 0.0000 7.6769 0.0000 -0.0033
# 5 19.7401 11.6602 23.2303 0.0000 34.8642 0.0000
# 6 0.0000 0.0000 0.0000 -0.0033 0.0000 9.1461
#
#
#
# Elastic Compliance Matrix: (Units=1/GPa)
#
#
# Indices 1 2 3 4 5 6 
#
# 1 0.009083 0.000709 -0.002748 0.000000 -0.003549 0.000000
# 2 0.000709 0.025938 0.000430 0.000000 -0.009363 0.000000
# 3 -0.002748 0.000430 0.013003 0.000000 -0.007252 0.000000
# 4 0.000000 0.000000 0.000000 0.130261 0.000000 0.000047
# 5 -0.003549 -0.009363 -0.007252 0.000000 0.038655 0.000000
# 6 0.000000 0.000000 0.000000 0.000047 0.000000 0.109336
#
#
# Mechanical properties :
#
#
# Convention : Reuss Voigt Hill
#
# Bulk Modulus (GPa) = 22.31857 40.35974 31.33915
# Shear Modulus (GPa) = 14.51674 25.17642 19.84658
#
# Velocity S-wave (km/s) = 2.67387 3.52130 3.12643
# Velocity P-wave (km/s) = 4.53043 6.03408 5.33549
#
# Compressibility (1/GPa) = 0.04480574
#
# Stress axis : x y z
#
# Youngs Moduli (GPa) = 110.10019 38.55311 76.90616
#
# Poissons Ratio (x) = -0.02733 0.21131
# Poissons Ratio (y) = -0.07806 -0.03304
# Poissons Ratio (z) = 0.30251 -0.01656
#
# Static dielectric constant tensor:
#      x y z
#    x 1.782920 0.000000 0.013550 
#    y 0.000000 1.705020 0.000000 
#    z 0.013550 0.000000 1.766090 
# 
# From -- ./inp_files/40493.got.cif
#   From: 2010.05.17/outbox.cif.g08.bks.cpg/sg5_21_cif.got.tgz:40493.got - 2010.06.03 18:56:24.
