data_PCOD9120561
_publ_section_title
;
Structure prediction by ZEFSAII (Michael W. Deem and Ramdas Pophale) SiO2 
 PCOD9120561
Probable space group: C 2
;
_chemical_formula_sum "Si O2"
_cell_formula_units_Z 22
_cell_length_a 12.586020
_cell_length_b 19.027621
_cell_length_c 5.303472
_cell_angle_alpha 90.000000
_cell_angle_beta 56.277677
_cell_angle_gamma 90.000000
_cell_volume 1056.378794
_symmetry_space_group_name_H-M "C 2"
_symmetry_group_IT_number 5
_symmetry_cell_setting 'monoclinic'
loop_
_space_group_symop_operation_xyz
x,y,z
-x,y,-z
1/2+x,1/2+y,z
1/2-x,1/2+y,-z
loop_
_atom_site_type_symbol
_atom_site_label
_atom_site_fract_x
_atom_site_fract_y
_atom_site_fract_z
Si Si1 0.500000 0.961581 0.500000
Si Si2 0.917615 0.931219 0.865919
Si Si3 0.647165 0.578684 0.214609
Si Si4 0.353197 0.009027 0.295547
Si Si5 0.417244 0.720183 0.867890
Si Si6 0.820400 0.372475 0.062214
O O1 0.444042 0.908764 0.777306
O O2 0.386774 0.009761 0.545529
O O3 0.000000 0.928072 0.500000
O O4 0.868702 0.011723 0.947718
O O5 0.797080 0.882004 0.972737
O O6 0.000000 0.913089 0.000000
O O7 0.500000 0.587696 0.500000
O O8 0.748660 0.556856 0.296897
O O9 0.676849 0.655368 0.067125
O O10 0.500000 0.022456 0.000000
O O11 0.300912 0.929044 0.312436
O O12 0.500000 0.735511 0.500000
O O13 0.350247 0.791376 0.053816
O O14 0.500000 0.696223 0.000000
#
# Coordination Sequence:
#
# PCOD9120561 Si02
#       6
#     2   4   4   4   4   4
#     4  10  18  32  60  86 116 148 198 250 298 344
#     4  10  22  37  58  87 118 157 197 244 294 350
#     4   9  20  37  58  85 120 153 198 244 296 355
#     4   9  19  36  55  89 115 154 199 245 296 347
#     4  11  22  38  58  89 120 153 193 245 300 348
#     4  10  21  34  60  86 121 152 199 249 291 354
#
# _framework density 20.825862999999998
#
# number of rings (size 3 to 8) (size 9 to 14) (size 15 to 20)
#    0.000    2.182    0.909    2.182    7.636    0.000 
#    9.818    0.909    0.000    0.000    4.727    0.000 
#    0.000    0.000    0.000    0.000    0.000    0.000 
#
# Total GULP energy -61246.275282 kJ/mol
# GULP energy per Si atom -5567.843207 kJ/mol
# Density = 2.077846 g / cm^3
# Si number density = 20.825863 Si / 1000 Ang^3
#
#
#
# Elastic Constant Matrix: (Units=GPa)
#
#
# Indices 1 2 3 4 5 6 
#
# 1 180.5406 59.8862 16.4161 0.0000 23.0909 0.0000
# 2 59.8862 114.0927 -2.9258 0.0000 11.6993 0.0000
# 3 16.4161 -2.9258 42.2633 0.0000 5.9155 0.0000
# 4 0.0000 0.0000 0.0000 8.5005 0.0000 -3.7932
# 5 23.0909 11.6993 5.9155 0.0000 39.2793 0.0000
# 6 0.0000 0.0000 0.0000 -3.7932 0.0000 26.3453
#
#
#
# Elastic Compliance Matrix: (Units=1/GPa)
#
#
# Indices 1 2 3 4 5 6 
#
# 1 0.007355 -0.003640 -0.002713 0.000000 -0.002831 0.000000
# 2 -0.003640 0.010886 0.002372 0.000000 -0.001460 0.000000
# 3 -0.002713 0.002372 0.025288 0.000000 -0.002920 0.000000
# 4 0.000000 0.000000 0.000000 0.125718 0.000000 0.018101
# 5 -0.002831 -0.001460 -0.002920 0.000000 0.027998 0.000000
# 6 0.000000 0.000000 0.000000 0.018101 0.000000 0.040564
#
#
# Mechanical properties :
#
#
# Convention : Reuss Voigt Hill
#
# Bulk Modulus (GPa) = 28.11583 53.73887 40.92735
# Shear Modulus (GPa) = 19.40811 32.39304 25.90058
#
# Velocity S-wave (km/s) = 3.05605 3.94816 3.53040
# Velocity P-wave (km/s) = 5.09729 6.82964 6.02604
#
# Compressibility (1/GPa) = 0.03556715
#
# Stress axis : x y z
#
# Youngs Moduli (GPa) = 135.96173 91.86264 39.54490
#
# Poissons Ratio (x) = 0.33436 0.10727
# Poissons Ratio (y) = 0.49488 -0.09379
# Poissons Ratio (z) = 0.36881 -0.21787
#
# Static dielectric constant tensor:
#      x y z
#    x 1.775140 0.000000 0.001260 
#    y 0.000000 1.752980 0.000000 
#    z 0.001260 0.000000 2.009450 
# 
# From -- ./inp_files/5034.got.cif
#   From: 2010.05.17/outbox.cif.g08.bks.cpg/sg5_3_cif.got.tgz:5034.got - 2010.06.03 18:56:24.
