data_PCOD9120751
_publ_section_title
;
Structure prediction by ZEFSAII (Michael W. Deem and Ramdas Pophale) SiO2 
 PCOD9120751
Probable space group: C 2
;
_chemical_formula_sum "Si O2"
_cell_formula_units_Z 32
_cell_length_a 15.176987
_cell_length_b 21.585067
_cell_length_c 8.914085
_cell_angle_alpha 90.000000
_cell_angle_beta 149.250055
_cell_angle_gamma 90.000000
_cell_volume 1493.086447
_symmetry_space_group_name_H-M "C 2"
_symmetry_group_IT_number 5
_symmetry_cell_setting 'monoclinic'
loop_
_space_group_symop_operation_xyz
x,y,z
-x,y,-z
1/2+x,1/2+y,z
1/2-x,1/2+y,-z
loop_
_atom_site_type_symbol
_atom_site_label
_atom_site_fract_x
_atom_site_fract_y
_atom_site_fract_z
Si Si1 0.513240 0.936860 0.690073
Si Si2 0.175977 0.878611 0.329950
Si Si3 0.283086 0.552610 0.427093
Si Si4 0.165567 0.916472 0.636002
Si Si5 0.127697 0.702263 0.799757
Si Si6 0.011087 0.575607 0.770985
Si Si7 0.183209 0.742006 0.209704
Si Si8 0.495469 0.657468 0.311497
O O1 0.500000 0.914035 0.500000
O O2 0.338159 0.920047 0.520402
O O3 0.543236 0.011104 0.732138
O O4 0.668877 0.908779 0.015242
O O5 0.158576 0.871313 0.483405
O O6 0.201111 0.811224 0.294896
O O7 0.000000 0.904719 0.000000
O O8 0.315928 0.482590 0.423642
O O9 0.169559 0.564665 0.408284
O O10 0.459522 0.590505 0.687855
O O11 0.161937 0.579476 0.116708
O O12 0.000000 0.915945 0.500000
O O13 0.000000 0.736017 0.500000
O O14 0.030842 0.638719 0.708604
O O15 0.170884 0.740095 0.012186
O O16 0.310289 0.683114 0.996435
O O17 0.346227 0.701959 0.499000
O O18 0.000000 0.716354 0.000000
O O19 0.500000 0.652525 0.500000
#
# Coordination Sequence:
#
# PCOD9120751 Si02
#       8
#     4   4   4   4   4   4   4   4
#     4  11  23  41  65  98 141 185 235 282 353 421
#     4  11  24  46  67  99 134 184 247 301 348 416
#     4  10  18  34  64  97 134 180 225 268 351 424
#     4  11  23  41  68 101 140 181 241 297 354 424
#     4  11  23  40  63 100 144 171 232 288 356 421
#     4  10  19  35  61  96 140 181 213 282 343 419
#     4  10  22  44  70  88 128 182 234 289 354 411
#     4  10  19  36  64  98 129 175 226 275 344 427
#
# _framework density 21.432115
#
# number of rings (size 3 to 8) (size 9 to 14) (size 15 to 20)
#    0.000    1.500    3.750    2.625    1.750    1.500 
#    2.250   12.500    0.000    0.000    0.000    0.000 
#    0.000    0.000    0.000    0.000    0.000    0.000 
#
# Total GULP energy -89422.797473 kJ/mol
# GULP energy per Si atom -5588.924842 kJ/mol
# Density = 2.138333 g / cm^3
# Si number density = 21.432115 Si / 1000 Ang^3
#
#
#
# Elastic Constant Matrix: (Units=GPa)
#
#
# Indices 1 2 3 4 5 6 
#
# 1 105.1344 21.0592 57.8917 0.0000 9.9810 0.0000
# 2 21.0592 61.6264 21.6725 0.0000 -0.7529 0.0000
# 3 57.8917 21.6725 132.5388 0.0000 8.0380 0.0000
# 4 0.0000 0.0000 0.0000 14.5134 0.0000 -3.8325
# 5 9.9810 -0.7529 8.0380 0.0000 43.3511 0.0000
# 6 0.0000 0.0000 0.0000 -3.8325 0.0000 19.6345
#
#
#
# Elastic Compliance Matrix: (Units=1/GPa)
#
#
# Indices 1 2 3 4 5 6 
#
# 1 0.013084 -0.002686 -0.005148 0.000000 -0.002105 0.000000
# 2 -0.002686 0.017798 -0.001814 0.000000 0.001264 0.000000
# 3 -0.005148 -0.001814 0.010134 0.000000 -0.000725 0.000000
# 4 0.000000 0.000000 0.000000 0.072646 0.000000 0.014180
# 5 -0.002105 0.001264 -0.000725 0.000000 0.023708 0.000000
# 6 0.000000 0.000000 0.000000 0.014180 0.000000 0.053699
#
#
# Mechanical properties :
#
#
# Convention : Reuss Voigt Hill
#
# Bulk Modulus (GPa) = 46.04007 55.61627 50.82817
# Shear Modulus (GPa) = 22.97728 28.74489 25.86108
#
# Velocity S-wave (km/s) = 3.27784 3.66622 3.47746
# Velocity P-wave (km/s) = 5.98783 6.62781 6.31593
#
# Compressibility (1/GPa) = 0.02172021
#
# Stress axis : x y z
#
# Youngs Moduli (GPa) = 76.42692 56.18588 98.67590
#
# Poissons Ratio (x) = 0.15094 0.50801
# Poissons Ratio (y) = 0.20532 0.17895
# Poissons Ratio (z) = 0.39346 0.10190
#
# Static dielectric constant tensor:
#      x y z
#    x 1.774650 0.000000 -0.004870 
#    y 0.000000 1.819360 0.000000 
#    z -0.004870 0.000000 1.764260 
# 
# From -- ./inp_files/25675.got.cif
#   From: 2010.05.17/outbox.cif.g08.bks.cpg/sg5_13_cif.got.tgz:25675.got - 2010.06.03 18:56:24.
