data_PCOD9120530
_publ_section_title
;
Structure prediction by ZEFSAII (Michael W. Deem and Ramdas Pophale) SiO2 
 PCOD9120530
Probable space group: C 2
;
_chemical_formula_sum "Si O2"
_cell_formula_units_Z 24
_cell_length_a 8.171499
_cell_length_b 16.899866
_cell_length_c 15.216984
_cell_angle_alpha 90.000000
_cell_angle_beta 150.463561
_cell_angle_gamma 90.000000
_cell_volume 1035.953413
_symmetry_space_group_name_H-M "C 2"
_symmetry_group_IT_number 5
_symmetry_cell_setting 'monoclinic'
loop_
_space_group_symop_operation_xyz
x,y,z
-x,y,-z
1/2+x,1/2+y,z
1/2-x,1/2+y,-z
loop_
_atom_site_type_symbol
_atom_site_label
_atom_site_fract_x
_atom_site_fract_y
_atom_site_fract_z
Si Si1 0.228309 0.713200 0.794597
Si Si2 0.882884 0.388230 0.206993
Si Si3 0.886544 0.218558 0.209177
Si Si4 0.604696 0.052035 0.320105
Si Si5 0.244686 0.554854 0.196269
Si Si6 0.779137 0.885096 0.207330
O O1 0.408112 0.714023 0.784588
O O2 0.053392 0.799187 0.724156
O O3 0.013995 0.634324 0.697616
O O4 0.500000 0.707967 0.000000
O O5 0.951207 0.303578 0.284381
O O6 0.967660 0.470034 0.294627
O O7 0.101640 0.385036 0.219924
O O8 0.500000 0.391628 0.000000
O O9 0.938738 0.137747 0.286736
O O10 0.500000 0.221359 0.000000
O O11 0.511882 0.052937 0.173336
O O12 0.000000 0.046891 0.500000
O O13 0.443443 0.472148 0.281196
O O14 0.000000 0.557313 0.000000
O O15 0.500000 0.886017 0.000000
#
# Coordination Sequence:
#
# PCOD9120530 Si02
#       6
#     4   4   4   4   4   4
#     4  10  18  32  55  80 106 143 183 220 264 319
#     4   9  18  33  54  78 104 139 181 219 262 318
#     4   9  17  31  55  85 107 131 178 230 265 309
#     4  11  23  37  52  79 114 145 178 223 270 315
#     4   9  17  34  56  77 104 140 176 217 261 313
#     4   8  16  29  51  79 105 132 173 221 263 306
#
# _framework density 23.167064
#
# number of rings (size 3 to 8) (size 9 to 14) (size 15 to 20)
#    0.000    2.667    0.000    2.500    0.000    5.333 
#    0.000    5.833    0.000    0.000    0.000    0.000 
#    0.000    0.000    0.000    0.000    0.000    0.000 
#
# Total GULP energy -66896.794903 kJ/mol
# GULP energy per Si atom -5574.732909 kJ/mol
# Density = 2.311433 g / cm^3
# Si number density = 23.167064 Si / 1000 Ang^3
#
#
#
# Elastic Constant Matrix: (Units=GPa)
#
#
# Indices 1 2 3 4 5 6 
#
# 1 21.7661 27.3465 -2.0163 -0.0036 -2.6656 -0.0037
# 2 27.3465 348.7183 37.9106 0.0150 23.4038 -0.0107
# 3 -2.0163 37.9106 55.5198 0.0814 -2.3988 -0.0029
# 4 -0.0036 0.0150 0.0814 -13.7249 0.0015 12.6014
# 5 -2.6656 23.4038 -2.3988 0.0015 18.9391 -0.0031
# 6 -0.0037 -0.0107 -0.0029 12.6014 -0.0031 31.4027
#
#
#
# Elastic Compliance Matrix: (Units=1/GPa)
#
#
# Indices 1 2 3 4 5 6 
#
# 1 0.056597 -0.006330 0.007099 0.000021 0.016687 -0.000002
# 2 -0.006330 0.004162 -0.003351 -0.000011 -0.006458 0.000004
# 3 0.007099 -0.003351 0.020894 0.000089 0.007786 -0.000033
# 4 0.000021 -0.000011 0.000089 -0.053243 0.000035 0.021366
# 5 0.016687 -0.006458 0.007786 0.000035 0.064116 -0.000007
# 6 -0.000002 0.000004 -0.000033 0.021366 -0.000007 0.023271
#
#
# Mechanical properties :
#
#
# Convention : Reuss Voigt Hill
#
# Bulk Modulus (GPa) = 13.07386 61.38731 37.23058
# Shear Modulus (GPa) = 34.13981 31.50761 32.82371
#
# Velocity S-wave (km/s) = 3.84296 3.69184 3.76816
# Velocity P-wave (km/s) = 5.03455 6.68791 5.91924
#
# Compressibility (1/GPa) = 0.07648850
#
# Stress axis : x y z
#
# Youngs Moduli (GPa) = 17.66874 240.28390 47.86157
#
# Poissons Ratio (x) = 1.52100 -0.33976
# Poissons Ratio (y) = 0.11184 0.16037
# Poissons Ratio (z) = -0.12543 0.80511
#
# Static dielectric constant tensor:
#      x y z
#    x 1.855080 -0.000010 -0.028590 
#    y -0.000010 2.001720 -0.000010 
#    z -0.028590 -0.000010 1.861770 
# 
# From -- ./inp_files/59842.got.cif
#   From: 2010.05.17/outbox.cif.g08.bks.cpg/sg5_30_cif.got.tgz:59842.got - 2010.06.03 18:56:24.
