data_PCOD9120871
_publ_section_title
;
Structure prediction by ZEFSAII (Michael W. Deem and Ramdas Pophale) SiO2 
 PCOD9120871
Probable space group: C 2
;
_chemical_formula_sum "Si O2"
_cell_formula_units_Z 26
_cell_length_a 14.105106
_cell_length_b 10.024898
_cell_length_c 13.761690
_cell_angle_alpha 90.000000
_cell_angle_beta 44.560121
_cell_angle_gamma 90.000000
_cell_volume 1365.378734
_symmetry_space_group_name_H-M "C 2"
_symmetry_group_IT_number 5
_symmetry_cell_setting 'monoclinic'
loop_
_space_group_symop_operation_xyz
x,y,z
-x,y,-z
1/2+x,1/2+y,z
1/2-x,1/2+y,-z
loop_
_atom_site_type_symbol
_atom_site_label
_atom_site_fract_x
_atom_site_fract_y
_atom_site_fract_z
Si Si1 0.555916 0.262960 0.601392
Si Si2 0.933248 0.518482 0.153748
Si Si3 0.800023 0.787938 0.309487
Si Si4 0.500000 0.803546 0.500000
Si Si5 0.158270 0.034597 0.861525
Si Si6 0.293167 0.311114 0.707595
Si Si7 0.566764 0.975788 0.257332
O O1 0.655840 0.309108 0.612129
O O2 0.415665 0.342846 0.691914
O O3 0.634745 0.263916 0.443330
O O4 0.502201 0.115553 0.663475
O O5 0.900774 0.674484 0.195365
O O6 0.794260 0.438925 0.250443
O O7 0.015923 0.455128 0.184244
O O8 0.000000 0.502192 0.000000
O O9 0.645990 0.736723 0.410072
O O10 0.813982 0.929190 0.245172
O O11 0.522768 0.882532 0.380447
O O12 0.200954 0.186779 0.808012
O O13 0.270200 0.988315 0.859143
O O14 0.000000 0.027384 0.000000
#
# Coordination Sequence:
#
# PCOD9120871 Si02
#       7
#     4   4   4   2   4   4   4
#     4   9  18  35  56  82 107 139 179 225 282 312
#     4  11  23  38  52  80 119 150 171 212 282 334
#     4  10  21  36  57  79 110 142 177 227 272 320
#     4  10  18  36  60  84 100 136 196 232 262 306
#     4  10  20  37  57  79 102 142 191 219 251 320
#     4  10  20  35  58  80 108 141 182 228 264 319
#     4   9  19  36  59  79 110 145 176 227 275 318
#
# _framework density 19.042335000000001
#
# number of rings (size 3 to 8) (size 9 to 14) (size 15 to 20)
#    0.000    2.154    0.000    4.615    0.000    3.692 
#    0.000   13.846    0.000    0.000    0.000    0.000 
#    0.000    0.000    0.000    0.000    0.000    0.000 
#
# Total GULP energy -72395.430948 kJ/mol
# GULP energy per Si atom -5568.879304 kJ/mol
# Density = 1.899899 g / cm^3
# Si number density = 19.042335 Si / 1000 Ang^3
#
#
#
# Elastic Constant Matrix: (Units=GPa)
#
#
# Indices 1 2 3 4 5 6 
#
# 1 147.2260 11.0451 44.5534 0.0000 4.5889 0.0000
# 2 11.0451 20.5948 -5.0996 0.0000 1.0818 0.0000
# 3 44.5534 -5.0996 86.7005 0.0000 -6.1669 0.0000
# 4 0.0000 0.0000 0.0000 -0.9958 0.0000 9.3370
# 5 4.5889 1.0818 -6.1669 0.0000 34.3077 0.0000
# 6 0.0000 0.0000 0.0000 9.3370 0.0000 13.7001
#
#
#
# Elastic Compliance Matrix: (Units=1/GPa)
#
#
# Indices 1 2 3 4 5 6 
#
# 1 0.008805 -0.005862 -0.005004 0.000000 -0.001892 0.000000
# 2 -0.005862 0.053213 0.006157 0.000000 0.000213 0.000000
# 3 -0.005004 0.006157 0.014689 0.000000 0.003116 0.000000
# 4 0.000000 0.000000 0.000000 -0.135885 0.000000 0.092609
# 5 -0.001892 0.000213 0.003116 0.000000 0.029954 0.000000
# 6 0.000000 0.000000 0.000000 0.092609 0.000000 0.009877
#
#
# Mechanical properties :
#
#
# Convention : Reuss Voigt Hill
#
# Bulk Modulus (GPa) = 14.86099 39.50212 27.18156
# Shear Modulus (GPa) = 399.90861 23.00390 211.45625
#
# Velocity S-wave (km/s) = 14.50745 3.47946 10.54924
# Velocity P-wave (km/s) = 16.98360 6.07713 12.75489
#
# Compressibility (1/GPa) = 0.06729025
#
# Stress axis : x y z
#
# Youngs Moduli (GPa) = 113.56587 18.79225 68.07648
#
# Poissons Ratio (x) = 0.11016 0.34068
# Poissons Ratio (y) = 0.66574 -0.41918
# Poissons Ratio (z) = 0.56832 -0.11571
#
# Static dielectric constant tensor:
#      x y z
#    x 1.707190 0.000000 0.000520 
#    y 0.000000 1.643900 0.000000 
#    z 0.000520 0.000000 1.658810 
# 
# From -- ./inp_files/39107.got.cif
#   From: 2010.05.17/outbox.cif.g08.bks.cpg/sg5_20_cif.got.tgz:39107.got - 2010.06.03 18:56:24.
