data_PCOD9120206
_publ_section_title
;
Structure prediction by ZEFSAII (Michael W. Deem and Ramdas Pophale) SiO2 
 PCOD9120206
Probable space group: C 2
;
_chemical_formula_sum "Si O2"
_cell_formula_units_Z 28
_cell_length_a 16.404887
_cell_length_b 8.557215
_cell_length_c 12.813213
_cell_angle_alpha 90.000000
_cell_angle_beta 141.859071
_cell_angle_gamma 90.000000
_cell_volume 1110.886058
_symmetry_space_group_name_H-M "C 2"
_symmetry_group_IT_number 5
_symmetry_cell_setting 'monoclinic'
loop_
_space_group_symop_operation_xyz
x,y,z
-x,y,-z
1/2+x,1/2+y,z
1/2-x,1/2+y,-z
loop_
_atom_site_type_symbol
_atom_site_label
_atom_site_fract_x
_atom_site_fract_y
_atom_site_fract_z
Si Si1 0.361802 0.429960 0.699171
Si Si2 0.861308 0.189750 0.877483
Si Si3 0.412780 0.576980 0.162931
Si Si4 0.993102 0.599487 0.152913
Si Si5 0.323840 0.910537 0.137347
Si Si6 0.352995 0.815766 0.384353
Si Si7 0.785972 0.502539 0.763627
O O1 0.371247 0.559288 0.799398
O O2 0.437120 0.517362 0.680713
O O3 0.457295 0.278630 0.806195
O O4 0.213720 0.369813 0.573602
O O5 0.751826 0.322064 0.748858
O O6 0.871797 0.134448 0.005630
O O7 0.000000 0.281352 0.000000
O O8 0.386122 0.737474 0.194327
O O9 0.304801 0.438951 0.065642
O O10 0.127533 0.511279 0.255356
O O11 0.928661 0.535565 0.195565
O O12 0.881482 0.567202 0.952995
O O13 0.281842 0.906614 0.216411
O O14 0.500000 0.857581 0.500000
O O15 0.327674 0.630912 0.353912
#
# Coordination Sequence:
#
# PCOD9120206 Si02
#       7
#     4   4   4   4   4   4   4
#     4  10  21  38  60  85 124 164 204 240 318 381
#     4  10  17  31  56  92 121 147 193 240 312 382
#     4  11  21  32  59  96 122 154 186 263 331 358
#     4  10  19  33  61  95 117 158 186 265 322 362
#     4  12  22  37  59  96 134 146 206 264 312 362
#     4  11  25  42  60  82 123 177 215 243 295 366
#     4  10  18  36  60  86 123 159 203 239 312 383
#
# _framework density 25.205105
#
# number of rings (size 3 to 8) (size 9 to 14) (size 15 to 20)
#    0.000    1.429    4.286    3.429   10.000    0.000 
#    0.000    3.571    0.000    0.000    0.000    0.000 
#    0.000    0.000    0.000    0.000    0.000    0.000 
#
# Total GULP energy -77974.177881 kJ/mol
# GULP energy per Si atom -5569.584134 kJ/mol
# Density = 2.514774 g / cm^3
# Si number density = 25.205105 Si / 1000 Ang^3
#
#
#
# Elastic Constant Matrix: (Units=GPa)
#
#
# Indices 1 2 3 4 5 6 
#
# 1 118.6796 50.9034 16.6915 0.0000 23.3018 0.0000
# 2 50.9034 103.3159 23.7069 0.0000 1.1563 0.0000
# 3 16.6915 23.7069 25.4908 0.0000 8.1808 0.0000
# 4 0.0000 0.0000 0.0000 12.9849 0.0000 8.7892
# 5 23.3018 1.1563 8.1808 0.0000 40.3104 0.0000
# 6 0.0000 0.0000 0.0000 8.7892 0.0000 47.8539
#
#
#
# Elastic Compliance Matrix: (Units=1/GPa)
#
#
# Indices 1 2 3 4 5 6 
#
# 1 0.012382 -0.005939 -0.000366 0.000000 -0.006913 0.000000
# 2 -0.005939 0.015324 -0.012112 0.000000 0.005452 0.000000
# 3 -0.000366 -0.012112 0.054076 0.000000 -0.010416 0.000000
# 4 0.000000 0.000000 0.000000 0.087946 0.000000 -0.016153
# 5 -0.006913 0.005452 -0.010416 0.000000 0.030761 0.000000
# 6 0.000000 0.000000 0.000000 -0.016153 0.000000 0.023864
#
#
# Mechanical properties :
#
#
# Convention : Reuss Voigt Hill
#
# Bulk Modulus (GPa) = 22.24768 47.78777 35.01773
# Shear Modulus (GPa) = 18.10486 30.64213 24.37350
#
# Velocity S-wave (km/s) = 2.68302 3.49049 3.11305
# Velocity P-wave (km/s) = 4.29464 5.93678 5.18119
#
# Compressibility (1/GPa) = 0.04494850
#
# Stress axis : x y z
#
# Youngs Moduli (GPa) = 80.76018 65.25913 18.49255
#
# Poissons Ratio (x) = 0.38761 0.00676
# Poissons Ratio (y) = 0.47967 0.22397
# Poissons Ratio (z) = 0.02952 0.79039
#
# Static dielectric constant tensor:
#      x y z
#    x 2.121020 0.000000 0.052130 
#    y 0.000000 2.066730 0.000000 
#    z 0.052130 0.000000 2.113660 
# 
# From -- ./inp_files/55768.got.cif
#   From: 2010.05.17/outbox.cif.g08.bks.cpg/sg5_28_cif.got.tgz:55768.got - 2010.06.03 18:56:24.
