data_PCOD9120482
_publ_section_title
;
Structure prediction by ZEFSAII (Michael W. Deem and Ramdas Pophale) SiO2 
 PCOD9120482
Probable space group: C 2
;
_chemical_formula_sum "Si O2"
_cell_formula_units_Z 24
_cell_length_a 14.957469
_cell_length_b 10.424102
_cell_length_c 9.982678
_cell_angle_alpha 90.000000
_cell_angle_beta 46.422410
_cell_angle_gamma 90.000000
_cell_volume 1127.579494
_symmetry_space_group_name_H-M "C 2"
_symmetry_group_IT_number 5
_symmetry_cell_setting 'monoclinic'
loop_
_space_group_symop_operation_xyz
x,y,z
-x,y,-z
1/2+x,1/2+y,z
1/2-x,1/2+y,-z
loop_
_atom_site_type_symbol
_atom_site_label
_atom_site_fract_x
_atom_site_fract_y
_atom_site_fract_z
Si Si1 0.704161 0.587320 0.251599
Si Si2 0.335285 0.896867 0.969370
Si Si3 0.200872 0.090648 0.710930
Si Si4 0.947597 0.140576 0.863167
Si Si5 0.641150 0.318811 0.368749
Si Si6 0.647840 0.866854 0.354537
O O1 0.617536 0.605858 0.209195
O O2 0.652090 0.469435 0.392680
O O3 0.830392 0.527387 0.059534
O O4 0.630630 0.591351 0.928644
O O5 0.444841 0.796243 0.879363
O O6 0.321507 0.915069 0.827120
O O7 0.213687 0.822188 0.151059
O O8 0.086401 0.092771 0.729523
O O9 0.282062 0.219965 0.621972
O O10 0.293040 0.970796 0.608640
O O11 0.204820 0.225856 0.316622
O O12 0.500000 0.279987 0.500000
O O13 0.500000 0.856724 0.500000
#
# Coordination Sequence:
#
# PCOD9120482 Si02
#       6
#     4   4   4   4   4   4
#     4   9  18  34  55  75 105 139 180 216 267 316
#     4   8  18  33  55  78 102 147 183 211 268 325
#     4  10  18  31  54  79 107 140 183 220 266 318
#     4   9  17  33  55  74 105 143 178 219 269 314
#     4   9  17  32  55  81 103 142 188 217 254 329
#     4  11  20  33  56  85 112 140 180 226 269 318
#
# _framework density 21.284531999999999
#
# number of rings (size 3 to 8) (size 9 to 14) (size 15 to 20)
#    1.000    1.667    1.667    1.000    0.000    0.000 
#    0.000    3.333    7.333    0.000    0.000    0.000 
#    0.000    0.000    0.000    0.000    0.000    0.000 
#
# Total GULP energy -66820.826393 kJ/mol
# GULP energy per Si atom -5568.402199 kJ/mol
# Density = 2.123609 g / cm^3
# Si number density = 21.284532 Si / 1000 Ang^3
#
#
#
# Elastic Constant Matrix: (Units=GPa)
#
#
# Indices 1 2 3 4 5 6 
#
# 1 20.3269 37.9641 10.3698 0.0000 0.4878 0.0000
# 2 37.9641 155.4747 15.3551 0.0000 -15.1559 0.0000
# 3 10.3698 15.3551 55.3181 0.0000 -5.3508 0.0000
# 4 0.0000 0.0000 0.0000 16.9100 0.0000 -4.9180
# 5 0.4878 -15.1559 -5.3508 0.0000 19.1098 0.0000
# 6 0.0000 0.0000 0.0000 -4.9180 0.0000 8.6593
#
#
#
# Elastic Compliance Matrix: (Units=1/GPa)
#
#
# Indices 1 2 3 4 5 6 
#
# 1 0.111242 -0.028513 -0.015829 0.000000 -0.029886 0.000000
# 2 -0.028513 0.014393 0.002595 0.000000 0.012869 0.000000
# 3 -0.015829 0.002595 0.021135 0.000000 0.008380 0.000000
# 4 0.000000 0.000000 0.000000 0.070837 0.000000 0.040232
# 5 -0.029886 0.012869 0.008380 0.000000 0.065645 0.000000
# 6 0.000000 0.000000 0.000000 0.040232 0.000000 0.138332
#
#
# Mechanical properties :
#
#
# Convention : Reuss Voigt Hill
#
# Bulk Modulus (GPa) = 15.80425 39.83306 27.81866
# Shear Modulus (GPa) = 9.50261 20.09788 14.80025
#
# Velocity S-wave (km/s) = 2.11524 3.07620 2.63981
# Velocity P-wave (km/s) = 3.66156 5.60112 4.73178
#
# Compressibility (1/GPa) = 0.06327410
#
# Stress axis : x y z
#
# Youngs Moduli (GPa) = 8.98939 69.48029 47.31509
#
# Poissons Ratio (x) = 1.98111 0.74896
# Poissons Ratio (y) = 0.25632 -0.12277
# Poissons Ratio (z) = 0.14230 -0.18029
#
# Static dielectric constant tensor:
#      x y z
#    x 1.745930 0.000000 0.007090 
#    y 0.000000 1.835000 0.000000 
#    z 0.007090 0.000000 1.807760 
# 
# From -- ./inp_files/42181.got.cif
#   From: 2010.05.17/outbox.cif.g08.bks.cpg/sg5_22_cif.got.tgz:42181.got - 2010.06.03 18:56:24.
