data_PCOD9120692
_publ_section_title
;
Structure prediction by ZEFSAII (Michael W. Deem and Ramdas Pophale) SiO2 
 PCOD9120692
Probable space group: C 2
;
_chemical_formula_sum "Si O2"
_cell_formula_units_Z 26
_cell_length_a 13.148328
_cell_length_b 18.129324
_cell_length_c 11.041153
_cell_angle_alpha 90.000000
_cell_angle_beta 33.112331
_cell_angle_gamma 90.000000
_cell_volume 1437.750903
_symmetry_space_group_name_H-M "C 2"
_symmetry_group_IT_number 5
_symmetry_cell_setting 'monoclinic'
loop_
_space_group_symop_operation_xyz
x,y,z
-x,y,-z
1/2+x,1/2+y,z
1/2-x,1/2+y,-z
loop_
_atom_site_type_symbol
_atom_site_label
_atom_site_fract_x
_atom_site_fract_y
_atom_site_fract_z
Si Si1 0.267779 0.533010 0.542362
Si Si2 0.419685 0.783037 0.214569
Si Si3 0.574682 0.044588 0.291158
Si Si4 0.000000 0.502479 0.000000
Si Si5 0.566232 0.375529 0.571423
Si Si6 0.833752 0.405220 0.942426
Si Si7 0.043040 0.114974 0.097687
O O1 0.315297 0.446124 0.503285
O O2 0.446808 0.570022 0.302973
O O3 0.103185 0.553908 0.615772
O O4 0.169970 0.547799 0.769807
O O5 0.203198 0.805497 0.436594
O O6 0.528880 0.835815 0.198216
O O7 0.467187 0.697847 0.184849
O O8 0.500000 0.800987 0.000000
O O9 0.500000 0.047926 0.500000
O O10 0.654591 0.963792 0.177421
O O11 0.736428 0.103948 0.109352
O O12 0.096383 0.452532 0.008795
O O13 0.500000 0.388052 0.500000
O O14 0.374231 0.374701 0.835668
O O15 0.000000 0.090450 0.000000
#
# Coordination Sequence:
#
# PCOD9120692 Si02
#       7
#     4   4   4   2   4   4   4
#     4  11  21  36  59  90 120 151 206 243 297 359
#     4  11  21  36  54  89 124 145 196 250 302 355
#     4  11  22  38  59  84 122 164 204 238 285 362
#     4  10  18  34  58  92 112 144 206 258 288 342
#     4  12  19  33  63  91 115 148 190 247 305 343
#     4  11  19  35  60  86 115 150 198 249 297 340
#     4  11  24  38  55  85 126 163 193 245 302 357
#
# _framework density 18.083801999999999
#
# number of rings (size 3 to 8) (size 9 to 14) (size 15 to 20)
#    0.000    0.923   10.000    0.000    0.000    1.231 
#    0.000    0.000    0.000    6.462    0.000    0.000 
#    0.000    0.000    0.000    0.000    0.000    0.000 
#
# Total GULP energy -72427.745176 kJ/mol
# GULP energy per Si atom -5571.365014 kJ/mol
# Density = 1.804264 g / cm^3
# Si number density = 18.083802 Si / 1000 Ang^3
#
#
#
# Elastic Constant Matrix: (Units=GPa)
#
#
# Indices 1 2 3 4 5 6 
#
# 1 53.0473 18.9588 24.9798 -0.0037 -15.1472 0.0018
# 2 18.9588 72.6887 36.3492 -0.0135 4.1882 0.0093
# 3 24.9798 36.3492 138.2159 -0.0137 -9.2609 0.0108
# 4 -0.0037 -0.0135 -0.0137 5.9749 0.0048 3.9913
# 5 -15.1472 4.1882 -9.2609 0.0048 33.7957 -0.0030
# 6 0.0018 0.0093 0.0108 3.9913 -0.0030 12.6405
#
#
#
# Elastic Compliance Matrix: (Units=1/GPa)
#
#
# Indices 1 2 3 4 5 6 
#
# 1 0.025393 -0.006195 -0.002186 -0.000020 0.011550 0.000012
# 2 -0.006195 0.017691 -0.003938 0.000049 -0.006048 -0.000026
# 3 -0.002186 -0.003938 0.008794 0.000014 0.001918 -0.000008
# 4 -0.000020 0.000049 0.000014 0.212106 -0.000048 -0.066974
# 5 0.011550 -0.006048 0.001918 -0.000048 0.036041 0.000025
# 6 0.000012 -0.000026 -0.000008 -0.066974 0.000025 0.100258
#
#
# Mechanical properties :
#
#
# Convention : Reuss Voigt Hill
#
# Bulk Modulus (GPa) = 36.71198 47.16972 41.94085
# Shear Modulus (GPa) = 11.52069 22.72648 17.12359
#
# Velocity S-wave (km/s) = 2.52677 3.54889 3.08052
# Velocity P-wave (km/s) = 5.37195 6.55236 5.99129
#
# Compressibility (1/GPa) = 0.02723906
#
# Stress axis : x y z
#
# Youngs Moduli (GPa) = 39.38163 56.52601 113.70939
#
# Poissons Ratio (x) = 0.35019 0.24858
# Poissons Ratio (y) = 0.24398 0.44780
# Poissons Ratio (z) = 0.08609 0.22261
#
# Static dielectric constant tensor:
#      x y z
#    x 1.687450 -0.000010 0.074200 
#    y -0.000010 1.625400 -0.000020 
#    z 0.074200 -0.000020 1.776510 
# 
# From -- ./inp_files/43237.got.cif
#   From: 2010.05.17/outbox.cif.g08.bks.cpg/sg5_22_cif.got.tgz:43237.got - 2010.06.03 18:56:24.
