data_PCOD9120528
_publ_section_title
;
Structure prediction by ZEFSAII (Michael W. Deem and Ramdas Pophale) SiO2 
 PCOD9120528
Probable space group: C 2
;
_chemical_formula_sum "Si O2"
_cell_formula_units_Z 24
_cell_length_a 24.694519
_cell_length_b 8.236425
_cell_length_c 18.858820
_cell_angle_alpha 90.000000
_cell_angle_beta 19.838706
_cell_angle_gamma 90.000000
_cell_volume 1301.762334
_symmetry_space_group_name_H-M "C 2"
_symmetry_group_IT_number 5
_symmetry_cell_setting 'monoclinic'
loop_
_space_group_symop_operation_xyz
x,y,z
-x,y,-z
1/2+x,1/2+y,z
1/2-x,1/2+y,-z
loop_
_atom_site_type_symbol
_atom_site_label
_atom_site_fract_x
_atom_site_fract_y
_atom_site_fract_z
Si Si1 0.368711 0.207850 0.423839
Si Si2 0.526321 0.401600 0.582390
Si Si3 0.131778 0.131890 0.109434
Si Si4 0.298655 0.310266 0.033095
Si Si5 0.260212 0.509871 0.806232
Si Si6 0.433475 0.886423 0.263555
O O1 0.418186 0.240271 0.444673
O O2 0.206993 0.303628 0.607347
O O3 0.365080 0.023028 0.401380
O O4 0.511194 0.283367 0.200366
O O5 0.482229 0.525264 0.699446
O O6 0.367442 0.401923 0.729074
O O7 0.664068 0.473500 0.362755
O O8 0.240985 0.230473 0.029894
O O9 0.024002 0.250683 0.197287
O O10 0.227125 0.002134 0.943430
O O11 0.223576 0.196683 0.186407
O O12 0.075473 0.463696 0.041592
#
# Coordination Sequence:
#
# PCOD9120528 Si02
#       6
#     4   4   4   4   4   4
#     4  10  19  32  51  76 105 139 180 220 261 313
#     4   9  18  35  55  79 108 140 173 212 266 324
#     4  10  18  32  55  78 104 139 180 224 264 312
#     4   9  17  31  52  78 105 138 178 217 259 312
#     4   9  19  34  55  79 108 142 174 211 266 321
#     4  11  21  34  54  78 104 140 183 226 266 314
#
# _framework density 18.436544999999999
#
# number of rings (size 3 to 8) (size 9 to 14) (size 15 to 20)
#    0.000    2.333    0.000    6.000    0.000    0.667 
#    0.000    1.667    0.000   14.000    0.000    0.000 
#    0.000    0.000    0.000    0.000    0.000    0.000 
#
# Total GULP energy -66834.129780 kJ/mol
# GULP energy per Si atom -5569.510815 kJ/mol
# Density = 1.839458 g / cm^3
# Si number density = 18.436545 Si / 1000 Ang^3
#
#
#
# Elastic Constant Matrix: (Units=GPa)
#
#
# Indices 1 2 3 4 5 6 
#
# 1 48.9461 33.1373 35.9664 0.0000 -0.3628 0.0000
# 2 33.1373 95.3043 18.1341 -0.0001 -8.5963 0.0000
# 3 35.9664 18.1341 79.8077 -0.0001 -7.3512 0.0000
# 4 0.0000 -0.0001 -0.0001 27.1665 0.0001 -5.7914
# 5 -0.3628 -8.5963 -7.3512 0.0001 33.3415 0.0000
# 6 0.0000 0.0000 0.0000 -5.7914 0.0000 29.0030
#
#
#
# Elastic Compliance Matrix: (Units=1/GPa)
#
#
# Indices 1 2 3 4 5 6 
#
# 1 0.039728 -0.011332 -0.015881 0.000000 -0.005991 0.000000
# 2 -0.011332 0.014379 0.002215 0.000000 0.004072 0.000000
# 3 -0.015881 0.002215 0.019619 0.000000 0.004724 0.000000
# 4 0.000000 0.000000 0.000000 0.038447 0.000000 0.007677
# 5 -0.005991 0.004072 0.004724 0.000000 0.032019 0.000000
# 6 0.000000 0.000000 0.000000 0.007677 0.000000 0.036012
#
#
# Mechanical properties :
#
#
# Convention : Reuss Voigt Hill
#
# Bulk Modulus (GPa) = 42.14173 44.28155 43.21164
# Shear Modulus (GPa) = 20.99884 27.02354 24.01119
#
# Velocity S-wave (km/s) = 3.37854 3.83268 3.61275
# Velocity P-wave (km/s) = 6.17468 6.60730 6.39465
#
# Compressibility (1/GPa) = 0.02372945
#
# Stress axis : x y z
#
# Youngs Moduli (GPa) = 25.17145 69.54736 50.97140
#
# Poissons Ratio (x) = 0.78810 0.80946
# Poissons Ratio (y) = 0.28524 -0.11289
# Poissons Ratio (z) = 0.39974 -0.15403
#
# Static dielectric constant tensor:
#      x y z
#    x 1.642430 0.000000 -0.020450 
#    y 0.000000 1.705270 0.000000 
#    z -0.020450 0.000000 1.657210 
# 
# From -- ./inp_files/26496.got.cif
#   From: 2010.05.17/outbox.cif.g08.bks.cpg/sg5_14_cif.got.tgz:26496.got - 2010.06.03 18:56:24.
