data_PCOD9120046
_publ_section_title
;
Structure prediction by ZEFSAII (Michael W. Deem and Ramdas Pophale) SiO2 
 PCOD9120046
Probable space group: C 2
;
_chemical_formula_sum "Si O2"
_cell_formula_units_Z 30
_cell_length_a 15.452577
_cell_length_b 10.848927
_cell_length_c 8.291222
_cell_angle_alpha 90.000000
_cell_angle_beta 76.353245
_cell_angle_gamma 90.000000
_cell_volume 1350.732022
_symmetry_space_group_name_H-M "C 2"
_symmetry_group_IT_number 5
_symmetry_cell_setting 'monoclinic'
loop_
_space_group_symop_operation_xyz
x,y,z
-x,y,-z
1/2+x,1/2+y,z
1/2-x,1/2+y,-z
loop_
_atom_site_type_symbol
_atom_site_label
_atom_site_fract_x
_atom_site_fract_y
_atom_site_fract_z
Si Si1 0.298004 0.230080 0.734773
Si Si2 0.846230 0.486203 0.845519
Si Si3 0.388108 0.641576 0.319415
Si Si4 0.197397 0.613007 0.804877
Si Si5 0.159305 0.856193 0.946483
Si Si6 0.500000 0.541868 0.000000
Si Si7 0.771187 0.930633 0.508189
Si Si8 0.638801 0.767936 0.346777
O O1 0.193380 0.207798 0.740474
O O2 0.314545 0.285866 0.901913
O O3 0.323387 0.332993 0.595606
O O4 0.350747 0.101341 0.720627
O O5 0.902067 0.367890 0.759413
O O6 0.847312 0.535897 0.029271
O O7 0.745195 0.438891 0.879063
O O8 0.470189 0.622834 0.165139
O O9 0.343391 0.511057 0.383475
O O10 0.409616 0.701644 0.482966
O O11 0.212023 0.524662 0.644739
O O12 0.299424 0.668295 0.776780
O O13 0.144402 0.743711 0.826045
O O14 0.079760 0.949377 0.005070
O O15 0.706049 0.852166 0.425265
#
# Coordination Sequence:
#
# PCOD9120046 Si02
#       8
#     4   4   4   4   4   2   4   4
#     4  10  18  32  57  91 116 154 203 255 295 349
#     4  10  16  33  53  89 116 150 199 255 290 344
#     4  10  20  34  57  85 126 159 197 250 312 355
#     4   9  18  30  54  85 118 150 203 255 294 346
#     4  10  20  33  57  87 122 155 201 245 300 360
#     4  12  22  40  58  90 130 160 196 252 320 372
#     4  10  17  32  56  89 118 149 205 261 296 339
#     4   9  18  30  50  87 119 149 200 257 295 343
#
# _framework density 22.210179
#
# number of rings (size 3 to 8) (size 9 to 14) (size 15 to 20)
#    0.000    2.133    4.000    0.800    0.000    0.000 
#    0.000    0.667    0.000    3.200    0.000    0.000 
#    0.000    0.000    0.000    0.000    0.000    0.000 
#
# Total GULP energy -83536.921996 kJ/mol
# GULP energy per Si atom -5569.128133 kJ/mol
# Density = 2.215963 g / cm^3
# Si number density = 22.210179 Si / 1000 Ang^3
#
#
#
# Elastic Constant Matrix: (Units=GPa)
#
#
# Indices 1 2 3 4 5 6 
#
# 1 18.4031 2.8786 -1.2705 0.0000 -4.3609 0.0000
# 2 2.8786 85.6815 36.6479 0.0000 -3.6736 0.0000
# 3 -1.2705 36.6479 115.9703 0.0000 -10.1866 0.0000
# 4 0.0000 0.0000 0.0000 49.5785 0.0000 12.0297
# 5 -4.3609 -3.6736 -10.1866 0.0000 17.3589 0.0000
# 6 0.0000 0.0000 0.0000 12.0297 0.0000 17.0457
#
#
#
# Elastic Compliance Matrix: (Units=1/GPa)
#
#
# Indices 1 2 3 4 5 6 
#
# 1 0.058686 -0.002500 0.002827 0.000000 0.015873 0.000000
# 2 -0.002500 0.013604 -0.004353 0.000000 -0.000304 0.000000
# 3 0.002827 -0.004353 0.010555 0.000000 0.005983 0.000000
# 4 0.000000 0.000000 0.000000 0.024338 0.000000 -0.017176
# 5 0.015873 -0.000304 0.005983 0.000000 0.065042 0.000000
# 6 0.000000 0.000000 0.000000 -0.017176 0.000000 0.070787
#
#
# Mechanical properties :
#
#
# Convention : Reuss Voigt Hill
#
# Bulk Modulus (GPa) = 13.37019 32.95186 23.16103
# Shear Modulus (GPa) = 18.11624 28.91656 23.51640
#
# Velocity S-wave (km/s) = 2.85910 3.61217 3.25747
# Velocity P-wave (km/s) = 4.11487 5.68028 4.95973
#
# Compressibility (1/GPa) = 0.07479328
#
# Stress axis : x y z
#
# Youngs Moduli (GPa) = 17.03971 73.50765 94.74158
#
# Poissons Ratio (x) = 0.18380 -0.26787
# Poissons Ratio (y) = 0.04261 0.41242
# Poissons Ratio (z) = -0.04818 0.31998
#
# Static dielectric constant tensor:
#      x y z
#    x 1.818950 0.000000 0.036790 
#    y 0.000000 1.939080 0.000000 
#    z 0.036790 0.000000 1.965900 
# 
# From -- ./inp_files/27302.got.cif
#   From: 2010.05.17/outbox.cif.g08.bks.cpg/sg5_14_cif.got.tgz:27302.got - 2010.06.03 18:56:24.
