data_PCOD9120592
_publ_section_title
;
Structure prediction by ZEFSAII (Michael W. Deem and Ramdas Pophale) SiO2 
 PCOD9120592
Probable space group: C 2
;
_chemical_formula_sum "Si O2"
_cell_formula_units_Z 22
_cell_length_a 19.177267
_cell_length_b 7.675192
_cell_length_c 5.718464
_cell_angle_alpha 90.000000
_cell_angle_beta 119.051019
_cell_angle_gamma 90.000000
_cell_volume 735.800413
_symmetry_space_group_name_H-M "C 2"
_symmetry_group_IT_number 5
_symmetry_cell_setting 'monoclinic'
loop_
_space_group_symop_operation_xyz
x,y,z
-x,y,-z
1/2+x,1/2+y,z
1/2-x,1/2+y,-z
loop_
_atom_site_type_symbol
_atom_site_label
_atom_site_fract_x
_atom_site_fract_y
_atom_site_fract_z
Si Si1 0.331513 0.349720 0.218899
Si Si2 0.500000 0.667886 0.000000
Si Si3 0.405309 0.000230 0.967603
Si Si4 0.306193 0.341209 0.680264
Si Si5 0.000000 0.096090 0.500000
Si Si6 0.000000 0.665526 0.500000
Si Si7 0.329211 0.791556 0.225704
O O1 0.315238 0.431820 0.445900
O O2 0.420457 0.278133 0.388116
O O3 0.334882 0.434002 0.965062
O O4 0.250955 0.235633 0.048853
O O5 0.500835 0.545970 0.227474
O O6 0.571877 0.810533 0.096266
O O7 0.357165 0.158198 0.763517
O O8 0.487179 0.063634 0.234840
O O9 0.353016 0.961152 0.115762
O O10 0.213061 0.320059 0.593116
O O11 0.085916 0.197148 0.630304
#
# Coordination Sequence:
#
# PCOD9120592 Si02
#       7
#     4   2   4   4   2   2   4
#     4   9  20  35  51  76 117 139 177 218 281 314
#     4  10  20  30  50  86 104 138 178 232 268 316
#     4  10  18  33  56  80 114 141 181 223 277 315
#     4   9  20  34  49  78 112 147 174 221 269 328
#     4  10  21  32  54  75 116 140 183 218 276 313
#     4  10  19  36  56  85 106 146 179 234 268 321
#     4   9  21  35  51  82 113 146 175 227 267 329
#
# _framework density 29.899412000000002
#
# number of rings (size 3 to 8) (size 9 to 14) (size 15 to 20)
#    1.091    1.455    0.000    3.273    5.091    5.091 
#    0.000    0.000    0.000    1.091    0.000    0.000 
#    5.455    0.000    0.000    0.000    0.000    0.000 
#
# Total GULP energy -61262.686766 kJ/mol
# GULP energy per Si atom -5569.335161 kJ/mol
# Density = 2.983136 g / cm^3
# Si number density = 29.899412 Si / 1000 Ang^3
#
#
#
# Elastic Constant Matrix: (Units=GPa)
#
#
# Indices 1 2 3 4 5 6 
#
# 1 181.2628 14.7522 84.8851 0.0000 11.4980 0.0000
# 2 14.7522 73.4968 30.2134 0.0000 1.0340 0.0000
# 3 84.8851 30.2134 215.8052 0.0000 -14.2349 0.0000
# 4 0.0000 0.0000 0.0000 31.4584 0.0000 18.2534
# 5 11.4980 1.0340 -14.2349 0.0000 99.5258 0.0000
# 6 0.0000 0.0000 0.0000 18.2534 0.0000 62.4461
#
#
#
# Elastic Compliance Matrix: (Units=1/GPa)
#
#
# Indices 1 2 3 4 5 6 
#
# 1 0.006905 -0.000234 -0.002762 0.000000 -0.001190 0.000000
# 2 -0.000234 0.014464 -0.001960 0.000000 -0.000404 0.000000
# 3 -0.002762 -0.001960 0.006074 0.000000 0.001208 0.000000
# 4 0.000000 0.000000 0.000000 0.038281 0.000000 -0.011190
# 5 -0.001190 -0.000404 0.001208 0.000000 0.010362 0.000000
# 6 0.000000 0.000000 0.000000 -0.011190 0.000000 0.019285
#
#
# Mechanical properties :
#
#
# Convention : Reuss Voigt Hill
#
# Bulk Modulus (GPa) = 57.03648 81.14070 69.08859
# Shear Modulus (GPa) = 44.99432 61.40034 53.19733
#
# Velocity S-wave (km/s) = 3.88346 4.53654 4.22264
# Velocity P-wave (km/s) = 6.26305 7.39169 6.85065
#
# Compressibility (1/GPa) = 0.01753264
#
# Stress axis : x y z
#
# Youngs Moduli (GPa) = 144.82958 69.13604 164.63246
#
# Poissons Ratio (x) = 0.01617 0.45466
# Poissons Ratio (y) = 0.03387 0.32262
# Poissons Ratio (z) = 0.39997 0.13548
#
# Static dielectric constant tensor:
#      x y z
#    x 2.454820 0.000000 0.060530 
#    y 0.000000 2.509900 0.000000 
#    z 0.060530 0.000000 2.285600 
# 
# From -- ./inp_files/8346.got.cif
#   From: 2010.05.17/outbox.cif.g08.bks.cpg/sg5_5_cif.got.tgz:8346.got - 2010.06.03 18:56:24.
