data_PCOD9120993
_publ_section_title
;
Structure prediction by ZEFSAII (Michael W. Deem and Ramdas Pophale) SiO2 
 PCOD9120993
Probable space group: C 2
;
_chemical_formula_sum "Si O2"
_cell_formula_units_Z 18
_cell_length_a 6.776836
_cell_length_b 12.148799
_cell_length_c 10.324503
_cell_angle_alpha 90.000000
_cell_angle_beta 57.795590
_cell_angle_gamma 90.000000
_cell_volume 719.246801
_symmetry_space_group_name_H-M "C 2"
_symmetry_group_IT_number 5
_symmetry_cell_setting 'monoclinic'
loop_
_space_group_symop_operation_xyz
x,y,z
-x,y,-z
1/2+x,1/2+y,z
1/2-x,1/2+y,-z
loop_
_atom_site_type_symbol
_atom_site_label
_atom_site_fract_x
_atom_site_fract_y
_atom_site_fract_z
Si Si1 0.182676 0.695830 0.130887
Si Si2 0.669194 0.652209 0.192905
Si Si3 0.500000 0.668004 0.500000
Si Si4 0.523553 0.024506 0.637768
Si Si5 0.341156 0.411277 0.688000
O O1 0.155291 0.809462 0.216850
O O2 0.935557 0.669778 0.146226
O O3 0.185526 0.600237 0.238924
O O4 0.353302 0.688267 0.947411
O O5 0.533909 0.722374 0.349640
O O6 0.607510 0.523655 0.247325
O O7 0.739020 0.599153 0.441122
O O8 0.500000 0.984582 0.500000
O O9 0.583160 0.933826 0.722861
O O10 0.500000 0.395330 0.500000
#
# Coordination Sequence:
#
# PCOD9120993 Si02
#       5
#     4   4   2   4   4
#     4   9  19  34  67  95 133 171 211 268 331 375
#     4   9  17  37  65  95 132 170 210 272 322 377
#     4   8  16  36  66  90 124 170 214 256 316 388
#     4  10  19  37  67  92 130 178 209 270 329 373
#     4  10  18  37  69  94 128 172 221 262 320 394
#
# _framework density 25.026181000000001
#
# number of rings (size 3 to 8) (size 9 to 14) (size 15 to 20)
#    0.000    3.111    4.444    0.667    0.000    0.000 
#    0.000    5.556   80.667    0.000    0.000    0.000 
#    0.000    0.000    0.000    0.000    0.000    0.000 
#
# Total GULP energy -50133.777860 kJ/mol
# GULP energy per Si atom -5570.419762 kJ/mol
# Density = 2.496922 g / cm^3
# Si number density = 25.026181 Si / 1000 Ang^3
#
#
#
# Elastic Constant Matrix: (Units=GPa)
#
#
# Indices 1 2 3 4 5 6 
#
# 1 58.5429 32.2253 33.8099 0.0000 8.0992 0.0000
# 2 32.2253 154.2022 100.1777 0.0000 13.7979 0.0000
# 3 33.8099 100.1777 275.7236 0.0000 18.2618 0.0000
# 4 0.0000 0.0000 0.0000 679.9765 0.0000 521.7976
# 5 8.0992 13.7979 18.2618 0.0000 54.1540 0.0000
# 6 0.0000 0.0000 0.0000 521.7976 0.0000 429.5754
#
#
#
# Elastic Compliance Matrix: (Units=1/GPa)
#
#
# Indices 1 2 3 4 5 6 
#
# 1 0.019759 -0.003238 -0.001130 0.000000 -0.001749 0.000000
# 2 -0.003238 0.009090 -0.002848 0.000000 -0.000871 0.000000
# 3 -0.001130 -0.002848 0.004849 0.000000 -0.000741 0.000000
# 4 0.000000 0.000000 0.000000 0.021665 0.000000 -0.026316
# 5 -0.001749 -0.000871 -0.000741 0.000000 0.019199 0.000000
# 6 0.000000 0.000000 0.000000 -0.026316 0.000000 0.034293
#
#
# Mechanical properties :
#
#
# Convention : Reuss Voigt Hill
#
# Bulk Modulus (GPa) = 51.90849 91.21052 71.55951
# Shear Modulus (GPa) = 38.54783 254.22490 146.38636
#
# Velocity S-wave (km/s) = 3.92892 10.08980 7.65639
# Velocity P-wave (km/s) = 6.43184 13.12494 10.33520
#
# Compressibility (1/GPa) = 0.01926467
#
# Stress axis : x y z
#
# Youngs Moduli (GPa) = 50.61016 110.01406 206.22149
#
# Poissons Ratio (x) = 0.35626 0.23313
# Poissons Ratio (y) = 0.16389 0.58727
# Poissons Ratio (z) = 0.05721 0.31329
#
# Static dielectric constant tensor:
#      x y z
#    x 1.957790 0.000000 -0.043270 
#    y 0.000000 2.017750 0.000000 
#    z -0.043270 0.000000 2.085400 
# 
# From -- ./inp_files/13980.got.cif
#   From: 2010.05.17/outbox.cif.g08.bks.cpg/sg5_7_cif.got.tgz:13980.got - 2010.06.03 18:56:24.
