data_PCOD9120741
_publ_section_title
;
Structure prediction by ZEFSAII (Michael W. Deem and Ramdas Pophale) SiO2 
 PCOD9120741
Probable space group: C 2
;
_chemical_formula_sum "Si O2"
_cell_formula_units_Z 30
_cell_length_a 5.041459
_cell_length_b 32.656619
_cell_length_c 8.516532
_cell_angle_alpha 90.000000
_cell_angle_beta 111.903857
_cell_angle_gamma 90.000000
_cell_volume 1300.917709
_symmetry_space_group_name_H-M "C 2"
_symmetry_group_IT_number 5
_symmetry_cell_setting 'monoclinic'
loop_
_space_group_symop_operation_xyz
x,y,z
-x,y,-z
1/2+x,1/2+y,z
1/2-x,1/2+y,-z
loop_
_atom_site_type_symbol
_atom_site_label
_atom_site_fract_x
_atom_site_fract_y
_atom_site_fract_z
Si Si1 0.457959 0.353490 0.162130
Si Si2 0.173091 0.063271 0.380801
Si Si3 0.808583 0.279292 0.305295
Si Si4 0.648456 0.983309 0.706935
Si Si5 0.195118 0.155713 0.333771
Si Si6 0.500000 0.784536 0.000000
Si Si7 0.582673 0.199022 0.197604
Si Si8 0.858789 0.933826 0.296150
O O1 0.730820 0.327908 0.283801
O O2 0.311694 0.386836 0.240579
O O3 0.500000 0.372677 0.000000
O O4 0.259517 0.314937 0.088168
O O5 0.500000 0.069601 0.500000
O O6 0.083162 0.108848 0.314068
O O7 0.000000 0.049817 0.500000
O O8 0.197840 0.027631 0.255853
O O9 0.568423 0.243958 0.272983
O O10 0.000000 0.273956 0.500000
O O11 0.931043 0.266859 0.158702
O O12 0.500000 0.983439 0.500000
O O13 0.401605 0.965882 0.763410
O O14 0.895863 0.950181 0.762785
O O15 0.500000 0.160385 0.500000
O O16 0.330300 0.169544 0.201000
O O17 0.903861 0.181386 0.302029
O O18 0.500000 0.204220 0.000000
O O19 0.000000 0.934570 0.500000
#
# Coordination Sequence:
#
# PCOD9120741 Si02
#       8
#     4   4   4   4   4   2   4   4
#     4  10  24  42  61  91 129 180 226 283 354 418
#     4  10  18  34  63  95 136 171 217 288 356 413
#     4  11  26  44  70  99 134 184 244 297 357 432
#     4   9  18  33  55  94 126 165 210 281 342 406
#     4  11  23  41  68 102 134 178 236 293 352 430
#     4  10  24  44  66  92 134 178 236 286 360 414
#     4  12  26  45  66  99 141 188 231 293 364 429
#     4  10  21  34  60  90 129 163 223 275 340 412
#
# _framework density 23.060645999999998
#
# number of rings (size 3 to 8) (size 9 to 14) (size 15 to 20)
#    0.000    1.600    0.000    6.400    9.333    0.533 
#    0.000    0.000    0.000    3.200    1.733    0.000 
#    0.000    0.000    0.000    0.000    0.000    0.000 
#
# Total GULP energy -83531.289109 kJ/mol
# GULP energy per Si atom -5568.752607 kJ/mol
# Density = 2.300816 g / cm^3
# Si number density = 23.060646 Si / 1000 Ang^3
#
#
#
# Elastic Constant Matrix: (Units=GPa)
#
#
# Indices 1 2 3 4 5 6 
#
# 1 113.2092 30.4004 16.1726 0.0000 0.6646 0.0000
# 2 30.4004 140.9203 35.7809 0.0000 1.8585 0.0000
# 3 16.1726 35.7809 66.5906 0.0000 -3.9322 0.0000
# 4 0.0000 0.0000 0.0000 -20.7276 0.0000 -23.5489
# 5 0.6646 1.8585 -3.9322 0.0000 13.3668 0.0000
# 6 0.0000 0.0000 0.0000 -23.5489 0.0000 -10.2750
#
#
#
# Elastic Compliance Matrix: (Units=1/GPa)
#
#
# Indices 1 2 3 4 5 6 
#
# 1 0.009493 -0.001672 -0.001446 0.000000 -0.000665 0.000000
# 2 -0.001672 0.008594 -0.004353 0.000000 -0.002392 0.000000
# 3 -0.001446 -0.004353 0.018061 0.000000 0.005990 0.000000
# 4 0.000000 0.000000 0.000000 0.030082 0.000000 -0.068943
# 5 -0.000665 -0.002392 0.005990 0.000000 0.076940 0.000000
# 6 0.000000 0.000000 0.000000 -0.068943 0.000000 0.060683
#
#
# Mechanical properties :
#
#
# Convention : Reuss Voigt Hill
#
# Bulk Modulus (GPa) = 47.15810 53.93643 50.54726
# Shear Modulus (GPa) = 22.13737 12.36392 17.25064
#
# Velocity S-wave (km/s) = 3.10169 2.31800 2.73803
# Velocity P-wave (km/s) = 5.77246 5.53208 5.65355
#
# Compressibility (1/GPa) = 0.02120527
#
# Stress axis : x y z
#
# Youngs Moduli (GPa) = 105.34444 116.36515 55.36775
#
# Poissons Ratio (x) = 0.19454 0.08008
# Poissons Ratio (y) = 0.17612 0.24101
# Poissons Ratio (z) = 0.15237 0.50652
#
# Static dielectric constant tensor:
#      x y z
#    x 2.403590 0.000000 0.051110 
#    y 0.000000 1.911190 0.000000 
#    z 0.051110 0.000000 2.004490 
# 
# From -- ./inp_files/13369.got.cif
#   From: 2010.05.17/outbox.cif.g08.bks.cpg/sg5_7_cif.got.tgz:13369.got - 2010.06.03 18:56:24.
