data_PCOD9120325
_publ_section_title
;
Structure prediction by ZEFSAII (Michael W. Deem and Ramdas Pophale) SiO2 
 PCOD9120325
Probable space group: C 2
;
_chemical_formula_sum "Si O2"
_cell_formula_units_Z 28
_cell_length_a 12.149817
_cell_length_b 15.586600
_cell_length_c 9.105065
_cell_angle_alpha 90.000000
_cell_angle_beta 64.719510
_cell_angle_gamma 90.000000
_cell_volume 1559.129315
_symmetry_space_group_name_H-M "C 2"
_symmetry_group_IT_number 5
_symmetry_cell_setting 'monoclinic'
loop_
_space_group_symop_operation_xyz
x,y,z
-x,y,-z
1/2+x,1/2+y,z
1/2-x,1/2+y,-z
loop_
_atom_site_type_symbol
_atom_site_label
_atom_site_fract_x
_atom_site_fract_y
_atom_site_fract_z
Si Si1 0.855622 0.296880 0.581477
Si Si2 0.207775 0.472796 0.211906
Si Si3 0.151619 0.963570 0.167046
Si Si4 0.532995 0.023909 0.809561
Si Si5 0.124743 0.015860 0.633352
Si Si6 0.729370 0.880879 0.646200
Si Si7 0.730650 0.618649 0.328210
O O1 0.828387 0.386095 0.680769
O O2 0.806321 0.303839 0.441150
O O3 0.790739 0.216876 0.696174
O O4 0.000000 0.284811 0.500000
O O5 0.289393 0.528623 0.275779
O O6 0.086731 0.518638 0.221156
O O7 0.290644 0.452036 0.024328
O O8 0.196068 0.883773 0.243776
O O9 0.205467 0.050051 0.213214
O O10 0.008532 0.983394 0.248529
O O11 0.631008 0.095631 0.705863
O O12 0.605455 0.933938 0.748499
O O13 0.500000 0.034665 0.000000
O O14 0.137541 0.094937 0.513751
O O15 0.185270 0.940413 0.503404
#
# Coordination Sequence:
#
# PCOD9120325 Si02
#       7
#     4   4   4   4   4   4   4
#     4  11  21  34  55  89 118 144 193 249 283 333
#     4  11  20  33  62  87 105 150 202 237 275 332
#     4  10  18  36  58  80 113 151 192 229 287 353
#     4  10  17  36  60  84 108 149 196 230 277 356
#     4   9  19  33  56  80 108 147 193 229 271 350
#     4   9  18  31  57  78 107 149 190 227 278 335
#     4  10  21  35  58  81 116 148 186 232 305 327
#
# _framework density 17.958741
#
# number of rings (size 3 to 8) (size 9 to 14) (size 15 to 20)
#    0.000    2.286    4.286    3.000    0.000    0.000 
#    0.000    4.286   12.571    0.000    0.000    0.000 
#    0.000    0.000    0.000    0.000    0.000    0.000 
#
# Total GULP energy -77934.222058 kJ/mol
# GULP energy per Si atom -5566.730147 kJ/mol
# Density = 1.791787 g / cm^3
# Si number density = 17.958741 Si / 1000 Ang^3
#
#
#
# Elastic Constant Matrix: (Units=GPa)
#
#
# Indices 1 2 3 4 5 6 
#
# 1 103.0852 2.2276 27.9921 0.0000 -10.3884 0.0000
# 2 2.2276 41.6881 -0.3944 0.0000 2.2494 0.0000
# 3 27.9921 -0.3944 77.0747 0.0000 -6.6783 0.0000
# 4 0.0000 0.0000 0.0000 14.2828 0.0000 -2.0919
# 5 -10.3884 2.2494 -6.6783 0.0000 32.2933 0.0000
# 6 0.0000 0.0000 0.0000 -2.0919 0.0000 12.8145
#
#
#
# Elastic Compliance Matrix: (Units=1/GPa)
#
#
# Indices 1 2 3 4 5 6 
#
# 1 0.011024 -0.000777 -0.003763 0.000000 0.002822 0.000000
# 2 -0.000777 0.024133 0.000243 0.000000 -0.001881 0.000000
# 3 -0.003763 0.000243 0.014496 0.000000 0.001770 0.000000
# 4 0.000000 0.000000 0.000000 0.071729 0.000000 0.011710
# 5 0.002822 -0.001881 0.001770 0.000000 0.032371 0.000000
# 6 0.000000 0.000000 0.000000 0.011710 0.000000 0.079948
#
#
# Mechanical properties :
#
#
# Convention : Reuss Voigt Hill
#
# Bulk Modulus (GPa) = 24.35591 31.27764 27.81678
# Shear Modulus (GPa) = 19.53266 24.67962 22.10614
#
# Velocity S-wave (km/s) = 3.30152 3.71110 3.51228
# Velocity P-wave (km/s) = 5.30330 5.98475 5.65430
#
# Compressibility (1/GPa) = 0.04105779
#
# Stress axis : x y z
#
# Youngs Moduli (GPa) = 90.71326 41.43714 68.98582
#
# Poissons Ratio (x) = 0.03219 0.25960
# Poissons Ratio (y) = 0.07048 -0.01674
# Poissons Ratio (z) = 0.34136 -0.01006
#
# Static dielectric constant tensor:
#      x y z
#    x 1.673790 0.000000 0.021770 
#    y 0.000000 1.622770 0.000000 
#    z 0.021770 0.000000 1.631690 
# 
# From -- ./inp_files/20529.got.cif
#   From: 2010.05.17/outbox.cif.g08.bks.cpg/sg5_11_cif.got.tgz:20529.got - 2010.06.03 18:56:24.
