data_PCOD9120936
_publ_section_title
;
Structure prediction by ZEFSAII (Michael W. Deem and Ramdas Pophale) SiO2 
 PCOD9120936
Probable space group: C 2
;
_chemical_formula_sum "Si O2"
_cell_formula_units_Z 26
_cell_length_a 18.321653
_cell_length_b 13.055611
_cell_length_c 7.076987
_cell_angle_alpha 90.000000
_cell_angle_beta 138.843022
_cell_angle_gamma 90.000000
_cell_volume 1114.084630
_symmetry_space_group_name_H-M "C 2"
_symmetry_group_IT_number 5
_symmetry_cell_setting 'monoclinic'
loop_
_space_group_symop_operation_xyz
x,y,z
-x,y,-z
1/2+x,1/2+y,z
1/2-x,1/2+y,-z
loop_
_atom_site_type_symbol
_atom_site_label
_atom_site_fract_x
_atom_site_fract_y
_atom_site_fract_z
Si Si1 0.123079 0.271370 0.448691
Si Si2 0.818185 0.778513 0.133237
Si Si3 0.688976 0.333444 0.443298
Si Si4 0.500000 0.888100 0.500000
Si Si5 0.137387 0.043062 0.446508
Si Si6 0.000000 0.936619 0.500000
Si Si7 0.000000 0.666099 0.000000
Si Si8 0.879021 0.567723 0.098522
O O1 0.192331 0.330167 0.425363
O O2 0.103853 0.157916 0.331330
O O3 0.019360 0.323047 0.348073
O O4 0.209565 0.270391 0.793839
O O5 0.798365 0.813647 0.308257
O O6 0.868682 0.665376 0.215161
O O7 0.908249 0.860097 0.232025
O O8 0.636795 0.445748 0.307018
O O9 0.606621 0.241960 0.219301
O O10 0.401370 0.966949 0.262716
O O11 0.060257 0.007344 0.467430
O O12 0.264403 0.053009 0.763514
O O13 0.026208 0.595210 0.870328
#
# Coordination Sequence:
#
# PCOD9120936 Si02
#       8
#     4   4   4   2   4   2   2   4
#     4  11  25  44  62  97 135 171 217 267 325 401
#     4  10  21  42  66  96 126 165 222 276 316 378
#     4  11  23  40  72  94 128 168 222 279 315 382
#     4  12  24  40  66  94 136 182 206 262 348 384
#     4  10  22  40  64  93 129 171 212 268 321 379
#     4  10  18  36  66  88 126 166 206 262 322 368
#     4  12  22  42  70  96 130 166 234 272 318 376
#     4  11  23  40  67  98 129 173 220 271 324 390
#
# _framework density 23.337543
#
# number of rings (size 3 to 8) (size 9 to 14) (size 15 to 20)
#    0.000    1.231    3.077    5.538    2.154    1.231 
#    0.000    0.000    6.769    0.000    0.000    0.000 
#    0.000    0.000    0.000    0.000    0.000    0.000 
#
# Total GULP energy -72689.243444 kJ/mol
# GULP energy per Si atom -5591.480265 kJ/mol
# Density = 2.328443 g / cm^3
# Si number density = 23.337543 Si / 1000 Ang^3
#
#
#
# Elastic Constant Matrix: (Units=GPa)
#
#
# Indices 1 2 3 4 5 6 
#
# 1 133.6729 50.6885 -14.3397 0.0000 1.9074 0.0000
# 2 50.6885 130.9353 -13.8523 0.0000 2.0837 0.0000
# 3 -14.3397 -13.8523 65.4072 0.0000 -2.0810 0.0000
# 4 0.0000 0.0000 0.0000 13.4774 0.0000 -0.6992
# 5 1.9074 2.0837 -2.0810 0.0000 27.2154 0.0000
# 6 0.0000 0.0000 0.0000 -0.6992 0.0000 34.3910
#
#
#
# Elastic Compliance Matrix: (Units=1/GPa)
#
#
# Indices 1 2 3 4 5 6 
#
# 1 0.008868 -0.003298 0.001237 0.000000 -0.000274 0.000000
# 2 -0.003298 0.009045 0.001181 0.000000 -0.000371 0.000000
# 3 0.001237 0.001181 0.015843 0.000000 0.001034 0.000000
# 4 0.000000 0.000000 0.000000 0.074277 0.000000 0.001510
# 5 -0.000274 -0.000371 0.001034 0.000000 0.036871 0.000000
# 6 0.000000 0.000000 0.000000 0.001510 0.000000 0.029108
#
#
# Mechanical properties :
#
#
# Convention : Reuss Voigt Hill
#
# Bulk Modulus (GPa) = 31.25397 41.66760 36.46079
# Shear Modulus (GPa) = 26.81873 35.51801 31.16837
#
# Velocity S-wave (km/s) = 3.39361 3.90542 3.65848
# Velocity P-wave (km/s) = 5.36439 6.18300 5.78819
#
# Compressibility (1/GPa) = 0.03199594
#
# Stress axis : x y z
#
# Youngs Moduli (GPa) = 112.76370 110.55998 63.11926
#
# Poissons Ratio (x) = 0.36461 -0.07808
# Poissons Ratio (y) = 0.37188 -0.07453
# Poissons Ratio (z) = -0.13949 -0.13054
#
# Static dielectric constant tensor:
#      x y z
#    x 1.866570 0.000000 0.034880 
#    y 0.000000 1.870700 0.000000 
#    z 0.034880 0.000000 1.920950 
# 
# From -- ./inp_files/29679.got.cif
#   From: 2010.05.17/outbox.cif.g08.bks.cpg/sg5_15_cif.got.tgz:29679.got - 2010.06.03 18:56:24.
