data_PCOD9120291
_publ_section_title
;
Structure prediction by ZEFSAII (Michael W. Deem and Ramdas Pophale) SiO2 
 PCOD9120291
Probable space group: C 2
;
_chemical_formula_sum "Si O2"
_cell_formula_units_Z 32
_cell_length_a 17.168415
_cell_length_b 11.151624
_cell_length_c 17.465163
_cell_angle_alpha 90.000000
_cell_angle_beta 150.366341
_cell_angle_gamma 90.000000
_cell_volume 1653.353072
_symmetry_space_group_name_H-M "C 2"
_symmetry_group_IT_number 5
_symmetry_cell_setting 'monoclinic'
loop_
_space_group_symop_operation_xyz
x,y,z
-x,y,-z
1/2+x,1/2+y,z
1/2-x,1/2+y,-z
loop_
_atom_site_type_symbol
_atom_site_label
_atom_site_fract_x
_atom_site_fract_y
_atom_site_fract_z
Si Si1 0.365567 0.828610 0.320001
Si Si2 0.121546 0.964753 0.694050
Si Si3 0.838146 0.702391 0.335485
Si Si4 0.297727 0.133885 0.727674
Si Si5 0.449005 0.693652 0.793319
Si Si6 0.414449 0.648235 0.586521
Si Si7 0.446575 0.932307 0.039644
Si Si8 0.353407 0.531214 0.931028
O O1 0.500000 0.863111 0.500000
O O2 0.226744 0.756317 0.246176
O O3 0.460831 0.738346 0.346492
O O4 0.274589 0.925197 0.189510
O O5 0.114197 0.832605 0.654411
O O6 0.172637 0.048223 0.665919
O O7 0.266413 0.967135 0.876880
O O8 0.974310 0.016144 0.613704
O O9 0.714023 0.698362 0.298494
O O10 0.745009 0.641347 0.187390
O O11 0.000000 0.641213 0.500000
O O12 0.247045 0.161579 0.598005
O O13 0.453755 0.053667 0.862359
O O14 0.412566 0.672399 0.673941
O O15 0.523374 0.824409 0.876140
O O16 0.561966 0.586343 0.921430
O O17 0.500000 0.887205 0.000000
O O18 0.500000 0.503755 0.000000
#
# Coordination Sequence:
#
# PCOD9120291 Si02
#       8
#     4   4   4   4   4   4   4   4
#     4   9  19  38  60  84 118 166 205 246 300 374
#     4  10  18  34  63  90 110 155 215 254 292 363
#     4  11  20  36  65  86 110 160 217 247 290 370
#     4   9  18  35  61  86 113 156 213 248 297 361
#     4  11  21  38  55  91 128 155 195 264 313 354
#     4  10  22  36  56  91 130 154 194 262 313 351
#     4  10  17  34  62  88 111 155 217 259 294 356
#     4  10  21  37  59  84 118 160 207 243 302 371
#
# _framework density 19.354607999999999
#
# number of rings (size 3 to 8) (size 9 to 14) (size 15 to 20)
#    0.000    2.000    3.750    2.625    0.000    3.500 
#    0.000    7.500    0.000    0.000    0.000    0.000 
#    0.000    0.000    0.000    0.000    0.000    0.000 
#
# Total GULP energy -89104.255535 kJ/mol
# GULP energy per Si atom -5569.015971 kJ/mol
# Density = 1.931056 g / cm^3
# Si number density = 19.354608 Si / 1000 Ang^3
#
#
#
# Elastic Constant Matrix: (Units=GPa)
#
#
# Indices 1 2 3 4 5 6 
#
# 1 52.4967 29.2788 35.7304 -0.0001 -31.7296 0.0000
# 2 29.2788 90.9468 34.0052 0.0006 -10.9432 -0.0001
# 3 35.7304 34.0052 103.8125 0.0006 -14.3146 -0.0001
# 4 -0.0001 0.0006 0.0006 168.5888 0.0004 -36.0925
# 5 -31.7296 -10.9432 -14.3146 0.0004 35.0379 -0.0001
# 6 0.0000 -0.0001 -0.0001 -36.0925 -0.0001 25.4922
#
#
#
# Elastic Compliance Matrix: (Units=1/GPa)
#
#
# Indices 1 2 3 4 5 6 
#
# 1 0.060669 -0.009649 -0.011191 0.000000 0.047355 0.000000
# 2 -0.009649 0.014253 -0.002055 0.000000 -0.005126 0.000000
# 3 -0.011191 -0.002055 0.013428 0.000000 -0.005290 0.000000
# 4 0.000000 0.000000 0.000000 0.008511 0.000000 0.012051
# 5 0.047355 -0.005126 -0.005290 0.000000 0.067662 0.000000
# 6 0.000000 0.000000 0.000000 0.012051 0.000000 0.056290
#
#
# Mechanical properties :
#
#
# Convention : Reuss Voigt Hill
#
# Bulk Modulus (GPa) = 23.49556 49.47607 36.48582
# Shear Modulus (GPa) = 17.80698 55.70657 36.75678
#
# Velocity S-wave (km/s) = 3.03650 5.37071 4.36262
# Velocity P-wave (km/s) = 4.94567 8.00486 6.65348
#
# Compressibility (1/GPa) = 0.04256123
#
# Stress axis : x y z
#
# Youngs Moduli (GPa) = 16.48295 70.15937 74.47132
#
# Poissons Ratio (x) = 0.67698 0.83339
# Poissons Ratio (y) = 0.15905 0.15301
# Poissons Ratio (z) = 0.18446 0.14415
#
# Static dielectric constant tensor:
#      x y z
#    x 1.641890 0.000000 0.000840 
#    y 0.000000 1.744590 0.000000 
#    z 0.000840 0.000000 1.605050 
# 
# From -- ./inp_files/62367.got.cif
#   From: 2010.05.17/outbox.cif.g08.bks.cpg/sg5_32_cif.got.tgz:62367.got - 2010.06.03 18:56:24.
