data_PCOD9120612
_publ_section_title
;
Structure prediction by ZEFSAII (Michael W. Deem and Ramdas Pophale) SiO2 
 PCOD9120612
Probable space group: C 2
;
_chemical_formula_sum "Si O2"
_cell_formula_units_Z 32
_cell_length_a 12.631449
_cell_length_b 16.743645
_cell_length_c 18.208689
_cell_angle_alpha 90.000000
_cell_angle_beta 27.277014
_cell_angle_gamma 90.000000
_cell_volume 1764.920316
_symmetry_space_group_name_H-M "C 2"
_symmetry_group_IT_number 5
_symmetry_cell_setting 'monoclinic'
loop_
_space_group_symop_operation_xyz
x,y,z
-x,y,-z
1/2+x,1/2+y,z
1/2-x,1/2+y,-z
loop_
_atom_site_type_symbol
_atom_site_label
_atom_site_fract_x
_atom_site_fract_y
_atom_site_fract_z
Si Si1 0.873393 0.208410 0.448053
Si Si2 0.076020 0.820966 0.067494
Si Si3 0.604446 0.151185 0.864641
Si Si4 0.515680 0.110982 0.224275
Si Si5 0.233220 0.280556 0.646526
Si Si6 0.969385 0.425691 0.754231
Si Si7 0.548924 0.872300 0.394176
Si Si8 0.113421 0.247403 0.008398
O O1 0.677096 0.153198 0.605145
O O2 0.818895 0.237006 0.398825
O O3 0.125423 0.168260 0.291609
O O4 0.909743 0.288350 0.474863
O O5 0.044422 0.733455 0.051236
O O6 0.820010 0.854126 0.228113
O O7 0.238655 0.876830 0.918473
O O8 0.195427 0.807207 0.073408
O O9 0.571097 0.113149 0.806060
O O10 0.500000 0.107714 0.000000
O O11 0.552008 0.018466 0.217732
O O12 0.747638 0.164428 0.086996
O O13 0.500000 0.272968 0.500000
O O14 0.161575 0.373534 0.678657
O O15 0.079148 0.246024 0.808410
O O16 0.014056 0.417166 0.640542
O O17 0.500000 0.915821 0.500000
O O18 0.000000 0.269798 0.000000
#
# Coordination Sequence:
#
# PCOD9120612 Si02
#       8
#     4   4   4   4   4   4   4   4
#     4  10  19  34  59  85 109 142 187 233 272 323
#     4   9  18  35  58  80 107 143 185 226 269 327
#     4  10  18  34  60  85 108 140 187 232 269 321
#     4  11  22  36  55  85 118 146 180 225 282 333
#     4  10  21  38  58  79 109 150 192 229 272 330
#     4  10  22  37  54  81 116 149 178 221 281 333
#     4  10  18  33  58  84 105 138 187 232 268 316
#     4  10  20  35  56  81 110 148 190 230 275 327
#
# _framework density 18.131129999999999
#
# number of rings (size 3 to 8) (size 9 to 14) (size 15 to 20)
#    0.000    2.000    0.000    7.500    0.000    3.000 
#    0.000    6.875    0.000    0.000    0.000    0.000 
#    0.000    0.000    0.000    0.000    0.000    0.000 
#
# Total GULP energy -89219.211625 kJ/mol
# GULP energy per Si atom -5576.200727 kJ/mol
# Density = 1.808986 g / cm^3
# Si number density = 18.131130 Si / 1000 Ang^3
#
#
#
# Elastic Constant Matrix: (Units=GPa)
#
#
# Indices 1 2 3 4 5 6 
#
# 1 117.2292 17.2450 34.4375 0.0013 11.1121 -0.0001
# 2 17.2450 79.6247 38.6317 -0.0576 9.5791 0.0123
# 3 34.4375 38.6317 96.1418 -0.0667 3.6774 0.0076
# 4 0.0013 -0.0576 -0.0667 13.9969 0.0051 6.2505
# 5 11.1121 9.5791 3.6774 0.0051 39.1369 0.0045
# 6 -0.0001 0.0123 0.0076 6.2505 0.0045 2.7242
#
#
#
# Elastic Compliance Matrix: (Units=1/GPa)
#
#
# Indices 1 2 3 4 5 6 
#
# 1 0.009765 -0.000214 -0.003319 0.000943 -0.002408 -0.002149
# 2 -0.000214 0.016024 -0.006239 -0.002419 -0.003275 0.005501
# 3 -0.003319 -0.006239 0.014051 -0.001912 0.001149 0.004373
# 4 0.000943 -0.002419 -0.001912 -2.902060 0.000114 6.658598
# 5 -0.002408 -0.003275 0.001149 0.000114 0.026929 -0.000295
# 6 -0.002149 0.005501 0.004373 6.658598 -0.000295-14.910666
#
#
# Mechanical properties :
#
#
# Convention : Reuss Voigt Hill
#
# Bulk Modulus (GPa) = 49.26905 52.62491 50.94698
# Shear Modulus (GPa) = -0.28217 24.68371 12.20077
#
# Velocity S-wave (km/s) = -0.39493 3.69372 2.59688
# Velocity P-wave (km/s) = 5.19854 6.87597 6.09524
#
# Compressibility (1/GPa) = 0.02029672
#
# Stress axis : x y z
#
# Youngs Moduli (GPa) = 102.40671 62.40809 71.16747
#
# Poissons Ratio (x) = 0.01335 0.23620
# Poissons Ratio (y) = 0.02191 0.44400
# Poissons Ratio (z) = 0.33987 0.38935
#
# Static dielectric constant tensor:
#      x y z
#    x 1.653310 0.000000 0.019240 
#    y 0.000000 1.603910 0.000010 
#    z 0.019240 0.000010 1.634070 
# 
# From -- ./inp_files/60801.got.cif
#   From: 2010.05.17/outbox.cif.g08.bks.cpg/sg5_31_cif.got.tgz:60801.got - 2010.06.03 18:56:24.
