data_PCOD9120290
_publ_section_title
;
Structure prediction by ZEFSAII (Michael W. Deem and Ramdas Pophale) SiO2 
 PCOD9120290
Probable space group: C 2
;
_chemical_formula_sum "Si O2"
_cell_formula_units_Z 28
_cell_length_a 11.748909
_cell_length_b 15.550283
_cell_length_c 8.445311
_cell_angle_alpha 90.000000
_cell_angle_beta 119.638215
_cell_angle_gamma 90.000000
_cell_volume 1341.077443
_symmetry_space_group_name_H-M "C 2"
_symmetry_group_IT_number 5
_symmetry_cell_setting 'monoclinic'
loop_
_space_group_symop_operation_xyz
x,y,z
-x,y,-z
1/2+x,1/2+y,z
1/2-x,1/2+y,-z
loop_
_atom_site_type_symbol
_atom_site_label
_atom_site_fract_x
_atom_site_fract_y
_atom_site_fract_z
Si Si1 0.854676 0.732890 0.412430
Si Si2 0.500000 0.319297 0.000000
Si Si3 0.881186 0.896601 0.204172
Si Si4 0.881005 0.342103 0.144927
Si Si5 0.000000 0.469241 0.000000
Si Si6 0.860222 0.158936 0.955370
Si Si7 0.751770 0.246561 0.311624
Si Si8 0.273135 0.565238 0.201548
O O1 0.872066 0.818693 0.320004
O O2 0.741451 0.676679 0.254275
O O3 0.803638 0.757321 0.551023
O O4 0.000000 0.691367 0.500000
O O5 0.492144 0.377372 0.151575
O O6 0.627198 0.259593 0.107724
O O7 0.873466 0.986489 0.287433
O O8 0.750034 0.889358 0.007041
O O9 0.856927 0.313648 0.310495
O O10 0.890302 0.250845 0.060412
O O11 0.988988 0.405759 0.146123
O O12 0.873126 0.528010 0.884253
O O13 0.792733 0.099356 0.037477
O O14 0.000000 0.122643 0.000000
O O15 0.797914 0.148273 0.326592
#
# Coordination Sequence:
#
# PCOD9120290 Si02
#       8
#     4   2   4   4   2   4   4   4
#     4  11  22  39  67  97 129 173 219 272 316 389
#     4  10  17  34  63  84 122 168 220 246 307 410
#     4   9  19  35  56  92 121 161 208 263 318 364
#     4   8  17  34  59  83 116 172 212 243 304 393
#     4  10  17  34  61  90 124 160 224 262 303 372
#     4  10  21  40  64  90 128 170 217 257 325 393
#     4  10  20  36  59  93 123 166 216 266 316 383
#     4  10  22  35  62  95 125 165 210 275 322 377
#
# _framework density 20.878734000000001
#
# number of rings (size 3 to 8) (size 9 to 14) (size 15 to 20)
#    0.000    2.286    2.143    1.286    3.000    0.000 
#    0.000    8.571    0.000    0.000    0.000    0.000 
#    0.000    0.000    0.000    0.000    0.000    0.000 
#
# Total GULP energy -78050.844689 kJ/mol
# GULP energy per Si atom -5575.060335 kJ/mol
# Density = 2.083121 g / cm^3
# Si number density = 20.878734 Si / 1000 Ang^3
#
#
#
# Elastic Constant Matrix: (Units=GPa)
#
#
# Indices 1 2 3 4 5 6 
#
# 1 125.5950 42.0252 49.3250 0.0000 -27.6232 0.0000
# 2 42.0252 68.9304 1.8852 0.0000 -1.2685 0.0000
# 3 49.3250 1.8852 65.4649 0.0000 -13.1828 0.0000
# 4 0.0000 0.0000 0.0000 -0.0869 0.0000 -7.5705
# 5 -27.6232 -1.2685 -13.1828 0.0000 37.8150 0.0000
# 6 0.0000 0.0000 0.0000 -7.5705 0.0000 44.1005
#
#
#
# Elastic Compliance Matrix: (Units=1/GPa)
#
#
# Indices 1 2 3 4 5 6 
#
# 1 0.017822 -0.010395 -0.011376 0.000000 0.008704 0.000000
# 2 -0.010395 0.020586 0.006291 0.000000 -0.004710 0.000000
# 3 -0.011376 0.006291 0.023698 0.000000 0.000162 0.000000
# 4 0.000000 0.000000 0.000000 -0.721224 0.000000 -0.123809
# 5 0.008704 -0.004710 0.000162 0.000000 0.032702 0.000000
# 6 0.000000 0.000000 0.000000 -0.123809 0.000000 0.001422
#
#
# Mechanical properties :
#
#
# Convention : Reuss Voigt Hill
#
# Bulk Modulus (GPa) = 32.10633 49.60679 40.85656
# Shear Modulus (GPa) = -8.56676 27.48271 9.45798
#
# Velocity S-wave (km/s) = -2.02781 3.63202 2.13068
# Velocity P-wave (km/s) = 3.15091 6.43427 5.06597
#
# Compressibility (1/GPa) = 0.03114651
#
# Stress axis : x y z
#
# Youngs Moduli (GPa) = 56.10888 48.57669 42.19683
#
# Poissons Ratio (x) = 0.50494 0.48004
# Poissons Ratio (y) = 0.58323 -0.26545
# Poissons Ratio (z) = 0.63831 -0.30558
#
# Static dielectric constant tensor:
#      x y z
#    x 1.824370 0.000000 -0.004180 
#    y 0.000000 1.762720 0.000000 
#    z -0.004180 0.000000 1.753890 
# 
# From -- ./inp_files/20350.got.cif
#   From: 2010.05.17/outbox.cif.g08.bks.cpg/sg5_11_cif.got.tgz:20350.got - 2010.06.03 18:56:24.
