data_PCOD9120491
_publ_section_title
;
Structure prediction by ZEFSAII (Michael W. Deem and Ramdas Pophale) SiO2 
 PCOD9120491
Probable space group: C 2
;
_chemical_formula_sum "Si O2"
_cell_formula_units_Z 28
_cell_length_a 21.263773
_cell_length_b 7.236590
_cell_length_c 8.013553
_cell_angle_alpha 90.000000
_cell_angle_beta 65.340563
_cell_angle_gamma 90.000000
_cell_volume 1120.648810
_symmetry_space_group_name_H-M "C 2"
_symmetry_group_IT_number 5
_symmetry_cell_setting 'monoclinic'
loop_
_space_group_symop_operation_xyz
x,y,z
-x,y,-z
1/2+x,1/2+y,z
1/2-x,1/2+y,-z
loop_
_atom_site_type_symbol
_atom_site_label
_atom_site_fract_x
_atom_site_fract_y
_atom_site_fract_z
Si Si1 0.630852 0.119420 0.405186
Si Si2 0.258654 0.427303 0.072938
Si Si3 0.557080 0.066122 0.804703
Si Si4 0.601351 0.475996 0.241658
Si Si5 0.665916 0.499692 0.509308
Si Si6 0.204795 0.543062 0.796537
Si Si7 0.532693 0.507419 0.799104
O O1 0.576907 0.012464 0.588077
O O2 0.597885 0.255610 0.297896
O O3 0.659287 0.279338 0.497364
O O4 0.695522 0.016938 0.247247
O O5 0.336926 0.507465 0.959691
O O6 0.368541 0.569342 0.625503
O O7 0.230592 0.403929 0.913283
O O8 0.627007 0.032543 0.829717
O O9 0.538075 0.284164 0.805966
O O10 0.500000 0.993115 0.000000
O O11 0.525362 0.540628 0.276376
O O12 0.722923 0.236041 0.861901
O O13 0.745968 0.533466 0.419133
O O14 0.611621 0.572982 0.700110
O O15 0.500000 0.582812 0.000000
#
# Coordination Sequence:
#
# PCOD9120491 Si02
#       7
#     4   4   4   4   4   4   4
#     4   9  20  35  57  89 113 152 187 235 295 328
#     4  11  19  36  58  84 116 157 186 236 287 340
#     4  10  22  35  56  88 117 147 195 244 287 329
#     4   9  18  33  54  82 117 140 193 236 271 345
#     4   8  19  35  55  82 116 150 188 244 282 336
#     4  11  21  37  58  86 119 145 199 236 284 352
#     4  10  18  31  56  90 109 146 193 245 287 322
#
# _framework density 24.985529
#
# number of rings (size 3 to 8) (size 9 to 14) (size 15 to 20)
#    0.857    1.429    1.429    2.143    0.000    3.429 
#    0.000    0.000    0.000    9.429    0.000    4.000 
#    0.000    0.000    0.000    0.000    0.000    0.000 
#
# Total GULP energy -77961.991142 kJ/mol
# GULP energy per Si atom -5568.713653 kJ/mol
# Density = 2.492866 g / cm^3
# Si number density = 24.985529 Si / 1000 Ang^3
#
#
#
# Elastic Constant Matrix: (Units=GPa)
#
#
# Indices 1 2 3 4 5 6 
#
# 1 131.4550 0.8929 54.5310 0.0000 -33.6515 0.0000
# 2 0.8929 39.2034 15.3727 0.0000 -4.3515 0.0000
# 3 54.5310 15.3727 222.9798 0.0000 -49.8511 0.0000
# 4 0.0000 0.0000 0.0000 14.0209 0.0000 -0.5433
# 5 -33.6515 -4.3515 -49.8511 0.0000 44.9519 0.0000
# 6 0.0000 0.0000 0.0000 -0.5433 0.0000 14.2465
#
#
#
# Elastic Compliance Matrix: (Units=1/GPa)
#
#
# Indices 1 2 3 4 5 6 
#
# 1 0.009598 0.000868 -0.001040 0.000000 0.006116 0.000000
# 2 0.000868 0.026312 -0.001744 0.000000 0.001263 0.000000
# 3 -0.001040 -0.001744 0.006180 0.000000 0.005906 0.000000
# 4 0.000000 0.000000 0.000000 0.071428 0.000000 0.002724
# 5 0.006116 0.001263 0.005906 0.000000 0.033497 0.000000
# 6 0.000000 0.000000 0.000000 0.002724 0.000000 0.070297
#
#
# Mechanical properties :
#
#
# Convention : Reuss Voigt Hill
#
# Bulk Modulus (GPa) = 26.13783 59.47015 42.80399
# Shear Modulus (GPa) = 21.37708 36.16662 28.77185
#
# Velocity S-wave (km/s) = 2.92820 3.80873 3.39712
# Velocity P-wave (km/s) = 4.68149 6.57232 5.70578
#
# Compressibility (1/GPa) = 0.03825873
#
# Stress axis : x y z
#
# Youngs Moduli (GPa) = 104.18477 38.00516 161.82306
#
# Poissons Ratio (x) = -0.03299 0.16825
# Poissons Ratio (y) = -0.09043 0.28221
# Poissons Ratio (z) = 0.10833 0.06628
#
# Static dielectric constant tensor:
#      x y z
#    x 1.973410 0.000000 0.021630 
#    y 0.000000 2.075510 0.000000 
#    z 0.021630 0.000000 2.123110 
# 
# From -- ./inp_files/27464.got.cif
#   From: 2010.05.17/outbox.cif.g08.bks.cpg/sg5_14_cif.got.tgz:27464.got - 2010.06.03 18:56:24.
