data_PCOD9120845
_publ_section_title
;
Structure prediction by ZEFSAII (Michael W. Deem and Ramdas Pophale) SiO2 
 PCOD9120845
Probable space group: C 2
;
_chemical_formula_sum "Si O2"
_cell_formula_units_Z 28
_cell_length_a 9.692972
_cell_length_b 11.167879
_cell_length_c 12.189531
_cell_angle_alpha 90.000000
_cell_angle_beta 70.165665
_cell_angle_gamma 90.000000
_cell_volume 1241.239137
_symmetry_space_group_name_H-M "C 2"
_symmetry_group_IT_number 5
_symmetry_cell_setting 'monoclinic'
loop_
_space_group_symop_operation_xyz
x,y,z
-x,y,-z
1/2+x,1/2+y,z
1/2-x,1/2+y,-z
loop_
_atom_site_type_symbol
_atom_site_label
_atom_site_fract_x
_atom_site_fract_y
_atom_site_fract_z
Si Si1 0.552752 0.536430 0.366209
Si Si2 0.000000 0.672725 0.500000
Si Si3 0.862523 0.278735 0.619228
Si Si4 0.505757 0.839497 0.180497
Si Si5 0.248292 0.520999 0.385497
Si Si6 0.000000 0.140176 0.000000
Si Si7 0.658374 0.305327 0.257301
Si Si8 0.314600 0.068190 0.851981
O O1 0.500000 0.489671 0.500000
O O2 0.671724 0.638665 0.356630
O O3 0.400486 0.587453 0.361330
O O4 0.595945 0.438281 0.266218
O O5 0.870553 0.580328 0.502675
O O6 0.928407 0.750486 0.615109
O O7 0.918910 0.315694 0.723487
O O8 0.747857 0.376654 0.605468
O O9 0.000000 0.284474 0.500000
O O10 0.539704 0.731741 0.087875
O O11 0.329599 0.830478 0.236103
O O12 0.574635 0.969584 0.128350
O O13 0.197789 0.543404 0.275179
O O14 0.852866 0.064116 0.060616
O O15 0.641636 0.209756 0.163293
#
# Coordination Sequence:
#
# PCOD9120845 Si02
#       8
#     4   2   4   4   4   2   4   4
#     4  11  23  33  52  92 130 170 211 260 310 381
#     4  10  18  36  56  82 116 178 214 250 310 394
#     4  10  21  37  59  90 128 168 204 261 316 386
#     4  10  22  43  67  95 124 167 222 266 329 389
#     4  10  21  37  59  86 124 171 218 258 319 386
#     4  10  20  44  70  96 126 168 218 280 332 378
#     4  10  21  36  58  91 128 168 212 261 320 388
#     4   9  21  42  68  90 118 167 218 275 327 389
#
# _framework density 22.558102999999999
#
# number of rings (size 3 to 8) (size 9 to 14) (size 15 to 20)
#    0.000    2.000    1.429    2.571    2.000    3.429 
#   10.286    0.000    0.000    0.000    0.000    0.000 
#    0.000    0.000    0.000    0.000    0.000    0.000 
#
# Total GULP energy -78005.342622 kJ/mol
# GULP energy per Si atom -5571.810187 kJ/mol
# Density = 2.250676 g / cm^3
# Si number density = 22.558103 Si / 1000 Ang^3
#
#
#
# Elastic Constant Matrix: (Units=GPa)
#
#
# Indices 1 2 3 4 5 6 
#
# 1 74.1004 33.1864 18.6260 0.0000 -12.7916 0.0000
# 2 33.1864 126.6696 20.9609 0.0000 -29.0176 0.0000
# 3 18.6260 20.9609 64.1402 0.0000 -21.3020 0.0000
# 4 0.0000 0.0000 0.0000 49.0533 0.0000 16.7045
# 5 -12.7916 -29.0176 -21.3020 0.0000 34.9639 0.0000
# 6 0.0000 0.0000 0.0000 16.7045 0.0000 30.5772
#
#
#
# Elastic Compliance Matrix: (Units=1/GPa)
#
#
# Indices 1 2 3 4 5 6 
#
# 1 0.016012 -0.003421 -0.003171 0.000000 0.001087 0.000000
# 2 -0.003421 0.010499 0.000051 0.000000 0.007493 0.000000
# 3 -0.003171 0.000051 0.020214 0.000000 0.011198 0.000000
# 4 0.000000 0.000000 0.000000 0.025045 0.000000 -0.013682
# 5 0.001087 0.007493 0.011198 0.000000 0.042039 0.000000
# 6 0.000000 0.000000 0.000000 -0.013682 0.000000 0.040179
#
#
# Mechanical properties :
#
#
# Convention : Reuss Voigt Hill
#
# Bulk Modulus (GPa) = 29.72435 45.60630 37.66532
# Shear Modulus (GPa) = 28.04498 35.72800 31.88649
#
# Velocity S-wave (km/s) = 3.52978 3.98404 3.76377
# Velocity P-wave (km/s) = 5.46057 6.43620 5.96835
#
# Compressibility (1/GPa) = 0.03364245
#
# Stress axis : x y z
#
# Youngs Moduli (GPa) = 62.45272 95.24768 49.47092
#
# Poissons Ratio (x) = 0.32588 0.15686
# Poissons Ratio (y) = 0.21368 -0.00252
# Poissons Ratio (z) = 0.19803 -0.00485
#
# Static dielectric constant tensor:
#      x y z
#    x 1.727260 0.000000 -0.078410 
#    y 0.000000 2.038230 0.000000 
#    z -0.078410 0.000000 1.787130 
# 
# From -- ./inp_files/50437.got.cif
#   From: 2010.05.17/outbox.cif.g08.bks.cpg/sg5_26_cif.got.tgz:50437.got - 2010.06.03 18:56:24.
