data_PCOD9120098
_publ_section_title
;
Structure prediction by ZEFSAII (Michael W. Deem and Ramdas Pophale) SiO2 
 PCOD9120098
Probable space group: C 2
;
_chemical_formula_sum "Si O2"
_cell_formula_units_Z 28
_cell_length_a 7.977963
_cell_length_b 14.911656
_cell_length_c 11.090438
_cell_angle_alpha 90.000000
_cell_angle_beta 121.790807
_cell_angle_gamma 90.000000
_cell_volume 1121.434427
_symmetry_space_group_name_H-M "C 2"
_symmetry_group_IT_number 5
_symmetry_cell_setting 'monoclinic'
loop_
_space_group_symop_operation_xyz
x,y,z
-x,y,-z
1/2+x,1/2+y,z
1/2-x,1/2+y,-z
loop_
_atom_site_type_symbol
_atom_site_label
_atom_site_fract_x
_atom_site_fract_y
_atom_site_fract_z
Si Si1 0.141166 0.000000 0.338846
Si Si2 0.292715 0.832410 0.491900
Si Si3 0.104610 0.706350 0.228827
Si Si4 0.299827 0.754096 0.054524
Si Si5 0.913328 0.561283 0.239866
Si Si6 0.325293 0.446013 0.027972
Si Si7 0.327643 0.691206 0.705237
O O1 0.323839 0.993841 0.307849
O O2 0.123295 0.105237 0.360454
O O3 0.207374 0.932563 0.466739
O O4 0.943200 0.970319 0.193674
O O5 0.500000 0.830213 0.500000
O O6 0.149734 0.775305 0.351959
O O7 0.303227 0.781141 0.622037
O O8 0.247425 0.737699 0.175262
O O9 0.119605 0.600292 0.269014
O O10 0.887993 0.718551 0.088316
O O11 0.311032 0.858467 0.022933
O O12 0.507790 0.704605 0.130437
O O13 0.793643 0.527564 0.077468
O O14 0.857278 0.651350 0.294134
O O15 0.500000 0.422308 0.000000
#
# Coordination Sequence:
#
# PCOD9120098 Si02
#       7
#     4   4   4   4   4   4   4
#     4   9  21  41  63  93 124 176 217 267 306 394
#     4  12  23  41  65  92 125 177 222 263 311 399
#     4  11  21  36  64  92 128 162 219 268 318 381
#     4  11  20  37  67  98 122 171 218 265 328 381
#     4   9  22  38  65  97 126 164 215 272 328 374
#     4  10  16  36  64  96 119 169 221 259 305 397
#     4  10  24  38  66  96 130 164 222 269 323 384
#
# _framework density 24.968022000000001
#
# number of rings (size 3 to 8) (size 9 to 14) (size 15 to 20)
#    0.857    0.857    4.286    1.714    2.000    1.714 
#    0.000    0.000    6.286    0.000    0.000    0.000 
#    0.000    0.000    0.000    0.000    0.000    0.000 
#
# Total GULP energy -78052.004770 kJ/mol
# GULP energy per Si atom -5575.143198 kJ/mol
# Density = 2.491119 g / cm^3
# Si number density = 24.968022 Si / 1000 Ang^3
#
#
#
# Elastic Constant Matrix: (Units=GPa)
#
#
# Indices 1 2 3 4 5 6 
#
# 1 22.9228 19.5713 2.9593 0.0000 -0.0225 0.0000
# 2 19.5713 148.5824 44.4792 0.0000 9.9221 0.0000
# 3 2.9593 44.4792 86.9801 0.0000 -0.1778 0.0000
# 4 0.0000 0.0000 0.0000 39.6755 0.0000 6.9920
# 5 -0.0225 9.9221 -0.1778 0.0000 21.0203 0.0000
# 6 0.0000 0.0000 0.0000 6.9920 0.0000 19.6041
#
#
#
# Elastic Compliance Matrix: (Units=1/GPa)
#
#
# Indices 1 2 3 4 5 6 
#
# 1 0.049686 -0.007414 0.002108 0.000000 0.003571 0.000000
# 2 -0.007414 0.009366 -0.004547 0.000000 -0.004467 0.000000
# 3 0.002108 -0.004547 0.013755 0.000000 0.002265 0.000000
# 4 0.000000 0.000000 0.000000 0.026895 0.000000 -0.009592
# 5 0.003571 -0.004467 0.002265 0.000000 0.049705 0.000000
# 6 0.000000 0.000000 0.000000 -0.009592 0.000000 0.054431
#
#
# Mechanical properties :
#
#
# Convention : Reuss Voigt Hill
#
# Bulk Modulus (GPa) = 18.83161 43.61164 31.22163
# Shear Modulus (GPa) = 20.72595 28.82502 24.77548
#
# Velocity S-wave (km/s) = 2.88427 3.40145 3.15348
# Velocity P-wave (km/s) = 4.31864 5.73859 5.07849
#
# Compressibility (1/GPa) = 0.05310219
#
# Stress axis : x y z
#
# Youngs Moduli (GPa) = 20.12633 106.76652 72.70219
#
# Poissons Ratio (x) = 0.79159 -0.15328
# Poissons Ratio (y) = 0.14922 0.33054
# Poissons Ratio (z) = -0.04243 0.48541
#
# Static dielectric constant tensor:
#      x y z
#    x 2.144120 0.000000 -0.036710 
#    y 0.000000 2.097210 0.000000 
#    z -0.036710 0.000000 1.951650 
# 
# From -- ./inp_files/36495.got.cif
#   From: 2010.05.17/outbox.cif.g08.bks.cpg/sg5_19_cif.got.tgz:36495.got - 2010.06.03 18:56:24.
