data_PCOD9120575
_publ_section_title
;
Structure prediction by ZEFSAII (Michael W. Deem and Ramdas Pophale) SiO2 
 PCOD9120575
Probable space group: C 2
;
_chemical_formula_sum "Si O2"
_cell_formula_units_Z 28
_cell_length_a 30.837543
_cell_length_b 8.665020
_cell_length_c 5.334652
_cell_angle_alpha 90.000000
_cell_angle_beta 111.909924
_cell_angle_gamma 90.000000
_cell_volume 1322.502564
_symmetry_space_group_name_H-M "C 2"
_symmetry_group_IT_number 5
_symmetry_cell_setting 'monoclinic'
loop_
_space_group_symop_operation_xyz
x,y,z
-x,y,-z
1/2+x,1/2+y,z
1/2-x,1/2+y,-z
loop_
_atom_site_type_symbol
_atom_site_label
_atom_site_fract_x
_atom_site_fract_y
_atom_site_fract_z
Si Si1 0.000000 0.089450 0.000000
Si Si2 0.500000 0.796406 0.500000
Si Si3 0.225156 0.414273 0.411347
Si Si4 0.186522 0.915803 0.708008
Si Si5 0.397730 0.862414 0.409440
Si Si6 0.898760 0.048733 0.714838
Si Si7 0.315121 0.065595 0.179158
Si Si8 0.829331 0.151301 0.938436
O O1 0.993593 0.191982 0.237209
O O2 0.048223 0.999146 0.139827
O O3 0.450907 0.883757 0.434724
O O4 0.279770 0.415520 0.461203
O O5 0.287682 0.978814 0.345455
O O6 0.200798 0.507945 0.129628
O O7 0.203563 0.243140 0.325271
O O8 0.132090 0.950408 0.541265
O O9 0.192580 0.747616 0.833590
O O10 0.199338 0.058913 0.915258
O O11 0.399750 0.731776 0.634795
O O12 0.368682 0.019758 0.372434
O O13 0.363750 0.774226 0.142815
O O14 0.866589 0.040515 0.888222
#
# Coordination Sequence:
#
# PCOD9120575 Si02
#       8
#     2   2   4   4   4   4   4   4
#     4  10  20  36  64  94 118 158 208 266 300 376
#     4  10  18  32  64  96 116 154 212 256 314 358
#     4  11  25  42  63  87 128 169 215 251 311 380
#     4  11  26  37  63  91 129 165 212 261 318 378
#     4   9  19  37  61  89 122 159 205 261 305 378
#     4  10  20  38  64  89 123 157 212 253 318 363
#     4  11  25  42  62  93 127 167 208 262 318 375
#     4  10  20  40  60  90 119 166 204 262 301 377
#
# _framework density 21.171983999999998
#
# number of rings (size 3 to 8) (size 9 to 14) (size 15 to 20)
#    0.000    1.714    2.857    0.857    6.000    0.000 
#    0.000    0.000    3.143    0.857    0.000    0.000 
#    0.000    0.000    0.000    0.000    0.000    0.000 
#
# Total GULP energy -78090.908241 kJ/mol
# GULP energy per Si atom -5577.922017 kJ/mol
# Density = 2.112380 g / cm^3
# Si number density = 21.171984 Si / 1000 Ang^3
#
#
#
# Elastic Constant Matrix: (Units=GPa)
#
#
# Indices 1 2 3 4 5 6 
#
# 1 146.8248 5.6153 18.0580 0.0000 26.9295 0.0000
# 2 5.6153 52.7425 -0.7202 0.0000 10.1255 0.0000
# 3 18.0580 -0.7202 70.6071 0.0000 5.5288 0.0000
# 4 0.0000 0.0000 0.0000 20.0147 0.0000 5.3646
# 5 26.9295 10.1255 5.5288 0.0000 39.3723 0.0000
# 6 0.0000 0.0000 0.0000 5.3646 0.0000 21.5477
#
#
#
# Elastic Compliance Matrix: (Units=1/GPa)
#
#
# Indices 1 2 3 4 5 6 
#
# 1 0.007970 0.000139 -0.001625 0.000000 -0.005259 0.000000
# 2 0.000139 0.019973 0.000584 0.000000 -0.005314 0.000000
# 3 -0.001625 0.000584 0.014671 0.000000 -0.001099 0.000000
# 4 0.000000 0.000000 0.000000 0.053536 0.000000 -0.013328
# 5 -0.005259 -0.005314 -0.001099 0.000000 0.030516 0.000000
# 6 0.000000 0.000000 0.000000 -0.013328 0.000000 0.049727
#
#
# Mechanical properties :
#
#
# Convention : Reuss Voigt Hill
#
# Bulk Modulus (GPa) = 24.50393 35.12006 29.81199
# Shear Modulus (GPa) = 26.06883 32.66836 29.36859
#
# Velocity S-wave (km/s) = 3.51278 3.93236 3.72848
# Velocity P-wave (km/s) = 5.29639 6.10262 5.71374
#
# Compressibility (1/GPa) = 0.04080978
#
# Stress axis : x y z
#
# Youngs Moduli (GPa) = 125.47191 50.06674 68.16388
#
# Poissons Ratio (x) = -0.00695 0.11078
# Poissons Ratio (y) = -0.01742 -0.03983
# Poissons Ratio (z) = 0.20391 -0.02925
#
# Static dielectric constant tensor:
#      x y z
#    x 1.789620 0.000000 -0.015550 
#    y 0.000000 1.803570 0.000000 
#    z -0.015550 0.000000 1.832550 
# 
# From -- ./inp_files/11165.got.cif
#   From: 2010.05.17/outbox.cif.g08.bks.cpg/sg5_6_cif.got.tgz:11165.got - 2010.06.03 18:56:24.
