data_PCOD9120772
_publ_section_title
;
Structure prediction by ZEFSAII (Michael W. Deem and Ramdas Pophale) SiO2 
 PCOD9120772
Probable space group: C 2
;
_chemical_formula_sum "Si O2"
_cell_formula_units_Z 32
_cell_length_a 6.819902
_cell_length_b 13.392509
_cell_length_c 14.549214
_cell_angle_alpha 90.000000
_cell_angle_beta 106.240267
_cell_angle_gamma 90.000000
_cell_volume 1275.836126
_symmetry_space_group_name_H-M "C 2"
_symmetry_group_IT_number 5
_symmetry_cell_setting 'monoclinic'
loop_
_space_group_symop_operation_xyz
x,y,z
-x,y,-z
1/2+x,1/2+y,z
1/2-x,1/2+y,-z
loop_
_atom_site_type_symbol
_atom_site_label
_atom_site_fract_x
_atom_site_fract_y
_atom_site_fract_z
Si Si1 0.665197 0.588870 0.648418
Si Si2 0.957879 0.286501 0.297170
Si Si3 0.099749 0.225237 0.911598
Si Si4 0.181267 0.556929 0.585787
Si Si5 0.203955 0.024232 0.848372
Si Si6 0.259544 0.437711 0.972106
Si Si7 0.786113 0.499794 0.218986
Si Si8 0.732370 0.398308 0.532786
O O1 0.691227 0.707078 0.670642
O O2 0.415520 0.591350 0.608611
O O3 0.758242 0.535176 0.750375
O O4 0.726744 0.508863 0.579747
O O5 0.137770 0.321242 0.389958
O O6 0.020348 0.240340 0.203632
O O7 0.848602 0.388535 0.254988
O O8 0.229483 0.127450 0.905863
O O9 0.229291 0.324898 0.938101
O O10 0.000000 0.210998 0.000000
O O11 0.132576 0.568028 0.687583
O O12 0.195353 0.438305 0.557803
O O13 0.000000 0.602802 0.500000
O O14 0.959603 0.006248 0.808786
O O15 0.300691 0.943950 0.928796
O O16 0.163543 0.510561 0.882297
O O17 0.500000 0.461267 0.000000
O O18 0.500000 0.362683 0.500000
#
# Coordination Sequence:
#
# PCOD9120772 Si02
#       8
#     4   4   4   4   4   4   4   4
#     4   9  21  36  58  84 118 150 194 248 301 345
#     4  10  20  37  60  83 119 154 198 242 297 362
#     4  10  20  33  57  88 114 148 193 232 288 348
#     4  10  18  35  56  80 111 156 194 242 296 355
#     4   9  18  36  61  78 114 152 184 233 291 348
#     4   9  18  33  56  80 112 150 186 232 283 354
#     4   9  17  33  59  79 103 152 195 227 290 345
#     4  10  21  38  58  86 120 154 197 251 302 343
#
# _framework density 25.081591
#
# number of rings (size 3 to 8) (size 9 to 14) (size 15 to 20)
#    0.000    2.500    1.250    1.125    1.750    0.500 
#    6.750    0.625   27.500    0.000    0.000    0.000 
#    0.000    0.000    0.000    0.000    0.000    0.000 
#
# Total GULP energy -89156.654379 kJ/mol
# GULP energy per Si atom -5572.290899 kJ/mol
# Density = 2.502450 g / cm^3
# Si number density = 25.081591 Si / 1000 Ang^3
#
#
#
# Elastic Constant Matrix: (Units=GPa)
#
#
# Indices 1 2 3 4 5 6 
#
# 1 48.2565 -8.1040 23.7106 0.0000 -5.2585 0.0000
# 2 -8.1040 72.2926 38.2218 0.0000 11.3735 0.0000
# 3 23.7106 38.2218 169.4127 0.0000 -4.7998 0.0000
# 4 0.0000 0.0000 0.0000 37.4324 0.0000 1.0572
# 5 -5.2585 11.3735 -4.7998 0.0000 50.3949 0.0000
# 6 0.0000 0.0000 0.0000 1.0572 0.0000 16.2000
#
#
#
# Elastic Compliance Matrix: (Units=1/GPa)
#
#
# Indices 1 2 3 4 5 6 
#
# 1 0.023801 0.004839 -0.004395 0.000000 0.000973 0.000000
# 2 0.004839 0.017490 -0.004734 0.000000 -0.003893 0.000000
# 3 -0.004395 -0.004734 0.007624 0.000000 0.001336 0.000000
# 4 0.000000 0.000000 0.000000 0.026764 0.000000 -0.001747
# 5 0.000973 -0.003893 0.001336 0.000000 0.020951 0.000000
# 6 0.000000 0.000000 0.000000 -0.001747 0.000000 0.061842
#
#
# Mechanical properties :
#
#
# Convention : Reuss Voigt Hill
#
# Bulk Modulus (GPa) = 24.79247 44.17985 34.48616
# Shear Modulus (GPa) = 27.70127 36.54768 32.12447
#
# Velocity S-wave (km/s) = 3.32693 3.82141 3.58271
# Velocity P-wave (km/s) = 4.96630 6.09291 5.55822
#
# Compressibility (1/GPa) = 0.04033483
#
# Stress axis : x y z
#
# Youngs Moduli (GPa) = 42.01535 57.17446 131.16988
#
# Poissons Ratio (x) = -0.27666 0.57653
# Poissons Ratio (y) = -0.20331 0.62090
# Poissons Ratio (z) = 0.18467 0.27064
#
# Static dielectric constant tensor:
#      x y z
#    x 2.084560 0.000000 -0.063450 
#    y 0.000000 1.923520 0.000000 
#    z -0.063450 0.000000 2.131890 
# 
# From -- ./inp_files/50952.got.cif
#   From: 2010.05.17/outbox.cif.g08.bks.cpg/sg5_26_cif.got.tgz:50952.got - 2010.06.03 18:56:24.
