data_PCOD9120716
_publ_section_title
;
Structure prediction by ZEFSAII (Michael W. Deem and Ramdas Pophale) SiO2 
 PCOD9120716
Probable space group: C 2
;
_chemical_formula_sum "Si O2"
_cell_formula_units_Z 26
_cell_length_a 11.371179
_cell_length_b 8.143646
_cell_length_c 18.472186
_cell_angle_alpha 90.000000
_cell_angle_beta 140.804664
_cell_angle_gamma 90.000000
_cell_volume 1081.026996
_symmetry_space_group_name_H-M "C 2"
_symmetry_group_IT_number 5
_symmetry_cell_setting 'monoclinic'
loop_
_space_group_symop_operation_xyz
x,y,z
-x,y,-z
1/2+x,1/2+y,z
1/2-x,1/2+y,-z
loop_
_atom_site_type_symbol
_atom_site_label
_atom_site_fract_x
_atom_site_fract_y
_atom_site_fract_z
Si Si1 0.928671 0.762240 0.653935
Si Si2 0.842462 0.112174 0.565652
Si Si3 0.000000 0.515016 0.500000
Si Si4 0.725140 0.418112 0.874636
Si Si5 0.151126 0.275599 0.813328
Si Si6 0.262752 0.006559 0.255294
Si Si7 0.486926 0.811589 0.874108
O O1 0.727342 0.681593 0.544363
O O2 0.018442 0.844135 0.768157
O O3 0.075530 0.621432 0.703198
O O4 0.912282 0.924958 0.595335
O O5 0.657077 0.110985 0.528408
O O6 0.994558 0.215776 0.681486
O O7 0.133635 0.435713 0.624491
O O8 0.732428 0.612870 0.889358
O O9 0.825036 0.396797 0.843744
O O10 0.841364 0.318219 0.988698
O O11 0.292172 0.375516 0.831193
O O12 0.056302 0.382864 0.831178
O O13 0.097264 0.134687 0.187564
#
# Coordination Sequence:
#
# PCOD9120716 Si02
#       7
#     4   4   2   4   4   4   4
#     4   9  19  35  59  88 124 168 204 263 310 380
#     4  10  18  34  60  89 131 163 209 261 321 368
#     4  10  18  34  60  96 126 164 198 268 308 380
#     4   9  22  41  63  93 133 161 222 258 313 383
#     4  11  22  41  68  96 123 174 211 266 320 385
#     4  10  21  39  66  93 126 168 217 254 333 372
#     4  10  21  44  65  92 131 172 202 273 313 377
#
# _framework density 24.051202
#
# number of rings (size 3 to 8) (size 9 to 14) (size 15 to 20)
#    0.000    2.154    1.538    1.846    0.000    3.692 
#    2.769    9.231    0.000    0.000    0.000    0.000 
#    0.000    0.000    0.000    0.000    0.000    0.000 
#
# Total GULP energy -72448.954128 kJ/mol
# GULP energy per Si atom -5572.996471 kJ/mol
# Density = 2.399646 g / cm^3
# Si number density = 24.051202 Si / 1000 Ang^3
#
#
#
# Elastic Constant Matrix: (Units=GPa)
#
#
# Indices 1 2 3 4 5 6 
#
# 1 78.6204 17.2428 0.7776 0.0000 -11.5249 0.0000
# 2 17.2428 49.4454 26.6418 0.0000 -13.7909 0.0000
# 3 0.7776 26.6418 116.1916 0.0000 -2.8733 0.0000
# 4 0.0000 0.0000 0.0000 22.2424 0.0000 -3.3211
# 5 -11.5249 -13.7909 -2.8733 0.0000 25.1588 0.0000
# 6 0.0000 0.0000 0.0000 -3.3211 0.0000 28.4311
#
#
#
# Elastic Compliance Matrix: (Units=1/GPa)
#
#
# Indices 1 2 3 4 5 6 
#
# 1 0.014287 -0.004326 0.001002 0.000000 0.004288 0.000000
# 2 -0.004326 0.028735 -0.006237 0.000000 0.013057 0.000000
# 3 0.001002 -0.006237 0.009985 0.000000 -0.001819 0.000000
# 4 0.000000 0.000000 0.000000 0.045757 0.000000 0.005345
# 5 0.004288 0.013057 -0.001819 0.000000 0.048661 0.000000
# 6 0.000000 0.000000 0.000000 0.005345 0.000000 0.035797
#
#
# Mechanical properties :
#
#
# Convention : Reuss Voigt Hill
#
# Bulk Modulus (GPa) = 29.51143 37.06465 33.28804
# Shear Modulus (GPa) = 23.40390 28.47282 25.93836
#
# Velocity S-wave (km/s) = 3.12282 3.44443 3.28756
# Velocity P-wave (km/s) = 5.02987 5.59133 5.31801
#
# Compressibility (1/GPa) = 0.03388517
#
# Stress axis : x y z
#
# Youngs Moduli (GPa) = 69.99471 34.80024 100.15165
#
# Poissons Ratio (x) = 0.15056 -0.10039
# Poissons Ratio (y) = 0.30283 0.62464
# Poissons Ratio (z) = -0.07016 0.21705
#
# Static dielectric constant tensor:
#      x y z
#    x 1.993010 0.000000 -0.007610 
#    y 0.000000 1.945940 0.000000 
#    z -0.007610 0.000000 1.929020 
# 
# From -- ./inp_files/65087.got.cif
#   From: 2010.05.17/outbox.cif.g08.bks.cpg/sg5_33_cif.got.tgz:65087.got - 2010.06.03 18:56:24.
