data_PCOD9120938
_publ_section_title
;
Structure prediction by ZEFSAII (Michael W. Deem and Ramdas Pophale) SiO2 
 PCOD9120938
Probable space group: C 2
;
_chemical_formula_sum "Si O2"
_cell_formula_units_Z 30
_cell_length_a 12.846314
_cell_length_b 10.852279
_cell_length_c 22.635419
_cell_angle_alpha 90.000000
_cell_angle_beta 25.957629
_cell_angle_gamma 90.000000
_cell_volume 1381.245498
_symmetry_space_group_name_H-M "C 2"
_symmetry_group_IT_number 5
_symmetry_cell_setting 'monoclinic'
loop_
_space_group_symop_operation_xyz
x,y,z
-x,y,-z
1/2+x,1/2+y,z
1/2-x,1/2+y,-z
loop_
_atom_site_type_symbol
_atom_site_label
_atom_site_fract_x
_atom_site_fract_y
_atom_site_fract_z
Si Si1 0.242183 0.076930 0.701344
Si Si2 0.500096 0.817018 0.146030
Si Si3 0.234669 0.143227 0.565519
Si Si4 0.500000 0.038944 0.000000
Si Si5 0.248697 0.057695 0.236922
Si Si6 0.723177 0.896066 0.618956
Si Si7 0.773555 0.666382 0.354001
Si Si8 0.906036 0.868455 0.849739
O O1 0.085814 0.177681 0.814392
O O2 0.228755 0.111922 0.638486
O O3 0.510074 0.096162 0.584775
O O4 0.127589 0.943917 0.763020
O O5 0.327709 0.915493 0.201724
O O6 0.460533 0.857363 0.234789
O O7 0.749586 0.824738 0.985240
O O8 0.204956 0.291985 0.577980
O O9 0.022028 0.076275 0.641825
O O10 0.408128 0.113471 0.103087
O O11 0.275179 0.957480 0.093356
O O12 0.295526 0.118841 0.275516
O O13 0.000000 0.883293 0.500000
O O14 0.694357 0.042009 0.623834
O O15 0.500000 0.711704 0.500000
O O16 0.978000 0.768240 0.253254
#
# Coordination Sequence:
#
# PCOD9120938 Si02
#       8
#     4   4   4   2   4   4   4   4
#     4  10  20  37  62  91 122 163 214 260 318 385
#     4   9  20  35  60  88 122 161 207 258 323 377
#     4  10  18  36  66  90 116 158 219 267 305 376
#     4  10  22  40  66  90 120 160 218 264 320 380
#     4  10  21  39  64  94 120 165 212 266 315 380
#     4   9  16  36  60  85 116 162 201 255 317 376
#     4  10  24  41  60  90 133 168 207 259 330 390
#     4  11  23  38  62  90 125 170 209 265 326 382
#
# _framework density 21.719528
#
# number of rings (size 3 to 8) (size 9 to 14) (size 15 to 20)
#    0.000    2.133    4.000    0.000    7.467    0.000 
#    7.200    0.000    0.000    0.000    0.000    0.000 
#    0.000    0.000    0.000    0.000    0.000    0.000 
#
# Total GULP energy -83702.420984 kJ/mol
# GULP energy per Si atom -5580.161399 kJ/mol
# Density = 2.167009 g / cm^3
# Si number density = 21.719528 Si / 1000 Ang^3
#
#
#
# Elastic Constant Matrix: (Units=GPa)
#
#
# Indices 1 2 3 4 5 6 
#
# 1 49.2991 1.5788 14.9320 0.0001 2.8897 -0.0004
# 2 1.5788 77.8401 58.0192 -0.0022 -15.5800 -0.0003
# 3 14.9320 58.0192 128.4387 -0.0116 10.5856 -0.0046
# 4 0.0001 -0.0022 -0.0116 40.0315 -0.0010 3.6513
# 5 2.8897 -15.5800 10.5856 -0.0010 31.4397 0.0002
# 6 -0.0004 -0.0003 -0.0046 3.6513 0.0002 6.2128
#
#
#
# Elastic Compliance Matrix: (Units=1/GPa)
#
#
# Indices 1 2 3 4 5 6 
#
# 1 0.021259 0.002268 -0.003525 -0.000001 0.000357 -0.000001
# 2 0.002268 0.026511 -0.013685 -0.000001 0.017537 -0.000008
# 3 -0.003525 -0.013685 0.015335 0.000003 -0.011621 0.000009
# 4 -0.000001 -0.000001 0.000003 0.026395 -0.000001 -0.015513
# 5 0.000357 0.017537 -0.011621 -0.000001 0.044377 -0.000009
# 6 -0.000001 -0.000008 0.000009 -0.015513 -0.000009 0.170075
#
#
# Mechanical properties :
#
#
# Convention : Reuss Voigt Hill
#
# Bulk Modulus (GPa) = 30.10191 44.95976 37.53084
# Shear Modulus (GPa) = 14.49655 27.60667 21.05161
#
# Velocity S-wave (km/s) = 2.58629 3.56905 3.11665
# Velocity P-wave (km/s) = 4.77577 6.14241 5.50169
#
# Compressibility (1/GPa) = 0.03322048
#
# Stress axis : x y z
#
# Youngs Moduli (GPa) = 47.03979 37.72026 65.20953
#
# Poissons Ratio (x) = -0.08555 0.22989
# Poissons Ratio (y) = -0.10669 0.89237
# Poissons Ratio (z) = 0.16584 0.51619
#
# Static dielectric constant tensor:
#      x y z
#    x 1.812020 0.000000 0.054690 
#    y 0.000000 1.840660 0.000000 
#    z 0.054690 0.000000 1.817360 
# 
# From -- ./inp_files/70694.got.cif
#   From: 2010.05.17/outbox.cif.g08.bks.cpg/sg5_36_cif.got.tgz:70694.got - 2010.06.03 18:56:24.
