data_PCOD9120185
_publ_section_title
;
Structure prediction by ZEFSAII (Michael W. Deem and Ramdas Pophale) SiO2 
 PCOD9120185
Probable space group: C 2
;
_chemical_formula_sum "Si O2"
_cell_formula_units_Z 26
_cell_length_a 11.319904
_cell_length_b 19.969717
_cell_length_c 7.712520
_cell_angle_alpha 90.000000
_cell_angle_beta 45.427046
_cell_angle_gamma 90.000000
_cell_volume 1241.963707
_symmetry_space_group_name_H-M "C 2"
_symmetry_group_IT_number 5
_symmetry_cell_setting 'monoclinic'
loop_
_space_group_symop_operation_xyz
x,y,z
-x,y,-z
1/2+x,1/2+y,z
1/2-x,1/2+y,-z
loop_
_atom_site_type_symbol
_atom_site_label
_atom_site_fract_x
_atom_site_fract_y
_atom_site_fract_z
Si Si1 0.833905 0.181880 0.776142
Si Si2 0.085086 0.047733 0.097804
Si Si3 0.697132 0.826358 0.093188
Si Si4 0.634794 0.880530 0.551483
Si Si5 0.500000 0.120623 0.000000
Si Si6 0.012761 0.910442 0.772212
Si Si7 0.036818 0.525268 0.285438
O O1 0.886656 0.116387 0.830372
O O2 0.780315 0.247113 0.938385
O O3 0.000000 0.200706 0.500000
O O4 0.670637 0.162317 0.834138
O O5 0.980621 0.988036 0.292014
O O6 0.266540 0.012808 0.904867
O O7 0.000000 0.061241 0.000000
O O8 0.669937 0.849021 0.324244
O O9 0.518606 0.844505 0.199025
O O10 0.855590 0.868485 0.870025
O O11 0.812741 0.878132 0.456770
O O12 0.570662 0.957443 0.603606
O O13 0.496459 0.071739 0.167471
O O14 0.000000 0.912655 0.000000
O O15 0.000000 0.564097 0.500000
#
# Coordination Sequence:
#
# PCOD9120185 Si02
#       7
#     4   4   4   4   2   4   4
#     4  11  24  38  58  85 128 162 188 261 309 362
#     4  10  21  36  58  92 114 154 209 244 303 367
#     4  10  18  33  54  86 115 147 212 243 290 374
#     4  10  17  30  56  85 106 150 206 239 297 350
#     4  10  28  38  56 100 122 156 208 248 310 370
#     4   9  17  29  56  85 108 137 202 262 274 354
#     4  11  19  39  63  88 123 157 198 260 304 352
#
# _framework density 20.934588999999999
#
# number of rings (size 3 to 8) (size 9 to 14) (size 15 to 20)
#    0.000    1.846    4.615    1.846    7.538    0.000 
#    0.000    0.000    1.692    0.000    0.000    0.000 
#    0.000    0.000    0.000    0.000    0.000    0.000 
#
# Total GULP energy -72478.715036 kJ/mol
# GULP energy per Si atom -5575.285772 kJ/mol
# Density = 2.088694 g / cm^3
# Si number density = 20.934589 Si / 1000 Ang^3
#
#
#
# Elastic Constant Matrix: (Units=GPa)
#
#
# Indices 1 2 3 4 5 6 
#
# 1 93.6075 35.4030 43.5550 0.0000 -28.3230 0.0000
# 2 35.4030 109.3277 18.2514 0.0000 -15.3728 0.0000
# 3 43.5550 18.2514 38.5577 0.0000 -24.7062 0.0000
# 4 0.0000 0.0000 0.0000 20.7316 0.0000 -5.7612
# 5 -28.3230 -15.3728 -24.7062 0.0000 42.4755 0.0000
# 6 0.0000 0.0000 0.0000 -5.7612 0.0000 18.6601
#
#
#
# Elastic Compliance Matrix: (Units=1/GPa)
#
#
# Indices 1 2 3 4 5 6 
#
# 1 0.023677 -0.003481 -0.025169 0.000000 -0.000112 0.000000
# 2 -0.003481 0.010494 -0.000142 0.000000 0.001394 0.000000
# 3 -0.025169 -0.000142 0.069579 0.000000 0.023637 0.000000
# 4 0.000000 0.000000 0.000000 0.052762 0.000000 0.016290
# 5 -0.000112 0.001394 0.023637 0.000000 0.037721 0.000000
# 6 0.000000 0.000000 0.000000 0.016290 0.000000 0.058620
#
#
# Mechanical properties :
#
#
# Convention : Reuss Voigt Hill
#
# Bulk Modulus (GPa) = 21.66114 48.43463 35.04788
# Shear Modulus (GPa) = 15.34562 25.99235 20.66899
#
# Velocity S-wave (km/s) = 2.71038 3.52745 3.14556
# Velocity P-wave (km/s) = 4.49048 6.30690 5.47455
#
# Compressibility (1/GPa) = 0.04616563
#
# Stress axis : x y z
#
# Youngs Moduli (GPa) = 42.23555 95.29476 14.37213
#
# Poissons Ratio (x) = 0.33172 0.36174
# Poissons Ratio (y) = 0.14702 0.00203
# Poissons Ratio (z) = 1.06304 0.01349
#
# Static dielectric constant tensor:
#      x y z
#    x 1.808020 0.000000 -0.031540 
#    y 0.000000 1.745950 0.000000 
#    z -0.031540 0.000000 1.797860 
# 
# From -- ./inp_files/21897.got.cif
#   From: 2010.05.17/outbox.cif.g08.bks.cpg/sg5_11_cif.got.tgz:21897.got - 2010.06.03 18:56:24.
