data_PCOD9120122
_publ_section_title
;
Structure prediction by ZEFSAII (Michael W. Deem and Ramdas Pophale) SiO2 
 PCOD9120122
Probable space group: C 2
;
_chemical_formula_sum "Si O2"
_cell_formula_units_Z 14
_cell_length_a 12.494123
_cell_length_b 8.678287
_cell_length_c 6.440494
_cell_angle_alpha 90.000000
_cell_angle_beta 122.901609
_cell_angle_gamma 90.000000
_cell_volume 586.318747
_symmetry_space_group_name_H-M "C 2"
_symmetry_group_IT_number 5
_symmetry_cell_setting 'monoclinic'
loop_
_space_group_symop_operation_xyz
x,y,z
-x,y,-z
1/2+x,1/2+y,z
1/2-x,1/2+y,-z
loop_
_atom_site_type_symbol
_atom_site_label
_atom_site_fract_x
_atom_site_fract_y
_atom_site_fract_z
Si Si1 0.000000 0.881371 0.500000
Si Si2 0.133496 0.405831 0.752195
Si Si3 0.373984 0.455067 0.751494
Si Si4 0.158831 0.688508 0.009548
O O1 0.917853 0.780301 0.252051
O O2 0.901216 0.975275 0.539309
O O3 0.238780 0.493328 0.713751
O O4 0.129864 0.511622 0.951401
O O5 0.000000 0.396677 0.500000
O O6 0.195017 0.241417 0.866098
O O7 0.500000 0.519036 0.000000
O O8 0.372784 0.270403 0.805633
#
# Coordination Sequence:
#
# PCOD9120122 Si02
#       4
#     2   4   4   4
#     4  10  16  42  62  90 124 178 200 252 316 378
#     4  10  20  42  65  98 126 160 217 260 316 371
#     4   8  19  37  64  89 126 168 207 253 314 381
#     4   9  20  38  65  93 125 166 209 258 318 370
#
# _framework density 23.877799
#
# number of rings (size 3 to 8) (size 9 to 14) (size 15 to 20)
#    1.714    1.143    1.429    0.000    0.000    0.000 
#    7.714    4.286    0.000    0.000    0.000    0.000 
#    0.000    0.000    0.000    0.000    0.000    0.000 
#
# Total GULP energy -38969.900391 kJ/mol
# GULP energy per Si atom -5567.128627 kJ/mol
# Density = 2.382345 g / cm^3
# Si number density = 23.877799 Si / 1000 Ang^3
#
#
#
# Elastic Constant Matrix: (Units=GPa)
#
#
# Indices 1 2 3 4 5 6 
#
# 1 123.0438 -7.1013 49.2269 0.0000 14.7007 0.0000
# 2 -7.1013 45.8372 34.0216 0.0000 10.5831 0.0000
# 3 49.2269 34.0216 99.6589 0.0000 18.8942 0.0000
# 4 0.0000 0.0000 0.0000 27.2232 0.0000 -6.6589
# 5 14.7007 10.5831 18.8942 0.0000 59.9926 0.0000
# 6 0.0000 0.0000 0.0000 -6.6589 0.0000 13.7980
#
#
#
# Elastic Compliance Matrix: (Units=1/GPa)
#
#
# Indices 1 2 3 4 5 6 
#
# 1 0.012375 0.008865 -0.008793 0.000000 -0.001827 0.000000
# 2 0.008865 0.035832 -0.015953 0.000000 -0.003469 0.000000
# 3 -0.008793 -0.015953 0.020080 0.000000 -0.001355 0.000000
# 4 0.000000 0.000000 0.000000 0.041650 0.000000 0.020100
# 5 -0.001827 -0.003469 -0.001355 0.000000 0.018155 0.000000
# 6 0.000000 0.000000 0.000000 0.020100 0.000000 0.082174
#
#
# Mechanical properties :
#
#
# Convention : Reuss Voigt Hill
#
# Bulk Modulus (GPa) = 27.37851 46.75938 37.06895
# Shear Modulus (GPa) = 19.66927 33.02896 26.34911
#
# Velocity S-wave (km/s) = 2.87321 3.72324 3.32550
# Velocity P-wave (km/s) = 4.74322 6.17322 5.50485
#
# Compressibility (1/GPa) = 0.03652500
#
# Stress axis : x y z
#
# Youngs Moduli (GPa) = 80.80956 27.90822 49.79962
#
# Poissons Ratio (x) = -0.24741 0.43786
# Poissons Ratio (y) = -0.71638 0.79448
# Poissons Ratio (z) = 0.71052 0.44523
#
# Static dielectric constant tensor:
#      x y z
#    x 2.039700 0.000000 0.016450 
#    y 0.000000 1.885220 0.000000 
#    z 0.016450 0.000000 1.886700 
# 
# From -- ./inp_files/4224.got.cif
#   From: 2010.05.17/outbox.cif.g08.bks.cpg/sg5_3_cif.got.tgz:4224.got - 2010.06.03 18:56:24.
