data_PCOD9120946
_publ_section_title
;
Structure prediction by ZEFSAII (Michael W. Deem and Ramdas Pophale) SiO2 
 PCOD9120946
Probable space group: C 2
;
_chemical_formula_sum "Si O2"
_cell_formula_units_Z 28
_cell_length_a 11.076435
_cell_length_b 14.319776
_cell_length_c 8.236728
_cell_angle_alpha 90.000000
_cell_angle_beta 55.356700
_cell_angle_gamma 90.000000
_cell_volume 1074.821002
_symmetry_space_group_name_H-M "C 2"
_symmetry_group_IT_number 5
_symmetry_cell_setting 'monoclinic'
loop_
_space_group_symop_operation_xyz
x,y,z
-x,y,-z
1/2+x,1/2+y,z
1/2-x,1/2+y,-z
loop_
_atom_site_type_symbol
_atom_site_label
_atom_site_fract_x
_atom_site_fract_y
_atom_site_fract_z
Si Si1 0.355172 0.824480 0.237421
Si Si2 0.093982 0.416524 0.258539
Si Si3 0.678109 0.602252 0.399042
Si Si4 0.295973 0.095065 0.997874
Si Si5 0.802262 0.813673 0.312804
Si Si6 0.417732 0.278164 0.739302
Si Si7 0.458829 0.609813 0.193466
O O1 0.508288 0.873750 0.167721
O O2 0.272271 0.850173 0.466679
O O3 0.228157 0.833056 0.200349
O O4 0.392522 0.712584 0.207223
O O5 0.232275 0.355018 0.206460
O O6 0.000000 0.419306 0.500000
O O7 0.152916 0.516097 0.161708
O O8 0.500000 0.606232 0.500000
O O9 0.791482 0.555253 0.187024
O O10 0.749249 0.705205 0.352175
O O11 0.659437 0.564071 0.596403
O O12 0.124889 0.124818 0.128292
O O13 0.381471 0.185060 0.869003
O O14 0.970828 0.828809 0.225296
O O15 0.500000 0.258553 0.500000
O O16 0.500000 0.554948 0.000000
#
# Coordination Sequence:
#
# PCOD9120946 Si02
#       7
#     4   4   4   4   4   4   4
#     4   9  18  37  67 101 130 175 233 279 333 407
#     4  10  20  38  67 103 141 185 225 277 347 411
#     4   9  19  36  63 102 130 176 231 283 330 405
#     4  11  21  35  65 104 136 176 225 288 345 395
#     4   9  18  36  66  97 136 175 229 283 333 399
#     4  10  20  35  64 104 136 178 233 285 328 400
#     4  10  18  36  70 100 122 177 239 276 326 415
#
# _framework density 26.050847999999998
#
# number of rings (size 3 to 8) (size 9 to 14) (size 15 to 20)
#    0.000    2.286    1.429    3.429    0.000    0.571 
#    0.000    0.000    9.429    5.143    7.429   13.000 
#    0.000    0.000    0.000    0.000    0.000    0.000 
#
# Total GULP energy -78032.734679 kJ/mol
# GULP energy per Si atom -5573.766763 kJ/mol
# Density = 2.599156 g / cm^3
# Si number density = 26.050848 Si / 1000 Ang^3
#
#
#
# Elastic Constant Matrix: (Units=GPa)
#
#
# Indices 1 2 3 4 5 6 
#
# 1 168.0075 34.4079 59.1992 0.0000 2.2809 0.0000
# 2 34.4079 56.2996 29.6110 0.0000 -0.1648 0.0000
# 3 59.1992 29.6110 186.7986 0.0000 -0.2202 0.0000
# 4 0.0000 0.0000 0.0000 17.0532 0.0000 -5.2506
# 5 2.2809 -0.1648 -0.2202 0.0000 35.2919 0.0000
# 6 0.0000 0.0000 0.0000 -5.2506 0.0000 -5.8999
#
#
#
# Elastic Compliance Matrix: (Units=1/GPa)
#
#
# Indices 1 2 3 4 5 6 
#
# 1 0.007302 -0.003542 -0.001753 0.000000 -0.000499 0.000000
# 2 -0.003542 0.021096 -0.002221 0.000000 0.000314 0.000000
# 3 -0.001753 -0.002221 0.006261 0.000000 0.000142 0.000000
# 4 0.000000 0.000000 0.000000 0.046028 0.000000 -0.040962
# 5 -0.000499 0.000314 0.000142 0.000000 0.028370 0.000000
# 6 0.000000 0.000000 0.000000 -0.040962 0.000000 -0.133040
#
#
# Mechanical properties :
#
#
# Convention : Reuss Voigt Hill
#
# Bulk Modulus (GPa) = 50.95185 73.06020 62.00602
# Shear Modulus (GPa) = -2076.49666 28.48155 -1024.00755
#
# Velocity S-wave (km/s) = -28.26348 3.31010 -19.84776
# Velocity P-wave (km/s) = 32.33416 6.53568 22.39177
#
# Compressibility (1/GPa) = 0.01962637
#
# Stress axis : x y z
#
# Youngs Moduli (GPa) = 136.94731 47.40222 159.71231
#
# Poissons Ratio (x) = 0.16790 0.28001
# Poissons Ratio (y) = 0.48507 0.35476
# Poissons Ratio (z) = 0.24010 0.10529
#
# Static dielectric constant tensor:
#      x y z
#    x 2.482890 0.000000 0.337990 
#    y 0.000000 1.955100 0.000000 
#    z 0.337990 0.000000 2.353540 
# 
# From -- ./inp_files/20263.got.cif
#   From: 2010.05.17/outbox.cif.g08.bks.cpg/sg5_11_cif.got.tgz:20263.got - 2010.06.03 18:56:24.
