data_PCOD9120962
_publ_section_title
;
Structure prediction by ZEFSAII (Michael W. Deem and Ramdas Pophale) SiO2 
 PCOD9120962
Probable space group: C 2
;
_chemical_formula_sum "Si O2"
_cell_formula_units_Z 28
_cell_length_a 19.816814
_cell_length_b 7.545249
_cell_length_c 16.908582
_cell_angle_alpha 90.000000
_cell_angle_beta 151.324370
_cell_angle_gamma 90.000000
_cell_volume 1213.166566
_symmetry_space_group_name_H-M "C 2"
_symmetry_group_IT_number 5
_symmetry_cell_setting 'monoclinic'
loop_
_space_group_symop_operation_xyz
x,y,z
-x,y,-z
1/2+x,1/2+y,z
1/2-x,1/2+y,-z
loop_
_atom_site_type_symbol
_atom_site_label
_atom_site_fract_x
_atom_site_fract_y
_atom_site_fract_z
Si Si1 0.804956 0.500000 0.467873
Si Si2 0.913188 0.260318 0.711861
Si Si3 0.800547 0.562787 0.283900
Si Si4 0.857983 0.728520 0.904421
Si Si5 0.076363 0.693760 0.743197
Si Si6 0.657006 0.914970 0.198168
Si Si7 0.310988 0.963566 0.001533
O O1 0.856586 0.333359 0.570860
O O2 0.649948 0.568785 0.332069
O O3 0.817847 0.472931 0.387594
O O4 0.914322 0.661691 0.600537
O O5 0.851092 0.386681 0.717311
O O6 0.079136 0.298600 0.888247
O O7 0.708287 0.416034 0.144528
O O8 0.914673 0.624594 0.337709
O O9 0.725807 0.745325 0.229712
O O10 0.773856 0.597241 0.758319
O O11 0.858110 0.606884 0.983415
O O12 0.000000 0.767112 0.000000
O O13 0.162378 0.562214 0.888907
O O14 0.155335 0.882475 0.830158
O O15 0.500000 0.918848 0.000000
#
# Coordination Sequence:
#
# PCOD9120962 Si02
#       7
#     4   4   4   4   4   4   4
#     4  10  25  39  65  88 133 171 206 262 320 383
#     4  10  21  40  60  93 123 164 210 266 313 369
#     4  11  22  38  62  91 128 172 205 252 321 382
#     4  11  21  36  66  97 123 159 217 264 312 369
#     4  11  23  42  62  91 132 168 213 260 321 383
#     4  10  18  37  61  90 125 156 208 269 305 361
#     4  11  22  40  66  92 127 164 216 273 311 373
#
# _framework density 23.080098
#
# number of rings (size 3 to 8) (size 9 to 14) (size 15 to 20)
#    0.000    1.429    4.286    1.714    2.000    2.286 
#    0.000    0.000    6.286    0.000    0.000    0.000 
#    0.000    0.000    0.000    0.000    0.000    0.000 
#
# Total GULP energy -78070.021290 kJ/mol
# GULP energy per Si atom -5576.430092 kJ/mol
# Density = 2.302757 g / cm^3
# Si number density = 23.080098 Si / 1000 Ang^3
#
#
#
# Elastic Constant Matrix: (Units=GPa)
#
#
# Indices 1 2 3 4 5 6 
#
# 1 76.2700 7.7291 15.1146 0.0000 -17.5142 0.0000
# 2 7.7291 62.6747 7.5704 0.0000 9.2562 0.0000
# 3 15.1146 7.5704 37.3881 0.0000 -5.0841 0.0000
# 4 0.0000 0.0000 0.0000 18.4489 0.0000 -3.3124
# 5 -17.5142 9.2562 -5.0841 0.0000 39.5053 0.0000
# 6 0.0000 0.0000 0.0000 -3.3124 0.0000 20.6535
#
#
#
# Elastic Compliance Matrix: (Units=1/GPa)
#
#
# Indices 1 2 3 4 5 6 
#
# 1 0.015952 -0.002394 -0.005014 0.000000 0.006988 0.000000
# 2 -0.002394 0.017478 -0.003331 0.000000 -0.005585 0.000000
# 3 -0.005014 -0.003331 0.029773 0.000000 0.002389 0.000000
# 4 0.000000 0.000000 0.000000 0.055811 0.000000 0.008951
# 5 0.006988 -0.005585 0.002389 0.000000 0.030027 0.000000
# 6 0.000000 0.000000 0.000000 0.008951 0.000000 0.049853
#
#
# Mechanical properties :
#
#
# Convention : Reuss Voigt Hill
#
# Bulk Modulus (GPa) = 23.96587 26.35121 25.15854
# Shear Modulus (GPa) = 21.34208 25.44946 23.39577
#
# Velocity S-wave (km/s) = 3.04418 3.32423 3.18728
# Velocity P-wave (km/s) = 4.77099 5.11626 4.94664
#
# Compressibility (1/GPa) = 0.04172600
#
# Stress axis : x y z
#
# Youngs Moduli (GPa) = 62.68754 57.21573 33.58778
#
# Poissons Ratio (x) = 0.13695 0.16841
# Poissons Ratio (y) = 0.15005 0.11187
# Poissons Ratio (z) = 0.31431 0.19057
#
# Static dielectric constant tensor:
#      x y z
#    x 1.900070 0.000000 0.012790 
#    y 0.000000 1.880840 0.000000 
#    z 0.012790 0.000000 1.943420 
# 
# From -- ./inp_files/62733.got.cif
#   From: 2010.05.17/outbox.cif.g08.bks.cpg/sg5_32_cif.got.tgz:62733.got - 2010.06.03 18:56:24.
