data_PCOD9120500
_publ_section_title
;
Structure prediction by ZEFSAII (Michael W. Deem and Ramdas Pophale) SiO2 
 PCOD9120500
Probable space group: C 2
;
_chemical_formula_sum "Si O2"
_cell_formula_units_Z 32
_cell_length_a 11.739259
_cell_length_b 19.065015
_cell_length_c 15.884508
_cell_angle_alpha 90.000000
_cell_angle_beta 156.545287
_cell_angle_gamma 90.000000
_cell_volume 1415.014745
_symmetry_space_group_name_H-M "C 2"
_symmetry_group_IT_number 5
_symmetry_cell_setting 'monoclinic'
loop_
_space_group_symop_operation_xyz
x,y,z
-x,y,-z
1/2+x,1/2+y,z
1/2-x,1/2+y,-z
loop_
_atom_site_type_symbol
_atom_site_label
_atom_site_fract_x
_atom_site_fract_y
_atom_site_fract_z
Si Si1 0.631298 0.689070 0.456507
Si Si2 0.551343 0.555435 0.148085
Si Si3 0.551273 0.177236 0.148030
Si Si4 0.571249 0.720434 0.926955
Si Si5 0.568458 0.283350 0.672582
Si Si6 0.868686 0.543559 0.543489
Si Si7 0.928741 0.512239 0.073047
Si Si8 0.068539 0.949312 0.672633
O O1 0.290469 0.692636 0.239994
O O2 0.775967 0.688921 0.647108
O O3 0.749991 0.616314 0.500001
O O4 0.765832 0.748146 0.488131
O O5 0.469137 0.637352 0.082895
O O6 0.724019 0.543723 0.352888
O O7 0.790494 0.540011 0.240016
O O8 0.264194 0.511672 0.973934
O O9 0.469064 0.095320 0.082850
O O10 0.264145 0.220996 0.973903
O O11 0.258494 0.753903 0.724285
O O12 0.751095 0.758771 0.122231
O O13 0.551469 0.366331 0.655567
O O14 0.734145 0.484486 0.511853
O O15 0.241495 0.478767 0.275721
O O16 0.748987 0.473910 0.877815
#
# Coordination Sequence:
#
# PCOD9120500 Si02
#       8
#     4   4   4   4   4   4   4   4
#     4  10  18  32  49  72 104 133 167 212 247 295
#     4   9  18  29  49  74  97 127 173 205 246 287
#     4   9  18  29  49  74  97 127 173 205 246 287
#     4   9  16  30  46  71 100 123 166 209 240 290
#     4  10  19  31  51  74 102 137 165 204 258 299
#     4  10  18  32  49  72 104 133 167 212 247 295
#     4   9  16  30  46  71 100 123 166 209 240 290
#     4  10  19  31  51  74 102 137 165 204 258 299
#
# _framework density 22.614605999999998
#
# number of rings (size 3 to 8) (size 9 to 14) (size 15 to 20)
#    0.000    2.500    2.500    1.500    0.000    0.000 
#    0.000   11.250    0.000    4.500    0.000    0.000 
#    0.000   39.000    0.000    0.000    0.000    0.000 
#
# Total GULP energy -89330.433156 kJ/mol
# GULP energy per Si atom -5583.152072 kJ/mol
# Density = 2.256313 g / cm^3
# Si number density = 22.614606 Si / 1000 Ang^3
#
#
#
# Elastic Constant Matrix: (Units=GPa)
#
#
# Indices 1 2 3 4 5 6 
#
# 1 170.0259 56.1982 77.6020 0.0263 60.5298 0.0003
# 2 56.1982 142.6563 62.0072 0.0217 46.1582 0.0649
# 3 77.6020 62.0072 176.8709 0.0366 61.2734 0.0196
# 4 0.0263 0.0217 0.0366 34.4758 -0.0079 7.3756
# 5 60.5298 46.1582 61.2734 -0.0079 69.4264 -0.0060
# 6 0.0003 0.0649 0.0196 7.3756 -0.0060 20.1854
#
#
#
# Elastic Compliance Matrix: (Units=1/GPa)
#
#
# Indices 1 2 3 4 5 6 
#
# 1 0.008992 -0.000977 -0.001601 -0.000007 -0.005777 0.000005
# 2 -0.000977 0.009341 -0.001426 0.000002 -0.004100 -0.000031
# 3 -0.001601 -0.001426 0.008706 -0.000008 -0.005340 -0.000003
# 4 -0.000007 0.000002 -0.000008 0.031466 0.000014 -0.011497
# 5 -0.005777 -0.004100 -0.005340 0.000014 0.026879 0.000021
# 6 0.000005 -0.000031 -0.000003 -0.011497 0.000021 0.053742
#
#
# Mechanical properties :
#
#
# Convention : Reuss Voigt Hill
#
# Bulk Modulus (GPa) = 52.54634 97.90753 75.22694
# Shear Modulus (GPa) = 32.57811 44.40056 38.48933
#
# Velocity S-wave (km/s) = 3.79961 4.43579 4.12997
# Velocity P-wave (km/s) = 6.52192 8.34403 7.48860
#
# Compressibility (1/GPa) = 0.01903082
#
# Stress axis : x y z
#
# Youngs Moduli (GPa) = 111.21242 107.05282 114.86236
#
# Poissons Ratio (x) = 0.10460 0.18394
# Poissons Ratio (y) = 0.10866 0.16375
# Poissons Ratio (z) = 0.17810 0.15262
#
# Static dielectric constant tensor:
#      x y z
#    x 1.816400 0.000110 0.134810 
#    y 0.000110 1.726640 -0.000200 
#    z 0.134810 -0.000200 1.674040 
# 
# From -- ./inp_files/68939.got.cif
#   From: 2010.05.17/outbox.cif.g08.bks.cpg/sg5_35_cif.got.tgz:68939.got - 2010.06.03 18:56:24.
