data_PCOD9120637
_publ_section_title
;
Structure prediction by ZEFSAII (Michael W. Deem and Ramdas Pophale) SiO2 
 PCOD9120637
Probable space group: C 2
;
_chemical_formula_sum "Si O2"
_cell_formula_units_Z 30
_cell_length_a 24.400794
_cell_length_b 11.591924
_cell_length_c 14.763642
_cell_angle_alpha 90.000000
_cell_angle_beta 17.542833
_cell_angle_gamma 90.000000
_cell_volume 1258.702719
_symmetry_space_group_name_H-M "C 2"
_symmetry_group_IT_number 5
_symmetry_cell_setting 'monoclinic'
loop_
_space_group_symop_operation_xyz
x,y,z
-x,y,-z
1/2+x,1/2+y,z
1/2-x,1/2+y,-z
loop_
_atom_site_type_symbol
_atom_site_label
_atom_site_fract_x
_atom_site_fract_y
_atom_site_fract_z
Si Si1 0.000000 0.622470 0.500000
Si Si2 0.751459 0.537273 0.658675
Si Si3 0.872251 0.769754 0.530075
Si Si4 0.054226 0.599307 0.815848
Si Si5 0.985296 0.235511 0.414726
Si Si6 0.311456 0.518265 0.694342
Si Si7 0.859819 0.465667 0.861735
Si Si8 0.918552 0.827271 0.981466
O O1 0.950762 0.705884 0.494766
O O2 0.858695 0.530519 0.767280
O O3 0.733489 0.673332 0.710427
O O4 0.788891 0.539568 0.490971
O O5 0.602959 0.452356 0.936789
O O6 0.945143 0.502137 0.401101
O O7 0.796338 0.891188 0.680237
O O8 0.013864 0.808353 0.228527
O O9 0.000000 0.554306 0.000000
O O10 0.875367 0.578696 0.038720
O O11 0.057486 0.739396 0.813766
O O12 0.792120 0.287529 0.687814
O O13 0.000000 0.236521 0.500000
O O14 0.136839 0.326718 0.145820
O O15 0.966783 0.103306 0.412985
O O16 0.297326 0.507421 0.824638
#
# Coordination Sequence:
#
# PCOD9120637 Si02
#       8
#     2   4   4   4   4   4   4   4
#     4  10  18  34  48  74 108 152 200 228 278 338
#     4   8  17  36  58  79 108 151 184 229 291 337
#     4  10  21  35  52  82 121 152 189 238 288 337
#     4   9  18  38  62  84 109 144 191 238 293 352
#     4  10  19  34  53  79 106 151 196 227 274 334
#     4  10  22  35  52  84 117 144 188 241 288 345
#     4   9  18  34  54  73 106 151 193 232 279 331
#     4   9  19  38  59  80 115 148 192 238 284 347
#
# _framework density 23.834061999999999
#
# number of rings (size 3 to 8) (size 9 to 14) (size 15 to 20)
#    0.000    2.667    0.667    2.400    0.933    3.200 
#    4.800    1.333    0.000    0.800    0.000    0.000 
#    0.000    0.000    0.000    0.000    0.000    0.000 
#
# Total GULP energy -83521.756223 kJ/mol
# GULP energy per Si atom -5568.117082 kJ/mol
# Density = 2.377981 g / cm^3
# Si number density = 23.834062 Si / 1000 Ang^3
#
#
#
# Elastic Constant Matrix: (Units=GPa)
#
#
# Indices 1 2 3 4 5 6 
#
# 1 45.6213 14.2947 32.8701 0.0000 32.8027 0.0000
# 2 14.2947 179.3726 56.9459 0.0006 19.8829 0.0000
# 3 32.8701 56.9459 90.4316 0.0009 22.7009 -0.0001
# 4 0.0000 0.0006 0.0009 77.6454 0.0000 7.6323
# 5 32.8027 19.8829 22.7009 0.0000 44.4497 -0.0002
# 6 0.0000 0.0000 -0.0001 7.6323 -0.0002 8.1127
#
#
#
# Elastic Compliance Matrix: (Units=1/GPa)
#
#
# Indices 1 2 3 4 5 6 
#
# 1 0.057386 0.003999 -0.014105 0.000000 -0.036934 -0.000001
# 2 0.003999 0.007286 -0.005142 0.000000 -0.003584 0.000000
# 3 -0.014105 -0.005142 0.018620 0.000000 0.003200 0.000001
# 4 0.000000 0.000000 0.000000 0.014191 0.000000 -0.013351
# 5 -0.036934 -0.003584 0.003200 0.000000 0.049723 0.000001
# 6 -0.000001 0.000000 0.000001 -0.013351 0.000001 0.135825
#
#
# Mechanical properties :
#
#
# Convention : Reuss Voigt Hill
#
# Bulk Modulus (GPa) = 18.94112 58.18301 38.56207
# Shear Modulus (GPa) = 15.10001 40.12921 27.61461
#
# Velocity S-wave (km/s) = 2.51977 4.10773 3.40754
# Velocity P-wave (km/s) = 4.05339 6.85293 5.62995
#
# Compressibility (1/GPa) = 0.05279519
#
# Stress axis : x y z
#
# Youngs Moduli (GPa) = 17.42581 137.24944 53.70668
#
# Poissons Ratio (x) = -0.54884 0.75755
# Poissons Ratio (y) = -0.06968 0.27615
# Poissons Ratio (z) = 0.24580 0.70572
#
# Static dielectric constant tensor:
#      x y z
#    x 1.983370 0.000000 0.022580 
#    y 0.000000 2.030760 0.000000 
#    z 0.022580 0.000000 1.879250 
# 
# From -- ./inp_files/58169.got.cif
#   From: 2010.05.17/outbox.cif.g08.bks.cpg/sg5_30_cif.got.tgz:58169.got - 2010.06.03 18:56:24.
