data_PCOD9120597
_publ_section_title
;
Structure prediction by ZEFSAII (Michael W. Deem and Ramdas Pophale) SiO2 
 PCOD9120597
Probable space group: C 2
;
_chemical_formula_sum "Si O2"
_cell_formula_units_Z 32
_cell_length_a 7.237073
_cell_length_b 12.752714
_cell_length_c 18.098888
_cell_angle_alpha 90.000000
_cell_angle_beta 128.761453
_cell_angle_gamma 90.000000
_cell_volume 1302.500975
_symmetry_space_group_name_H-M "C 2"
_symmetry_group_IT_number 5
_symmetry_cell_setting 'monoclinic'
loop_
_space_group_symop_operation_xyz
x,y,z
-x,y,-z
1/2+x,1/2+y,z
1/2-x,1/2+y,-z
loop_
_atom_site_type_symbol
_atom_site_label
_atom_site_fract_x
_atom_site_fract_y
_atom_site_fract_z
Si Si1 0.243364 0.547830 0.608488
Si Si2 0.345326 0.865817 0.155630
Si Si3 0.330746 0.644252 0.071566
Si Si4 0.938649 0.750686 0.717879
Si Si5 0.492985 0.449075 0.805429
Si Si6 0.917878 0.281893 0.652037
Si Si7 0.162579 0.595792 0.879773
Si Si8 0.222008 0.846015 0.457572
O O1 0.281557 0.498954 0.700672
O O2 0.353633 0.661073 0.643769
O O3 0.372569 0.458786 0.591587
O O4 0.000000 0.560628 0.500000
O O5 0.322018 0.757084 0.107196
O O6 0.115981 0.896888 0.148102
O O7 0.555766 0.844878 0.266378
O O8 0.376379 0.972507 0.119077
O O9 0.336430 0.544991 0.129179
O O10 0.582612 0.623938 0.092937
O O11 0.147346 0.643597 0.957656
O O12 0.095570 0.848792 0.786679
O O13 0.678925 0.780098 0.682082
O O14 0.916147 0.756883 0.623652
O O15 0.997731 0.645272 0.775450
O O16 0.744324 0.331861 0.549396
O O17 0.500000 0.842490 0.500000
#
# Coordination Sequence:
#
# PCOD9120597 Si02
#       8
#     4   4   4   4   4   4   4   4
#     4  10  18  33  56  86 119 159 208 251 310 371
#     4  10  20  38  61  85 120 154 199 254 298 378
#     4  10  21  40  60  87 118 157 205 253 306 380
#     4   9  19  37  57  83 118 162 203 249 317 361
#     4   9  19  37  62  84 117 163 199 257 302 368
#     4  10  19  35  57  87 119 154 211 254 299 380
#     4  10  23  39  60  86 122 162 195 254 326 359
#     4   8  17  33  54  79 114 160 199 242 304 369
#
# _framework density 24.56812
#
# number of rings (size 3 to 8) (size 9 to 14) (size 15 to 20)
#    0.000    2.500    1.250    2.250    1.750    3.000 
#    6.750    0.000    0.000    0.000    0.000    0.000 
#    0.000    0.000    0.000    0.000    0.000    0.000 
#
# Total GULP energy -89293.061635 kJ/mol
# GULP energy per Si atom -5580.816352 kJ/mol
# Density = 2.451220 g / cm^3
# Si number density = 24.568120 Si / 1000 Ang^3
#
#
#
# Elastic Constant Matrix: (Units=GPa)
#
#
# Indices 1 2 3 4 5 6 
#
# 1 55.1699 29.9042 26.9866 0.0000 4.8985 0.0000
# 2 29.9042 180.8965 64.4678 0.0000 -19.9595 0.0000
# 3 26.9866 64.4678 108.7922 0.0000 -23.7042 0.0000
# 4 0.0000 0.0000 0.0000 35.4493 0.0000 -8.2752
# 5 4.8985 -19.9595 -23.7042 0.0000 31.3424 0.0000
# 6 0.0000 0.0000 0.0000 -8.2752 0.0000 28.6290
#
#
#
# Elastic Compliance Matrix: (Units=1/GPa)
#
#
# Indices 1 2 3 4 5 6 
#
# 1 0.023726 -0.002744 -0.006523 0.000000 -0.010389 0.000000
# 2 -0.002744 0.007392 -0.003089 0.000000 0.002799 0.000000
# 3 -0.006523 -0.003089 0.014887 0.000000 0.010311 0.000000
# 4 0.000000 0.000000 0.000000 0.030250 0.000000 0.008744
# 5 -0.010389 0.002799 0.010311 0.000000 0.043111 0.000000
# 6 0.000000 0.000000 0.000000 0.008744 0.000000 0.037457
#
#
# Mechanical properties :
#
#
# Convention : Reuss Voigt Hill
#
# Bulk Modulus (GPa) = 46.96522 65.28621 56.12571
# Shear Modulus (GPa) = 26.50640 33.98413 30.24526
#
# Velocity S-wave (km/s) = 3.28822 3.72326 3.51248
# Velocity P-wave (km/s) = 5.79433 6.71675 6.27252
#
# Compressibility (1/GPa) = 0.02129235
#
# Stress axis : x y z
#
# Youngs Moduli (GPa) = 42.14722 135.29044 67.17078
#
# Poissons Ratio (x) = 0.37121 0.43817
# Poissons Ratio (y) = 0.11564 0.20752
# Poissons Ratio (z) = 0.27493 0.41798
#
# Static dielectric constant tensor:
#      x y z
#    x 2.039770 0.000000 0.009420 
#    y 0.000000 1.923650 0.000000 
#    z 0.009420 0.000000 2.029280 
# 
# From -- ./inp_files/65250.got.cif
#   From: 2010.05.17/outbox.cif.g08.bks.cpg/sg5_33_cif.got.tgz:65250.got - 2010.06.03 18:56:24.
