data_PCOD9120223
_publ_section_title
;
Structure prediction by ZEFSAII (Michael W. Deem and Ramdas Pophale) SiO2 
 PCOD9120223
Probable space group: C 2
;
_chemical_formula_sum "Si O2"
_cell_formula_units_Z 26
_cell_length_a 27.301670
_cell_length_b 9.796262
_cell_length_c 7.583883
_cell_angle_alpha 90.000000
_cell_angle_beta 35.955312
_cell_angle_gamma 90.000000
_cell_volume 1190.949403
_symmetry_space_group_name_H-M "C 2"
_symmetry_group_IT_number 5
_symmetry_cell_setting 'monoclinic'
loop_
_space_group_symop_operation_xyz
x,y,z
-x,y,-z
1/2+x,1/2+y,z
1/2-x,1/2+y,-z
loop_
_atom_site_type_symbol
_atom_site_label
_atom_site_fract_x
_atom_site_fract_y
_atom_site_fract_z
Si Si1 0.700093 0.415420 0.361230
Si Si2 0.266733 0.722303 0.680301
Si Si3 0.132092 0.911211 0.963740
Si Si4 0.566024 0.813765 0.648578
Si Si5 0.500000 0.850768 0.500000
Si Si6 0.536737 0.494562 0.694593
Si Si7 0.329274 0.706637 0.092784
O O1 0.735348 0.568700 0.240631
O O2 0.666371 0.409044 0.661943
O O3 0.621449 0.409534 0.461204
O O4 0.766566 0.294859 0.157527
O O5 0.175166 0.785406 0.933800
O O6 0.338276 0.813887 0.565707
O O7 0.301089 0.714974 0.378729
O O8 0.165972 0.047175 0.959599
O O9 0.033747 0.932584 0.224537
O O10 0.540942 0.911701 0.559125
O O11 0.555023 0.655508 0.613437
O O12 0.500000 0.832813 0.000000
O O13 0.420584 0.770429 0.809810
O O14 0.500000 0.493050 0.000000
#
# Coordination Sequence:
#
# PCOD9120223 Si02
#       7
#     4   4   4   4   2   4   4
#     4   8  16  28  51  75 109 140 174 214 275 318
#     4   9  17  32  54  78 107 141 172 222 274 315
#     4   9  15  28  53  78 104 134 182 222 262 312
#     4  10  17  32  52  79 107 139 183 219 260 315
#     4  12  20  30  56  82 106 140 186 222 260 314
#     4   8  13  27  50  75 101 139 174 213 258 318
#     4  10  18  31  51  83 105 137 181 226 257 317
#
# _framework density 21.831323000000001
#
# number of rings (size 3 to 8) (size 9 to 14) (size 15 to 20)
#    0.000    2.769    3.077    1.846    0.000    0.000 
#    0.000    3.077    3.385    1.846    0.000    0.000 
#    0.000    0.000    0.000    0.000    0.000    0.000 
#
# Total GULP energy -72482.474901 kJ/mol
# GULP energy per Si atom -5575.574992 kJ/mol
# Density = 2.178163 g / cm^3
# Si number density = 21.831323 Si / 1000 Ang^3
#
#
#
# Elastic Constant Matrix: (Units=GPa)
#
#
# Indices 1 2 3 4 5 6 
#
# 1 123.8276 44.7428 43.0032 0.0000 -32.0743 0.0000
# 2 44.7428 48.7255 23.7894 0.0000 -31.7453 0.0000
# 3 43.0032 23.7894 45.5400 0.0000 -15.8712 0.0000
# 4 0.0000 0.0000 0.0000 12.3271 0.0000 -12.7097
# 5 -32.0743 -31.7453 -15.8712 0.0000 65.0787 0.0000
# 6 0.0000 0.0000 0.0000 -12.7097 0.0000 22.6550
#
#
#
# Elastic Compliance Matrix: (Units=1/GPa)
#
#
# Indices 1 2 3 4 5 6 
#
# 1 0.014413 -0.008281 -0.008979 0.000000 0.000874 0.000000
# 2 -0.008281 0.041713 -0.009072 0.000000 0.014054 0.000000
# 3 -0.008979 -0.009072 0.035073 0.000000 -0.000297 0.000000
# 4 0.000000 0.000000 0.000000 0.192424 0.000000 0.107952
# 5 0.000874 0.014054 -0.000297 0.000000 0.022580 0.000000
# 6 0.000000 0.000000 0.000000 0.107952 0.000000 0.104702
#
#
# Mechanical properties :
#
#
# Convention : Reuss Voigt Hill
#
# Bulk Modulus (GPa) = 25.95165 49.01822 37.48494
# Shear Modulus (GPa) = 10.49502 27.11601 18.80551
#
# Velocity S-wave (km/s) = 2.19494 3.52812 2.93815
# Velocity P-wave (km/s) = 4.28215 6.25290 5.35890
#
# Compressibility (1/GPa) = 0.03853319
#
# Stress axis : x y z
#
# Youngs Moduli (GPa) = 69.38293 23.97325 28.51162
#
# Poissons Ratio (x) = 0.19853 0.25601
# Poissons Ratio (y) = 0.57458 0.25867
# Poissons Ratio (z) = 0.62301 0.21750
#
# Static dielectric constant tensor:
#      x y z
#    x 1.864520 0.000000 0.027930 
#    y 0.000000 1.757520 0.000000 
#    z 0.027930 0.000000 1.834030 
# 
# From -- ./inp_files/31911.got.cif
#   From: 2010.05.17/outbox.cif.g08.bks.cpg/sg5_16_cif.got.tgz:31911.got - 2010.06.03 18:56:24.
