data_PCOD9120921
_publ_section_title
;
Structure prediction by ZEFSAII (Michael W. Deem and Ramdas Pophale) SiO2 
 PCOD9120921
Probable space group: C 2
;
_chemical_formula_sum "Si O2"
_cell_formula_units_Z 26
_cell_length_a 14.961186
_cell_length_b 11.955172
_cell_length_c 8.897621
_cell_angle_alpha 90.000000
_cell_angle_beta 127.861053
_cell_angle_gamma 90.000000
_cell_volume 1256.460077
_symmetry_space_group_name_H-M "C 2"
_symmetry_group_IT_number 5
_symmetry_cell_setting 'monoclinic'
loop_
_space_group_symop_operation_xyz
x,y,z
-x,y,-z
1/2+x,1/2+y,z
1/2-x,1/2+y,-z
loop_
_atom_site_type_symbol
_atom_site_label
_atom_site_fract_x
_atom_site_fract_y
_atom_site_fract_z
Si Si1 0.751680 0.039550 0.774200
Si Si2 0.683965 0.692806 0.422585
Si Si3 0.087542 0.692551 0.776359
Si Si4 0.634069 0.313794 0.532088
Si Si5 0.748680 0.276117 0.184662
Si Si6 0.500000 0.507697 0.500000
Si Si7 0.919932 0.165028 0.167850
O O1 0.761896 0.090165 0.616593
O O2 0.638020 0.080847 0.748170
O O3 0.768215 0.906842 0.796265
O O4 0.851938 0.104350 0.966016
O O5 0.743545 0.799839 0.407893
O O6 0.717638 0.708768 0.630626
O O7 0.549344 0.692263 0.266059
O O8 0.136694 0.785309 0.711190
O O9 0.954392 0.723017 0.630933
O O10 0.141614 0.717708 0.992891
O O11 0.576213 0.433141 0.467696
O O12 0.848454 0.266597 0.163343
O O13 0.424608 0.579640 0.312095
#
# Coordination Sequence:
#
# PCOD9120921 Si02
#       7
#     4   4   4   4   4   2   4
#     4  10  22  40  65  87 126 174 204 259 328 368
#     4  11  23  39  56  99 128 157 209 274 301 377
#     4   8  18  39  59  89 121 165 212 257 297 394
#     4   9  19  37  61  89 122 166 212 254 315 370
#     4  11  22  39  64  94 125 168 216 257 317 379
#     4  10  18  36  64  86 122 170 202 256 308 384
#     4  11  22  42  61  94 128 162 214 263 312 384
#
# _framework density 20.693057
#
# number of rings (size 3 to 8) (size 9 to 14) (size 15 to 20)
#    0.000    2.154    1.538    2.308    2.154    0.615 
#   13.846    1.538    0.000    0.000    4.000    0.000 
#    0.000    0.000    0.000    0.000    0.000    0.000 
#
# Total GULP energy -72428.775571 kJ/mol
# GULP energy per Si atom -5571.444275 kJ/mol
# Density = 2.064596 g / cm^3
# Si number density = 20.693057 Si / 1000 Ang^3
#
#
#
# Elastic Constant Matrix: (Units=GPa)
#
#
# Indices 1 2 3 4 5 6 
#
# 1 105.4285 42.6276 36.8470 0.0000 12.4123 0.0000
# 2 42.6276 76.7843 36.9417 0.0000 -5.1666 0.0000
# 3 36.8470 36.9417 114.0075 0.0000 3.0474 0.0000
# 4 0.0000 0.0000 0.0000 21.3168 0.0000 0.3904
# 5 12.4123 -5.1666 3.0474 0.0000 29.3178 0.0000
# 6 0.0000 0.0000 0.0000 0.3904 0.0000 29.2022
#
#
#
# Elastic Compliance Matrix: (Units=1/GPa)
#
#
# Indices 1 2 3 4 5 6 
#
# 1 0.013925 -0.007255 -0.001963 0.000000 -0.006970 0.000000
# 2 -0.007255 0.019523 -0.004167 0.000000 0.006945 0.000000
# 3 -0.001963 -0.004167 0.010784 0.000000 -0.001024 0.000000
# 4 0.000000 0.000000 0.000000 0.046923 0.000000 -0.000627
# 5 -0.006970 0.006945 -0.001024 0.000000 0.038390 0.000000
# 6 0.000000 0.000000 0.000000 -0.000627 0.000000 0.034252
#
#
# Mechanical properties :
#
#
# Convention : Reuss Voigt Hill
#
# Bulk Modulus (GPa) = 57.27000 58.78364 58.02682
# Shear Modulus (GPa) = 25.45964 27.95430 26.70697
#
# Velocity S-wave (km/s) = 3.51144 3.67945 3.59642
# Velocity P-wave (km/s) = 6.64652 6.82057 6.73411
#
# Compressibility (1/GPa) = 0.01746115
#
# Stress axis : x y z
#
# Youngs Moduli (GPa) = 71.81126 51.22067 92.73425
#
# Poissons Ratio (x) = 0.37162 0.18208
# Poissons Ratio (y) = 0.52100 0.38642
# Poissons Ratio (z) = 0.14100 0.21343
#
# Static dielectric constant tensor:
#      x y z
#    x 1.790180 0.000000 -0.004320 
#    y 0.000000 1.754880 0.000000 
#    z -0.004320 0.000000 1.765410 
# 
# From -- ./inp_files/23726.got.cif
#   From: 2010.05.17/outbox.cif.g08.bks.cpg/sg5_12_cif.got.tgz:23726.got - 2010.06.03 18:56:24.
