data_PCOD9120980
_publ_section_title
;
Structure prediction by ZEFSAII (Michael W. Deem and Ramdas Pophale) SiO2 
 PCOD9120980
Probable space group: C 2
;
_chemical_formula_sum "Si O2"
_cell_formula_units_Z 28
_cell_length_a 10.474200
_cell_length_b 14.520960
_cell_length_c 9.368288
_cell_angle_alpha 90.000000
_cell_angle_beta 102.070748
_cell_angle_gamma 90.000000
_cell_volume 1393.370100
_symmetry_space_group_name_H-M "C 2"
_symmetry_group_IT_number 5
_symmetry_cell_setting 'monoclinic'
loop_
_space_group_symop_operation_xyz
x,y,z
-x,y,-z
1/2+x,1/2+y,z
1/2-x,1/2+y,-z
loop_
_atom_site_type_symbol
_atom_site_label
_atom_site_fract_x
_atom_site_fract_y
_atom_site_fract_z
Si Si1 0.233289 0.528050 0.054502
Si Si2 0.351165 0.705216 0.217424
Si Si3 0.555297 0.218257 0.697252
Si Si4 0.084663 0.330600 0.302160
Si Si5 0.205636 0.761679 0.459456
Si Si6 0.236457 0.822390 0.936984
Si Si7 0.989857 0.524444 0.218855
O O1 0.327075 0.610304 0.126700
O O2 0.303089 0.429162 0.063662
O O3 0.112483 0.525611 0.138612
O O4 0.150794 0.537926 0.889595
O O5 0.495851 0.739646 0.289141
O O6 0.274116 0.706538 0.348573
O O7 0.294052 0.783027 0.096554
O O8 0.662108 0.214208 0.597346
O O9 0.436734 0.288206 0.634698
O O10 0.623165 0.254796 0.855794
O O11 0.494780 0.117143 0.688701
O O12 0.190577 0.334057 0.453884
O O13 0.154707 0.323892 0.163688
O O14 0.999983 0.423716 0.289170
#
# Coordination Sequence:
#
# PCOD9120980 Si02
#       7
#     4   4   4   4   4   4   4
#     4  10  20  34  62  99 113 154 208 258 311 347
#     4  12  20  37  64  89 127 151 203 261 307 356
#     4  10  20  41  63  85 125 162 206 249 306 359
#     4  10  22  40  63  89 125 162 203 245 308 373
#     4  10  23  39  57  90 122 166 198 245 311 364
#     4  10  21  38  65  89 120 159 206 257 306 358
#     4  10  18  37  64  91 117 157 211 253 289 370
#
# _framework density 20.095165000000001
#
# number of rings (size 3 to 8) (size 9 to 14) (size 15 to 20)
#    0.000    1.714    4.286    0.857    0.000    0.571 
#    5.143    1.429   15.714    0.000    0.000    0.000 
#    0.000    0.000    0.000    0.000    0.000    0.000 
#
# Total GULP energy -77950.720109 kJ/mol
# GULP energy per Si atom -5567.908579 kJ/mol
# Density = 2.004943 g / cm^3
# Si number density = 20.095165 Si / 1000 Ang^3
#
#
#
# Elastic Constant Matrix: (Units=GPa)
#
#
# Indices 1 2 3 4 5 6 
#
# 1 47.9059 27.2117 16.5079 0.0000 15.6676 0.0000
# 2 27.2117 119.5024 20.3621 0.0000 8.6061 0.0000
# 3 16.5079 20.3621 71.9355 0.0000 10.3126 0.0000
# 4 0.0000 0.0000 0.0000 12.8179 0.0000 2.2204
# 5 15.6676 8.6061 10.3126 0.0000 14.5987 0.0000
# 6 0.0000 0.0000 0.0000 2.2204 0.0000 22.8487
#
#
#
# Elastic Compliance Matrix: (Units=1/GPa)
#
#
# Indices 1 2 3 4 5 6 
#
# 1 0.035581 -0.005364 -0.001809 0.000000 -0.033746 0.000000
# 2 -0.005364 0.009795 -0.001713 0.000000 0.001192 0.000000
# 3 -0.001809 -0.001713 0.015998 0.000000 -0.008350 0.000000
# 4 0.000000 0.000000 0.000000 0.079351 0.000000 -0.007711
# 5 -0.033746 0.001192 -0.008350 0.000000 0.109913 0.000000
# 6 0.000000 0.000000 0.000000 -0.007711 0.000000 0.044516
#
#
# Mechanical properties :
#
#
# Convention : Reuss Voigt Hill
#
# Bulk Modulus (GPa) = 22.93366 40.83412 31.88389
# Shear Modulus (GPa) = 15.26905 21.73720 18.50313
#
# Velocity S-wave (km/s) = 2.75950 3.29251 3.03772
# Velocity P-wave (km/s) = 4.64655 5.90073 5.31080
#
# Compressibility (1/GPa) = 0.04360403
#
# Stress axis : x y z
#
# Youngs Moduli (GPa) = 28.10482 102.08901 62.50641
#
# Poissons Ratio (x) = 0.54756 0.11308
# Poissons Ratio (y) = 0.15074 0.10705
# Poissons Ratio (z) = 0.05085 0.17485
#
# Static dielectric constant tensor:
#      x y z
#    x 1.742560 0.000000 0.011840 
#    y 0.000000 1.737770 0.000000 
#    z 0.011840 0.000000 1.748260 
# 
# From -- ./inp_files/20411.got.cif
#   From: 2010.05.17/outbox.cif.g08.bks.cpg/sg5_11_cif.got.tgz:20411.got - 2010.06.03 18:56:24.
