data_PCOD9120447
_publ_section_title
;
Structure prediction by ZEFSAII (Michael W. Deem and Ramdas Pophale) SiO2 
 PCOD9120447
Probable space group: C 2
;
_chemical_formula_sum "Si O2"
_cell_formula_units_Z 30
_cell_length_a 13.361694
_cell_length_b 18.642302
_cell_length_c 11.365079
_cell_angle_alpha 90.000000
_cell_angle_beta 145.781264
_cell_angle_gamma 90.000000
_cell_volume 1592.000352
_symmetry_space_group_name_H-M "C 2"
_symmetry_group_IT_number 5
_symmetry_cell_setting 'monoclinic'
loop_
_space_group_symop_operation_xyz
x,y,z
-x,y,-z
1/2+x,1/2+y,z
1/2-x,1/2+y,-z
loop_
_atom_site_type_symbol
_atom_site_label
_atom_site_fract_x
_atom_site_fract_y
_atom_site_fract_z
Si Si1 0.728053 0.353270 0.522787
Si Si2 0.493843 0.611357 0.854437
Si Si3 0.215175 0.509811 0.471020
Si Si4 0.000000 0.924149 0.500000
Si Si5 0.056412 0.273289 0.918507
Si Si6 0.038989 0.737566 0.680159
Si Si7 0.307529 0.015874 0.825376
Si Si8 0.865519 0.584617 0.115833
O O1 0.725053 0.427941 0.448589
O O2 0.633913 0.378179 0.552757
O O3 0.609547 0.281895 0.391200
O O4 0.932958 0.330759 0.734345
O O5 0.325022 0.566950 0.650708
O O6 0.500618 0.693946 0.819255
O O7 0.500000 0.615032 0.000000
O O8 0.671699 0.574202 0.980686
O O9 0.244934 0.529507 0.361076
O O10 0.006196 0.523247 0.286175
O O11 0.139385 0.971606 0.710088
O O12 0.269574 0.276956 0.119965
O O13 0.000000 0.277376 0.000000
O O14 0.062815 0.659313 0.761516
O O15 0.000000 0.730170 0.500000
O O16 0.500000 0.976660 0.000000
O O17 0.345532 0.079516 0.954168
#
# Coordination Sequence:
#
# PCOD9120447 Si02
#       8
#     4   4   4   2   4   4   4   4
#     4  11  20  32  51  83 113 151 182 236 295 343
#     4  10  22  37  57  86 113 153 195 240 286 338
#     4  10  22  35  58  84 118 153 190 241 289 342
#     4  10  18  30  54  76 116 146 180 234 296 336
#     4  10  19  32  52  78 113 142 185 235 287 340
#     4  11  21  34  54  83 114 153 189 240 295 343
#     4   9  19  35  52  84 113 147 188 234 287 333
#     4  10  21  35  57  82 116 151 193 236 285 343
#
# _framework density 18.844217
#
# number of rings (size 3 to 8) (size 9 to 14) (size 15 to 20)
#    0.000    1.867    2.000    2.400    3.733    8.533 
#    0.000    0.000    0.000    4.000    0.000    7.467 
#    0.000    0.000    0.000    0.000    0.000    0.000 
#
# Total GULP energy -83503.501532 kJ/mol
# GULP energy per Si atom -5566.900102 kJ/mol
# Density = 1.880133 g / cm^3
# Si number density = 18.844217 Si / 1000 Ang^3
#
#
#
# Elastic Constant Matrix: (Units=GPa)
#
#
# Indices 1 2 3 4 5 6 
#
# 1 40.0778 3.7623 12.8619 0.0000 16.5335 0.0000
# 2 3.7623 44.6533 25.5644 0.0000 -4.2632 0.0000
# 3 12.8619 25.5644 82.7960 0.0000 11.4169 0.0000
# 4 0.0000 0.0000 0.0000 20.3494 0.0000 6.6278
# 5 16.5335 -4.2632 11.4169 0.0000 29.8216 0.0000
# 6 0.0000 0.0000 0.0000 6.6278 0.0000 19.1649
#
#
#
# Elastic Compliance Matrix: (Units=1/GPa)
#
#
# Indices 1 2 3 4 5 6 
#
# 1 0.033404 -0.003726 -0.001490 0.000000 -0.018482 0.000000
# 2 -0.003726 0.029307 -0.009853 0.000000 0.010027 0.000000
# 3 -0.001490 -0.009853 0.016292 0.000000 -0.006820 0.000000
# 4 0.000000 0.000000 0.000000 0.055379 0.000000 -0.019152
# 5 -0.018482 0.010027 -0.006820 0.000000 0.047824 0.000000
# 6 0.000000 0.000000 0.000000 -0.019152 0.000000 0.058802
#
#
# Mechanical properties :
#
#
# Convention : Reuss Voigt Hill
#
# Bulk Modulus (GPa) = 20.46456 27.98937 24.22697
# Shear Modulus (GPa) = 17.39532 22.22307 19.80919
#
# Velocity S-wave (km/s) = 3.04157 3.43783 3.24575
# Velocity P-wave (km/s) = 4.81854 5.53565 5.18950
#
# Compressibility (1/GPa) = 0.04886495
#
# Stress axis : x y z
#
# Youngs Moduli (GPa) = 29.93665 34.12171 61.38014
#
# Poissons Ratio (x) = 0.12713 0.09147
# Poissons Ratio (y) = 0.11154 0.60477
# Poissons Ratio (z) = 0.04461 0.33619
#
# Static dielectric constant tensor:
#      x y z
#    x 1.681920 0.000000 0.020230 
#    y 0.000000 1.732750 0.000000 
#    z 0.020230 0.000000 1.695100 
# 
# From -- ./inp_files/43337.got.cif
#   From: 2010.05.17/outbox.cif.g08.bks.cpg/sg5_22_cif.got.tgz:43337.got - 2010.06.03 18:56:24.
