data_PCOD9120379
_publ_section_title
;
Structure prediction by ZEFSAII (Michael W. Deem and Ramdas Pophale) SiO2 
 PCOD9120379
Probable space group: C 2
;
_chemical_formula_sum "Si O2"
_cell_formula_units_Z 26
_cell_length_a 8.579471
_cell_length_b 16.709457
_cell_length_c 17.418737
_cell_angle_alpha 90.000000
_cell_angle_beta 151.014081
_cell_angle_gamma 90.000000
_cell_volume 1210.091284
_symmetry_space_group_name_H-M "C 2"
_symmetry_group_IT_number 5
_symmetry_cell_setting 'monoclinic'
loop_
_space_group_symop_operation_xyz
x,y,z
-x,y,-z
1/2+x,1/2+y,z
1/2-x,1/2+y,-z
loop_
_atom_site_type_symbol
_atom_site_label
_atom_site_fract_x
_atom_site_fract_y
_atom_site_fract_z
Si Si1 0.280096 0.427270 0.560305
Si Si2 0.627441 0.387166 0.844941
Si Si3 0.000000 0.002035 0.000000
Si Si4 0.363619 0.585410 0.526043
Si Si5 0.581056 0.564615 0.193820
Si Si6 0.887525 0.198235 0.672185
Si Si7 0.641481 0.865699 0.760707
O O1 0.476829 0.366063 0.697433
O O2 0.476091 0.504217 0.617117
O O3 0.000000 0.453020 0.500000
O O4 0.122149 0.390594 0.416556
O O5 0.540428 0.481292 0.821159
O O6 0.455829 0.347969 0.843933
O O7 0.000000 0.374361 0.000000
O O8 0.724717 0.939708 0.852277
O O9 0.062033 0.057470 0.953237
O O10 0.500000 0.591176 0.500000
O O11 0.467036 0.659729 0.623399
O O12 0.972866 0.572614 0.355717
O O13 0.496385 0.637044 0.212677
O O14 0.500000 0.202229 0.500000
O O15 0.025947 0.285023 0.748859
#
# Coordination Sequence:
#
# PCOD9120379 Si02
#       7
#     4   4   2   4   4   4   4
#     4  10  17  39  66  95 131 178 234 276 329 408
#     4  10  20  38  68 100 136 181 231 275 339 414
#     4  10  20  40  68 100 138 172 234 280 334 398
#     4  11  20  34  67 102 130 174 228 279 330 408
#     4  10  20  42  66  95 135 180 231 280 333 420
#     4  10  22  44  69  97 140 180 223 286 360 402
#     4  10  22  40  65 103 136 174 228 292 333 410
#
# _framework density 21.485983000000001
#
# number of rings (size 3 to 8) (size 9 to 14) (size 15 to 20)
#    0.000    1.846    6.154    0.462    0.000    4.923 
#    6.923    0.000    0.000    1.846    0.000    0.000 
#    0.000    0.000    0.000    0.000    0.000    0.000 
#
# Total GULP energy -72516.779866 kJ/mol
# GULP energy per Si atom -5578.213836 kJ/mol
# Density = 2.143708 g / cm^3
# Si number density = 21.485983 Si / 1000 Ang^3
#
#
#
# Elastic Constant Matrix: (Units=GPa)
#
#
# Indices 1 2 3 4 5 6 
#
# 1 79.0943 29.4649 32.7630 -0.0022 -27.8782 0.0036
# 2 29.4649 62.4350 -1.8736 -0.0132 -14.8390 0.0014
# 3 32.7630 -1.8736 77.3197 -0.0006 -25.1637 0.0206
# 4 -0.0022 -0.0132 -0.0006 19.9526 -0.0025 -0.6391
# 5 -27.8782 -14.8390 -25.1637 -0.0025 38.4631 0.0068
# 6 0.0036 0.0014 0.0206 -0.6391 0.0068 21.6138
#
#
#
# Elastic Compliance Matrix: (Units=1/GPa)
#
#
# Indices 1 2 3 4 5 6 
#
# 1 0.021294 -0.008389 -0.006679 -0.000002 0.007828 0.000001
# 2 -0.008389 0.021652 0.006123 0.000014 0.006278 -0.000007
# 3 -0.006679 0.006123 0.019191 0.000005 0.010077 -0.000021
# 4 -0.000002 0.000014 0.000005 0.050166 0.000010 0.001483
# 5 0.007828 0.006278 0.010077 0.000010 0.040688 -0.000024
# 6 0.000001 -0.000007 -0.000021 0.001483 -0.000024 0.046311
#
#
# Mechanical properties :
#
#
# Convention : Reuss Voigt Hill
#
# Bulk Modulus (GPa) = 22.60053 37.72862 30.16458
# Shear Modulus (GPa) = 21.55728 26.57222 24.06475
#
# Velocity S-wave (km/s) = 3.17096 3.52052 3.35030
# Velocity P-wave (km/s) = 4.89369 5.84151 5.38848
#
# Compressibility (1/GPa) = 0.04424675
#
# Stress axis : x y z
#
# Youngs Moduli (GPa) = 46.96169 46.18579 52.10726
#
# Poissons Ratio (x) = 0.38746 0.34800
# Poissons Ratio (y) = 0.39397 -0.31904
# Poissons Ratio (z) = 0.31364 -0.28278
#
# Static dielectric constant tensor:
#      x y z
#    x 1.800720 0.000000 -0.006290 
#    y 0.000000 1.774890 -0.000010 
#    z -0.006290 -0.000010 1.864420 
# 
# From -- ./inp_files/59848.got.cif
#   From: 2010.05.17/outbox.cif.g08.bks.cpg/sg5_30_cif.got.tgz:59848.got - 2010.06.03 18:56:24.
