data_PCOD9120302
_publ_section_title
;
Structure prediction by ZEFSAII (Michael W. Deem and Ramdas Pophale) SiO2 
 PCOD9120302
Probable space group: C 2
;
_chemical_formula_sum "Si O2"
_cell_formula_units_Z 28
_cell_length_a 18.033918
_cell_length_b 8.802657
_cell_length_c 21.169142
_cell_angle_alpha 90.000000
_cell_angle_beta 18.657581
_cell_angle_gamma 90.000000
_cell_volume 1075.071035
_symmetry_space_group_name_H-M "C 2"
_symmetry_group_IT_number 5
_symmetry_cell_setting 'monoclinic'
loop_
_space_group_symop_operation_xyz
x,y,z
-x,y,-z
1/2+x,1/2+y,z
1/2-x,1/2+y,-z
loop_
_atom_site_type_symbol
_atom_site_label
_atom_site_fract_x
_atom_site_fract_y
_atom_site_fract_z
Si Si1 0.765719 0.757800 0.799414
Si Si2 0.305160 0.901245 0.798477
Si Si3 0.133644 0.573258 0.613540
Si Si4 0.230702 0.819807 0.063003
Si Si5 0.743889 0.731930 0.617901
Si Si6 0.948800 0.155220 0.471896
Si Si7 0.412899 0.423597 0.214369
O O1 0.782455 0.571898 0.788312
O O2 0.785685 0.846816 0.849817
O O3 0.001530 0.798535 0.572805
O O4 0.500000 0.791054 0.000000
O O5 0.530445 0.924781 0.662176
O O6 0.340135 0.753430 0.727841
O O7 0.080416 0.885678 0.022275
O O8 0.227114 0.669773 0.477731
O O9 0.321210 0.565181 0.517718
O O10 0.908551 0.658157 0.825680
O O11 0.073542 0.925953 0.147166
O O12 0.498316 0.816634 0.825767
O O13 0.706355 0.586110 0.693487
O O14 0.771639 0.292911 0.629376
O O15 0.000000 0.088660 0.500000
#
# Coordination Sequence:
#
# PCOD9120302 Si02
#       7
#     4   4   4   4   4   4   4
#     4  10  21  34  51  78 115 143 181 226 288 343
#     4  10  20  35  55  83 110 153 187 230 284 355
#     4   9  19  36  52  79 112 149 196 224 279 349
#     4   9  19  33  50  80 105 144 190 233 264 334
#     4  10  17  35  56  81 105 151 184 229 289 327
#     4  11  23  35  56  88 118 148 187 247 293 329
#     4  11  19  33  59  82 108 144 198 234 277 343
#
# _framework density 26.044789000000002
#
# number of rings (size 3 to 8) (size 9 to 14) (size 15 to 20)
#    0.000    2.286    5.714    0.857    2.000    0.571 
#    0.000    0.000    0.000    1.714    0.000    0.000 
#    0.000    0.000    0.000    0.143    0.000    0.000 
#
# Total GULP energy -78202.738816 kJ/mol
# GULP energy per Si atom -5585.909915 kJ/mol
# Density = 2.598551 g / cm^3
# Si number density = 26.044789 Si / 1000 Ang^3
#
#
#
# Elastic Constant Matrix: (Units=GPa)
#
#
# Indices 1 2 3 4 5 6 
#
# 1 150.1579 20.9145 60.9957 -0.0074 -5.7546 0.0005
# 2 20.9145 40.2209 30.2660 -0.0193 -4.7810 0.0032
# 3 60.9957 30.2660 223.5986 -0.0242 -1.6218 0.0082
# 4 -0.0074 -0.0193 -0.0242 16.4664 0.0020 1.6588
# 5 -5.7546 -4.7810 -1.6218 0.0020 37.7023 -0.0023
# 6 0.0005 0.0032 0.0082 1.6588 -0.0023 30.5692
#
#
#
# Elastic Compliance Matrix: (Units=1/GPa)
#
#
# Indices 1 2 3 4 5 6 
#
# 1 0.007769 -0.002624 -0.001759 -0.000002 0.000777 0.000001
# 2 -0.002624 0.028998 -0.003187 0.000028 0.003140 -0.000003
# 3 -0.001759 -0.003187 0.005380 0.000004 -0.000441 -0.000001
# 4 -0.000002 0.000028 0.000004 0.061064 0.000000 -0.003314
# 5 0.000777 0.003140 -0.000441 0.000000 0.027021 0.000002
# 6 0.000001 -0.000003 -0.000001 -0.003314 0.000002 0.032892
#
#
# Mechanical properties :
#
#
# Convention : Reuss Voigt Hill
#
# Bulk Modulus (GPa) = 37.02450 70.92554 53.97502
# Shear Modulus (GPa) = 26.69984 37.06765 31.88375
#
# Velocity S-wave (km/s) = 3.20527 3.77666 3.50264
# Velocity P-wave (km/s) = 5.28630 6.80506 6.09318
#
# Compressibility (1/GPa) = 0.02700914
#
# Stress axis : x y z
#
# Youngs Moduli (GPa) = 128.71161 34.48469 185.86867
#
# Poissons Ratio (x) = 0.09050 0.32686
# Poissons Ratio (y) = 0.33777 0.59228
# Poissons Ratio (z) = 0.22634 0.10989
#
# Static dielectric constant tensor:
#      x y z
#    x 2.145980 -0.000010 -0.034130 
#    y -0.000010 2.042080 0.000010 
#    z -0.034130 0.000010 2.022620 
# 
# From -- ./inp_files/66687.got.cif
#   From: 2010.05.17/outbox.cif.g08.bks.cpg/sg5_34_cif.got.tgz:66687.got - 2010.06.03 18:56:24.
