data_PCOD9120111
_publ_section_title
;
Structure prediction by ZEFSAII (Michael W. Deem and Ramdas Pophale) SiO2 
 PCOD9120111
Probable space group: C 2
;
_chemical_formula_sum "Si O2"
_cell_formula_units_Z 22
_cell_length_a 23.033988
_cell_length_b 9.681215
_cell_length_c 15.490536
_cell_angle_alpha 90.000000
_cell_angle_beta 17.116165
_cell_angle_gamma 90.000000
_cell_volume 1016.647569
_symmetry_space_group_name_H-M "C 2"
_symmetry_group_IT_number 5
_symmetry_cell_setting 'monoclinic'
loop_
_space_group_symop_operation_xyz
x,y,z
-x,y,-z
1/2+x,1/2+y,z
1/2-x,1/2+y,-z
loop_
_atom_site_type_symbol
_atom_site_label
_atom_site_fract_x
_atom_site_fract_y
_atom_site_fract_z
Si Si1 0.000000 0.778210 0.500000
Si Si2 0.137502 0.139545 0.953432
Si Si3 0.884406 0.437801 0.081127
Si Si4 0.975716 0.113139 0.376605
Si Si5 0.321810 0.997255 0.983961
Si Si6 0.373307 0.894678 0.590589
O O1 0.130301 0.679805 0.373147
O O2 0.167397 0.871821 0.219283
O O3 0.061825 0.274951 0.009908
O O4 0.168056 0.980526 0.882719
O O5 0.036811 0.135517 0.190666
O O6 0.654754 0.474315 0.427074
O O7 0.918999 0.512849 0.939994
O O8 0.000000 0.489456 0.000000
O O9 0.846684 0.236504 0.599079
O O10 0.175773 0.109265 0.149714
O O11 0.483761 0.954473 0.686065
O O12 0.500000 0.897186 0.500000
#
# Coordination Sequence:
#
# PCOD9120111 Si02
#       6
#     2   4   4   4   4   4
#     4  10  16  38  60  90 132 162 204 272 312 374
#     4  11  22  42  65  98 131 170 220 271 327 392
#     4  11  25  48  67  90 138 184 217 266 332 397
#     4  12  22  43  70  97 132 168 223 278 327 387
#     4  11  20  39  69  95 129 166 216 268 326 380
#     4  12  23  35  67 105 132 160 214 283 335 374
#
# _framework density 21.639751
#
# number of rings (size 3 to 8) (size 9 to 14) (size 15 to 20)
#    0.000    0.727   10.000    1.091    0.000    0.000 
#    6.545    0.909    0.000    0.000    0.000    0.000 
#    0.000    0.000    0.000    0.000    0.000    0.000 
#
# Total GULP energy -61240.590417 kJ/mol
# GULP energy per Si atom -5567.326402 kJ/mol
# Density = 2.159050 g / cm^3
# Si number density = 21.639751 Si / 1000 Ang^3
#
#
#
# Elastic Constant Matrix: (Units=GPa)
#
#
# Indices 1 2 3 4 5 6 
#
# 1 136.0623 14.1093 39.8426 0.0000 26.1416 0.0000
# 2 14.1093 95.5970 25.5799 0.0000 24.1695 0.0000
# 3 39.8426 25.5799 62.2020 -0.0001 41.5182 0.0000
# 4 0.0000 0.0000 -0.0001 25.5892 0.0000 9.8910
# 5 26.1416 24.1695 41.5182 0.0000 33.2375 0.0000
# 6 0.0000 0.0000 0.0000 9.8910 0.0000 23.0950
#
#
#
# Elastic Compliance Matrix: (Units=1/GPa)
#
#
# Indices 1 2 3 4 5 6 
#
# 1 0.009052 0.000202 -0.006203 0.000000 0.000482 0.000000
# 2 0.000202 0.013168 0.005732 0.000000 -0.016895 0.000000
# 3 -0.006203 0.005732 0.103579 0.000001 -0.128674 0.000000
# 4 0.000000 0.000000 0.000001 0.046832 -0.000001 -0.020057
# 5 0.000482 -0.016895 -0.128674 -0.000001 0.202725 0.000001
# 6 0.000000 0.000000 0.000000 -0.020057 0.000001 0.051889
#
#
# Mechanical properties :
#
#
# Convention : Reuss Voigt Hill
#
# Bulk Modulus (GPa) = 7.98327 50.32500 29.15413
# Shear Modulus (GPa) = 10.64877 30.67296 20.66086
#
# Velocity S-wave (km/s) = 2.22072 3.76897 3.09328
# Velocity P-wave (km/s) = 3.20510 6.49973 5.12441
#
# Compressibility (1/GPa) = 0.12526198
#
# Stress axis : x y z
#
# Youngs Moduli (GPa) = 110.46684 75.93936 9.65444
#
# Poissons Ratio (x) = -0.01534 0.05989
# Poissons Ratio (y) = -0.02231 -0.05534
# Poissons Ratio (z) = 0.68522 -0.43528
#
# Static dielectric constant tensor:
#      x y z
#    x 1.846100 0.000000 -0.006930 
#    y 0.000000 1.955340 0.000000 
#    z -0.006930 0.000000 1.746070 
# 
# From -- ./inp_files/57567.got.cif
#   From: 2010.05.17/outbox.cif.g08.bks.cpg/sg5_29_cif.got.tgz:57567.got - 2010.06.03 18:56:24.
