data_PCOD9120853
_publ_section_title
;
Structure prediction by ZEFSAII (Michael W. Deem and Ramdas Pophale) SiO2 
 PCOD9120853
Probable space group: C 2
;
_chemical_formula_sum "Si O2"
_cell_formula_units_Z 24
_cell_length_a 10.307509
_cell_length_b 15.764152
_cell_length_c 9.289021
_cell_angle_alpha 90.000000
_cell_angle_beta 125.012548
_cell_angle_gamma 90.000000
_cell_volume 1236.209813
_symmetry_space_group_name_H-M "C 2"
_symmetry_group_IT_number 5
_symmetry_cell_setting 'monoclinic'
loop_
_space_group_symop_operation_xyz
x,y,z
-x,y,-z
1/2+x,1/2+y,z
1/2-x,1/2+y,-z
loop_
_atom_site_type_symbol
_atom_site_label
_atom_site_fract_x
_atom_site_fract_y
_atom_site_fract_z
Si Si1 0.443687 0.196090 0.807201
Si Si2 0.366183 0.342556 0.530877
Si Si3 0.182444 0.414083 0.667528
Si Si4 0.397260 0.736972 0.803245
Si Si5 0.371846 0.728864 0.294734
Si Si6 0.864800 0.597270 0.286805
O O1 0.436625 0.267968 0.678708
O O2 0.264532 0.169863 0.728918
O O3 0.550799 0.123527 0.807562
O O4 0.500000 0.225639 0.000000
O O5 0.500000 0.367174 0.500000
O O6 0.297112 0.409273 0.601624
O O7 0.212910 0.304444 0.350446
O O8 0.198258 0.325110 0.763572
O O9 0.203049 0.502414 0.761167
O O10 0.000000 0.415726 0.500000
O O11 0.274993 0.663844 0.771111
O O12 0.500000 0.773366 0.000000
O O13 0.466341 0.702070 0.215359
O O14 0.500000 0.736024 0.500000
O O15 0.000000 0.603571 0.500000
#
# Coordination Sequence:
#
# PCOD9120853 Si02
#       6
#     4   4   4   4   4   4
#     4  11  20  34  60  92 114 153 201 246 289 356
#     4  11  20  40  61  93 115 161 205 248 291 360
#     4   9  19  36  63  79 118 160 193 235 307 352
#     4  12  21  35  62  90 119 154 201 250 291 349
#     4  10  18  36  57  83 112 155 199 239 283 349
#     4  11  20  39  60  85 119 160 191 242 307 352
#
# _framework density 19.414180999999999
#
# number of rings (size 3 to 8) (size 9 to 14) (size 15 to 20)
#    0.000    1.333    8.333    1.000    0.000    0.000 
#    0.000    8.333    0.000    0.000    0.000    0.000 
#    0.000    0.000    0.000    0.000    0.000    0.000 
#
# Total GULP energy -66851.300075 kJ/mol
# GULP energy per Si atom -5570.941673 kJ/mol
# Density = 1.936999 g / cm^3
# Si number density = 19.414181 Si / 1000 Ang^3
#
#
#
# Elastic Constant Matrix: (Units=GPa)
#
#
# Indices 1 2 3 4 5 6 
#
# 1 195.8602 43.4409 15.0154 0.0000 -13.5372 0.0000
# 2 43.4409 59.1109 22.1156 0.0000 3.7490 0.0000
# 3 15.0154 22.1156 83.3102 0.0000 -8.8483 0.0000
# 4 0.0000 0.0000 0.0000 18.7915 0.0000 -2.2857
# 5 -13.5372 3.7490 -8.8483 0.0000 18.7276 0.0000
# 6 0.0000 0.0000 0.0000 -2.2857 0.0000 23.9009
#
#
#
# Elastic Compliance Matrix: (Units=1/GPa)
#
#
# Indices 1 2 3 4 5 6 
#
# 1 0.006754 -0.005750 0.001000 0.000000 0.006506 0.000000
# 2 -0.005750 0.024446 -0.006753 0.000000 -0.012241 0.000000
# 3 0.001000 -0.006753 0.014567 0.000000 0.008957 0.000000
# 4 0.000000 0.000000 0.000000 0.053842 0.000000 0.005149
# 5 0.006506 -0.012241 0.008957 0.000000 0.064782 0.000000
# 6 0.000000 0.000000 0.000000 0.005149 0.000000 0.042332
#
#
# Mechanical properties :
#
#
# Convention : Reuss Voigt Hill
#
# Bulk Modulus (GPa) = 43.93557 55.49168 49.71362
# Shear Modulus (GPa) = 21.06881 29.46464 25.26672
#
# Velocity S-wave (km/s) = 3.29785 3.89998 3.61149
# Velocity P-wave (km/s) = 6.09761 6.99463 6.56147
#
# Compressibility (1/GPa) = 0.02276060
#
# Stress axis : x y z
#
# Youngs Moduli (GPa) = 148.05842 40.90582 68.64760
#
# Poissons Ratio (x) = 0.23523 -0.06866
# Poissons Ratio (y) = 0.85140 0.46359
# Poissons Ratio (z) = -0.14808 0.27625
#
# Static dielectric constant tensor:
#      x y z
#    x 1.664880 0.000000 -0.019610 
#    y 0.000000 1.694550 0.000000 
#    z -0.019610 0.000000 1.735070 
# 
# From -- ./inp_files/21349.got.cif
#   From: 2010.05.17/outbox.cif.g08.bks.cpg/sg5_11_cif.got.tgz:21349.got - 2010.06.03 18:56:24.
