data_PCOD9120966
_publ_section_title
;
Structure prediction by ZEFSAII (Michael W. Deem and Ramdas Pophale) SiO2 
 PCOD9120966
Probable space group: C 2
;
_chemical_formula_sum "Si O2"
_cell_formula_units_Z 22
_cell_length_a 17.765565
_cell_length_b 13.997100
_cell_length_c 8.919293
_cell_angle_alpha 90.000000
_cell_angle_beta 30.505034
_cell_angle_gamma 90.000000
_cell_volume 1125.851643
_symmetry_space_group_name_H-M "C 2"
_symmetry_group_IT_number 5
_symmetry_cell_setting 'monoclinic'
loop_
_space_group_symop_operation_xyz
x,y,z
-x,y,-z
1/2+x,1/2+y,z
1/2-x,1/2+y,-z
loop_
_atom_site_type_symbol
_atom_site_label
_atom_site_fract_x
_atom_site_fract_y
_atom_site_fract_z
Si Si1 0.326927 0.761370 0.571377
Si Si2 0.500000 0.897580 0.500000
Si Si3 0.077164 0.052455 0.602411
Si Si4 0.689490 0.478828 0.091843
Si Si5 0.858550 0.864458 0.351034
Si Si6 0.447363 0.272216 0.740731
O O1 0.438453 0.827080 0.476014
O O2 0.396620 0.661366 0.404024
O O3 0.272511 0.820825 0.521223
O O4 0.183160 0.736354 0.924515
O O5 0.363154 0.964497 0.779512
O O6 0.144244 0.030381 0.322455
O O7 0.153912 0.973902 0.575803
O O8 0.901698 0.029658 0.885390
O O9 0.625313 0.371103 0.194750
O O10 0.909894 0.801079 0.404881
O O11 0.000000 0.861741 0.000000
O O12 0.500000 0.218045 0.500000
#
# Coordination Sequence:
#
# PCOD9120966 Si02
#       6
#     4   2   4   4   4   4
#     4  10  21  34  60  88 121 158 200 250 286 354
#     4  10  20  36  56  90 122 156 198 242 300 348
#     4  10  18  37  62  83 117 162 199 240 301 352
#     4   9  17  33  63  83 111 160 193 240 295 362
#     4   9  18  35  61  86 118 160 196 238 303 354
#     4   9  15  34  63  86 113 154 194 236 304 358
#
# _framework density 19.540762999999998
#
# number of rings (size 3 to 8) (size 9 to 14) (size 15 to 20)
#    0.000    2.545    3.636    2.182    0.000    0.000 
#    1.636    8.182   16.000    0.000    0.000    0.000 
#    0.000    0.000    0.000    0.000    0.000    0.000 
#
# Total GULP energy -61289.938194 kJ/mol
# GULP energy per Si atom -5571.812563 kJ/mol
# Density = 1.949629 g / cm^3
# Si number density = 19.540763 Si / 1000 Ang^3
#
#
#
# Elastic Constant Matrix: (Units=GPa)
#
#
# Indices 1 2 3 4 5 6 
#
# 1 143.4174 55.6882 41.0983 0.0000 -14.5278 0.0000
# 2 55.6882 85.1497 23.3100 0.0000 -15.2955 0.0000
# 3 41.0983 23.3100 63.9452 0.0000 -23.8179 0.0000
# 4 0.0000 0.0000 0.0000 17.5723 0.0000 6.9605
# 5 -14.5278 -15.2955 -23.8179 0.0000 31.8566 0.0000
# 6 0.0000 0.0000 0.0000 6.9605 0.0000 7.0677
#
#
#
# Elastic Compliance Matrix: (Units=1/GPa)
#
#
# Indices 1 2 3 4 5 6 
#
# 1 0.010575 -0.005791 -0.005440 0.000000 -0.002025 0.000000
# 2 -0.005791 0.016549 -0.000464 0.000000 0.004958 0.000000
# 3 -0.005440 -0.000464 0.025359 0.000000 0.016256 0.000000
# 4 0.000000 0.000000 0.000000 0.093306 0.000000 -0.091891
# 5 -0.002025 0.004958 0.016256 0.000000 0.045002 0.000000
# 6 0.000000 0.000000 0.000000 -0.091891 0.000000 0.231987
#
#
# Mechanical properties :
#
#
# Convention : Reuss Voigt Hill
#
# Bulk Modulus (GPa) = 34.37245 59.18948 46.78096
# Shear Modulus (GPa) = 10.96815 22.79370 16.88093
#
# Velocity S-wave (km/s) = 2.37174 3.41907 2.94238
# Velocity P-wave (km/s) = 5.01283 6.77810 5.96117
#
# Compressibility (1/GPa) = 0.02909307
#
# Stress axis : x y z
#
# Youngs Moduli (GPa) = 94.56364 60.42766 39.43374
#
# Poissons Ratio (x) = 0.34991 0.21452
# Poissons Ratio (y) = 0.54757 0.01830
# Poissons Ratio (z) = 0.51443 0.02805
#
# Static dielectric constant tensor:
#      x y z
#    x 1.719650 0.000000 0.017820 
#    y 0.000000 1.664240 0.000000 
#    z 0.017820 0.000000 1.765130 
# 
# From -- ./inp_files/15085.got.cif
#   From: 2010.05.17/outbox.cif.g08.bks.cpg/sg5_8_cif.got.tgz:15085.got - 2010.06.03 18:56:24.
