data_PCOD9120647
_publ_section_title
;
Structure prediction by ZEFSAII (Michael W. Deem and Ramdas Pophale) SiO2 
 PCOD9120647
Probable space group: C 2
;
_chemical_formula_sum "Si O2"
_cell_formula_units_Z 32
_cell_length_a 23.915853
_cell_length_b 8.297369
_cell_length_c 23.077600
_cell_angle_alpha 90.000000
_cell_angle_beta 158.705724
_cell_angle_gamma 90.000000
_cell_volume 1663.078376
_symmetry_space_group_name_H-M "C 2"
_symmetry_group_IT_number 5
_symmetry_cell_setting 'monoclinic'
loop_
_space_group_symop_operation_xyz
x,y,z
-x,y,-z
1/2+x,1/2+y,z
1/2-x,1/2+y,-z
loop_
_atom_site_type_symbol
_atom_site_label
_atom_site_fract_x
_atom_site_fract_y
_atom_site_fract_z
Si Si1 0.875488 0.464890 0.092681
Si Si2 0.659855 0.535010 0.397177
Si Si3 0.050429 0.544226 0.651860
Si Si4 0.059092 0.324715 0.365621
Si Si5 0.081213 0.776605 0.792780
Si Si6 0.853566 0.782375 0.388971
Si Si7 0.906007 0.282475 0.772675
Si Si8 0.629387 0.622093 0.083022
O O1 0.870734 0.641145 0.114477
O O2 0.911188 0.347002 0.181923
O O3 0.011921 0.431047 0.179528
O O4 0.717867 0.402529 0.913513
O O5 0.826489 0.462085 0.548145
O O6 0.637026 0.655363 0.428810
O O7 0.553704 0.382000 0.309151
O O8 0.624029 0.645421 0.305799
O O9 0.050151 0.677153 0.703822
O O10 0.228127 0.521296 0.805002
O O11 0.983012 0.378470 0.611105
O O12 0.938218 0.621882 0.495967
O O13 0.748083 0.834306 0.341767
O O14 0.727109 0.746168 0.217385
O O15 0.000000 0.871695 0.500000
O O16 0.030131 0.205788 0.936859
O O17 0.500000 0.543483 0.000000
#
# Coordination Sequence:
#
# PCOD9120647 Si02
#       8
#     4   4   4   4   4   4   4   4
#     4  10  20  33  52  78 117 147 178 222 268 335
#     4  11  22  35  53  83 118 146 182 218 281 346
#     4  10  18  34  54  83 115 143 188 231 274 326
#     4  10  20  33  52  78 117 147 178 222 268 335
#     4  11  22  35  53  83 118 146 182 218 281 346
#     4   9  18  32  54  82 109 143 196 243 271 315
#     4  10  18  34  54  83 115 143 188 231 274 326
#     4   9  18  32  54  82 109 143 196 243 271 315
#
# _framework density 19.241425
#
# number of rings (size 3 to 8) (size 9 to 14) (size 15 to 20)
#    0.000    2.000    2.500    3.000    3.500    0.000 
#    0.000    0.000    0.000    0.000    0.000   35.000 
#    0.000    0.000    0.000    0.000    0.000    0.000 
#
# Total GULP energy -89079.289385 kJ/mol
# GULP energy per Si atom -5567.455587 kJ/mol
# Density = 1.919763 g / cm^3
# Si number density = 19.241425 Si / 1000 Ang^3
#
#
#
# Elastic Constant Matrix: (Units=GPa)
#
#
# Indices 1 2 3 4 5 6 
#
# 1 100.4901 23.1966 27.0946 0.0000 16.9117 0.0000
# 2 23.1966 59.5409 9.8713 0.0000 3.4855 0.0000
# 3 27.0946 9.8713 81.8416 -0.0001 10.4028 -0.0001
# 4 0.0000 0.0000 -0.0001 21.5766 0.0000 5.3499
# 5 16.9117 3.4855 10.4028 0.0000 42.4701 0.0000
# 6 0.0000 0.0000 -0.0001 5.3499 0.0000 14.6326
#
#
#
# Elastic Compliance Matrix: (Units=1/GPa)
#
#
# Indices 1 2 3 4 5 6 
#
# 1 0.012379 -0.004081 -0.003119 0.000000 -0.003830 0.000000
# 2 -0.004081 0.018519 -0.000925 0.000000 0.000332 0.000000
# 3 -0.003119 -0.000925 0.013619 0.000000 -0.002018 0.000000
# 4 0.000000 0.000000 0.000000 0.050967 0.000000 -0.018634
# 5 -0.003830 0.000332 -0.002018 0.000000 0.025538 0.000000
# 6 0.000000 0.000000 0.000000 -0.018634 0.000000 0.075153
#
#
# Mechanical properties :
#
#
# Convention : Reuss Voigt Hill
#
# Bulk Modulus (GPa) = 35.37667 40.24419 37.81043
# Shear Modulus (GPa) = 22.53790 27.84988 25.19389
#
# Velocity S-wave (km/s) = 3.42617 3.80859 3.62243
# Velocity P-wave (km/s) = 5.83756 6.34833 6.09829
#
# Compressibility (1/GPa) = 0.02826722
#
# Stress axis : x y z
#
# Youngs Moduli (GPa) = 80.78228 53.99824 73.42493
#
# Poissons Ratio (x) = 0.22039 0.22902
# Poissons Ratio (y) = 0.32970 0.06789
# Poissons Ratio (z) = 0.25196 0.04993
#
# Static dielectric constant tensor:
#      x y z
#    x 1.746410 0.000000 0.027400 
#    y 0.000000 1.637260 0.000000 
#    z 0.027400 0.000000 1.721260 
# 
# From -- ./inp_files/30575.got.cif
#   From: 2010.05.17/outbox.cif.g08.bks.cpg/sg5_16_cif.got.tgz:30575.got - 2010.06.03 18:56:24.
