data_PCOD9120959
_publ_section_title
;
Structure prediction by ZEFSAII (Michael W. Deem and Ramdas Pophale) SiO2 
 PCOD9120959
Probable space group: C 2
;
_chemical_formula_sum "Si O2"
_cell_formula_units_Z 26
_cell_length_a 10.829186
_cell_length_b 17.625655
_cell_length_c 15.776370
_cell_angle_alpha 90.000000
_cell_angle_beta 24.530087
_cell_angle_gamma 90.000000
_cell_volume 1250.187621
_symmetry_space_group_name_H-M "C 2"
_symmetry_group_IT_number 5
_symmetry_cell_setting 'monoclinic'
loop_
_space_group_symop_operation_xyz
x,y,z
-x,y,-z
1/2+x,1/2+y,z
1/2-x,1/2+y,-z
loop_
_atom_site_type_symbol
_atom_site_label
_atom_site_fract_x
_atom_site_fract_y
_atom_site_fract_z
Si Si1 0.110376 0.639800 0.832540
Si Si2 0.613265 0.344402 0.562380
Si Si3 0.730307 0.349509 0.051070
Si Si4 0.684170 0.970600 0.794423
Si Si5 0.748776 0.805217 0.229612
Si Si6 0.555480 0.683945 0.066771
Si Si7 0.000000 0.711818 0.500000
O O1 0.245139 0.557189 0.733493
O O2 0.299271 0.717798 0.710689
O O3 0.846554 0.647460 0.927633
O O4 0.000000 0.639159 0.000000
O O5 0.373654 0.338618 0.787566
O O6 0.489787 0.422921 0.601696
O O7 0.587522 0.269847 0.520603
O O8 0.947695 0.343427 0.387275
O O9 0.420810 0.350067 0.194960
O O10 0.909951 0.271994 0.925130
O O11 0.942575 0.419181 0.895380
O O12 0.500000 0.973541 0.000000
O O13 0.000000 0.802184 0.000000
O O14 0.263308 0.659834 0.300155
O O15 0.500000 0.676839 0.000000
#
# Coordination Sequence:
#
# PCOD9120959 Si02
#       7
#     4   4   4   4   4   4   2
#     4   9  19  37  62  86 127 164 199 255 321 363
#     4  11  20  33  62  90 115 161 211 249 306 365
#     4  10  18  37  59  87 121 153 204 257 301 361
#     4   9  18  35  63  86 117 162 204 251 308 369
#     4  10  21  35  58  89 121 157 203 260 306 363
#     4  11  20  37  62  96 124 164 207 258 308 368
#     4  12  20  32  64  92 122 154 212 256 300 370
#
# _framework density 20.796879000000001
#
# number of rings (size 3 to 8) (size 9 to 14) (size 15 to 20)
#    0.000    1.846    3.077    3.692    0.000    0.000 
#    0.000    0.769   20.308    0.000    0.000    1.077 
#    0.000    0.000    0.000    0.000    0.000    0.000 
#
# Total GULP energy -72431.387924 kJ/mol
# GULP energy per Si atom -5571.645225 kJ/mol
# Density = 2.074954 g / cm^3
# Si number density = 20.796879 Si / 1000 Ang^3
#
#
#
# Elastic Constant Matrix: (Units=GPa)
#
#
# Indices 1 2 3 4 5 6 
#
# 1 97.2217 20.7791 26.1214 0.0291 -23.2198 -0.0020
# 2 20.7791 100.8212 33.6411 0.3618 -25.5163 0.0459
# 3 26.1214 33.6411 101.3837 0.2142 -13.4878 0.0914
# 4 0.0291 0.3618 0.2142 5.1907 0.0393 -7.3218
# 5 -23.2198 -25.5163 -13.4878 0.0393 44.1847 -0.0121
# 6 -0.0020 0.0459 0.0914 -7.3218 -0.0121 14.6555
#
#
#
# Elastic Compliance Matrix: (Units=1/GPa)
#
#
# Indices 1 2 3 4 5 6 
#
# 1 0.012311 -0.000360 -0.002314 0.000136 0.005556 0.000090
# 2 -0.000360 0.012646 -0.003283 -0.002744 0.006114 -0.001385
# 3 -0.002314 -0.003283 0.011610 -0.001111 0.000433 -0.000617
# 4 0.000136 -0.002744 -0.001111 0.653351 -0.002344 0.326426
# 5 0.005556 0.006114 0.000433 -0.002344 0.029216 -0.001168
# 6 0.000090 -0.001385 -0.000617 0.326426 -0.001168 0.231322
#
#
# Mechanical properties :
#
#
# Convention : Reuss Voigt Hill
#
# Bulk Modulus (GPa) = 40.56259 51.16775 45.86517
# Shear Modulus (GPa) = 5.15152 27.39851 16.27501
#
# Velocity S-wave (km/s) = 1.57558 3.63358 2.80048
# Velocity P-wave (km/s) = 4.78084 6.50084 5.70602
#
# Compressibility (1/GPa) = 0.02465326
#
# Stress axis : x y z
#
# Youngs Moduli (GPa) = 81.22719 79.07677 86.13591
#
# Poissons Ratio (x) = 0.02845 0.19931
# Poissons Ratio (y) = 0.02922 0.28279
# Poissons Ratio (z) = 0.18795 0.25962
#
# Static dielectric constant tensor:
#      x y z
#    x 1.939100 -0.000050 0.080640 
#    y -0.000050 1.752410 -0.000040 
#    z 0.080640 -0.000040 1.834310 
# 
# From -- ./inp_files/60830.got.cif
#   From: 2010.05.17/outbox.cif.g08.bks.cpg/sg5_31_cif.got.tgz:60830.got - 2010.06.03 18:56:24.
