data_PCOD9120431
_publ_section_title
;
Structure prediction by ZEFSAII (Michael W. Deem and Ramdas Pophale) SiO2 
 PCOD9120431
Probable space group: C 2
;
_chemical_formula_sum "Si O2"
_cell_formula_units_Z 26
_cell_length_a 24.367804
_cell_length_b 7.180576
_cell_length_c 7.177724
_cell_angle_alpha 90.000000
_cell_angle_beta 127.780953
_cell_angle_gamma 90.000000
_cell_volume 992.628361
_symmetry_space_group_name_H-M "C 2"
_symmetry_group_IT_number 5
_symmetry_cell_setting 'monoclinic'
loop_
_space_group_symop_operation_xyz
x,y,z
-x,y,-z
1/2+x,1/2+y,z
1/2-x,1/2+y,-z
loop_
_atom_site_type_symbol
_atom_site_label
_atom_site_fract_x
_atom_site_fract_y
_atom_site_fract_z
Si Si1 0.643299 0.794200 0.918592
Si Si2 0.340338 0.365120 0.006910
Si Si3 0.579825 0.254425 0.152845
Si Si4 0.694819 0.787306 0.617133
Si Si5 0.703675 0.337741 0.666479
Si Si6 0.000000 0.271173 0.500000
Si Si7 0.939007 0.180215 0.758814
O O1 0.674070 0.849822 0.781166
O O2 0.564462 0.871188 0.740047
O O3 0.630680 0.571756 0.909648
O O4 0.713470 0.812151 0.188873
O O5 0.392535 0.238997 0.999955
O O6 0.269666 0.370269 0.736509
O O7 0.317993 0.295079 0.163804
O O8 0.647373 0.221832 0.428045
O O9 0.572545 0.476982 0.180693
O O10 0.500000 0.184948 0.000000
O O11 0.697499 0.561527 0.631598
O O12 0.627092 0.812134 0.353007
O O13 0.961744 0.164580 0.590661
O O14 0.000000 0.268543 0.000000
#
# Coordination Sequence:
#
# PCOD9120431 Si02
#       7
#     4   4   4   4   4   2   4
#     4   9  17  31  53  74  96 129 162 197 244 287
#     4  10  19  32  51  73  99 128 159 205 243 279
#     4  10  20  30  48  75  99 127 166 202 240 287
#     4   8  17  32  49  72 100 128 162 198 238 292
#     4   9  19  34  51  73 100 129 162 198 241 292
#     4  10  18  30  50  74 102 124 158 208 242 278
#     4   9  17  29  47  73  98 127 163 201 241 285
#
# _framework density 26.193087999999999
#
# number of rings (size 3 to 8) (size 9 to 14) (size 15 to 20)
#    0.000    2.769    0.000    2.769    0.000    4.308 
#    0.000    0.000    0.000   11.077    0.000    1.077 
#    0.000    0.000    0.000    0.000    0.000    0.000 
#
# Total GULP energy -72466.855941 kJ/mol
# GULP energy per Si atom -5574.373534 kJ/mol
# Density = 2.613347 g / cm^3
# Si number density = 26.193088 Si / 1000 Ang^3
#
#
#
# Elastic Constant Matrix: (Units=GPa)
#
#
# Indices 1 2 3 4 5 6 
#
# 1 140.6038 -14.1651 53.3683 0.0000 13.3176 0.0000
# 2 -14.1651 71.8083 33.3250 0.0000 7.5965 0.0000
# 3 53.3683 33.3250 221.1404 0.0000 50.1696 0.0000
# 4 0.0000 0.0000 0.0000 16.5862 0.0000 3.5656
# 5 13.3176 7.5965 50.1696 0.0000 54.2110 0.0000
# 6 0.0000 0.0000 0.0000 3.5656 0.0000 6.6573
#
#
#
# Elastic Compliance Matrix: (Units=1/GPa)
#
#
# Indices 1 2 3 4 5 6 
#
# 1 0.008312 0.002764 -0.002369 0.000000 -0.000237 0.000000
# 2 0.002764 0.015892 -0.003041 0.000000 -0.000091 0.000000
# 3 -0.002369 -0.003041 0.006738 0.000000 -0.005228 0.000000
# 4 0.000000 0.000000 0.000000 0.068136 0.000000 -0.036494
# 5 -0.000237 -0.000091 -0.005228 0.000000 0.023355 0.000000
# 6 0.000000 0.000000 0.000000 -0.036494 0.000000 0.169756
#
#
# Mechanical properties :
#
#
# Convention : Reuss Voigt Hill
#
# Bulk Modulus (GPa) = 38.98535 64.28988 51.63762
# Shear Modulus (GPa) = 16.33818 39.55919 27.94868
#
# Velocity S-wave (km/s) = 2.50023 3.89046 3.27008
# Velocity P-wave (km/s) = 4.82193 6.69170 5.83223
#
# Compressibility (1/GPa) = 0.02565066
#
# Stress axis : x y z
#
# Youngs Moduli (GPa) = 120.30509 62.92368 148.41367
#
# Poissons Ratio (x) = -0.17392 0.35155
# Poissons Ratio (y) = -0.33253 0.45136
# Poissons Ratio (z) = 0.28497 0.19136
#
# Static dielectric constant tensor:
#      x y z
#    x 2.141240 0.000000 0.025680 
#    y 0.000000 2.032900 0.000000 
#    z 0.025680 0.000000 2.203020 
# 
# From -- ./inp_files/30768.got.cif
#   From: 2010.05.17/outbox.cif.g08.bks.cpg/sg5_16_cif.got.tgz:30768.got - 2010.06.03 18:56:24.
