data_PCOD9120544
_publ_section_title
;
Structure prediction by ZEFSAII (Michael W. Deem and Ramdas Pophale) SiO2 
 PCOD9120544
Probable space group: C 2
;
_chemical_formula_sum "Si O2"
_cell_formula_units_Z 26
_cell_length_a 16.106262
_cell_length_b 7.929336
_cell_length_c 8.866853
_cell_angle_alpha 90.000000
_cell_angle_beta 63.472072
_cell_angle_gamma 90.000000
_cell_volume 1013.180128
_symmetry_space_group_name_H-M "C 2"
_symmetry_group_IT_number 5
_symmetry_cell_setting 'monoclinic'
loop_
_space_group_symop_operation_xyz
x,y,z
-x,y,-z
1/2+x,1/2+y,z
1/2-x,1/2+y,-z
loop_
_atom_site_type_symbol
_atom_site_label
_atom_site_fract_x
_atom_site_fract_y
_atom_site_fract_z
Si Si1 0.560116 0.206260 0.080864
Si Si2 0.608596 0.735502 0.873727
Si Si3 0.431060 0.870291 0.401314
Si Si4 0.807261 0.893467 0.240806
Si Si5 0.394984 0.249056 0.447504
Si Si6 0.500000 0.531496 0.500000
Si Si7 0.355088 0.910275 0.850130
O O1 0.486642 0.266225 0.263907
O O2 0.642703 0.099363 0.087583
O O3 0.500000 0.108044 0.000000
O O4 0.609467 0.345970 0.941541
O O5 0.607851 0.865765 0.736813
O O6 0.672941 0.588747 0.757242
O O7 0.500000 0.692632 0.000000
O O8 0.650672 0.796322 0.996920
O O9 0.440783 0.675267 0.451703
O O10 0.541146 0.899962 0.296882
O O11 0.392172 0.051693 0.494051
O O12 0.715636 0.858489 0.220369
O O13 0.814877 0.799846 0.394095
O O14 0.416032 0.387240 0.559703
#
# Coordination Sequence:
#
# PCOD9120544 Si02
#       7
#     4   4   4   4   4   2   4
#     4   9  18  34  54  86 118 155 185 231 294 356
#     4  10  18  32  56  89 118 152 190 233 285 361
#     4  10  22  39  62  84 114 152 202 241 282 337
#     4  11  19  32  58  91 122 150 180 236 308 352
#     4  10  21  38  62  84 116 148 203 244 279 337
#     4  12  22  40  66  84  98 166 218 242 258 330
#     4  10  20  33  56  89 125 148 179 237 309 353
#
# _framework density 25.661774000000001
#
# number of rings (size 3 to 8) (size 9 to 14) (size 15 to 20)
#    0.000    1.846    1.538    6.000    2.154    0.000 
#    0.000    0.000   10.154    0.000    0.000    0.000 
#    0.000    0.000    0.000    0.000    0.000    0.000 
#
# Total GULP energy -72382.727343 kJ/mol
# GULP energy per Si atom -5567.902103 kJ/mol
# Density = 2.560337 g / cm^3
# Si number density = 25.661774 Si / 1000 Ang^3
#
#
#
# Elastic Constant Matrix: (Units=GPa)
#
#
# Indices 1 2 3 4 5 6 
#
# 1 115.5592 40.7798 44.9603 0.0000 48.4240 0.0000
# 2 40.7798 135.9505 41.8978 0.0000 24.7985 0.0000
# 3 44.9603 41.8978 67.5451 0.0000 25.5616 0.0000
# 4 0.0000 0.0000 0.0000 36.5960 0.0000 16.6593
# 5 48.4240 24.7985 25.5616 0.0000 62.9139 0.0000
# 6 0.0000 0.0000 0.0000 16.6593 0.0000 5.4869
#
#
#
# Elastic Compliance Matrix: (Units=1/GPa)
#
#
# Indices 1 2 3 4 5 6 
#
# 1 0.015022 -0.001055 -0.006058 0.000000 -0.008685 0.000000
# 2 -0.001055 0.009294 -0.004708 0.000000 -0.000939 0.000000
# 3 -0.006058 -0.004708 0.022796 0.000000 -0.002743 0.000000
# 4 0.000000 0.000000 0.000000 -0.071505 0.000000 0.217104
# 5 -0.008685 -0.000939 -0.002743 0.000000 0.024064 0.000000
# 6 0.000000 0.000000 0.000000 0.217104 0.000000 -0.476920
#
#
# Mechanical properties :
#
#
# Convention : Reuss Voigt Hill
#
# Bulk Modulus (GPa) = 42.60610 63.81451 53.21031
# Shear Modulus (GPa) = -11.21622 33.76050 11.27214
#
# Velocity S-wave (km/s) = -2.09291 3.63105 2.09812
# Velocity P-wave (km/s) = 3.28613 6.51927 5.16234
#
# Compressibility (1/GPa) = 0.02347082
#
# Stress axis : x y z
#
# Youngs Moduli (GPa) = 66.56744 107.59518 43.86775
#
# Poissons Ratio (x) = 0.11349 0.26576
# Poissons Ratio (y) = 0.07021 0.20651
# Poissons Ratio (z) = 0.40328 0.50652
#
# Static dielectric constant tensor:
#      x y z
#    x 2.090730 0.000000 0.054630 
#    y 0.000000 2.106740 0.000000 
#    z 0.054630 0.000000 2.120440 
# 
# From -- ./inp_files/41532.got.cif
#   From: 2010.05.17/outbox.cif.g08.bks.cpg/sg5_21_cif.got.tgz:41532.got - 2010.06.03 18:56:24.
