data_PCOD9120042
_publ_section_title
;
Structure prediction by ZEFSAII (Michael W. Deem and Ramdas Pophale) SiO2 
 PCOD9120042
Probable space group: C 2
;
_chemical_formula_sum "Si O2"
_cell_formula_units_Z 30
_cell_length_a 30.869520
_cell_length_b 6.879858
_cell_length_c 8.191972
_cell_angle_alpha 90.000000
_cell_angle_beta 48.331568
_cell_angle_gamma 90.000000
_cell_volume 1299.634045
_symmetry_space_group_name_H-M "C 2"
_symmetry_group_IT_number 5
_symmetry_cell_setting 'monoclinic'
loop_
_space_group_symop_operation_xyz
x,y,z
-x,y,-z
1/2+x,1/2+y,z
1/2-x,1/2+y,-z
loop_
_atom_site_type_symbol
_atom_site_label
_atom_site_fract_x
_atom_site_fract_y
_atom_site_fract_z
Si Si1 0.500000 0.700430 0.000000
Si Si2 0.228309 0.592442 0.836346
Si Si3 0.827754 0.917403 0.793727
Si Si4 0.031426 0.270458 0.259138
Si Si5 0.574603 0.349708 0.694277
Si Si6 0.527608 0.302328 0.261566
Si Si7 0.849955 0.817204 0.196583
Si Si8 0.339074 0.707234 0.067705
O O1 0.492619 0.825451 0.856547
O O2 0.553530 0.552085 0.830820
O O3 0.291144 0.532740 0.747265
O O4 0.208006 0.718087 0.729238
O O5 0.294878 0.880272 0.156095
O O6 0.200558 0.720559 0.057319
O O7 0.890232 0.879768 0.560516
O O8 0.833122 0.066152 0.928430
O O9 0.098902 0.310426 0.093276
O O10 0.000000 0.337223 0.500000
O O11 0.025517 0.036728 0.270635
O O12 0.514982 0.251079 0.782128
O O13 0.621790 0.259962 0.700639
O O14 0.500000 0.235503 0.500000
O O15 0.595321 0.262615 0.059402
O O16 0.838325 0.050059 0.216086
#
# Coordination Sequence:
#
# PCOD9120042 Si02
#       8
#     2   4   4   4   4   4   4   4
#     4  10  16  32  62  96 128 164 202 258 324 386
#     4  11  23  42  61  88 120 161 214 266 303 369
#     4  11  23  40  66  88 118 162 215 258 313 369
#     4   9  16  29  56  91 125 163 204 246 314 386
#     4  11  18  36  63  96 124 166 203 249 325 387
#     4   9  15  30  60  90 115 158 202 243 305 371
#     4  10  20  37  61  90 127 160 193 257 316 376
#     4  10  19  39  63  85 117 157 205 264 304 359
#
# _framework density 23.083421000000001
#
# number of rings (size 3 to 8) (size 9 to 14) (size 15 to 20)
#    0.000    1.867    5.333    4.000    0.000    0.000 
#    2.400    3.333    2.933    0.000    0.000    0.000 
#    0.000    0.000    0.000    0.000    0.000    0.000 
#
# Total GULP energy -83610.863531 kJ/mol
# GULP energy per Si atom -5574.057569 kJ/mol
# Density = 2.303088 g / cm^3
# Si number density = 23.083421 Si / 1000 Ang^3
#
#
#
# Elastic Constant Matrix: (Units=GPa)
#
#
# Indices 1 2 3 4 5 6 
#
# 1 149.3682 9.8030 -3.6693 0.0000 8.9467 0.0000
# 2 9.8030 110.2910 10.9586 0.0000 0.2578 0.0000
# 3 -3.6693 10.9586 28.7554 0.0000 5.5172 0.0000
# 4 0.0000 0.0000 0.0000 69.5260 0.0000 -225.6476
# 5 8.9467 0.2578 5.5172 0.0000 31.1740 0.0000
# 6 0.0000 0.0000 0.0000 -225.6476 0.0000 568.5791
#
#
#
# Elastic Compliance Matrix: (Units=1/GPa)
#
#
# Indices 1 2 3 4 5 6 
#
# 1 0.006921 -0.000770 0.001611 0.000000 -0.002265 0.000000
# 2 -0.000770 0.009519 -0.003885 0.000000 0.000830 0.000000
# 3 0.001611 -0.003885 0.037829 0.000000 -0.007125 0.000000
# 4 0.000000 0.000000 0.000000 -0.049938 0.000000 -0.019818
# 5 -0.002265 0.000830 -0.007125 0.000000 0.033982 0.000000
# 6 0.000000 0.000000 0.000000 -0.019818 0.000000 -0.006106
#
#
# Mechanical properties :
#
#
# Convention : Reuss Voigt Hill
#
# Bulk Modulus (GPa) = 20.75495 35.84435 28.29965
# Shear Modulus (GPa) = 91.98539 151.94398 121.96469
#
# Velocity S-wave (km/s) = 6.31946 8.12199 7.27676
# Velocity P-wave (km/s) = 7.89039 10.17436 9.10428
#
# Compressibility (1/GPa) = 0.04818127
#
# Stress axis : x y z
#
# Youngs Moduli (GPa) = 144.49545 105.04792 26.43443
#
# Poissons Ratio (x) = 0.08088 -0.04259
# Poissons Ratio (y) = 0.11125 0.10271
# Poissons Ratio (z) = -0.23279 0.40814
#
# Static dielectric constant tensor:
#      x y z
#    x 1.769580 0.000000 0.312700 
#    y 0.000000 1.866330 0.000000 
#    z 0.312700 0.000000 1.410180 
# 
# From -- ./inp_files/32554.got.cif
#   From: 2010.05.17/outbox.cif.g08.bks.cpg/sg5_17_cif.got.tgz:32554.got - 2010.06.03 18:56:24.
