data_PCOD9120474
_publ_section_title
;
Structure prediction by ZEFSAII (Michael W. Deem and Ramdas Pophale) SiO2 
 PCOD9120474
Probable space group: C 2
;
_chemical_formula_sum "Si O2"
_cell_formula_units_Z 24
_cell_length_a 9.089241
_cell_length_b 16.538070
_cell_length_c 11.003271
_cell_angle_alpha 90.000000
_cell_angle_beta 45.066632
_cell_angle_gamma 90.000000
_cell_volume 1170.910582
_symmetry_space_group_name_H-M "C 2"
_symmetry_group_IT_number 5
_symmetry_cell_setting 'monoclinic'
loop_
_space_group_symop_operation_xyz
x,y,z
-x,y,-z
1/2+x,1/2+y,z
1/2-x,1/2+y,-z
loop_
_atom_site_type_symbol
_atom_site_label
_atom_site_fract_x
_atom_site_fract_y
_atom_site_fract_z
Si Si1 0.287259 0.191500 0.367782
Si Si2 0.911133 0.022463 0.189896
Si Si3 0.257151 0.095852 0.152384
Si Si4 0.709199 0.350017 0.799045
Si Si5 0.009719 0.244685 0.236491
Si Si6 0.334870 0.183459 0.693540
O O1 0.225807 0.119087 0.312657
O O2 0.283075 0.275746 0.297996
O O3 0.133708 0.207030 0.570928
O O4 0.523327 0.176759 0.271923
O O5 0.799441 0.936087 0.261267
O O6 0.749332 0.095647 0.296208
O O7 0.096168 0.035209 0.180163
O O8 0.000000 0.029718 0.000000
O O9 0.200275 0.181370 0.118941
O O10 0.500000 0.074727 0.000000
O O11 0.902251 0.331026 0.775615
O O12 0.500000 0.345216 0.000000
O O13 0.867158 0.239434 0.200831
O O14 0.500000 0.216126 0.500000
#
# Coordination Sequence:
#
# PCOD9120474 Si02
#       6
#     4   4   4   4   4   4
#     4  10  18  33  56  80 102 131 171 216 257 308
#     4  10  21  35  50  74 106 138 174 213 256 309
#     4  10  18  31  53  76 100 134 172 212 258 303
#     4  10  20  34  50  73 103 138 174 210 254 306
#     4   9  18  33  55  78 102 134 173 211 255 310
#     4   9  19  34  54  79 104 131 170 214 257 308
#
# _framework density 20.496867999999999
#
# number of rings (size 3 to 8) (size 9 to 14) (size 15 to 20)
#    0.000    2.333    0.000    5.000    0.000    2.667 
#    0.000    5.000    0.000   10.000    0.000    0.000 
#    0.000    0.000    0.000    0.000    0.000    0.000 
#
# Total GULP energy -66842.166939 kJ/mol
# GULP energy per Si atom -5570.180578 kJ/mol
# Density = 2.045022 g / cm^3
# Si number density = 20.496868 Si / 1000 Ang^3
#
#
#
# Elastic Constant Matrix: (Units=GPa)
#
#
# Indices 1 2 3 4 5 6 
#
# 1 191.2268 53.1661 19.4988 -0.0002 -30.4075 0.0001
# 2 53.1661 97.0051 3.5018 -0.0001 -13.2417 0.0001
# 3 19.4988 3.5018 67.0183 -0.0004 2.7112 0.0003
# 4 -0.0002 -0.0001 -0.0004 15.1428 0.0003 1.8854
# 5 -30.4075 -13.2417 2.7112 0.0003 29.6762 -0.0002
# 6 0.0001 0.0001 0.0003 1.8854 -0.0002 28.9840
#
#
#
# Elastic Compliance Matrix: (Units=1/GPa)
#
#
# Indices 1 2 3 4 5 6 
#
# 1 0.007315 -0.003065 -0.002224 0.000000 0.006331 0.000000
# 2 -0.003065 0.012302 0.000154 0.000000 0.002335 0.000000
# 3 -0.002224 0.000154 0.015708 0.000000 -0.003645 0.000000
# 4 0.000000 0.000000 0.000000 0.066577 -0.000001 -0.004331
# 5 0.006331 0.002335 -0.003645 -0.000001 0.041559 0.000000
# 6 0.000000 0.000000 0.000000 -0.004331 0.000000 0.034784
#
#
# Mechanical properties :
#
#
# Convention : Reuss Voigt Hill
#
# Bulk Modulus (GPa) = 39.91158 56.39817 48.15487
# Shear Modulus (GPa) = 25.39819 33.36617 29.38218
#
# Velocity S-wave (km/s) = 3.52394 4.03906 3.79026
# Velocity P-wave (km/s) = 6.00598 7.02334 6.53449
#
# Compressibility (1/GPa) = 0.02505539
#
# Stress axis : x y z
#
# Youngs Moduli (GPa) = 136.70643 81.29080 63.66247
#
# Poissons Ratio (x) = 0.24913 0.14160
# Poissons Ratio (y) = 0.41896 -0.00983
# Poissons Ratio (z) = 0.30407 -0.01255
#
# Static dielectric constant tensor:
#      x y z
#    x 1.845630 0.000000 0.029900 
#    y 0.000000 1.710410 0.000000 
#    z 0.029900 0.000000 1.814390 
# 
# From -- ./inp_files/15738.got.cif
#   From: 2010.05.17/outbox.cif.g08.bks.cpg/sg5_8_cif.got.tgz:15738.got - 2010.06.03 18:56:24.
