data_PCOD9120426
_publ_section_title
;
Structure prediction by ZEFSAII (Michael W. Deem and Ramdas Pophale) SiO2 
 PCOD9120426
Probable space group: C 2
;
_chemical_formula_sum "Si O2"
_cell_formula_units_Z 28
_cell_length_a 5.434177
_cell_length_b 16.467604
_cell_length_c 16.226712
_cell_angle_alpha 90.000000
_cell_angle_beta 70.434059
_cell_angle_gamma 90.000000
_cell_volume 1368.245265
_symmetry_space_group_name_H-M "C 2"
_symmetry_group_IT_number 5
_symmetry_cell_setting 'monoclinic'
loop_
_space_group_symop_operation_xyz
x,y,z
-x,y,-z
1/2+x,1/2+y,z
1/2-x,1/2+y,-z
loop_
_atom_site_type_symbol
_atom_site_label
_atom_site_fract_x
_atom_site_fract_y
_atom_site_fract_z
Si Si1 0.397262 0.625000 0.102734
Si Si2 0.500000 0.887390 0.500000
Si Si3 0.401313 0.148636 0.598690
Si Si4 0.362594 0.747612 0.637409
Si Si5 0.813804 0.675176 0.186191
Si Si6 0.696119 0.510100 0.303878
Si Si7 0.000000 0.989982 0.500000
Si Si8 0.742742 0.003734 0.257255
O O1 0.618517 0.671381 0.130981
O O2 0.338829 0.542748 0.161167
O O3 0.119510 0.671380 0.130979
O O4 0.500000 0.609221 0.000000
O O5 0.415048 0.830599 0.584950
O O6 0.750597 0.938058 0.500001
O O7 0.500000 0.114621 0.500000
O O8 0.636279 0.201838 0.610343
O O9 0.326823 0.079625 0.673180
O O10 0.143043 0.201839 0.610344
O O11 0.257451 0.746309 0.742553
O O12 0.755376 0.591542 0.244620
O O13 0.593949 0.533421 0.406048
O O14 0.476549 0.461665 0.278855
O O15 0.965735 0.461665 0.278855
#
# Coordination Sequence:
#
# PCOD9120426 Si02
#       8
#     4   2   4   4   4   4   2   4
#     4  10  18  30  48  76 120 138 150 202 266 344
#     4  12  26  39  48  71 104 146 186 218 254 302
#     4  12  19  29  50  78 101 131 176 212 252 290
#     4  12  20  36  52  71 107 133 180 221 243 308
#     4  10  19  33  52  82  98 135 176 206 269 310
#     4  10  20  34  52  69 105 131 170 223 242 309
#     4  12  26  39  48  71 104 146 186 212 268 294
#     4  10  19  31  48  80 103 132 171 199 258 311
#
# _framework density 20.464168000000001
#
# number of rings (size 3 to 8) (size 9 to 14) (size 15 to 20)
#    0.000    1.143    7.143    2.143    2.000    0.571 
#    0.000    0.000    0.000    0.000    0.000    0.000 
#    0.000   91.429    0.000    0.000    0.000    0.000 
#
# Total GULP energy -78231.037207 kJ/mol
# GULP energy per Si atom -5587.931229 kJ/mol
# Density = 2.041759 g / cm^3
# Si number density = 20.464168 Si / 1000 Ang^3
#
#
#
# Elastic Constant Matrix: (Units=GPa)
#
#
# Indices 1 2 3 4 5 6 
#
# 1 227.0003 32.6602 56.2934 0.0000 3.1415 0.0000
# 2 32.6602 34.5147 17.0003 0.0000 0.4393 0.0000
# 3 56.2934 17.0003 182.3832 0.0000 -1.8920 0.0000
# 4 0.0000 0.0000 0.0000 19.2164 0.0000 -0.0330
# 5 3.1415 0.4393 -1.8920 0.0000 29.5627 0.0000
# 6 0.0000 0.0000 0.0000 -0.0330 0.0000 18.0413
#
#
#
# Elastic Compliance Matrix: (Units=1/GPa)
#
#
# Indices 1 2 3 4 5 6 
#
# 1 0.005363 -0.004454 -0.001246 0.000000 -0.000584 0.000000
# 2 -0.004454 0.034078 -0.001803 0.000000 -0.000149 0.000000
# 3 -0.001246 -0.001803 0.006041 0.000000 0.000546 0.000000
# 4 0.000000 0.000000 0.000000 0.052039 0.000000 0.000095
# 5 -0.000584 -0.000149 0.000546 0.000000 0.033926 0.000000
# 6 0.000000 0.000000 0.000000 0.000095 0.000000 0.055429
#
#
# Mechanical properties :
#
#
# Convention : Reuss Voigt Hill
#
# Bulk Modulus (GPa) = 32.81315 72.86735 52.84025
# Shear Modulus (GPa) = 23.58038 35.89370 29.73704
#
# Velocity S-wave (km/s) = 3.39820 4.19260 3.81613
# Velocity P-wave (km/s) = 5.60948 7.68907 6.73008
#
# Compressibility (1/GPa) = 0.03047558
#
# Stress axis : x y z
#
# Youngs Moduli (GPa) = 186.45527 29.34470 165.52491
#
# Poissons Ratio (x) = 0.13069 0.20629
# Poissons Ratio (y) = 0.83043 0.29849
# Poissons Ratio (z) = 0.23238 0.05292
#
# Static dielectric constant tensor:
#      x y z
#    x 1.854810 0.000000 0.004000 
#    y 0.000000 1.720440 0.000000 
#    z 0.004000 0.000000 1.712220 
# 
# From -- ./inp_files/49198.got.cif
#   From: 2010.05.17/outbox.cif.g08.bks.cpg/sg5_25_cif.got.tgz:49198.got - 2010.06.03 18:56:24.
