data_PCOD9120927
_publ_section_title
;
Structure prediction by ZEFSAII (Michael W. Deem and Ramdas Pophale) SiO2 
 PCOD9120927
Probable space group: C 2
;
_chemical_formula_sum "Si O2"
_cell_formula_units_Z 22
_cell_length_a 8.194947
_cell_length_b 10.790020
_cell_length_c 11.634756
_cell_angle_alpha 90.000000
_cell_angle_beta 105.673742
_cell_angle_gamma 90.000000
_cell_volume 990.532714
_symmetry_space_group_name_H-M "C 2"
_symmetry_group_IT_number 5
_symmetry_cell_setting 'monoclinic'
loop_
_space_group_symop_operation_xyz
x,y,z
-x,y,-z
1/2+x,1/2+y,z
1/2-x,1/2+y,-z
loop_
_atom_site_type_symbol
_atom_site_label
_atom_site_fract_x
_atom_site_fract_y
_atom_site_fract_z
Si Si1 0.323515 0.262730 0.030206
Si Si2 0.150428 0.356029 0.783135
Si Si3 0.493801 0.337058 0.707227
Si Si4 0.572344 0.079214 0.630252
Si Si5 0.000000 0.089884 0.000000
Si Si6 0.467127 0.590610 0.733179
O O1 0.375322 0.306056 0.165676
O O2 0.176619 0.163572 0.021151
O O3 0.500000 0.224502 0.000000
O O4 0.232574 0.359644 0.926343
O O5 0.305271 0.347161 0.723477
O O6 0.049260 0.479835 0.729282
O O7 0.052062 0.225566 0.751763
O O8 0.490903 0.213829 0.631417
O O9 0.538136 0.475461 0.671654
O O10 0.500000 0.021799 0.500000
O O11 0.772346 0.105677 0.662971
O O12 0.017210 0.037775 0.132273
#
# Coordination Sequence:
#
# PCOD9120927 Si02
#       6
#     4   4   4   4   2   4
#     4   9  18  35  63  94 132 163 207 263 323 385
#     4   9  22  39  61  92 121 163 206 259 315 370
#     4  10  21  38  62  92 124 162 203 261 319 367
#     4  11  24  42  62  87 126 170 209 251 311 380
#     4  10  18  36  64  92 132 168 204 258 326 384
#     4  10  22  38  63  90 123 163 204 260 314 368
#
# _framework density 22.210272
#
# number of rings (size 3 to 8) (size 9 to 14) (size 15 to 20)
#    0.000    2.182    1.818    0.000    6.364    4.364 
#    0.000    0.909    4.000    0.000    0.000    0.000 
#    0.000    0.000    0.000    0.000    0.000    0.000 
#
# Total GULP energy -61281.130470 kJ/mol
# GULP energy per Si atom -5571.011861 kJ/mol
# Density = 2.215972 g / cm^3
# Si number density = 22.210272 Si / 1000 Ang^3
#
#
#
# Elastic Constant Matrix: (Units=GPa)
#
#
# Indices 1 2 3 4 5 6 
#
# 1 44.5578 22.6868 4.2919 0.0000 14.1125 0.0000
# 2 22.6868 118.8725 0.3864 0.0000 -8.9352 0.0000
# 3 4.2919 0.3864 60.6902 0.0000 3.1287 0.0000
# 4 0.0000 0.0000 0.0000 20.3371 0.0000 -1.1530
# 5 14.1125 -8.9352 3.1287 0.0000 15.8884 0.0000
# 6 0.0000 0.0000 0.0000 -1.1530 0.0000 16.7040
#
#
#
# Elastic Compliance Matrix: (Units=1/GPa)
#
#
# Indices 1 2 3 4 5 6 
#
# 1 0.042069 -0.011303 -0.000656 0.000000 -0.043594 0.000000
# 2 -0.011303 0.011827 -0.000138 0.000000 0.016718 0.000000
# 3 -0.000656 -0.000138 0.016668 0.000000 -0.002777 0.000000
# 4 0.000000 0.000000 0.000000 0.049364 0.000000 0.003407
# 5 -0.043594 0.016718 -0.002777 0.000000 0.111610 0.000000
# 6 0.000000 0.000000 0.000000 0.003407 0.000000 0.060101
#
#
# Mechanical properties :
#
#
# Convention : Reuss Voigt Hill
#
# Bulk Modulus (GPa) = 21.56616 30.98341 26.27479
# Shear Modulus (GPa) = 15.09260 23.70291 19.39775
#
# Velocity S-wave (km/s) = 2.60961 3.27035 2.95849
# Velocity P-wave (km/s) = 4.33719 5.31419 4.85035
#
# Compressibility (1/GPa) = 0.04636893
#
# Stress axis : x y z
#
# Youngs Moduli (GPa) = 23.77075 84.55425 59.99687
#
# Poissons Ratio (x) = 0.95575 0.03934
# Poissons Ratio (y) = 0.26869 0.00827
# Poissons Ratio (z) = 0.01559 0.01165
#
# Static dielectric constant tensor:
#      x y z
#    x 1.810200 0.000000 -0.008420 
#    y 0.000000 1.951290 0.000000 
#    z -0.008420 0.000000 1.827980 
# 
# From -- ./inp_files/35172.got.cif
#   From: 2010.05.17/outbox.cif.g08.bks.cpg/sg5_18_cif.got.tgz:35172.got - 2010.06.03 18:56:24.
