data_PCOD9120746
_publ_section_title
;
Structure prediction by ZEFSAII (Michael W. Deem and Ramdas Pophale) SiO2 
 PCOD9120746
Probable space group: C 2
;
_chemical_formula_sum "Si O2"
_cell_formula_units_Z 20
_cell_length_a 18.706534
_cell_length_b 7.703672
_cell_length_c 8.910329
_cell_angle_alpha 90.000000
_cell_angle_beta 37.680739
_cell_angle_gamma 90.000000
_cell_volume 784.894985
_symmetry_space_group_name_H-M "C 2"
_symmetry_group_IT_number 5
_symmetry_cell_setting 'monoclinic'
loop_
_space_group_symop_operation_xyz
x,y,z
-x,y,-z
1/2+x,1/2+y,z
1/2-x,1/2+y,-z
loop_
_atom_site_type_symbol
_atom_site_label
_atom_site_fract_x
_atom_site_fract_y
_atom_site_fract_z
Si Si1 0.000000 0.575920 0.500000
Si Si2 0.428688 0.741362 0.798451
Si Si3 0.686059 0.620744 0.276991
Si Si4 0.325917 0.269054 0.571946
Si Si5 0.242154 0.405955 0.424156
Si Si6 0.500000 0.831627 0.000000
O O1 0.063708 0.435931 0.285316
O O2 0.069612 0.697748 0.499062
O O3 0.549801 0.642881 0.551309
O O4 0.320665 0.654540 0.889506
O O5 0.443416 0.741814 0.950642
O O6 0.727525 0.429492 0.247276
O O7 0.745139 0.765135 0.285078
O O8 0.340194 0.359040 0.384065
O O9 0.256372 0.095408 0.646575
O O10 0.116257 0.410584 0.723284
#
# Coordination Sequence:
#
# PCOD9120746 Si02
#       6
#     2   4   4   4   4   2
#     4  10  18  34  64  86 120 162 210 238 296 370
#     4   9  17  36  59  87 122 163 196 251 310 362
#     4   9  18  34  60  86 116 158 212 242 290 368
#     4  12  20  37  66  94 115 166 211 253 288 380
#     4  11  22  37  64  91 124 158 211 253 307 356
#     4  10  20  40  60  88 136 162 182 278 318 350
#
# _framework density 25.481116
#
# number of rings (size 3 to 8) (size 9 to 14) (size 15 to 20)
#    0.000    2.000    8.000    1.200    0.000    0.000 
#    0.000    6.000    0.000    0.000    0.000    0.000 
#    0.000    0.000    0.000    0.000    0.000    0.000 
#
# Total GULP energy -55768.877170 kJ/mol
# GULP energy per Si atom -5576.887717 kJ/mol
# Density = 2.542312 g / cm^3
# Si number density = 25.481116 Si / 1000 Ang^3
#
#
#
# Elastic Constant Matrix: (Units=GPa)
#
#
# Indices 1 2 3 4 5 6 
#
# 1 235.1891 83.9919 46.0377 0.0000 71.1207 0.0000
# 2 83.9919 180.2476 25.3725 0.0000 36.9576 0.0000
# 3 46.0377 25.3725 102.8824 0.0000 23.0839 0.0000
# 4 0.0000 0.0000 0.0000 16.9642 0.0000 7.1833
# 5 71.1207 36.9576 23.0839 0.0000 55.1329 0.0000
# 6 0.0000 0.0000 0.0000 7.1833 0.0000 34.6593
#
#
#
# Elastic Compliance Matrix: (Units=1/GPa)
#
#
# Indices 1 2 3 4 5 6 
#
# 1 0.007527 -0.001686 -0.001134 0.000000 -0.008104 0.000000
# 2 -0.001686 0.006853 -0.000434 0.000000 -0.002238 0.000000
# 3 -0.001134 -0.000434 0.010971 0.000000 -0.002840 0.000000
# 4 0.000000 0.000000 0.000000 0.064619 0.000000 -0.013392
# 5 -0.008104 -0.002238 -0.002840 0.000000 0.031282 0.000000
# 6 0.000000 0.000000 0.000000 -0.013392 0.000000 0.031628
#
#
# Mechanical properties :
#
#
# Convention : Reuss Voigt Hill
#
# Bulk Modulus (GPa) = 53.06564 92.12484 72.59524
# Shear Modulus (GPa) = 30.18076 45.54574 37.86325
#
# Velocity S-wave (km/s) = 3.44530 4.23239 3.85896
# Velocity P-wave (km/s) = 6.05784 7.75350 6.95752
#
# Compressibility (1/GPa) = 0.01884459
#
# Stress axis : x y z
#
# Youngs Moduli (GPa) = 132.86002 145.91299 91.14565
#
# Poissons Ratio (x) = 0.24601 0.10335
# Poissons Ratio (y) = 0.22400 0.03953
# Poissons Ratio (z) = 0.15064 0.06328
#
# Static dielectric constant tensor:
#      x y z
#    x 2.003870 0.000000 -0.030500 
#    y 0.000000 1.975230 0.000000 
#    z -0.030500 0.000000 2.239110 
# 
# From -- ./inp_files/26200.got.cif
#   From: 2010.05.17/outbox.cif.g08.bks.cpg/sg5_14_cif.got.tgz:26200.got - 2010.06.03 18:56:24.
