data_PCOD9120967
_publ_section_title
;
Structure prediction by ZEFSAII (Michael W. Deem and Ramdas Pophale) SiO2 
 PCOD9120967
Probable space group: C 2
;
_chemical_formula_sum "Si O2"
_cell_formula_units_Z 22
_cell_length_a 6.702136
_cell_length_b 12.904891
_cell_length_c 9.493220
_cell_angle_alpha 90.000000
_cell_angle_beta 109.836141
_cell_angle_gamma 90.000000
_cell_volume 772.355051
_symmetry_space_group_name_H-M "C 2"
_symmetry_group_IT_number 5
_symmetry_cell_setting 'monoclinic'
loop_
_space_group_symop_operation_xyz
x,y,z
-x,y,-z
1/2+x,1/2+y,z
1/2-x,1/2+y,-z
loop_
_atom_site_type_symbol
_atom_site_label
_atom_site_fract_x
_atom_site_fract_y
_atom_site_fract_z
Si Si1 0.884276 0.511860 0.749298
Si Si2 0.000000 0.034745 0.000000
Si Si3 0.191647 0.782989 0.378638
Si Si4 0.222496 0.852859 0.905786
Si Si5 0.000000 0.600488 0.500000
Si Si6 0.000000 0.952838 0.500000
Si Si7 0.835814 0.184291 0.161949
O O1 0.885295 0.403688 0.832894
O O2 0.635609 0.516955 0.640182
O O3 0.868079 0.612787 0.844115
O O4 0.031699 0.531452 0.648740
O O5 0.983775 0.110248 0.861601
O O6 0.175824 0.952647 0.994325
O O7 0.164509 0.684103 0.474730
O O8 0.369511 0.754400 0.308445
O O9 0.981074 0.813160 0.233621
O O10 0.183844 0.882224 0.476141
O O11 0.279418 0.759460 0.020069
#
# Coordination Sequence:
#
# PCOD9120967 Si02
#       7
#     4   2   4   4   2   2   4
#     4   9  20  36  60  89 119 158 214 245 303 374
#     4  10  20  34  58  86 122 154 196 238 310 360
#     4   9  17  34  61  80 116 161 201 239 305 362
#     4  10  18  37  62  84 120 162 193 254 311 356
#     4   9  18  36  54  89 116 152 215 252 289 366
#     4   9  18  36  60  85 116 172 201 246 309 358
#     4  10  19  35  59  89 119 153 202 254 300 365
#
# _framework density 28.484307999999999
#
# number of rings (size 3 to 8) (size 9 to 14) (size 15 to 20)
#    0.000    2.545    1.818    0.000    0.000    0.000 
#   13.091    0.000   16.000    0.000    0.000    0.000 
#    0.000    0.000    0.000    0.000    0.000    0.000 
#
# Total GULP energy -61404.960796 kJ/mol
# GULP energy per Si atom -5582.269163 kJ/mol
# Density = 2.841948 g / cm^3
# Si number density = 28.484308 Si / 1000 Ang^3
#
#
#
# Elastic Constant Matrix: (Units=GPa)
#
#
# Indices 1 2 3 4 5 6 
#
# 1 91.5490 55.2177 69.4876 0.0000 -28.2889 0.0000
# 2 55.2177 152.2831 79.3054 0.0000 -33.1124 0.0000
# 3 69.4876 79.3054 183.3424 0.0000 -53.3206 0.0000
# 4 0.0000 0.0000 0.0000 61.1798 0.0000 -34.5362
# 5 -28.2889 -33.1124 -53.3206 0.0000 59.5745 0.0000
# 6 0.0000 0.0000 0.0000 -34.5362 0.0000 47.6736
#
#
#
# Elastic Compliance Matrix: (Units=1/GPa)
#
#
# Indices 1 2 3 4 5 6 
#
# 1 0.016940 -0.003414 -0.004267 0.000000 0.002328 0.000000
# 2 -0.003414 0.009332 -0.002306 0.000000 0.001502 0.000000
# 3 -0.004267 -0.002306 0.009608 0.000000 0.005291 0.000000
# 4 0.000000 0.000000 0.000000 0.027654 0.000000 0.020034
# 5 0.002328 0.001502 0.005291 0.000000 0.023462 0.000000
# 6 0.000000 0.000000 0.000000 0.020034 0.000000 0.035489
#
#
# Mechanical properties :
#
#
# Convention : Reuss Voigt Hill
#
# Bulk Modulus (GPa) = 62.86813 92.79957 77.83385
# Shear Modulus (GPa) = 33.83856 48.56316 41.20086
#
# Velocity S-wave (km/s) = 3.45044 4.13353 3.80734
# Velocity P-wave (km/s) = 6.16385 7.44523 6.83463
#
# Compressibility (1/GPa) = 0.01590631
#
# Stress axis : x y z
#
# Youngs Moduli (GPa) = 59.03134 107.15634 104.08443
#
# Poissons Ratio (x) = 0.36588 0.44408
# Poissons Ratio (y) = 0.20156 0.24000
# Poissons Ratio (z) = 0.25186 0.24708
#
# Static dielectric constant tensor:
#      x y z
#    x 2.274420 0.000000 -0.005160 
#    y 0.000000 2.178670 0.000000 
#    z -0.005160 0.000000 2.273720 
# 
# From -- ./inp_files/14774.got.cif
#   From: 2010.05.17/outbox.cif.g08.bks.cpg/sg5_8_cif.got.tgz:14774.got - 2010.06.03 18:56:24.
