data_PCOD9120819
_publ_section_title
;
Structure prediction by ZEFSAII (Michael W. Deem and Ramdas Pophale) SiO2 
 PCOD9120819
Probable space group: C 2
;
_chemical_formula_sum "Si O2"
_cell_formula_units_Z 28
_cell_length_a 4.960288
_cell_length_b 13.420328
_cell_length_c 16.909947
_cell_angle_alpha 90.000000
_cell_angle_beta 111.059922
_cell_angle_gamma 90.000000
_cell_volume 1050.483858
_symmetry_space_group_name_H-M "C 2"
_symmetry_group_IT_number 5
_symmetry_cell_setting 'monoclinic'
loop_
_space_group_symop_operation_xyz
x,y,z
-x,y,-z
1/2+x,1/2+y,z
1/2-x,1/2+y,-z
loop_
_atom_site_type_symbol
_atom_site_label
_atom_site_fract_x
_atom_site_fract_y
_atom_site_fract_z
Si Si1 0.691997 0.053800 0.943220
Si Si2 0.272171 0.464979 0.183922
Si Si3 0.209070 0.586520 0.703249
Si Si4 0.699705 0.838361 0.444629
Si Si5 0.483516 0.792777 0.742883
Si Si6 0.919934 0.053885 0.408417
Si Si7 0.955070 0.845033 0.912901
O O1 0.440450 0.060203 0.849463
O O2 0.790259 0.943180 0.926868
O O3 0.500000 0.060028 0.000000
O O4 0.000000 0.104449 0.000000
O O5 0.598316 0.505065 0.229732
O O6 0.183394 0.391611 0.244679
O O7 0.280262 0.392749 0.107469
O O8 0.313256 0.692994 0.744004
O O9 0.316921 0.563533 0.624581
O O10 0.866366 0.590777 0.665144
O O11 0.500000 0.852285 0.500000
O O12 0.511868 0.795715 0.352048
O O13 0.000000 0.782809 0.500000
O O14 0.820566 0.942767 0.422749
O O15 0.770721 0.792259 0.825844
O O16 0.000000 0.105577 0.500000
O O17 0.000000 0.786432 0.000000
#
# Coordination Sequence:
#
# PCOD9120819 Si02
#       7
#     4   4   4   4   4   4   4
#     4  10  18  35  63 102 128 174 241 292 354 439
#     4  11  23  44  74 104 145 193 252 303 381 453
#     4  12  27  44  72 105 150 190 247 308 384 449
#     4  11  24  44  74 105 140 188 244 295 365 446
#     4  11  27  43  72 112 145 200 245 313 378 455
#     4  11  24  47  72 104 142 191 244 309 374 451
#     4  10  21  41  76  99 140 191 247 304 376 445
#
# _framework density 26.654385999999999
#
# number of rings (size 3 to 8) (size 9 to 14) (size 15 to 20)
#    0.000    1.143    4.286    3.000    6.000    1.714 
#    0.000    0.714    3.143    0.000    0.000    0.000 
#    0.000    0.000    0.000    0.000    0.000    0.000 
#
# Total GULP energy -78193.856857 kJ/mol
# GULP energy per Si atom -5585.275490 kJ/mol
# Density = 2.659372 g / cm^3
# Si number density = 26.654386 Si / 1000 Ang^3
#
#
#
# Elastic Constant Matrix: (Units=GPa)
#
#
# Indices 1 2 3 4 5 6 
#
# 1 109.1844 -3.7959 50.4029 0.0000 -10.6075 0.0000
# 2 -3.7959 80.4196 22.0444 0.0000 2.4749 0.0000
# 3 50.4029 22.0444 224.4873 0.0000 0.9512 0.0000
# 4 0.0000 0.0000 0.0000 -42.4585 0.0000 16.6659
# 5 -10.6075 2.4749 0.9512 0.0000 52.1090 0.0000
# 6 0.0000 0.0000 0.0000 16.6659 0.0000 22.2983
#
#
#
# Elastic Compliance Matrix: (Units=1/GPa)
#
#
# Indices 1 2 3 4 5 6 
#
# 1 0.010554 0.001114 -0.002488 0.000000 0.002141 0.000000
# 2 0.001114 0.012914 -0.001517 0.000000 -0.000359 0.000000
# 3 -0.002488 -0.001517 0.005164 0.000000 -0.000529 0.000000
# 4 0.000000 0.000000 0.000000 -0.018210 0.000000 0.013610
# 5 0.002141 -0.000359 -0.000529 0.000000 0.019653 0.000000
# 6 0.000000 0.000000 0.000000 0.013610 0.000000 0.034674
#
#
# Mechanical properties :
#
#
# Convention : Reuss Voigt Hill
#
# Bulk Modulus (GPa) = 43.76084 61.26602 52.51343
# Shear Modulus (GPa) = 63.98084 29.41907 46.69996
#
# Velocity S-wave (km/s) = 4.90469 3.32584 4.19030
# Velocity P-wave (km/s) = 6.96622 6.14683 6.56931
#
# Compressibility (1/GPa) = 0.02285148
#
# Stress axis : x y z
#
# Youngs Moduli (GPa) = 94.74927 77.43407 193.63178
#
# Poissons Ratio (x) = -0.08629 0.48179
# Poissons Ratio (y) = -0.10558 0.29371
# Poissons Ratio (z) = 0.23575 0.11745
#
# Static dielectric constant tensor:
#      x y z
#    x 2.131740 0.000000 0.074850 
#    y 0.000000 2.112630 0.000000 
#    z 0.074850 0.000000 2.293880 
# 
# From -- ./inp_files/58916.got.cif
#   From: 2010.05.17/outbox.cif.g08.bks.cpg/sg5_30_cif.got.tgz:58916.got - 2010.06.03 18:56:24.
