data_PCOD9120308
_publ_section_title
;
Structure prediction by ZEFSAII (Michael W. Deem and Ramdas Pophale) SiO2 
 PCOD9120308
Probable space group: C 2
;
_chemical_formula_sum "Si O2"
_cell_formula_units_Z 30
_cell_length_a 16.558663
_cell_length_b 8.441217
_cell_length_c 8.665998
_cell_angle_alpha 90.000000
_cell_angle_beta 80.936611
_cell_angle_gamma 90.000000
_cell_volume 1196.168801
_symmetry_space_group_name_H-M "C 2"
_symmetry_group_IT_number 5
_symmetry_cell_setting 'monoclinic'
loop_
_space_group_symop_operation_xyz
x,y,z
-x,y,-z
1/2+x,1/2+y,z
1/2-x,1/2+y,-z
loop_
_atom_site_type_symbol
_atom_site_label
_atom_site_fract_x
_atom_site_fract_y
_atom_site_fract_z
Si Si1 0.045432 0.528980 0.198261
Si Si2 0.000000 0.796147 0.000000
Si Si3 0.651446 0.810659 0.931167
Si Si4 0.811987 0.839687 0.095831
Si Si5 0.459187 0.710996 0.273413
Si Si6 0.617189 0.647484 0.377627
Si Si7 0.282802 0.042578 0.320095
Si Si8 0.307176 0.002863 0.664235
O O1 0.116536 0.592827 0.286493
O O2 0.986013 0.396759 0.288826
O O3 0.997425 0.675504 0.145607
O O4 0.096877 0.432693 0.050587
O O5 0.093580 0.864001 0.982292
O O6 0.583990 0.692308 0.878078
O O7 0.676321 0.889130 0.761383
O O8 0.737800 0.792700 0.997107
O O9 0.813090 0.691971 0.213645
O O10 0.771450 0.987438 0.201574
O O11 0.547624 0.631303 0.270606
O O12 0.412868 0.644474 0.437371
O O13 0.686737 0.524133 0.320754
O O14 0.658419 0.821766 0.352743
O O15 0.291059 0.062737 0.499139
#
# Coordination Sequence:
#
# PCOD9120308 Si02
#       8
#     4   2   4   4   4   4   4   4
#     4  10  19  33  62  92 115 157 205 255 301 338
#     4  12  20  40  60  90 124 156 202 254 296 358
#     4  11  20  38  65  89 121 158 202 249 307 353
#     4  10  24  39  62  93 122 156 203 253 298 364
#     4  10  17  35  58  90 119 154 199 266 286 337
#     4   9  20  32  58  94 122 148 203 253 295 345
#     4  11  20  41  63  89 122 165 199 246 302 364
#     4   9  20  38  59  89 123 158 201 247 299 357
#
# _framework density 25.080074
#
# number of rings (size 3 to 8) (size 9 to 14) (size 15 to 20)
#    0.000    1.867    4.000    0.800    0.000    1.067 
#    0.000    2.667    0.000    0.000    0.000    0.000 
#    0.000    0.000    0.000    0.000    0.000    0.000 
#
# Total GULP energy -83704.651231 kJ/mol
# GULP energy per Si atom -5580.310082 kJ/mol
# Density = 2.502299 g / cm^3
# Si number density = 25.080074 Si / 1000 Ang^3
#
#
#
# Elastic Constant Matrix: (Units=GPa)
#
#
# Indices 1 2 3 4 5 6 
#
# 1 229.4904 22.3819 78.4152 0.0000 20.1316 0.0000
# 2 22.3819 29.1192 13.9055 0.0000 2.6966 0.0000
# 3 78.4152 13.9055 113.0114 0.0000 25.2845 0.0000
# 4 0.0000 0.0000 0.0000 20.1503 0.0000 -2.6727
# 5 20.1316 2.6966 25.2845 0.0000 47.1329 0.0000
# 6 0.0000 0.0000 0.0000 -2.6727 0.0000 24.2197
#
#
#
# Elastic Compliance Matrix: (Units=1/GPa)
#
#
# Indices 1 2 3 4 5 6 
#
# 1 0.005918 -0.002755 -0.003678 0.000000 -0.000397 0.000000
# 2 -0.002755 0.037774 -0.002859 0.000000 0.000549 0.000000
# 3 -0.003678 -0.002859 0.012915 0.000000 -0.005193 0.000000
# 4 0.000000 0.000000 0.000000 0.050364 0.000000 0.005558
# 5 -0.000397 0.000549 -0.005193 0.000000 0.024141 0.000000
# 6 0.000000 0.000000 0.000000 0.005558 0.000000 0.041902
#
#
# Mechanical properties :
#
#
# Convention : Reuss Voigt Hill
#
# Bulk Modulus (GPa) = 26.30128 66.78069 46.54099
# Shear Modulus (GPa) = 24.47711 35.42849 29.95280
#
# Velocity S-wave (km/s) = 3.12742 3.76255 3.45959
# Velocity P-wave (km/s) = 4.85291 6.74986 5.87840
#
# Compressibility (1/GPa) = 0.03802096
#
# Stress axis : x y z
#
# Youngs Moduli (GPa) = 168.97856 26.47336 77.43082
#
# Poissons Ratio (x) = 0.07294 0.28483
# Poissons Ratio (y) = 0.46559 0.22137
# Poissons Ratio (z) = 0.62158 0.07569
#
# Static dielectric constant tensor:
#      x y z
#    x 2.075260 0.000000 0.026760 
#    y 0.000000 2.021950 0.000000 
#    z 0.026760 0.000000 1.992930 
# 
# From -- ./inp_files/23635.got.cif
#   From: 2010.05.17/outbox.cif.g08.bks.cpg/sg5_12_cif.got.tgz:23635.got - 2010.06.03 18:56:24.
