data_PCOD9120689
_publ_section_title
;
Structure prediction by ZEFSAII (Michael W. Deem and Ramdas Pophale) SiO2 
 PCOD9120689
Probable space group: C 2
;
_chemical_formula_sum "Si O2"
_cell_formula_units_Z 26
_cell_length_a 10.124426
_cell_length_b 18.638136
_cell_length_c 9.875467
_cell_angle_alpha 90.000000
_cell_angle_beta 136.957317
_cell_angle_gamma 90.000000
_cell_volume 1271.922194
_symmetry_space_group_name_H-M "C 2"
_symmetry_group_IT_number 5
_symmetry_cell_setting 'monoclinic'
loop_
_space_group_symop_operation_xyz
x,y,z
-x,y,-z
1/2+x,1/2+y,z
1/2-x,1/2+y,-z
loop_
_atom_site_type_symbol
_atom_site_label
_atom_site_fract_x
_atom_site_fract_y
_atom_site_fract_z
Si Si1 0.228804 0.134030 0.833044
Si Si2 0.728934 0.278673 0.000403
Si Si3 0.471404 0.060857 0.773919
Si Si4 0.000000 0.187230 0.000000
Si Si5 0.195749 0.139130 0.399610
Si Si6 0.028705 0.391721 0.185129
Si Si7 0.124824 0.792440 0.457817
O O1 0.331254 0.096993 0.782969
O O2 0.000451 0.122396 0.666118
O O3 0.279051 0.218548 0.888052
O O4 0.323339 0.095293 0.034961
O O5 0.862243 0.237029 0.988756
O O6 0.527167 0.300246 0.778986
O O7 0.852379 0.349362 0.123862
O O8 0.373195 0.087961 0.564214
O O9 0.473263 0.976032 0.788611
O O10 0.867427 0.141247 0.802651
O O11 0.255944 0.220275 0.480725
O O12 0.225231 0.355211 0.389126
O O13 0.000000 0.383428 0.000000
O O14 0.000000 0.779757 0.500000
#
# Coordination Sequence:
#
# PCOD9120689 Si02
#       7
#     4   4   4   2   4   4   4
#     4  10  21  38  57  87 123 165 203 242 304 375
#     4  11  19  36  59  90 121 157 199 255 306 364
#     4  11  24  38  59  91 124 167 197 259 314 363
#     4  10  18  34  58  90 112 150 212 266 280 354
#     4  11  21  36  57  92 119 159 214 245 305 368
#     4  12  21  36  57  93 129 146 203 268 313 345
#     4  12  20  31  60  92 117 154 197 256 309 357
#
# _framework density 20.441503000000001
#
# number of rings (size 3 to 8) (size 9 to 14) (size 15 to 20)
#    0.000    0.923   10.000    0.462    0.000    2.462 
#    0.000    0.000    0.000    0.000   24.000    0.000 
#    0.000    0.000    0.000    0.000    0.000    0.000 
#
# Total GULP energy -72603.731005 kJ/mol
# GULP energy per Si atom -5584.902385 kJ/mol
# Density = 2.039498 g / cm^3
# Si number density = 20.441503 Si / 1000 Ang^3
#
#
#
# Elastic Constant Matrix: (Units=GPa)
#
#
# Indices 1 2 3 4 5 6 
#
# 1 40.1419 22.9864 7.5231 0.0001 13.3847 0.0000
# 2 22.9864 162.3323 56.4893 0.0000 6.1670 0.0000
# 3 7.5231 56.4893 148.9956 0.0000 17.4705 0.0000
# 4 0.0001 0.0000 0.0000 -64.5528 0.0001 -41.4956
# 5 13.3847 6.1670 17.4705 0.0001 30.3780 0.0000
# 6 0.0000 0.0000 0.0000 -41.4956 0.0000 -5.0333
#
#
#
# Elastic Compliance Matrix: (Units=1/GPa)
#
#
# Indices 1 2 3 4 5 6 
#
# 1 0.031939 -0.004609 0.001796 0.000000 -0.014170 0.000000
# 2 -0.004609 0.007762 -0.002963 0.000000 0.002159 0.000000
# 3 0.001796 -0.002963 0.008328 0.000000 -0.004980 0.000000
# 4 0.000000 0.000000 0.000000 0.003603 0.000000 -0.029704
# 5 -0.014170 0.002159 -0.004980 0.000000 0.041587 0.000000
# 6 0.000000 0.000000 0.000000 -0.029704 0.000000 0.046209
#
#
# Mechanical properties :
#
#
# Convention : Reuss Voigt Hill
#
# Bulk Modulus (GPa) = 27.41466 58.38527 42.89997
# Shear Modulus (GPa) = 30.64843 9.78979 20.21911
#
# Velocity S-wave (km/s) = 3.87631 2.19079 3.14844
# Velocity P-wave (km/s) = 5.78574 5.91807 5.85228
#
# Compressibility (1/GPa) = 0.03647683
#
# Stress axis : x y z
#
# Youngs Moduli (GPa) = 31.30955 128.83176 120.07277
#
# Poissons Ratio (x) = 0.59384 -0.21570
# Poissons Ratio (y) = 0.14432 0.35581
# Poissons Ratio (z) = -0.05624 0.38177
#
# Static dielectric constant tensor:
#      x y z
#    x 2.103690 0.000000 -0.172690 
#    y 0.000000 1.699830 0.000000 
#    z -0.172690 0.000000 1.845600 
# 
# From -- ./inp_files/40386.got.cif
#   From: 2010.05.17/outbox.cif.g08.bks.cpg/sg5_21_cif.got.tgz:40386.got - 2010.06.03 18:56:24.
