data_PCOD9120374
_publ_section_title
;
Structure prediction by ZEFSAII (Michael W. Deem and Ramdas Pophale) SiO2 
 PCOD9120374
Probable space group: C 2
;
_chemical_formula_sum "Si O2"
_cell_formula_units_Z 26
_cell_length_a 9.905704
_cell_length_b 10.675795
_cell_length_c 25.268454
_cell_angle_alpha 90.000000
_cell_angle_beta 150.415124
_cell_angle_gamma 90.000000
_cell_volume 1319.283773
_symmetry_space_group_name_H-M "C 2"
_symmetry_group_IT_number 5
_symmetry_cell_setting 'monoclinic'
loop_
_space_group_symop_operation_xyz
x,y,z
-x,y,-z
1/2+x,1/2+y,z
1/2-x,1/2+y,-z
loop_
_atom_site_type_symbol
_atom_site_label
_atom_site_fract_x
_atom_site_fract_y
_atom_site_fract_z
Si Si1 0.474725 0.787170 0.876128
Si Si2 0.405684 0.419406 0.770628
Si Si3 0.500000 0.777179 0.500000
Si Si4 0.196347 0.148864 0.671502
Si Si5 0.528288 0.468192 0.321169
Si Si6 0.000000 0.881540 0.000000
Si Si7 0.787983 0.522839 0.193745
Si Si8 0.500000 0.883609 0.000000
O O1 0.328708 0.654295 0.824574
O O2 0.259222 0.895860 0.786816
O O3 0.547776 0.806381 0.962770
O O4 0.743189 0.800878 0.932300
O O5 0.375479 0.271087 0.748589
O O6 0.354501 0.491048 0.698188
O O7 0.208783 0.440833 0.752520
O O8 0.714380 0.453583 0.893334
O O9 0.534698 0.694239 0.564462
O O10 0.238322 0.867919 0.417157
O O11 0.414994 0.045021 0.728786
O O12 0.021389 0.088315 0.659121
O O13 0.097406 0.965534 0.082931
#
# Coordination Sequence:
#
# PCOD9120374 Si02
#       8
#     4   4   2   4   4   2   4   2
#     4  11  22  40  61  95 129 170 209 254 308 379
#     4  10  23  39  61  94 125 171 208 253 315 374
#     4  10  22  44  66  94 120 164 210 266 332 362
#     4  11  23  43  69  88 124 164 210 269 316 375
#     4  10  22  44  66  91 126 161 213 262 314 375
#     4  12  25  37  62 100 132 173 211 248 314 374
#     4  12  23  39  65  91 133 169 211 261 305 374
#     4  10  17  39  56  84 132 165 209 242 304 370
#
# _framework density 19.707664000000001
#
# number of rings (size 3 to 8) (size 9 to 14) (size 15 to 20)
#    0.000    1.231    7.692    0.462    0.000    4.308 
#    0.000    0.000    0.000    0.000    0.000    0.000 
#    0.000    0.000    0.000    0.000    0.000    0.000 
#
# Total GULP energy -72524.120134 kJ/mol
# GULP energy per Si atom -5578.778472 kJ/mol
# Density = 1.966281 g / cm^3
# Si number density = 19.707664 Si / 1000 Ang^3
#
#
#
# Elastic Constant Matrix: (Units=GPa)
#
#
# Indices 1 2 3 4 5 6 
#
# 1 123.6502 34.0683 25.2699 0.0001 -8.3721 0.0000
# 2 34.0683 39.3126 13.5473 0.0000 -13.2476 0.0000
# 3 25.2699 13.5473 72.2190 -0.0001 -18.0971 0.0000
# 4 0.0001 0.0000 -0.0001 10.6763 0.0000 7.8680
# 5 -8.3721 -13.2476 -18.0971 0.0000 25.1715 0.0000
# 6 0.0000 0.0000 0.0000 7.8680 0.0000 41.8668
#
#
#
# Elastic Compliance Matrix: (Units=1/GPa)
#
#
# Indices 1 2 3 4 5 6 
#
# 1 0.011169 -0.009876 -0.002960 0.000000 -0.003611 0.000000
# 2 -0.009876 0.039917 0.000499 0.000000 0.018082 0.000000
# 3 -0.002960 0.000499 0.017818 0.000000 0.012088 0.000000
# 4 0.000000 0.000000 0.000000 0.108724 0.000000 -0.020432
# 5 -0.003611 0.018082 0.012088 0.000000 0.056734 0.000000
# 6 0.000000 0.000000 0.000000 -0.020432 0.000000 0.027725
#
#
# Mechanical properties :
#
#
# Convention : Reuss Voigt Hill
#
# Bulk Modulus (GPa) = 22.60944 42.32808 32.46876
# Shear Modulus (GPa) = 16.58355 26.36265 21.47310
#
# Velocity S-wave (km/s) = 2.90397 3.66141 3.30446
# Velocity P-wave (km/s) = 4.76879 6.27687 5.57407
#
# Compressibility (1/GPa) = 0.04422932
#
# Stress axis : x y z
#
# Youngs Moduli (GPa) = 89.53543 25.05218 56.12232
#
# Poissons Ratio (x) = 0.24740 0.16614
# Poissons Ratio (y) = 0.88421 -0.02799
# Poissons Ratio (z) = 0.26506 -0.01249
#
# Static dielectric constant tensor:
#      x y z
#    x 1.724380 0.000000 -0.011330 
#    y 0.000000 1.683400 0.000000 
#    z -0.011330 0.000000 1.699100 
# 
# From -- ./inp_files/35463.got.cif
#   From: 2010.05.17/outbox.cif.g08.bks.cpg/sg5_18_cif.got.tgz:35463.got - 2010.06.03 18:56:24.
