data_PCOD9120903
_publ_section_title
;
Structure prediction by ZEFSAII (Michael W. Deem and Ramdas Pophale) SiO2 
 PCOD9120903
Probable space group: C 2
;
_chemical_formula_sum "Si O2"
_cell_formula_units_Z 24
_cell_length_a 8.574143
_cell_length_b 17.603624
_cell_length_c 11.448558
_cell_angle_alpha 90.000000
_cell_angle_beta 41.670632
_cell_angle_gamma 90.000000
_cell_volume 1148.856212
_symmetry_space_group_name_H-M "C 2"
_symmetry_group_IT_number 5
_symmetry_cell_setting 'monoclinic'
loop_
_space_group_symop_operation_xyz
x,y,z
-x,y,-z
1/2+x,1/2+y,z
1/2-x,1/2+y,-z
loop_
_atom_site_type_symbol
_atom_site_label
_atom_site_fract_x
_atom_site_fract_y
_atom_site_fract_z
Si Si1 0.979994 0.554620 0.701096
Si Si2 0.051901 0.981711 0.608316
Si Si3 0.772777 0.198207 0.552553
Si Si4 0.084633 0.812837 0.317493
Si Si5 0.778606 0.577399 0.041421
Si Si6 0.871322 0.174189 0.223426
O O1 0.164861 0.495601 0.540309
O O2 0.145324 0.621206 0.660033
O O3 0.798392 0.604058 0.723563
O O4 0.850507 0.525194 0.890157
O O5 0.000000 0.993575 0.500000
O O6 0.933281 0.900701 0.706063
O O7 0.915735 0.039951 0.766530
O O8 0.601617 0.268928 0.657413
O O9 0.824666 0.187530 0.386457
O O10 0.000000 0.209722 0.500000
O O11 0.301375 0.753865 0.202099
O O12 0.000000 0.813965 0.500000
O O13 0.639911 0.648298 0.061641
O O14 0.000000 0.594350 0.000000
#
# Coordination Sequence:
#
# PCOD9120903 Si02
#       6
#     4   4   4   4   4   4
#     4  11  21  37  63  94 125 164 216 270 319 381
#     4  11  21  40  64  94 132 176 211 270 329 384
#     4  10  18  36  62  93 123 163 216 266 318 383
#     4   8  19  37  63  88 127 177 214 254 334 390
#     4  12  23  36  62  99 124 166 225 271 318 379
#     4  10  21  40  64  93 130 171 218 270 321 392
#
# _framework density 20.890342
#
# number of rings (size 3 to 8) (size 9 to 14) (size 15 to 20)
#    0.000    1.667    3.333    3.500    0.000    0.000 
#    3.000    3.333    0.000    0.000    0.000    0.000 
#    0.000    0.000    0.000    0.000    0.000    0.000 
#
# Total GULP energy -66871.894355 kJ/mol
# GULP energy per Si atom -5572.657863 kJ/mol
# Density = 2.084279 g / cm^3
# Si number density = 20.890342 Si / 1000 Ang^3
#
#
#
# Elastic Constant Matrix: (Units=GPa)
#
#
# Indices 1 2 3 4 5 6 
#
# 1 132.5492 41.4156 32.6361 -0.0002 -14.7266 0.0002
# 2 41.4156 101.3611 18.8497 0.0000 -10.3586 0.0000
# 3 32.6361 18.8497 101.1152 -0.0001 -0.5261 0.0002
# 4 -0.0002 0.0000 -0.0001 12.8242 0.0001 3.0757
# 5 -14.7266 -10.3586 -0.5261 0.0001 30.8043 -0.0002
# 6 0.0002 0.0000 0.0002 3.0757 -0.0002 20.2072
#
#
#
# Elastic Compliance Matrix: (Units=1/GPa)
#
#
# Indices 1 2 3 4 5 6 
#
# 1 0.009497 -0.003066 -0.002476 0.000000 0.003467 0.000000
# 2 -0.003066 0.011580 -0.001157 0.000000 0.002409 0.000000
# 3 -0.002476 -0.001157 0.010897 0.000000 -0.001386 0.000000
# 4 0.000000 0.000000 0.000000 0.080932 0.000000 -0.012318
# 5 0.003467 0.002409 -0.001386 0.000000 0.034907 0.000000
# 6 0.000000 0.000000 0.000000 -0.012318 0.000000 0.051362
#
#
# Mechanical properties :
#
#
# Convention : Reuss Voigt Hill
#
# Bulk Modulus (GPa) = 53.82808 57.86981 55.84895
# Shear Modulus (GPa) = 22.85572 28.90873 25.88222
#
# Velocity S-wave (km/s) = 3.31128 3.72403 3.52370
# Velocity P-wave (km/s) = 6.35943 6.80096 6.58389
#
# Compressibility (1/GPa) = 0.01857766
#
# Stress axis : x y z
#
# Youngs Moduli (GPa) = 105.29591 86.35884 91.76684
#
# Poissons Ratio (x) = 0.26475 0.22719
# Poissons Ratio (y) = 0.32281 0.10614
# Poissons Ratio (z) = 0.26068 0.09988
#
# Static dielectric constant tensor:
#      x y z
#    x 1.774050 0.000000 0.002380 
#    y 0.000000 1.786010 0.000000 
#    z 0.002380 0.000000 1.864610 
# 
# From -- ./inp_files/37130.got.cif
#   From: 2010.05.17/outbox.cif.g08.bks.cpg/sg5_19_cif.got.tgz:37130.got - 2010.06.03 18:56:24.
