data_PCOD9120598
_publ_section_title
;
Structure prediction by ZEFSAII (Michael W. Deem and Ramdas Pophale) SiO2 
 PCOD9120598
Probable space group: C 2
;
_chemical_formula_sum "Si O2"
_cell_formula_units_Z 32
_cell_length_a 11.798958
_cell_length_b 19.674628
_cell_length_c 8.426148
_cell_angle_alpha 90.000000
_cell_angle_beta 52.229855
_cell_angle_gamma 90.000000
_cell_volume 1546.204763
_symmetry_space_group_name_H-M "C 2"
_symmetry_group_IT_number 5
_symmetry_cell_setting 'monoclinic'
loop_
_space_group_symop_operation_xyz
x,y,z
-x,y,-z
1/2+x,1/2+y,z
1/2-x,1/2+y,-z
loop_
_atom_site_type_symbol
_atom_site_label
_atom_site_fract_x
_atom_site_fract_y
_atom_site_fract_z
Si Si1 0.302348 0.085390 0.579706
Si Si2 0.858758 0.440813 0.675976
Si Si3 0.652283 0.385941 0.644172
Si Si4 0.915034 0.789058 0.740593
Si Si5 0.334636 0.881382 0.188316
Si Si6 0.205508 0.513908 0.954931
Si Si7 0.973242 0.031805 0.338196
Si Si8 0.585833 0.139165 0.185288
O O1 0.143707 0.080726 0.642836
O O2 0.420564 0.122405 0.370392
O O3 0.322093 0.117943 0.736545
O O4 0.348508 0.007075 0.570270
O O5 0.716810 0.399200 0.761381
O O6 0.000000 0.402519 0.500000
O O7 0.866786 0.469565 0.844358
O O8 0.529192 0.331378 0.741849
O O9 0.783187 0.368022 0.412362
O O10 0.583994 0.455305 0.634634
O O11 0.776367 0.835189 0.818825
O O12 0.886294 0.718524 0.853397
O O13 0.000000 0.774514 0.500000
O O14 0.304225 0.961968 0.182219
O O15 0.500000 0.867852 0.000000
O O16 0.367727 0.529282 0.869236
O O17 0.132080 0.587010 0.008760
O O18 0.000000 0.047903 0.500000
#
# Coordination Sequence:
#
# PCOD9120598 Si02
#       8
#     4   4   4   4   4   4   4   4
#     4   9  18  33  56  84 115 147 192 246 295 350
#     4  10  18  33  56  89 121 146 196 260 304 351
#     4  10  20  36  60  85 120 162 196 245 312 355
#     4  10  19  39  61  83 118 159 201 246 301 372
#     4  11  22  36  58  91 118 155 204 250 300 361
#     4  11  21  35  59  90 119 154 196 256 300 351
#     4  11  20  36  55  88 124 152 202 252 301 360
#     4  10  19  37  59  89 113 155 202 247 304 357
#
# _framework density 20.695834999999999
#
# number of rings (size 3 to 8) (size 9 to 14) (size 15 to 20)
#    0.000    1.750    6.250    1.125    1.750    4.500 
#    2.250    0.000    0.000    5.250    0.000    0.000 
#    0.000    0.000    0.000    0.000    0.000    0.000 
#
# Total GULP energy -89275.071615 kJ/mol
# GULP energy per Si atom -5579.691976 kJ/mol
# Density = 2.064873 g / cm^3
# Si number density = 20.695835 Si / 1000 Ang^3
#
#
#
# Elastic Constant Matrix: (Units=GPa)
#
#
# Indices 1 2 3 4 5 6 
#
# 1 96.0949 32.2142 12.3512 0.0000 -18.9122 0.0000
# 2 32.2142 110.6719 15.5153 0.0000 -9.0539 0.0000
# 3 12.3512 15.5153 53.4090 0.0000 -23.3898 0.0000
# 4 0.0000 0.0000 0.0000 14.6521 0.0000 -2.5878
# 5 -18.9122 -9.0539 -23.3898 0.0000 30.4335 0.0000
# 6 0.0000 0.0000 0.0000 -2.5878 0.0000 17.8158
#
#
#
# Elastic Compliance Matrix: (Units=1/GPa)
#
#
# Indices 1 2 3 4 5 6 
#
# 1 0.012942 -0.003313 0.001598 0.000000 0.008285 0.000000
# 2 -0.003313 0.010290 -0.002689 0.000000 -0.001065 0.000000
# 3 0.001598 -0.002689 0.028970 0.000000 0.022458 0.000000
# 4 0.000000 0.000000 0.000000 0.070046 0.000000 0.010174
# 5 0.008285 -0.001065 0.022458 0.000000 0.054951 0.000000
# 6 0.000000 0.000000 0.000000 0.010174 0.000000 0.057608
#
#
# Mechanical properties :
#
#
# Convention : Reuss Voigt Hill
#
# Bulk Modulus (GPa) = 23.04502 42.25967 32.65235
# Shear Modulus (GPa) = 19.37368 25.91996 22.64682
#
# Velocity S-wave (km/s) = 3.06292 3.54280 3.31156
# Velocity P-wave (km/s) = 4.86497 6.09910 5.51665
#
# Compressibility (1/GPa) = 0.04339332
#
# Stress axis : x y z
#
# Youngs Moduli (GPa) = 77.26572 97.18071 34.51788
#
# Poissons Ratio (x) = 0.32200 -0.05516
# Poissons Ratio (y) = 0.25602 0.09283
# Poissons Ratio (z) = -0.12346 0.26134
#
# Static dielectric constant tensor:
#      x y z
#    x 1.779630 0.000000 0.003870 
#    y 0.000000 1.735680 0.000000 
#    z 0.003870 0.000000 1.810340 
# 
# From -- ./inp_files/21791.got.cif
#   From: 2010.05.17/outbox.cif.g08.bks.cpg/sg5_11_cif.got.tgz:21791.got - 2010.06.03 18:56:24.
