data_PCOD9120635
_publ_section_title
;
Structure prediction by ZEFSAII (Michael W. Deem and Ramdas Pophale) SiO2 
 PCOD9120635
Probable space group: C 2
;
_chemical_formula_sum "Si O2"
_cell_formula_units_Z 32
_cell_length_a 15.591940
_cell_length_b 16.702727
_cell_length_c 11.101844
_cell_angle_alpha 90.000000
_cell_angle_beta 149.439774
_cell_angle_gamma 90.000000
_cell_volume 1470.027957
_symmetry_space_group_name_H-M "C 2"
_symmetry_group_IT_number 5
_symmetry_cell_setting 'monoclinic'
loop_
_space_group_symop_operation_xyz
x,y,z
-x,y,-z
1/2+x,1/2+y,z
1/2-x,1/2+y,-z
loop_
_atom_site_type_symbol
_atom_site_label
_atom_site_fract_x
_atom_site_fract_y
_atom_site_fract_z
Si Si1 0.635149 0.851910 0.504989
Si Si2 0.614699 0.281609 0.018352
Si Si3 0.344549 0.576079 0.899891
Si Si4 0.042448 0.926800 0.254247
Si Si5 0.538465 0.021051 0.364025
Si Si6 0.990003 0.185892 0.261164
Si Si7 0.711151 0.113785 0.069585
Si Si8 0.249368 0.051691 0.618410
O O1 0.706812 0.810681 0.712271
O O2 0.798292 0.895057 0.635612
O O3 0.544150 0.778198 0.327276
O O4 0.518138 0.928994 0.376108
O O5 0.601029 0.193414 0.951378
O O6 0.500000 0.283202 0.000000
O O7 0.557988 0.345458 0.851098
O O8 0.170964 0.560683 0.617713
O O9 0.500000 0.593829 0.000000
O O10 0.415570 0.491148 0.039752
O O11 0.360914 0.654519 0.003606
O O12 0.121123 0.976795 0.457725
O O13 0.616259 0.030693 0.322836
O O14 0.358418 0.061827 0.125489
O O15 0.892945 0.151545 0.260779
O O16 0.157354 0.131625 0.458832
O O17 0.703204 0.068604 0.187308
#
# Coordination Sequence:
#
# PCOD9120635 Si02
#       8
#     4   4   4   4   4   4   4   4
#     4  10  19  37  62  93 122 157 215 272 307 364
#     4  10  18  33  63  93 122 156 221 270 303 362
#     4  11  18  40  67  95 118 161 215 270 314 380
#     4   9  18  34  66  98 116 152 213 275 313 357
#     4  11  22  40  69  93 122 168 219 265 315 383
#     4  11  24  39  61  93 131 167 210 268 327 375
#     4  12  25  39  57  97 136 169 205 257 329 397
#     4  10  20  39  66  88 125 168 211 259 320 381
#
# _framework density 21.768294999999998
#
# number of rings (size 3 to 8) (size 9 to 14) (size 15 to 20)
#    0.000    1.500    6.250    1.875    1.750    0.500 
#    4.500    5.000    0.000    0.000    0.000    0.000 
#    0.000    0.000    0.000    0.000    0.000    0.000 
#
# Total GULP energy -89163.780596 kJ/mol
# GULP energy per Si atom -5572.736287 kJ/mol
# Density = 2.171875 g / cm^3
# Si number density = 21.768295 Si / 1000 Ang^3
#
#
#
# Elastic Constant Matrix: (Units=GPa)
#
#
# Indices 1 2 3 4 5 6 
#
# 1 43.1757 17.3705 11.9360 0.0000 4.7531 0.0000
# 2 17.3705 160.9845 65.6238 0.0000 -15.9872 0.0000
# 3 11.9360 65.6238 90.6089 0.0000 -18.3591 0.0000
# 4 0.0000 0.0000 0.0000 33.4501 0.0000 1.4788
# 5 4.7531 -15.9872 -18.3591 0.0000 26.7071 0.0000
# 6 0.0000 0.0000 0.0000 1.4788 0.0000 18.0946
#
#
#
# Elastic Compliance Matrix: (Units=1/GPa)
#
#
# Indices 1 2 3 4 5 6 
#
# 1 0.025935 -0.002193 -0.003520 0.000000 -0.008348 0.000000
# 2 -0.002193 0.009024 -0.005894 0.000000 0.001740 0.000000
# 3 -0.003520 -0.005894 0.017638 0.000000 0.009223 0.000000
# 4 0.000000 0.000000 0.000000 0.030004 0.000000 -0.002452
# 5 -0.008348 0.001740 0.009223 0.000000 0.046311 0.000000
# 6 0.000000 0.000000 0.000000 -0.002452 0.000000 0.055466
#
#
# Mechanical properties :
#
#
# Convention : Reuss Voigt Hill
#
# Bulk Modulus (GPa) = 34.03264 53.84774 43.94019
# Shear Modulus (GPa) = 23.00067 28.97292 25.98679
#
# Velocity S-wave (km/s) = 3.25408 3.65220 3.45888
# Velocity P-wave (km/s) = 5.45772 6.52497 6.01506
#
# Compressibility (1/GPa) = 0.02938355
#
# Stress axis : x y z
#
# Youngs Moduli (GPa) = 38.55730 110.81715 56.69680
#
# Poissons Ratio (x) = 0.24298 0.19957
# Poissons Ratio (y) = 0.08454 0.33418
# Poissons Ratio (z) = 0.13572 0.65317
#
# Static dielectric constant tensor:
#      x y z
#    x 1.994420 0.000000 0.114420 
#    y 0.000000 1.804900 0.000000 
#    z 0.114420 0.000000 1.906870 
# 
# From -- ./inp_files/44997.got.cif
#   From: 2010.05.17/outbox.cif.g08.bks.cpg/sg5_23_cif.got.tgz:44997.got - 2010.06.03 18:56:24.
