data_PCOD9120702
_publ_section_title
;
Structure prediction by ZEFSAII (Michael W. Deem and Ramdas Pophale) SiO2 
 PCOD9120702
Probable space group: C 2
;
_chemical_formula_sum "Si O2"
_cell_formula_units_Z 28
_cell_length_a 11.444884
_cell_length_b 14.438566
_cell_length_c 8.137490
_cell_angle_alpha 90.000000
_cell_angle_beta 115.476216
_cell_angle_gamma 90.000000
_cell_volume 1213.948093
_symmetry_space_group_name_H-M "C 2"
_symmetry_group_IT_number 5
_symmetry_cell_setting 'monoclinic'
loop_
_space_group_symop_operation_xyz
x,y,z
-x,y,-z
1/2+x,1/2+y,z
1/2-x,1/2+y,-z
loop_
_atom_site_type_symbol
_atom_site_label
_atom_site_fract_x
_atom_site_fract_y
_atom_site_fract_z
Si Si1 0.876108 0.472540 0.759621
Si Si2 0.527220 0.782584 0.834549
Si Si3 0.562129 0.186746 0.208510
Si Si4 0.906028 0.825271 0.311537
Si Si5 0.276213 0.715776 0.573800
Si Si6 0.660419 0.019796 0.602463
Si Si7 0.255642 0.908423 0.026918
O O1 0.975886 0.388735 0.802639
O O2 0.935305 0.575553 0.791026
O O3 0.797597 0.469461 0.541607
O O4 0.809690 0.460426 0.895544
O O5 0.430739 0.727347 0.658457
O O6 0.677235 0.806694 0.905786
O O7 0.500000 0.743674 0.000000
O O8 0.473630 0.230255 0.296321
O O9 0.704035 0.219989 0.354522
O O10 0.500000 0.216257 0.000000
O O11 0.777493 0.794801 0.333560
O O12 0.000000 0.872157 0.500000
O O13 0.883787 0.883184 0.132762
O O14 0.224749 0.620514 0.622342
O O15 0.500000 0.019035 0.500000
O O16 0.717036 0.968340 0.795926
#
# Coordination Sequence:
#
# PCOD9120702 Si02
#       7
#     4   4   4   4   4   4   4
#     4  10  20  36  59  91 118 150 205 260 290 360
#     4  10  18  34  59  86 114 157 201 243 316 356
#     4  10  21  35  57  89 121 159 204 251 307 361
#     4  10  21  38  59  87 124 161 204 249 314 369
#     4  10  20  35  58  87 122 158 198 261 302 363
#     4  11  22  35  62  95 120 155 216 253 302 366
#     4  11  22  39  68  87 119 163 204 261 307 364
#
# _framework density 23.065235999999999
#
# number of rings (size 3 to 8) (size 9 to 14) (size 15 to 20)
#    0.000    1.714    4.286    3.429    4.000    1.143 
#    0.000    0.000    6.286    0.000    0.000    0.000 
#    0.000    0.000    0.000    0.000    0.000    0.000 
#
# Total GULP energy -78004.296214 kJ/mol
# GULP energy per Si atom -5571.735444 kJ/mol
# Density = 2.301274 g / cm^3
# Si number density = 23.065236 Si / 1000 Ang^3
#
#
#
# Elastic Constant Matrix: (Units=GPa)
#
#
# Indices 1 2 3 4 5 6 
#
# 1 35.7866 20.4399 38.9150 0.0000 -5.9747 0.0000
# 2 20.4399 64.3628 48.3259 0.0000 -4.1607 0.0000
# 3 38.9150 48.3259 246.6542 0.0000 -7.3723 0.0000
# 4 0.0000 0.0000 0.0000 39.8945 0.0000 -2.2975
# 5 -5.9747 -4.1607 -7.3723 0.0000 38.6653 0.0000
# 6 0.0000 0.0000 0.0000 -2.2975 0.0000 26.4921
#
#
#
# Elastic Compliance Matrix: (Units=1/GPa)
#
#
# Indices 1 2 3 4 5 6 
#
# 1 0.038169 -0.008705 -0.004192 0.000000 0.004162 0.000000
# 2 -0.008705 0.020266 -0.002587 0.000000 0.000342 0.000000
# 3 -0.004192 -0.002587 0.005225 0.000000 0.000070 0.000000
# 4 0.000000 0.000000 0.000000 0.025192 0.000000 0.002185
# 5 0.004162 0.000342 0.000070 0.000000 0.026556 0.000000
# 6 0.000000 0.000000 0.000000 0.002185 0.000000 0.037937
#
#
# Mechanical properties :
#
#
# Convention : Reuss Voigt Hill
#
# Bulk Modulus (GPa) = 30.58900 62.46282 46.52591
# Shear Modulus (GPa) = 25.61359 36.95188 31.28274
#
# Velocity S-wave (km/s) = 3.33601 4.00692 3.68676
# Velocity P-wave (km/s) = 5.30371 6.96756 6.19178
#
# Compressibility (1/GPa) = 0.03269149
#
# Stress axis : x y z
#
# Youngs Moduli (GPa) = 26.19950 49.34403 191.40220
#
# Poissons Ratio (x) = 0.42953 0.80237
# Poissons Ratio (y) = 0.22806 0.49516
# Poissons Ratio (z) = 0.10983 0.12765
#
# Static dielectric constant tensor:
#      x y z
#    x 2.020170 0.000000 0.071680 
#    y 0.000000 1.865650 0.000000 
#    z 0.071680 0.000000 1.970620 
# 
# From -- ./inp_files/24676.got.cif
#   From: 2010.05.17/outbox.cif.g08.bks.cpg/sg5_13_cif.got.tgz:24676.got - 2010.06.03 18:56:24.
