data_PCOD9120992
_publ_section_title
;
Structure prediction by ZEFSAII (Michael W. Deem and Ramdas Pophale) SiO2 
 PCOD9120992
Probable space group: C 2
;
_chemical_formula_sum "Si O2"
_cell_formula_units_Z 28
_cell_length_a 21.588715
_cell_length_b 15.256803
_cell_length_c 9.530652
_cell_angle_alpha 90.000000
_cell_angle_beta 152.353507
_cell_angle_gamma 90.000000
_cell_volume 1456.615616
_symmetry_space_group_name_H-M "C 2"
_symmetry_group_IT_number 5
_symmetry_cell_setting 'monoclinic'
loop_
_space_group_symop_operation_xyz
x,y,z
-x,y,-z
1/2+x,1/2+y,z
1/2-x,1/2+y,-z
loop_
_atom_site_type_symbol
_atom_site_label
_atom_site_fract_x
_atom_site_fract_y
_atom_site_fract_z
Si Si1 0.650001 0.095210 0.298971
Si Si2 0.533742 0.348298 0.401268
Si Si3 0.150910 0.606432 0.850541
Si Si4 0.673309 0.520958 0.571858
Si Si5 0.239795 0.687958 0.760222
Si Si6 0.193014 0.750289 0.164760
Si Si7 0.522833 0.700886 0.213607
O O1 0.694192 0.128200 0.538723
O O2 0.652501 0.183805 0.208158
O O3 0.750765 0.028702 0.424838
O O4 0.500000 0.060554 0.000000
O O5 0.500000 0.357772 0.500000
O O6 0.602119 0.433079 0.472403
O O7 0.632693 0.264968 0.575219
O O8 0.400259 0.332809 0.041410
O O9 0.240870 0.624888 0.896462
O O10 0.000000 0.588387 0.500000
O O11 0.214539 0.537608 0.084240
O O12 0.158006 0.695728 0.954398
O O13 0.573319 0.604750 0.366191
O O14 0.385444 0.724211 0.013817
O O15 0.351052 0.762616 0.497808
O O16 0.500000 0.698432 0.000000
#
# Coordination Sequence:
#
# PCOD9120992 Si02
#       7
#     4   4   4   4   4   4   4
#     4  10  18  37  68  97 120 171 217 259 309 397
#     4  12  24  43  62 101 131 167 211 277 329 381
#     4  10  18  38  65  95 120 174 221 258 303 398
#     4  10  25  40  63  94 137 166 212 268 330 374
#     4  12  19  36  70  91 123 168 222 266 306 378
#     4  10  19  38  63  94 126 165 214 261 311 387
#     4  10  21  40  62  95 126 168 220 262 307 394
#
# _framework density 19.222642
#
# number of rings (size 3 to 8) (size 9 to 14) (size 15 to 20)
#    0.000    1.714    7.143    0.857    2.000    1.714 
#    2.571    2.143    3.143    0.000    0.000    0.000 
#    0.000    0.000    0.000    0.000    0.000    0.000 
#
# Total GULP energy -78088.414099 kJ/mol
# GULP energy per Si atom -5577.743864 kJ/mol
# Density = 1.917889 g / cm^3
# Si number density = 19.222642 Si / 1000 Ang^3
#
#
#
# Elastic Constant Matrix: (Units=GPa)
#
#
# Indices 1 2 3 4 5 6 
#
# 1 109.4927 29.0728 20.3661 0.0000 9.2907 0.0000
# 2 29.0728 48.4764 30.3579 0.0000 4.9266 0.0000
# 3 20.3661 30.3579 115.2943 0.0000 17.2224 0.0000
# 4 0.0000 0.0000 0.0000 21.8277 0.0000 14.0330
# 5 9.2907 4.9266 17.2224 0.0000 44.1214 0.0000
# 6 0.0000 0.0000 0.0000 14.0330 0.0000 27.5947
#
#
#
# Elastic Compliance Matrix: (Units=1/GPa)
#
#
# Indices 1 2 3 4 5 6 
#
# 1 0.010973 -0.006411 -0.000013 0.000000 -0.001590 0.000000
# 2 -0.006411 0.028450 -0.006463 0.000000 0.000696 0.000000
# 3 -0.000013 -0.006463 0.010905 0.000000 -0.003532 0.000000
# 4 0.000000 0.000000 0.000000 0.068067 0.000000 -0.034615
# 5 -0.001590 0.000696 -0.003532 0.000000 0.024301 0.000000
# 6 0.000000 0.000000 0.000000 -0.034615 0.000000 0.053842
#
#
# Mechanical properties :
#
#
# Convention : Reuss Voigt Hill
#
# Bulk Modulus (GPa) = 40.72518 48.09521 44.41020
# Shear Modulus (GPa) = 21.69243 31.60653 26.64948
#
# Velocity S-wave (km/s) = 3.36294 4.05932 3.72742
# Velocity P-wave (km/s) = 6.02587 6.85894 6.45586
#
# Compressibility (1/GPa) = 0.02455483
#
# Stress axis : x y z
#
# Youngs Moduli (GPa) = 91.13636 35.14955 91.70117
#
# Poissons Ratio (x) = 0.22535 0.00116
# Poissons Ratio (y) = 0.58428 0.59262
# Poissons Ratio (z) = 0.00116 0.22715
#
# Static dielectric constant tensor:
#      x y z
#    x 1.715160 0.000000 0.013320 
#    y 0.000000 1.672290 0.000000 
#    z 0.013320 0.000000 1.702770 
# 
# From -- ./inp_files/29920.got.cif
#   From: 2010.05.17/outbox.cif.g08.bks.cpg/sg5_15_cif.got.tgz:29920.got - 2010.06.03 18:56:24.
