data_PCOD9120427
_publ_section_title
;
Structure prediction by ZEFSAII (Michael W. Deem and Ramdas Pophale) SiO2 
 PCOD9120427
Probable space group: C 2
;
_chemical_formula_sum "Si O2"
_cell_formula_units_Z 28
_cell_length_a 29.775114
_cell_length_b 5.550327
_cell_length_c 10.092572
_cell_angle_alpha 90.000000
_cell_angle_beta 40.775385
_cell_angle_gamma 90.000000
_cell_volume 1089.307359
_symmetry_space_group_name_H-M "C 2"
_symmetry_group_IT_number 5
_symmetry_cell_setting 'monoclinic'
loop_
_space_group_symop_operation_xyz
x,y,z
-x,y,-z
1/2+x,1/2+y,z
1/2-x,1/2+y,-z
loop_
_atom_site_type_symbol
_atom_site_label
_atom_site_fract_x
_atom_site_fract_y
_atom_site_fract_z
Si Si1 0.660687 0.114010 0.226398
Si Si2 0.614273 0.461733 0.979707
Si Si3 0.301308 0.612307 0.740550
Si Si4 0.715375 0.568063 0.531926
Si Si5 0.535525 0.421250 0.776487
Si Si6 0.532679 0.921701 0.778940
Si Si7 0.900027 0.460593 0.886209
O O1 0.656790 0.386812 0.288660
O O2 0.672659 0.885667 0.294740
O O3 0.728198 0.106024 0.981482
O O4 0.597114 0.040657 0.272603
O O5 0.643359 0.528449 0.770737
O O6 0.633793 0.693594 0.025490
O O7 0.637526 0.191370 0.962345
O O8 0.531822 0.434671 0.166225
O O9 0.289090 0.553062 0.614783
O O10 0.759409 0.336771 0.484138
O O11 0.571569 0.673101 0.675907
O O12 0.572920 0.169687 0.677866
O O13 0.500000 0.415044 0.000000
O O14 0.500000 0.916536 0.000000
O O15 0.470241 0.932914 0.813549
#
# Coordination Sequence:
#
# PCOD9120427 Si02
#       7
#     4   4   4   4   4   4   4
#     4  10  19  33  48  64  89 123 163 202 230 268
#     4  10  19  30  47  71  98 123 155 193 238 291
#     4  10  21  33  47  65  89 123 163 199 234 273
#     4  12  23  35  50  69  97 131 162 196 241 288
#     4   8  14  25  41  63  93 118 142 182 232 284
#     4   8  14  24  40  65  96 117 139 181 235 291
#     4  10  18  30  49  71  96 124 155 196 241 281
#
# _framework density 25.704405999999999
#
# number of rings (size 3 to 8) (size 9 to 14) (size 15 to 20)
#    0.000    2.286    0.000    4.286    0.000    2.286 
#    0.000    0.000    0.000    0.000    0.000    0.000 
#    0.000  109.714    0.000    0.000    0.000    0.000 
#
# Total GULP energy -78201.749331 kJ/mol
# GULP energy per Si atom -5585.839238 kJ/mol
# Density = 2.564590 g / cm^3
# Si number density = 25.704406 Si / 1000 Ang^3
#
#
#
# Elastic Constant Matrix: (Units=GPa)
#
#
# Indices 1 2 3 4 5 6 
#
# 1 84.4565 39.8616 12.0817 0.0000 24.5445 0.0000
# 2 39.8616 300.6832 45.9820 0.0000 14.6307 0.0000
# 3 12.0817 45.9820 69.3542 0.0000 5.5011 0.0000
# 4 0.0000 0.0000 0.0000 47.4409 0.0000 6.4865
# 5 24.5445 14.6307 5.5011 0.0000 36.4021 0.0000
# 6 0.0000 0.0000 0.0000 6.4865 0.0000 30.9840
#
#
#
# Elastic Compliance Matrix: (Units=1/GPa)
#
#
# Indices 1 2 3 4 5 6 
#
# 1 0.015478 -0.001430 -0.000978 0.000000 -0.009714 0.000000
# 2 -0.001430 0.003880 -0.002304 0.000000 -0.000247 0.000000
# 3 -0.000978 -0.002304 0.016185 0.000000 -0.000861 0.000000
# 4 0.000000 0.000000 0.000000 0.021700 0.000000 -0.004543
# 5 -0.009714 -0.000247 -0.000861 0.000000 0.034250 0.000000
# 6 0.000000 0.000000 0.000000 -0.004543 0.000000 0.033226
#
#
# Mechanical properties :
#
#
# Convention : Reuss Voigt Hill
#
# Bulk Modulus (GPa) = 38.28492 72.26051 55.27271
# Shear Modulus (GPa) = 35.00246 46.73663 40.86955
#
# Velocity S-wave (km/s) = 3.69417 4.26870 3.99178
# Velocity P-wave (km/s) = 5.75521 7.24354 6.54184
#
# Compressibility (1/GPa) = 0.02611995
#
# Stress axis : x y z
#
# Youngs Moduli (GPa) = 64.60733 257.75927 61.78721
#
# Poissons Ratio (x) = 0.36853 0.06042
# Poissons Ratio (y) = 0.09237 0.14233
# Poissons Ratio (z) = 0.06318 0.59375
#
# Static dielectric constant tensor:
#      x y z
#    x 2.033510 0.000000 -0.006570 
#    y 0.000000 2.064370 0.000000 
#    z -0.006570 0.000000 2.026980 
# 
# From -- ./inp_files/31395.got.cif
#   From: 2010.05.17/outbox.cif.g08.bks.cpg/sg5_16_cif.got.tgz:31395.got - 2010.06.03 18:56:24.
