data_PCOD9120748
_publ_section_title
;
Structure prediction by ZEFSAII (Michael W. Deem and Ramdas Pophale) SiO2 
 PCOD9120748
Probable space group: C 2
;
_chemical_formula_sum "Si O2"
_cell_formula_units_Z 24
_cell_length_a 8.655946
_cell_length_b 18.708827
_cell_length_c 7.915522
_cell_angle_alpha 90.000000
_cell_angle_beta 125.588414
_cell_angle_gamma 90.000000
_cell_volume 1042.432361
_symmetry_space_group_name_H-M "C 2"
_symmetry_group_IT_number 5
_symmetry_cell_setting 'monoclinic'
loop_
_space_group_symop_operation_xyz
x,y,z
-x,y,-z
1/2+x,1/2+y,z
1/2-x,1/2+y,-z
loop_
_atom_site_type_symbol
_atom_site_label
_atom_site_fract_x
_atom_site_fract_y
_atom_site_fract_z
Si Si1 0.070818 0.368560 0.348832
Si Si2 0.387328 0.276756 0.647422
Si Si3 0.754263 0.263616 0.057289
Si Si4 0.824188 0.134948 0.490993
Si Si5 0.497720 0.030820 0.291310
Si Si6 0.628495 0.605354 0.926272
O O1 0.286173 0.341701 0.491079
O O2 0.000000 0.367600 0.500000
O O3 0.942824 0.311068 0.168636
O O4 0.043221 0.449505 0.274986
O O5 0.325640 0.279721 0.806041
O O6 0.297197 0.202573 0.519324
O O7 0.612045 0.279056 0.812254
O O8 0.775441 0.178380 0.071532
O O9 0.659536 0.083182 0.318367
O O10 0.000000 0.170202 0.500000
O O11 0.961022 0.083745 0.690783
O O12 0.500000 0.039939 0.500000
O O13 0.291390 0.051957 0.088560
O O14 0.500000 0.628585 0.000000
#
# Coordination Sequence:
#
# PCOD9120748 Si02
#       6
#     4   4   4   4   4   4
#     4   9  19  37  58  87 121 154 201 254 298 359
#     4  10  18  34  64  90 114 153 206 253 295 352
#     4  10  19  34  61  91 113 155 206 251 296 353
#     4  12  22  38  65  91 122 163 210 251 297 363
#     4  11  24  40  60  92 129 163 199 252 312 363
#     4  12  23  37  63  92 122 162 207 251 305 365
#
# _framework density 23.023078000000002
#
# number of rings (size 3 to 8) (size 9 to 14) (size 15 to 20)
#    0.000    1.333    6.667    0.500    0.000    2.000 
#    3.000    0.000    7.333    0.000    0.000    0.000 
#    0.000    0.000    0.000    0.000    0.000    0.000 
#
# Total GULP energy -66897.307917 kJ/mol
# GULP energy per Si atom -5574.775660 kJ/mol
# Density = 2.297068 g / cm^3
# Si number density = 23.023078 Si / 1000 Ang^3
#
#
#
# Elastic Constant Matrix: (Units=GPa)
#
#
# Indices 1 2 3 4 5 6 
#
# 1 30.4101 -3.7888 27.3073 0.0000 3.8305 0.0000
# 2 -3.7888 130.1702 54.6628 0.0000 16.8055 0.0000
# 3 27.3073 54.6628 144.2607 0.0000 46.9021 0.0000
# 4 0.0000 0.0000 0.0000 30.1052 0.0000 6.7020
# 5 3.8305 16.8055 46.9021 0.0000 28.2275 0.0000
# 6 0.0000 0.0000 0.0000 6.7020 0.0000 13.0027
#
#
#
# Elastic Compliance Matrix: (Units=1/GPa)
#
#
# Indices 1 2 3 4 5 6 
#
# 1 0.046833 0.006213 -0.017292 0.000000 0.018677 0.000000
# 2 0.006213 0.009966 -0.005979 0.000000 0.003159 0.000000
# 3 -0.017292 -0.005979 0.022946 0.000000 -0.032221 0.000000
# 4 0.000000 0.000000 0.000000 0.037522 0.000000 -0.019340
# 5 0.018677 0.003159 -0.032221 0.000000 0.084548 0.000000
# 6 0.000000 0.000000 0.000000 -0.019340 0.000000 0.086875
#
#
# Mechanical properties :
#
#
# Convention : Reuss Voigt Hill
#
# Bulk Modulus (GPa) = 21.91559 51.24484 36.58022
# Shear Modulus (GPa) = 14.79217 29.37775 22.08496
#
# Velocity S-wave (km/s) = 2.53749 3.57601 3.10054
# Velocity P-wave (km/s) = 4.25732 6.27350 5.36104
#
# Compressibility (1/GPa) = 0.04562961
#
# Stress axis : x y z
#
# Youngs Moduli (GPa) = 21.35267 100.33855 43.57997
#
# Poissons Ratio (x) = -0.62342 0.75356
# Poissons Ratio (y) = -0.13267 0.26058
# Poissons Ratio (z) = 0.36922 0.59996
#
# Static dielectric constant tensor:
#      x y z
#    x 1.974230 0.000000 -0.154790 
#    y 0.000000 1.776600 0.000000 
#    z -0.154790 0.000000 2.097180 
# 
# From -- ./inp_files/16676.got.cif
#   From: 2010.05.17/outbox.cif.g08.bks.cpg/sg5_9_cif.got.tgz:16676.got - 2010.06.03 18:56:24.
