data_PCOD9120798
_publ_section_title
;
Structure prediction by ZEFSAII (Michael W. Deem and Ramdas Pophale) SiO2 
 PCOD9120798
Probable space group: C 2
;
_chemical_formula_sum "Si O2"
_cell_formula_units_Z 32
_cell_length_a 14.592005
_cell_length_b 13.189533
_cell_length_c 8.891099
_cell_angle_alpha 90.000000
_cell_angle_beta 76.864712
_cell_angle_gamma 90.000000
_cell_volume 1666.424893
_symmetry_space_group_name_H-M "C 2"
_symmetry_group_IT_number 5
_symmetry_cell_setting 'monoclinic'
loop_
_space_group_symop_operation_xyz
x,y,z
-x,y,-z
1/2+x,1/2+y,z
1/2-x,1/2+y,-z
loop_
_atom_site_type_symbol
_atom_site_label
_atom_site_fract_x
_atom_site_fract_y
_atom_site_fract_z
Si Si1 0.181244 0.955570 0.666919
Si Si2 0.722290 0.913669 0.665895
Si Si3 0.360441 0.949750 0.814686
Si Si4 0.233477 0.282187 0.939743
Si Si5 0.468680 0.817527 0.350685
Si Si6 0.595752 0.280610 0.891610
Si Si7 0.419675 0.640781 0.141590
Si Si8 0.399657 0.054212 0.074831
O O1 0.203527 0.952532 0.482275
O O2 0.280660 0.960486 0.718942
O O3 0.131495 0.853192 0.746301
O O4 0.120210 0.051860 0.739582
O O5 0.762315 0.834230 0.771738
O O6 0.637328 0.859452 0.607948
O O7 0.670340 0.998270 0.786336
O O8 0.458794 0.909509 0.710835
O O9 0.330760 0.861746 0.943408
O O10 0.359838 0.049859 0.919563
O O11 0.166905 0.188369 0.921423
O O12 0.322644 0.271217 0.013741
O O13 0.500000 0.774725 0.500000
O O14 0.465007 0.731924 0.223274
O O15 0.578040 0.162719 0.860814
O O16 0.500000 0.321909 0.000000
O O17 0.500000 0.601897 0.000000
O O18 0.500000 0.000769 0.000000
#
# Coordination Sequence:
#
# PCOD9120798 Si02
#       8
#     4   4   4   4   4   4   4   4
#     4  11  23  38  55  86 126 165 194 247 315 376
#     4  10  21  35  59  88 123 153 194 261 317 362
#     4  10  18  35  60  87 117 151 202 250 303 355
#     4   9  20  37  61  87 112 155 204 253 303 362
#     4  11  20  36  61  93 122 155 204 263 309 354
#     4  10  22  41  60  81 115 163 212 248 297 370
#     4  11  22  38  62  91 125 162 208 254 306 374
#     4  10  19  33  60  87 110 149 202 254 296 358
#
# _framework density 19.202784000000001
#
# number of rings (size 3 to 8) (size 9 to 14) (size 15 to 20)
#    0.000    1.750    3.750    1.125    0.000    2.000 
#    0.000    4.375    0.000    0.000    0.000    0.000 
#    0.000    0.000    0.000    0.000    0.000    0.000 
#
# Total GULP energy -89177.538008 kJ/mol
# GULP energy per Si atom -5573.596126 kJ/mol
# Density = 1.915908 g / cm^3
# Si number density = 19.202784 Si / 1000 Ang^3
#
#
#
# Elastic Constant Matrix: (Units=GPa)
#
#
# Indices 1 2 3 4 5 6 
#
# 1 39.0279 -0.4358 23.7474 0.0000 -8.6196 0.0000
# 2 -0.4358 53.3966 20.1399 0.0000 -18.3457 0.0000
# 3 23.7474 20.1399 113.1006 0.0000 -19.8509 0.0000
# 4 0.0000 0.0000 0.0000 18.2712 0.0000 -12.5931
# 5 -8.6196 -18.3457 -19.8509 0.0000 27.8683 0.0000
# 6 0.0000 0.0000 0.0000 -12.5931 0.0000 17.8089
#
#
#
# Elastic Compliance Matrix: (Units=1/GPa)
#
#
# Indices 1 2 3 4 5 6 
#
# 1 0.031349 0.005660 -0.005982 0.000000 0.009161 0.000000
# 2 0.005660 0.025523 -0.002831 0.000000 0.016536 0.000000
# 3 -0.005982 -0.002831 0.011372 0.000000 0.004386 0.000000
# 4 0.000000 0.000000 0.000000 0.106766 0.000000 0.075497
# 5 0.009161 0.016536 0.004386 0.000000 0.052726 0.000000
# 6 0.000000 0.000000 0.000000 0.075497 0.000000 0.109537
#
#
# Mechanical properties :
#
#
# Convention : Reuss Voigt Hill
#
# Bulk Modulus (GPa) = 16.14553 32.49202 24.31878
# Shear Modulus (GPa) = 13.72774 23.59457 18.66115
#
# Velocity S-wave (km/s) = 2.67663 3.50909 3.12074
# Velocity P-wave (km/s) = 4.24012 5.77715 5.06725
#
# Compressibility (1/GPa) = 0.06193663
#
# Stress axis : x y z
#
# Youngs Moduli (GPa) = 31.89876 39.18039 87.93726
#
# Poissons Ratio (x) = -0.22175 0.52606
# Poissons Ratio (y) = -0.18053 0.24895
# Poissons Ratio (z) = 0.19083 0.11092
#
# Static dielectric constant tensor:
#      x y z
#    x 1.698320 0.000000 0.014630 
#    y 0.000000 1.707120 0.000000 
#    z 0.014630 0.000000 1.664650 
# 
# From -- ./inp_files/24622.got.cif
#   From: 2010.05.17/outbox.cif.g08.bks.cpg/sg5_13_cif.got.tgz:24622.got - 2010.06.03 18:56:24.
