data_PCOD9120124
_publ_section_title
;
Structure prediction by ZEFSAII (Michael W. Deem and Ramdas Pophale) SiO2 
 PCOD9120124
Probable space group: C 2
;
_chemical_formula_sum "Si O2"
_cell_formula_units_Z 26
_cell_length_a 11.464106
_cell_length_b 13.796239
_cell_length_c 10.954326
_cell_angle_alpha 90.000000
_cell_angle_beta 139.697588
_cell_angle_gamma 90.000000
_cell_volume 1120.653288
_symmetry_space_group_name_H-M "C 2"
_symmetry_group_IT_number 5
_symmetry_cell_setting 'monoclinic'
loop_
_space_group_symop_operation_xyz
x,y,z
-x,y,-z
1/2+x,1/2+y,z
1/2-x,1/2+y,-z
loop_
_atom_site_type_symbol
_atom_site_label
_atom_site_fract_x
_atom_site_fract_y
_atom_site_fract_z
Si Si1 0.000000 0.427270 0.500000
Si Si2 0.498917 0.574120 0.854570
Si Si3 0.202664 0.229068 0.920551
Si Si4 0.616357 0.289522 0.703591
Si Si5 0.636006 0.959156 0.860177
Si Si6 0.000000 0.750116 0.000000
Si Si7 0.500000 0.906589 0.000000
Si Si8 0.846715 0.883741 0.666527
O O1 0.922794 0.486762 0.323301
O O2 0.858266 0.360420 0.462130
O O3 0.679777 0.514445 0.967464
O O4 0.500000 0.590687 0.000000
O O5 0.517683 0.673517 0.797108
O O6 0.348937 0.498869 0.693237
O O7 0.171758 0.343247 0.880116
O O8 0.325437 0.193501 0.907103
O O9 0.321196 0.216886 0.139298
O O10 0.500000 0.245278 0.500000
O O11 0.810241 0.344545 0.834900
O O12 0.460385 0.359705 0.636917
O O13 0.515303 0.965925 0.885422
O O14 0.949424 0.822757 0.851246
#
# Coordination Sequence:
#
# PCOD9120124 Si02
#       8
#     2   4   4   4   4   2   2   4
#     4  12  20  36  74  94 122 180 230 276 330 394
#     4  12  21  41  66  89 128 173 217 273 325 402
#     4  10  22  36  68  92 124 174 212 265 336 395
#     4  10  21  40  63  96 134 168 214 277 330 397
#     4  11  22  40  65  96 128 170 221 271 331 398
#     4  10  16  43  63  90 118 160 220 259 319 402
#     4  10  20  37  65  96 132 176 214 257 347 390
#     4  11  19  38  68  91 123 169 221 269 329 386
#
# _framework density 23.200752999999999
#
# number of rings (size 3 to 8) (size 9 to 14) (size 15 to 20)
#    0.000    1.231    8.462    0.923    4.308    0.615 
#    1.385    0.000    5.077    0.000    0.000    0.000 
#    0.000    0.000    0.000    0.000    0.000    0.000 
#
# Total GULP energy -72383.799161 kJ/mol
# GULP energy per Si atom -5567.984551 kJ/mol
# Density = 2.314795 g / cm^3
# Si number density = 23.200753 Si / 1000 Ang^3
#
#
#
# Elastic Constant Matrix: (Units=GPa)
#
#
# Indices 1 2 3 4 5 6 
#
# 1 158.9583 23.6901 3.5077 0.0000 11.2027 0.0000
# 2 23.6901 58.4142 -8.9469 0.0000 5.2391 0.0000
# 3 3.5077 -8.9469 78.6041 0.0000 -5.6470 0.0000
# 4 0.0000 0.0000 0.0000 10.7639 0.0000 3.8432
# 5 11.2027 5.2391 -5.6470 0.0000 41.1816 0.0000
# 6 0.0000 0.0000 0.0000 3.8432 0.0000 21.9570
#
#
#
# Elastic Compliance Matrix: (Units=1/GPa)
#
#
# Indices 1 2 3 4 5 6 
#
# 1 0.006828 -0.002737 -0.000732 0.000000 -0.001610 0.000000
# 2 -0.002737 0.018679 0.002152 0.000000 -0.001337 0.000000
# 3 -0.000732 0.002152 0.013124 0.000000 0.001725 0.000000
# 4 0.000000 0.000000 0.000000 0.099096 0.000000 -0.017345
# 5 -0.001610 -0.001337 0.001725 0.000000 0.025127 0.000000
# 6 0.000000 0.000000 0.000000 -0.017345 0.000000 0.048580
#
#
# Mechanical properties :
#
#
# Convention : Reuss Voigt Hill
#
# Bulk Modulus (GPa) = 27.78003 36.94203 32.36103
# Shear Modulus (GPa) = 22.11740 33.29554 27.70647
#
# Velocity S-wave (km/s) = 3.09091 3.79239 3.45948
# Velocity P-wave (km/s) = 4.97374 5.92736 5.47137
#
# Compressibility (1/GPa) = 0.03599708
#
# Stress axis : x y z
#
# Youngs Moduli (GPa) = 146.44582 53.53708 76.19909
#
# Poissons Ratio (x) = 0.14653 0.05577
# Poissons Ratio (y) = 0.40083 -0.16399
# Poissons Ratio (z) = 0.10718 -0.11522
#
# Static dielectric constant tensor:
#      x y z
#    x 2.020070 0.000000 0.072130 
#    y 0.000000 1.897590 0.000000 
#    z 0.072130 0.000000 1.991430 
# 
# From -- ./inp_files/40402.got.cif
#   From: 2010.05.17/outbox.cif.g08.bks.cpg/sg5_21_cif.got.tgz:40402.got - 2010.06.03 18:56:24.
