data_PCOD9120810
_publ_section_title
;
Structure prediction by ZEFSAII (Michael W. Deem and Ramdas Pophale) SiO2 
 PCOD9120810
Probable space group: C 2
;
_chemical_formula_sum "Si O2"
_cell_formula_units_Z 26
_cell_length_a 11.314822
_cell_length_b 18.835869
_cell_length_c 6.255992
_cell_angle_alpha 90.000000
_cell_angle_beta 119.387324
_cell_angle_gamma 90.000000
_cell_volume 1161.738680
_symmetry_space_group_name_H-M "C 2"
_symmetry_group_IT_number 5
_symmetry_cell_setting 'monoclinic'
loop_
_space_group_symop_operation_xyz
x,y,z
-x,y,-z
1/2+x,1/2+y,z
1/2-x,1/2+y,-z
loop_
_atom_site_type_symbol
_atom_site_label
_atom_site_fract_x
_atom_site_fract_y
_atom_site_fract_z
Si Si1 0.153629 0.860130 0.637969
Si Si2 0.736065 0.218670 0.506552
Si Si3 0.500000 0.974727 0.000000
Si Si4 0.000000 0.659260 0.000000
Si Si5 0.280366 0.974733 0.475461
Si Si6 0.654728 0.868574 0.826619
Si Si7 0.852070 0.599994 0.264458
Si Si8 0.000000 0.241672 0.500000
O O1 0.237448 0.799653 0.587243
O O2 0.170062 0.935470 0.528062
O O3 0.000000 0.836916 0.500000
O O4 0.202703 0.860143 0.926796
O O5 0.714840 0.169530 0.694020
O O6 0.877087 0.201905 0.510139
O O7 0.603778 0.204064 0.240373
O O8 0.388198 0.006387 0.740137
O O9 0.581809 0.922640 0.919007
O O10 0.103632 0.614311 0.939986
O O11 0.338417 0.908864 0.391321
O O12 0.261942 0.034407 0.274705
O O13 0.578287 0.794554 0.732054
O O14 0.000000 0.589425 0.500000
#
# Coordination Sequence:
#
# PCOD9120810 Si02
#       8
#     4   4   2   2   4   4   4   2
#     4  11  25  42  68  98 141 184 230 283 348 412
#     4  11  25  42  67 103 137 179 234 286 349 409
#     4  10  18  35  62 100 134 163 212 286 338 397
#     4  10  24  47  70  94 134 187 234 290 346 417
#     4  11  22  39  65 101 133 177 231 284 340 406
#     4  11  21  38  64  98 133 170 225 280 342 400
#     4  10  23  42  67  99 134 178 237 281 347 413
#     4  12  22  42  66 104 136 176 226 292 350 402
#
# _framework density 22.380248999999999
#
# number of rings (size 3 to 8) (size 9 to 14) (size 15 to 20)
#    0.000    1.231    3.077    3.231    4.308    8.615 
#    1.385    0.000    3.385    0.000    0.000    0.000 
#    0.000    0.000    0.000    0.000    0.000    0.000 
#
# Total GULP energy -72493.790551 kJ/mol
# GULP energy per Si atom -5576.445427 kJ/mol
# Density = 2.232931 g / cm^3
# Si number density = 22.380249 Si / 1000 Ang^3
#
#
#
# Elastic Constant Matrix: (Units=GPa)
#
#
# Indices 1 2 3 4 5 6 
#
# 1 103.3888 22.2033 28.1936 0.0000 -19.0484 0.0000
# 2 22.2033 86.3154 17.0231 0.0000 -22.7330 0.0000
# 3 28.1936 17.0231 104.4171 0.0000 -14.0082 0.0000
# 4 0.0000 0.0000 0.0000 30.1027 0.0000 -14.8627
# 5 -19.0484 -22.7330 -14.0082 0.0000 35.9113 0.0000
# 6 0.0000 0.0000 0.0000 -14.8627 0.0000 36.9188
#
#
#
# Elastic Compliance Matrix: (Units=1/GPa)
#
#
# Indices 1 2 3 4 5 6 
#
# 1 0.011373 -0.001346 -0.002275 0.000000 0.004293 0.000000
# 2 -0.001346 0.014194 -0.000887 0.000000 0.007925 0.000000
# 3 -0.002275 -0.000887 0.010656 0.000000 0.002388 0.000000
# 4 0.000000 0.000000 0.000000 0.041461 0.000000 0.016691
# 5 0.004293 0.007925 0.002388 0.000000 0.036072 0.000000
# 6 0.000000 0.000000 0.000000 0.016691 0.000000 0.033806
#
#
# Mechanical properties :
#
#
# Convention : Reuss Voigt Hill
#
# Bulk Modulus (GPa) = 36.75761 47.66235 42.20998
# Shear Modulus (GPa) = 30.18460 35.69999 32.94229
#
# Velocity S-wave (km/s) = 3.67647 3.99827 3.84074
# Velocity P-wave (km/s) = 5.87211 6.53129 6.21045
#
# Compressibility (1/GPa) = 0.02720525
#
# Stress axis : x y z
#
# Youngs Moduli (GPa) = 87.92995 70.45276 93.84023
#
# Poissons Ratio (x) = 0.09484 0.21352
# Poissons Ratio (y) = 0.11837 0.08327
# Poissons Ratio (z) = 0.20007 0.06252
#
# Static dielectric constant tensor:
#      x y z
#    x 1.819140 0.000000 -0.014440 
#    y 0.000000 1.900440 0.000000 
#    z -0.014440 0.000000 1.911230 
# 
# From -- ./inp_files/5602.got.cif
#   From: 2010.05.17/outbox.cif.g08.bks.cpg/sg5_3_cif.got.tgz:5602.got - 2010.06.03 18:56:24.
