data_PCOD9120262
_publ_section_title
;
Structure prediction by ZEFSAII (Michael W. Deem and Ramdas Pophale) SiO2 
 PCOD9120262
Probable space group: C 2
;
_chemical_formula_sum "Si O2"
_cell_formula_units_Z 28
_cell_length_a 7.745991
_cell_length_b 18.374274
_cell_length_c 7.663375
_cell_angle_alpha 90.000000
_cell_angle_beta 81.093385
_cell_angle_gamma 90.000000
_cell_volume 1077.553153
_symmetry_space_group_name_H-M "C 2"
_symmetry_group_IT_number 5
_symmetry_cell_setting 'monoclinic'
loop_
_space_group_symop_operation_xyz
x,y,z
-x,y,-z
1/2+x,1/2+y,z
1/2-x,1/2+y,-z
loop_
_atom_site_type_symbol
_atom_site_label
_atom_site_fract_x
_atom_site_fract_y
_atom_site_fract_z
Si Si1 0.334443 0.179930 0.746711
Si Si2 0.298420 0.967322 0.001521
Si Si3 0.797717 0.551988 0.490427
Si Si4 0.305255 0.903350 0.608392
Si Si5 0.221151 0.110987 0.126884
Si Si6 0.203492 0.751434 0.748572
Si Si7 0.298452 0.816401 0.089289
O O1 0.258524 0.119938 0.625230
O O2 0.229857 0.255451 0.762355
O O3 0.317285 0.144608 0.942204
O O4 0.464426 0.206929 0.295220
O O5 0.305764 0.932028 0.808654
O O6 0.500000 0.992576 0.000000
O O7 0.254723 0.899777 0.135597
O O8 0.169087 0.034562 0.044018
O O9 0.712373 0.473140 0.533481
O O10 0.788020 0.574169 0.293091
O O11 0.000000 0.539952 0.500000
O O12 0.500000 0.895354 0.500000
O O13 0.234115 0.821098 0.622544
O O14 0.154501 0.187490 0.225200
O O15 0.186570 0.789651 0.940736
O O16 0.500000 0.816863 0.000000
#
# Coordination Sequence:
#
# PCOD9120262 Si02
#       7
#     4   4   4   4   4   4   4
#     4  11  21  41  68  91 133 166 217 282 315 397
#     4  10  17  33  57  89 120 162 215 262 318 371
#     4  11  21  35  61  98 119 172 227 261 321 391
#     4  10  21  37  59  91 131 169 217 270 324 389
#     4  11  20  36  63  92 125 160 220 271 314 379
#     4  10  21  37  63  93 127 168 213 275 336 370
#     4   9  20  36  62  95 128 173 220 258 336 396
#
# _framework density 25.984795999999999
#
# number of rings (size 3 to 8) (size 9 to 14) (size 15 to 20)
#    0.000    1.714    2.857    4.286    0.000    0.000 
#   10.286    0.000    6.286    0.000    0.000    0.000 
#    0.000    0.000    0.000    0.000    0.000    0.000 
#
# Total GULP energy -77938.920893 kJ/mol
# GULP energy per Si atom -5567.065778 kJ/mol
# Density = 2.592565 g / cm^3
# Si number density = 25.984796 Si / 1000 Ang^3
#
#
#
# Elastic Constant Matrix: (Units=GPa)
#
#
# Indices 1 2 3 4 5 6 
#
# 1 59.7064 41.6977 24.4775 0.0000 6.3957 0.0000
# 2 41.6977 301.0085 67.0174 0.0000 -21.0984 0.0000
# 3 24.4775 67.0174 136.1761 0.0000 20.4529 0.0000
# 4 0.0000 0.0000 0.0000 151.5032 0.0000 -12.4903
# 5 6.3957 -21.0984 20.4529 0.0000 11.7197 0.0000
# 6 0.0000 0.0000 0.0000 -12.4903 0.0000 6.9452
#
#
#
# Elastic Compliance Matrix: (Units=1/GPa)
#
#
# Indices 1 2 3 4 5 6 
#
# 1 0.022494 -0.005699 0.002908 0.000000 -0.027609 0.000000
# 2 -0.005699 0.007865 -0.007373 0.000000 0.030137 0.000000
# 3 0.002908 -0.007373 0.017186 0.000000 -0.044852 0.000000
# 4 0.000000 0.000000 0.000000 0.007749 0.000000 0.013937
# 5 -0.027609 0.030137 -0.044852 0.000000 0.232922 0.000000
# 6 0.000000 0.000000 0.000000 0.013937 0.000000 0.169047
#
#
# Mechanical properties :
#
#
# Convention : Reuss Voigt Hill
#
# Bulk Modulus (GPa) = 36.74043 84.80844 60.77444
# Shear Modulus (GPa) = 10.27404 58.28020 34.27712
#
# Velocity S-wave (km/s) = 1.99059 4.74102 3.63591
# Velocity P-wave (km/s) = 4.41057 7.91696 6.40825
#
# Compressibility (1/GPa) = 0.02721797
#
# Stress axis : x y z
#
# Youngs Moduli (GPa) = 44.45690 127.13806 58.18752
#
# Poissons Ratio (x) = 0.72451 -0.16921
# Poissons Ratio (y) = 0.25334 0.42901
# Poissons Ratio (z) = -0.12928 0.93738
#
# Static dielectric constant tensor:
#      x y z
#    x 2.120860 0.000000 0.006880 
#    y 0.000000 2.141340 0.000000 
#    z 0.006880 0.000000 2.022580 
# 
# From -- ./inp_files/24873.got.cif
#   From: 2010.05.17/outbox.cif.g08.bks.cpg/sg5_13_cif.got.tgz:24873.got - 2010.06.03 18:56:24.
