data_PCOD9120021
_publ_section_title
;
Structure prediction by ZEFSAII (Michael W. Deem and Ramdas Pophale) SiO2 
 PCOD9120021
Probable space group: C 2
;
_chemical_formula_sum "Si O2"
_cell_formula_units_Z 26
_cell_length_a 15.085269
_cell_length_b 20.907203
_cell_length_c 5.312931
_cell_angle_alpha 90.000000
_cell_angle_beta 60.283516
_cell_angle_gamma 90.000000
_cell_volume 1455.283014
_symmetry_space_group_name_H-M "C 2"
_symmetry_group_IT_number 5
_symmetry_cell_setting 'monoclinic'
loop_
_space_group_symop_operation_xyz
x,y,z
-x,y,-z
1/2+x,1/2+y,z
1/2-x,1/2+y,-z
loop_
_atom_site_type_symbol
_atom_site_label
_atom_site_fract_x
_atom_site_fract_y
_atom_site_fract_z
Si Si1 0.817064 0.741200 0.769862
Si Si2 0.377884 0.388702 0.658468
Si Si3 0.000000 0.103306 0.500000
Si Si4 0.375774 0.465035 0.159769
Si Si5 0.381335 0.163624 0.174663
Si Si6 0.688987 0.586499 0.519717
Si Si7 0.099341 0.199338 0.960450
O O1 0.845731 0.815022 0.710406
O O2 0.859363 0.701940 0.467254
O O3 0.693982 0.736096 0.942329
O O4 0.858347 0.709165 0.967736
O O5 0.500000 0.389143 0.500000
O O6 0.346410 0.422969 0.444511
O O7 0.345664 0.427471 0.951235
O O8 0.903123 0.064145 0.534544
O O9 0.947448 0.148697 0.778905
O O10 0.318180 0.532832 0.257502
O O11 0.500000 0.474665 0.000000
O O12 0.301573 0.104184 0.269054
O O13 0.500000 0.144871 0.000000
O O14 0.647936 0.654984 0.674850
O O15 0.000000 0.236619 0.000000
#
# Coordination Sequence:
#
# PCOD9120021 Si02
#       7
#     4   4   2   4   4   4   4
#     4  11  21  38  56  82 113 149 187 227 275 332
#     4  10  21  34  52  77 109 147 181 220 269 324
#     4  10  16  32  52  80 110 138 176 224 286 336
#     4  10  21  34  52  78 110 141 179 225 275 329
#     4  11  22  36  58  84 112 149 185 227 279 332
#     4  10  21  32  54  83 112 143 180 229 286 329
#     4   9  19  32  53  84 110 141 178 234 284 331
#
# _framework density 17.865940999999999
#
# number of rings (size 3 to 8) (size 9 to 14) (size 15 to 20)
#    0.000    1.846    1.538    3.692    5.385    1.231 
#    0.000    0.000    0.000    0.923    0.000    0.000 
#    0.000    0.000    0.000    0.000    0.000    0.000 
#
# Total GULP energy -72465.350196 kJ/mol
# GULP energy per Si atom -5574.257707 kJ/mol
# Density = 1.782528 g / cm^3
# Si number density = 17.865941 Si / 1000 Ang^3
#
#
#
# Elastic Constant Matrix: (Units=GPa)
#
#
# Indices 1 2 3 4 5 6 
#
# 1 97.1799 24.1808 50.1407 0.0000 -11.0907 0.0000
# 2 24.1808 68.0029 28.8370 0.0000 -1.1940 0.0000
# 3 50.1407 28.8370 90.8791 0.0000 0.3777 0.0000
# 4 0.0000 0.0000 0.0000 28.7256 0.0000 -0.0289
# 5 -11.0907 -1.1940 0.3777 0.0000 29.1064 0.0000
# 6 0.0000 0.0000 0.0000 -0.0289 0.0000 10.5240
#
#
#
# Elastic Compliance Matrix: (Units=1/GPa)
#
#
# Indices 1 2 3 4 5 6 
#
# 1 0.015599 -0.002059 -0.007978 0.000000 0.005963 0.000000
# 2 -0.002059 0.017281 -0.004347 0.000000 -0.000019 0.000000
# 3 -0.007978 -0.004347 0.016799 0.000000 -0.003436 0.000000
# 4 0.000000 0.000000 0.000000 0.034812 0.000000 0.000096
# 5 0.005963 -0.000019 -0.003436 0.000000 0.036673 0.000000
# 6 0.000000 0.000000 0.000000 0.000096 0.000000 0.095021
#
#
# Mechanical properties :
#
#
# Convention : Reuss Voigt Hill
#
# Bulk Modulus (GPa) = 47.82320 51.37543 49.59931
# Shear Modulus (GPa) = 19.84726 23.86476 21.85601
#
# Velocity S-wave (km/s) = 3.33663 3.65878 3.50141
# Velocity P-wave (km/s) = 6.45523 6.83136 6.64596
#
# Compressibility (1/GPa) = 0.02091036
#
# Stress axis : x y z
#
# Youngs Moduli (GPa) = 64.10483 57.86862 59.52709
#
# Poissons Ratio (x) = 0.11916 0.47491
# Poissons Ratio (y) = 0.13200 0.25878
# Poissons Ratio (z) = 0.51143 0.25157
#
# Static dielectric constant tensor:
#      x y z
#    x 1.681870 0.000000 0.038110 
#    y 0.000000 1.586830 0.000000 
#    z 0.038110 0.000000 1.664430 
# 
# From -- ./inp_files/7162.got.cif
#   From: 2010.05.17/outbox.cif.g08.bks.cpg/sg5_4_cif.got.tgz:7162.got - 2010.06.03 18:56:24.
