data_PCOD9120815
_publ_section_title
;
Structure prediction by ZEFSAII (Michael W. Deem and Ramdas Pophale) SiO2 
 PCOD9120815
Probable space group: C 2
;
_chemical_formula_sum "Si O2"
_cell_formula_units_Z 32
_cell_length_a 23.142760
_cell_length_b 7.481358
_cell_length_c 26.451397
_cell_angle_alpha 90.000000
_cell_angle_beta 162.210381
_cell_angle_gamma 90.000000
_cell_volume 1399.225833
_symmetry_space_group_name_H-M "C 2"
_symmetry_group_IT_number 5
_symmetry_cell_setting 'monoclinic'
loop_
_space_group_symop_operation_xyz
x,y,z
-x,y,-z
1/2+x,1/2+y,z
1/2-x,1/2+y,-z
loop_
_atom_site_type_symbol
_atom_site_label
_atom_site_fract_x
_atom_site_fract_y
_atom_site_fract_z
Si Si1 0.949358 0.837060 0.405228
Si Si2 0.615958 0.088015 0.165143
Si Si3 0.869812 0.133503 0.042258
Si Si4 0.948824 0.267954 0.306524
Si Si5 0.755527 0.605005 0.620052
Si Si6 0.544867 0.455355 0.986190
Si Si7 0.969660 0.394173 0.213518
Si Si8 0.731391 0.379334 0.843606
O O1 0.805394 0.993570 0.303952
O O2 0.849487 0.766421 0.271146
O O3 0.000000 0.736123 0.500000
O O4 0.134712 0.933987 0.538235
O O5 0.614338 0.134882 0.223168
O O6 0.442146 0.955734 0.009804
O O7 0.588374 0.282236 0.119160
O O8 0.735517 0.268977 0.898612
O O9 0.993726 0.057817 0.098607
O O10 0.741021 0.977269 0.958100
O O11 0.969291 0.242869 0.169699
O O12 0.759536 0.380564 0.160335
O O13 0.019850 0.325929 0.310828
O O14 0.888382 0.060243 0.251819
O O15 0.112423 0.262049 0.485016
O O16 0.886018 0.547410 0.682800
O O17 0.500000 0.561815 0.000000
#
# Coordination Sequence:
#
# PCOD9120815 Si02
#       8
#     4   4   4   4   4   4   4   4
#     4   9  19  33  57  91 121 158 196 250 298 384
#     4  10  18  35  62  92 118 161 205 248 307 372
#     4  11  24  38  63  91 120 162 212 271 300 361
#     4   9  21  39  62  88 125 163 201 253 312 379
#     4  10  20  35  59  90 118 153 206 248 306 371
#     4  10  21  39  62  93 124 156 205 254 312 371
#     4  11  23  41  60  90 125 160 219 257 314 368
#     4  10  18  36  61  90 115 161 211 248 310 358
#
# _framework density 22.869790999999999
#
# number of rings (size 3 to 8) (size 9 to 14) (size 15 to 20)
#    0.000    2.000    1.250    3.375    3.500    3.000 
#    2.250    0.000    0.000    0.000    6.500    0.000 
#    0.000    0.000    0.000    0.000    0.000    0.000 
#
# Total GULP energy -89297.740364 kJ/mol
# GULP energy per Si atom -5581.108773 kJ/mol
# Density = 2.281774 g / cm^3
# Si number density = 22.869791 Si / 1000 Ang^3
#
#
#
# Elastic Constant Matrix: (Units=GPa)
#
#
# Indices 1 2 3 4 5 6 
#
# 1 124.7049 -3.5029 12.2815 0.0105 -12.2446 0.0018
# 2 -3.5029 34.1933 -17.7135 0.0236 -2.3977 0.0064
# 3 12.2815 -17.7135 41.8769 0.0556 -20.4723 0.0180
# 4 0.0105 0.0236 0.0556 11.8163 0.0103 -5.1476
# 5 -12.2446 -2.3977 -20.4723 0.0103 40.1059 -0.0009
# 6 0.0018 0.0064 0.0180 -5.1476 -0.0009 30.5603
#
#
#
# Elastic Compliance Matrix: (Units=1/GPa)
#
#
# Indices 1 2 3 4 5 6 
#
# 1 0.008348 0.000222 -0.001469 -0.000003 0.001812 0.000000
# 2 0.000222 0.044179 0.026580 -0.000257 0.016277 -0.000068
# 3 -0.001469 0.026580 0.048120 -0.000340 0.025704 -0.000090
# 4 -0.000003 -0.000257 -0.000340 0.091333 -0.000213 0.015384
# 5 0.001812 0.016277 0.025704 -0.000213 0.039581 -0.000053
# 6 0.000000 -0.000068 -0.000090 0.015384 -0.000053 0.035314
#
#
# Mechanical properties :
#
#
# Convention : Reuss Voigt Hill
#
# Bulk Modulus (GPa) = 6.60884 20.32281 13.46582
# Shear Modulus (GPa) = 18.75145 30.47717 24.61431
#
# Velocity S-wave (km/s) = 2.86654 3.65449 3.28423
# Velocity P-wave (km/s) = 3.72184 5.16843 4.50360
#
# Compressibility (1/GPa) = 0.15131250
#
# Stress axis : x y z
#
# Youngs Moduli (GPa) = 119.79316 22.63506 20.78158
#
# Poissons Ratio (x) = -0.00501 0.03052
# Poissons Ratio (y) = -0.02653 -0.55238
# Poissons Ratio (z) = 0.17592 -0.60164
#
# Static dielectric constant tensor:
#      x y z
#    x 1.882300 0.000000 -0.065420 
#    y 0.000000 1.869820 -0.000010 
#    z -0.065420 -0.000010 1.903520 
# 
# From -- ./inp_files/71226.got.cif
#   From: 2010.05.17/outbox.cif.g08.bks.cpg/sg5_36_cif.got.tgz:71226.got - 2010.06.03 18:56:24.
