data_PCOD9120025
_publ_section_title
;
Structure prediction by ZEFSAII (Michael W. Deem and Ramdas Pophale) SiO2 
 PCOD9120025
Probable space group: C 2
;
_chemical_formula_sum "Si O2"
_cell_formula_units_Z 28
_cell_length_a 7.940723
_cell_length_b 33.054034
_cell_length_c 5.474901
_cell_angle_alpha 90.000000
_cell_angle_beta 123.153286
_cell_angle_gamma 90.000000
_cell_volume 1203.082578
_symmetry_space_group_name_H-M "C 2"
_symmetry_group_IT_number 5
_symmetry_cell_setting 'monoclinic'
loop_
_space_group_symop_operation_xyz
x,y,z
-x,y,-z
1/2+x,1/2+y,z
1/2-x,1/2+y,-z
loop_
_atom_site_type_symbol
_atom_site_label
_atom_site_fract_x
_atom_site_fract_y
_atom_site_fract_z
Si Si1 0.748635 0.052460 0.958395
Si Si2 0.253078 0.679491 0.557499
Si Si3 0.130923 0.266857 0.353335
Si Si4 0.714971 0.646612 0.917772
Si Si5 0.125638 0.937456 0.354567
Si Si6 0.709694 0.020454 0.430911
Si Si7 0.629958 0.856901 0.354045
O O1 0.820579 0.042642 0.741796
O O2 0.509105 0.041432 0.753940
O O3 0.792408 0.098690 0.055034
O O4 0.803723 0.026024 0.238118
O O5 0.230385 0.727587 0.518734
O O6 0.493461 0.667389 0.745829
O O7 0.188435 0.656689 0.263899
O O8 0.181056 0.664907 0.762278
O O9 0.222997 0.311806 0.406909
O O10 0.000000 0.265847 0.500000
O O11 0.000000 0.261810 0.000000
O O12 0.220256 0.893566 0.477301
O O13 0.000000 0.945183 0.500000
O O14 0.289845 0.973505 0.490292
O O15 0.000000 0.938866 0.000000
O O16 0.500000 0.855803 0.500000
O O17 0.500000 0.863517 0.000000
#
# Coordination Sequence:
#
# PCOD9120025 Si02
#       7
#     4   4   4   4   4   4   4
#     4  10  21  39  60  85 113 166 208 261 314 375
#     4  10  17  30  50  85 129 157 194 256 300 360
#     4  10  16  32  54  90 124 157 205 253 299 368
#     4  10  18  30  50  81 116 164 197 250 305 353
#     4  12  26  46  66  97 130 169 215 268 335 391
#     4  10  23  41  62  82 118 162 208 264 316 380
#     4  10  23  38  70 102 128 167 215 264 321 393
#
# _framework density 23.273544999999999
#
# number of rings (size 3 to 8) (size 9 to 14) (size 15 to 20)
#    0.000    1.714    2.857    2.571    4.000    0.000 
#   15.429    0.000    0.000    0.000   22.286    0.000 
#    0.000    0.000    0.000    0.000    0.000    0.000 
#
# Total GULP energy -78187.704300 kJ/mol
# GULP energy per Si atom -5584.836021 kJ/mol
# Density = 2.322057 g / cm^3
# Si number density = 23.273545 Si / 1000 Ang^3
#
#
#
# Elastic Constant Matrix: (Units=GPa)
#
#
# Indices 1 2 3 4 5 6 
#
# 1 76.7066 11.6222 44.6836 0.0000 -32.4165 0.0000
# 2 11.6222 197.8677 42.5807 0.0000 -10.9690 0.0000
# 3 44.6836 42.5807 197.1577 0.0000 -46.1203 0.0000
# 4 0.0000 0.0000 0.0000 151.7047 0.0000 3.0163
# 5 -32.4165 -10.9690 -46.1203 0.0000 58.4054 0.0000
# 6 0.0000 0.0000 0.0000 3.0163 0.0000 2.6279
#
#
#
# Elastic Compliance Matrix: (Units=1/GPa)
#
#
# Indices 1 2 3 4 5 6 
#
# 1 0.017719 -0.000142 -0.002074 0.000000 0.008170 0.000000
# 2 -0.000142 0.005302 -0.001102 0.000000 0.000047 0.000000
# 3 -0.002074 -0.001102 0.006700 0.000000 0.003933 0.000000
# 4 0.000000 0.000000 0.000000 0.006746 0.000000 -0.007743
# 5 0.008170 0.000047 0.003933 0.000000 0.024771 0.000000
# 6 0.000000 0.000000 0.000000 -0.007743 0.000000 0.389424
#
#
# Mechanical properties :
#
#
# Convention : Reuss Voigt Hill
#
# Bulk Modulus (GPa) = 43.31643 74.38946 58.85294
# Shear Modulus (GPa) = 10.75288 67.40397 39.07842
#
# Velocity S-wave (km/s) = 2.15180 5.38744 4.10212
# Velocity P-wave (km/s) = 4.98256 8.41022 6.91223
#
# Compressibility (1/GPa) = 0.02308593
#
# Stress axis : x y z
#
# Youngs Moduli (GPa) = 56.43645 188.60985 149.25153
#
# Poissons Ratio (x) = 0.02669 0.30956
# Poissons Ratio (y) = 0.00799 0.16448
# Poissons Ratio (z) = 0.11705 0.20785
#
# Static dielectric constant tensor:
#      x y z
#    x 1.880230 0.000000 0.018400 
#    y 0.000000 1.829300 0.000000 
#    z 0.018400 0.000000 1.853650 
# 
# From -- ./inp_files/3996.got.cif
#   From: 2010.05.17/outbox.cif.g08.bks.cpg/sg5_2_cif.got.tgz:3996.got - 2010.06.03 18:56:24.
