data_PCOD9120479
_publ_section_title
;
Structure prediction by ZEFSAII (Michael W. Deem and Ramdas Pophale) SiO2 
 PCOD9120479
Probable space group: C 2
;
_chemical_formula_sum "Si O2"
_cell_formula_units_Z 28
_cell_length_a 9.433210
_cell_length_b 17.068458
_cell_length_c 13.648239
_cell_angle_alpha 90.000000
_cell_angle_beta 42.383942
_cell_angle_gamma 90.000000
_cell_volume 1481.329841
_symmetry_space_group_name_H-M "C 2"
_symmetry_group_IT_number 5
_symmetry_cell_setting 'monoclinic'
loop_
_space_group_symop_operation_xyz
x,y,z
-x,y,-z
1/2+x,1/2+y,z
1/2-x,1/2+y,-z
loop_
_atom_site_type_symbol
_atom_site_label
_atom_site_fract_x
_atom_site_fract_y
_atom_site_fract_z
Si Si1 0.680900 0.058230 0.481781
Si Si2 0.380165 0.635217 0.785006
Si Si3 0.401443 0.268153 0.157412
Si Si4 0.817841 0.200602 0.029772
Si Si5 0.306264 0.973768 0.042634
Si Si6 0.151120 0.537234 0.192677
Si Si7 0.339177 0.428734 0.264479
O O1 0.500000 0.089867 0.500000
O O2 0.572693 0.051497 0.641826
O O3 0.892460 0.108659 0.369338
O O4 0.736843 0.971995 0.409706
O O5 0.246478 0.693038 0.785064
O O6 0.248789 0.556379 0.875615
O O7 0.401893 0.678062 0.878887
O O8 0.599720 0.245055 0.123079
O O9 0.277495 0.341515 0.265673
O O10 0.500000 0.289483 0.000000
O O11 0.760186 0.119735 0.114430
O O12 0.000000 0.240443 0.000000
O O13 0.500000 0.936480 0.000000
O O14 0.365816 0.992427 0.900703
O O15 0.088963 0.927546 0.152438
O O16 0.286555 0.487241 0.201319
#
# Coordination Sequence:
#
# PCOD9120479 Si02
#       7
#     4   4   4   4   4   4   4
#     4   9  18  33  55  79 104 141 186 221 257 316
#     4   9  18  33  52  76 108 141 176 222 266 313
#     4  10  20  34  53  82 112 138 174 223 273 316
#     4  10  18  31  54  80 106 137 179 223 264 313
#     4  10  18  31  53  80 107 137 178 224 264 309
#     4  10  18  33  55  77 103 141 184 219 258 319
#     4  10  20  35  55  78 107 143 180 216 263 322
#
# _framework density 18.901934000000001
#
# number of rings (size 3 to 8) (size 9 to 14) (size 15 to 20)
#    0.000    2.286    0.000    6.857    0.000    0.571 
#    0.000   10.714    0.000    0.000    0.000    0.000 
#    0.000    0.000    0.000    0.000    0.000    0.000 
#
# Total GULP energy -78133.277045 kJ/mol
# GULP energy per Si atom -5580.948360 kJ/mol
# Density = 1.885891 g / cm^3
# Si number density = 18.901934 Si / 1000 Ang^3
#
#
#
# Elastic Constant Matrix: (Units=GPa)
#
#
# Indices 1 2 3 4 5 6 
#
# 1 87.7777 26.0318 29.6513 -0.0002 -22.7079 0.0000
# 2 26.0318 77.7024 12.9118 0.0001 -5.3325 -0.0001
# 3 29.6513 12.9118 111.3830 0.0003 -12.9731 0.0001
# 4 -0.0002 0.0001 0.0003 12.0785 0.0000 -1.2640
# 5 -22.7079 -5.3325 -12.9731 0.0000 23.3334 -0.0002
# 6 0.0000 -0.0001 0.0001 -1.2640 -0.0002 16.0771
#
#
#
# Elastic Compliance Matrix: (Units=1/GPa)
#
#
# Indices 1 2 3 4 5 6 
#
# 1 0.017239 -0.004386 -0.002399 0.000000 0.014441 0.000000
# 2 -0.004386 0.014355 -0.000654 0.000000 -0.001351 0.000000
# 3 -0.002399 -0.000654 0.010054 0.000000 0.003106 0.000000
# 4 0.000000 0.000000 0.000000 0.083479 0.000000 0.006563
# 5 0.014441 -0.001351 0.003106 0.000000 0.058329 0.000001
# 6 0.000000 0.000000 0.000000 0.006563 0.000001 0.062716
#
#
# Mechanical properties :
#
#
# Convention : Reuss Voigt Hill
#
# Bulk Modulus (GPa) = 37.35354 46.00588 41.67971
# Shear Modulus (GPa) = 18.52036 24.18236 21.35136
#
# Velocity S-wave (km/s) = 3.13359 3.58069 3.36458
# Velocity P-wave (km/s) = 5.73561 6.44106 6.09854
#
# Compressibility (1/GPa) = 0.02677122
#
# Stress axis : x y z
#
# Youngs Moduli (GPa) = 58.00702 69.66278 99.46095
#
# Poissons Ratio (x) = 0.30553 0.23859
# Poissons Ratio (y) = 0.25441 0.06504
# Poissons Ratio (z) = 0.13915 0.04555
#
# Static dielectric constant tensor:
#      x y z
#    x 1.675100 0.000000 -0.012400 
#    y 0.000000 1.655960 0.000000 
#    z -0.012400 0.000000 1.649600 
# 
# From -- ./inp_files/16082.got.cif
#   From: 2010.05.17/outbox.cif.g08.bks.cpg/sg5_9_cif.got.tgz:16082.got - 2010.06.03 18:56:24.
