data_PCOD9120838
_publ_section_title
;
Structure prediction by ZEFSAII (Michael W. Deem and Ramdas Pophale) SiO2 
 PCOD9120838
Probable space group: C 2
;
_chemical_formula_sum "Si O2"
_cell_formula_units_Z 22
_cell_length_a 29.064160
_cell_length_b 5.560642
_cell_length_c 19.705074
_cell_angle_alpha 90.000000
_cell_angle_beta 165.703603
_cell_angle_gamma 90.000000
_cell_volume 786.409665
_symmetry_space_group_name_H-M "C 2"
_symmetry_group_IT_number 5
_symmetry_cell_setting 'monoclinic'
loop_
_space_group_symop_operation_xyz
x,y,z
-x,y,-z
1/2+x,1/2+y,z
1/2-x,1/2+y,-z
loop_
_atom_site_type_symbol
_atom_site_label
_atom_site_fract_x
_atom_site_fract_y
_atom_site_fract_z
Si Si1 0.199349 0.021790 0.960571
Si Si2 0.925249 0.604584 0.678538
Si Si3 0.750258 0.105706 0.324751
Si Si4 0.611588 0.610838 0.336158
Si Si5 0.784807 0.616024 0.329358
Si Si6 0.500000 0.043056 0.500000
O O1 0.330165 0.934609 0.211323
O O2 0.269935 0.294320 0.045512
O O3 0.975737 0.070535 0.639577
O O4 0.720222 0.605572 0.421046
O O5 0.004875 0.351718 0.816930
O O6 0.916525 0.599203 0.585142
O O7 0.993178 0.863470 0.799255
O O8 0.732746 0.122591 0.380938
O O9 0.694363 0.351534 0.208425
O O10 0.669968 0.855665 0.182980
O O11 0.882675 0.647981 0.396657
#
# Coordination Sequence:
#
# PCOD9120838 Si02
#       6
#     4   4   4   4   4   2
#     4  12  24  40  57  81 114 148 190 234 274 332
#     4   8  14  26  42  75  98 131 172 217 259 323
#     4  10  18  36  51  77 106 142 179 228 269 325
#     4   8  14  24  48  68 100 132 171 214 270 313
#     4  10  20  32  54  76 110 140 182 221 271 326
#     4  12  24  38  60  82 112 158 182 234 282 328
#
# _framework density 27.975238000000001
#
# number of rings (size 3 to 8) (size 9 to 14) (size 15 to 20)
#    0.000    2.182    3.636    0.000    0.000    2.909 
#    0.000    0.000    0.000    1.091    0.000    0.000 
#    0.000   32.000    0.000    0.000    0.000    4.727 
#
# Total GULP energy -61272.693655 kJ/mol
# GULP energy per Si atom -5570.244878 kJ/mol
# Density = 2.791156 g / cm^3
# Si number density = 27.975238 Si / 1000 Ang^3
#
#
#
# Elastic Constant Matrix: (Units=GPa)
#
#
# Indices 1 2 3 4 5 6 
#
# 1 151.1559 36.0366 33.8263 -0.0001 -14.3867 0.0001
# 2 36.0366 278.4333 21.9792 0.0002 6.0801 -0.0002
# 3 33.8263 21.9792 127.0830 -0.0001 -27.8767 0.0000
# 4 -0.0001 0.0002 -0.0001 -30.4793 0.0000 15.9652
# 5 -14.3867 6.0801 -27.8767 0.0000 56.1026 0.0000
# 6 0.0001 -0.0002 0.0000 15.9652 0.0000 28.1176
#
#
#
# Elastic Compliance Matrix: (Units=1/GPa)
#
#
# Indices 1 2 3 4 5 6 
#
# 1 0.007273 -0.000847 -0.001527 0.000000 0.001198 0.000000
# 2 -0.000847 0.003772 -0.000633 0.000000 -0.000941 0.000000
# 3 -0.001527 -0.000633 0.009331 0.000000 0.004314 0.000000
# 4 0.000000 0.000000 0.000000 -0.025288 0.000000 0.014359
# 5 0.001198 -0.000941 0.004314 0.000000 0.020377 0.000000
# 6 0.000000 0.000000 0.000000 0.014359 0.000000 0.027412
#
#
# Mechanical properties :
#
#
# Convention : Reuss Voigt Hill
#
# Bulk Modulus (GPa) = 69.62670 82.26183 75.94426
# Shear Modulus (GPa) = 93.14789 41.73686 67.44237
#
# Velocity S-wave (km/s) = 5.77658 3.86673 4.91530
# Velocity P-wave (km/s) = 8.33274 7.02884 7.70841
#
# Compressibility (1/GPa) = 0.01436231
#
# Stress axis : x y z
#
# Youngs Moduli (GPa) = 137.48899 265.13429 107.17029
#
# Poissons Ratio (x) = 0.22457 0.16361
# Poissons Ratio (y) = 0.11646 0.06786
# Poissons Ratio (z) = 0.20989 0.16788
#
# Static dielectric constant tensor:
#      x y z
#    x 2.245210 0.000000 -0.001830 
#    y 0.000000 2.237450 0.000000 
#    z -0.001830 0.000000 2.133820 
# 
# From -- ./inp_files/41124.got.cif
#   From: 2010.05.17/outbox.cif.g08.bks.cpg/sg5_21_cif.got.tgz:41124.got - 2010.06.03 18:56:24.
