data_PCOD9120210
_publ_section_title
;
Structure prediction by ZEFSAII (Michael W. Deem and Ramdas Pophale) SiO2 
 PCOD9120210
Probable space group: C 2
;
_chemical_formula_sum "Si O2"
_cell_formula_units_Z 30
_cell_length_a 18.223129
_cell_length_b 11.892744
_cell_length_c 12.157032
_cell_angle_alpha 90.000000
_cell_angle_beta 151.999164
_cell_angle_gamma 90.000000
_cell_volume 1236.954681
_symmetry_space_group_name_H-M "C 2"
_symmetry_group_IT_number 5
_symmetry_cell_setting 'monoclinic'
loop_
_space_group_symop_operation_xyz
x,y,z
-x,y,-z
1/2+x,1/2+y,z
1/2-x,1/2+y,-z
loop_
_atom_site_type_symbol
_atom_site_label
_atom_site_fract_x
_atom_site_fract_y
_atom_site_fract_z
Si Si1 0.044335 0.182540 0.826505
Si Si2 0.690988 0.333157 0.621602
Si Si3 0.787726 0.890633 0.909470
Si Si4 0.000000 0.981815 0.500000
Si Si5 0.863918 0.982998 0.630839
Si Si6 0.108484 0.415435 0.902433
Si Si7 0.776788 0.638005 0.940021
Si Si8 0.243488 0.085641 0.282719
O O1 0.200708 0.162700 0.959716
O O2 0.991433 0.310108 0.735068
O O3 0.099331 0.142829 0.021377
O O4 0.908678 0.094330 0.619384
O O5 0.531635 0.396410 0.442623
O O6 0.741904 0.396047 0.577887
O O7 0.802314 0.368203 0.870366
O O8 0.661415 0.201026 0.573494
O O9 0.784387 0.756715 0.889623
O O10 0.698058 0.981095 0.713677
O O11 0.715426 0.910391 0.934559
O O12 0.968930 0.922578 0.130760
O O13 0.856085 0.062401 0.290928
O O14 0.798294 0.028326 0.657883
O O15 0.078771 0.549204 0.872582
#
# Coordination Sequence:
#
# PCOD9120210 Si02
#       8
#     4   4   4   2   4   4   4   4
#     4   9  16  31  55  85 107 146 196 237 288 348
#     4  10  20  36  59  87 111 153 199 244 307 352
#     4  10  19  34  59  88 112 153 202 242 297 348
#     4  10  18  36  60  86 116 156 182 250 314 350
#     4  11  19  37  59  78 115 162 204 234 295 357
#     4   9  17  31  57  86 116 141 188 252 294 347
#     4  10  17  31  57  86 121 145 192 246 297 355
#     4  10  21  36  57  81 117 155 200 242 286 359
#
# _framework density 24.253112000000002
#
# number of rings (size 3 to 8) (size 9 to 14) (size 15 to 20)
#    0.000    2.133    4.000    2.400    0.000    0.000 
#    4.800    0.667    5.867    1.600    0.000    0.000 
#    0.000    0.000    0.000    0.000    0.000    0.000 
#
# Total GULP energy -83567.476211 kJ/mol
# GULP energy per Si atom -5571.165081 kJ/mol
# Density = 2.419791 g / cm^3
# Si number density = 24.253112 Si / 1000 Ang^3
#
#
#
# Elastic Constant Matrix: (Units=GPa)
#
#
# Indices 1 2 3 4 5 6 
#
# 1 112.3350 77.1139 28.1473 0.0000 -29.3931 0.0000
# 2 77.1139 289.7061 42.6819 0.0000 -22.0078 0.0000
# 3 28.1473 42.6819 26.7036 0.0000 -8.6845 0.0000
# 4 0.0000 0.0000 0.0000 30.9096 0.0000 -5.0435
# 5 -29.3931 -22.0078 -8.6845 0.0000 23.8345 0.0000
# 6 0.0000 0.0000 0.0000 -5.0435 0.0000 33.9027
#
#
#
# Elastic Compliance Matrix: (Units=1/GPa)
#
#
# Indices 1 2 3 4 5 6 
#
# 1 0.016538 -0.001840 -0.009541 0.000000 0.015219 0.000000
# 2 -0.001840 0.004785 -0.005683 0.000000 0.000078 0.000000
# 3 -0.009541 -0.005683 0.057918 0.000000 0.004090 0.000000
# 4 0.000000 0.000000 0.000000 0.033157 0.000000 0.004933
# 5 0.015219 0.000078 0.004090 0.000000 0.062287 0.000000
# 6 0.000000 0.000000 0.000000 0.004933 0.000000 0.030230
#
#
# Mechanical properties :
#
#
# Convention : Reuss Voigt Hill
#
# Bulk Modulus (GPa) = 22.16665 80.51456 51.34060
# Shear Modulus (GPa) = 19.67873 36.44946 28.06409
#
# Velocity S-wave (km/s) = 2.85158 3.88090 3.40536
# Velocity P-wave (km/s) = 4.47231 7.30422 6.05612
#
# Compressibility (1/GPa) = 0.04511282
#
# Stress axis : x y z
#
# Youngs Moduli (GPa) = 60.46610 208.99711 17.26575
#
# Poissons Ratio (x) = 0.38461 0.16474
# Poissons Ratio (y) = 0.11127 0.09811
# Poissons Ratio (z) = 0.57692 1.18765
#
# Static dielectric constant tensor:
#      x y z
#    x 1.991620 0.000000 0.000350 
#    y 0.000000 2.030110 0.000000 
#    z 0.000350 0.000000 2.147480 
# 
# From -- ./inp_files/44711.got.cif
#   From: 2010.05.17/outbox.cif.g08.bks.cpg/sg5_23_cif.got.tgz:44711.got - 2010.06.03 18:56:24.
