data_PCOD9120315
_publ_section_title
;
Structure prediction by ZEFSAII (Michael W. Deem and Ramdas Pophale) SiO2 
 PCOD9120315
Probable space group: C 2
;
_chemical_formula_sum "Si O2"
_cell_formula_units_Z 26
_cell_length_a 18.014921
_cell_length_b 11.792519
_cell_length_c 7.506452
_cell_angle_alpha 90.000000
_cell_angle_beta 38.400240
_cell_angle_gamma 90.000000
_cell_volume 990.537430
_symmetry_space_group_name_H-M "C 2"
_symmetry_group_IT_number 5
_symmetry_cell_setting 'monoclinic'
loop_
_space_group_symop_operation_xyz
x,y,z
-x,y,-z
1/2+x,1/2+y,z
1/2-x,1/2+y,-z
loop_
_atom_site_type_symbol
_atom_site_label
_atom_site_fract_x
_atom_site_fract_y
_atom_site_fract_z
Si Si1 0.000000 0.137190 0.500000
Si Si2 0.000000 0.741698 0.500000
Si Si3 0.354174 0.010555 0.279372
Si Si4 0.172319 0.715986 0.448868
Si Si5 0.851216 0.944012 0.961165
Si Si6 0.831130 0.405571 0.975767
Si Si7 0.441752 0.801766 0.298839
Si Si8 0.000000 0.879607 0.000000
O O1 0.067373 0.206196 0.532576
O O2 0.903040 0.054885 0.769140
O O3 0.918441 0.667821 0.527470
O O4 0.914304 0.828785 0.766677
O O5 0.290551 0.112554 0.499473
O O6 0.300944 0.999360 0.181970
O O7 0.343594 0.888546 0.400453
O O8 0.500000 0.033265 0.000000
O O9 0.270642 0.789114 0.162717
O O10 0.089085 0.801012 0.717921
O O11 0.719662 0.931118 0.122178
O O12 0.910190 0.948939 0.044414
O O13 0.968000 0.383815 0.762278
O O14 0.500000 0.759573 0.000000
#
# Coordination Sequence:
#
# PCOD9120315 Si02
#       8
#     2   2   4   4   4   4   4   2
#     4  11  22  41  66  84 124 175 200 251 330 362
#     4   7  16  31  54  80 114 145 198 245 294 356
#     4   9  19  38  61  83 122 163 195 247 312 369
#     4  10  17  35  63  87 117 164 200 254 308 356
#     4   9  19  37  58  87 117 159 204 257 299 360
#     4   9  20  40  56  89 128 147 210 268 285 371
#     4   9  22  43  60  85 128 164 202 252 310 382
#     4  10  20  36  64  92 122 162 218 248 312 372
#
# _framework density 26.248376
#
# number of rings (size 3 to 8) (size 9 to 14) (size 15 to 20)
#    0.000    3.077    0.769    0.923    1.077    3.077 
#   11.077    1.538    0.000    0.000    0.000    0.000 
#    0.000    0.000    0.000    0.000    0.000    0.000 
#
# Total GULP energy -72579.956517 kJ/mol
# GULP energy per Si atom -5583.073578 kJ/mol
# Density = 2.618863 g / cm^3
# Si number density = 26.248376 Si / 1000 Ang^3
#
#
#
# Elastic Constant Matrix: (Units=GPa)
#
#
# Indices 1 2 3 4 5 6 
#
# 1 203.8696 29.8677 44.6369 0.0000 24.4792 0.0000
# 2 29.8677 96.1208 34.3075 0.0000 7.7155 0.0000
# 3 44.6369 34.3075 61.4328 0.0000 14.0734 0.0000
# 4 0.0000 0.0000 0.0000 23.6057 0.0000 2.5204
# 5 24.4792 7.7155 14.0734 0.0000 47.7501 0.0000
# 6 0.0000 0.0000 0.0000 2.5204 0.0000 36.2965
#
#
#
# Elastic Compliance Matrix: (Units=1/GPa)
#
#
# Indices 1 2 3 4 5 6 
#
# 1 0.006004 -0.000389 -0.003705 0.000000 -0.001923 0.000000
# 2 -0.000389 0.013019 -0.007026 0.000000 0.000167 0.000000
# 3 -0.003705 -0.007026 0.023806 0.000000 -0.003982 0.000000
# 4 0.000000 0.000000 0.000000 0.042679 0.000000 -0.002964
# 5 -0.001923 0.000167 -0.003982 0.000000 0.023075 0.000000
# 6 0.000000 0.000000 0.000000 -0.002964 0.000000 0.027757
#
#
# Mechanical properties :
#
#
# Convention : Reuss Voigt Hill
#
# Bulk Modulus (GPa) = 48.56911 64.33859 56.45385
# Shear Modulus (GPa) = 30.22212 38.37122 34.29667
#
# Velocity S-wave (km/s) = 3.39690 3.82756 3.61864
# Velocity P-wave (km/s) = 5.82486 6.64066 6.24609
#
# Compressibility (1/GPa) = 0.02058922
#
# Stress axis : x y z
#
# Youngs Moduli (GPa) = 166.55077 76.81217 42.00679
#
# Poissons Ratio (x) = 0.02988 0.15563
# Poissons Ratio (y) = 0.06479 0.29514
# Poissons Ratio (z) = 0.61703 0.53968
#
# Static dielectric constant tensor:
#      x y z
#    x 1.998200 0.000000 0.049680 
#    y 0.000000 2.028830 0.000000 
#    z 0.049680 0.000000 2.250290 
# 
# From -- ./inp_files/26985.got.cif
#   From: 2010.05.17/outbox.cif.g08.bks.cpg/sg5_14_cif.got.tgz:26985.got - 2010.06.03 18:56:24.
