data_PCOD9120950
_publ_section_title
;
Structure prediction by ZEFSAII (Michael W. Deem and Ramdas Pophale) SiO2 
 PCOD9120950
Probable space group: C 2
;
_chemical_formula_sum "Si O2"
_cell_formula_units_Z 30
_cell_length_a 10.125611
_cell_length_b 15.993642
_cell_length_c 9.975728
_cell_angle_alpha 90.000000
_cell_angle_beta 80.030758
_cell_angle_gamma 90.000000
_cell_volume 1591.130176
_symmetry_space_group_name_H-M "C 2"
_symmetry_group_IT_number 5
_symmetry_cell_setting 'monoclinic'
loop_
_space_group_symop_operation_xyz
x,y,z
-x,y,-z
1/2+x,1/2+y,z
1/2-x,1/2+y,-z
loop_
_atom_site_type_symbol
_atom_site_label
_atom_site_fract_x
_atom_site_fract_y
_atom_site_fract_z
Si Si1 0.638388 0.076400 0.551676
Si Si2 0.330072 0.003579 0.960368
Si Si3 0.224430 0.698222 0.770321
Si Si4 0.500000 0.161736 0.000000
Si Si5 0.940111 0.435971 0.223811
Si Si6 0.581230 0.582294 0.621389
Si Si7 0.506840 0.775508 0.345971
Si Si8 0.418972 0.574577 0.898682
O O1 0.598041 0.954491 0.171006
O O2 0.679288 0.153124 0.641631
O O3 0.763612 0.064068 0.430440
O O4 0.617034 0.996607 0.652069
O O5 0.626493 0.962040 0.905283
O O6 0.401277 0.095763 0.941017
O O7 0.171278 0.010719 0.000068
O O8 0.336505 0.767114 0.721144
O O9 0.310671 0.630044 0.838995
O O10 0.092776 0.713656 0.882614
O O11 0.000000 0.592168 0.500000
O O12 0.929589 0.339947 0.265673
O O13 0.500000 0.559958 0.500000
O O14 0.556522 0.682389 0.645256
O O15 0.515030 0.542076 0.764346
O O16 0.500000 0.806039 0.500000
O O17 0.500000 0.623278 0.000000
#
# Coordination Sequence:
#
# PCOD9120950 Si02
#       8
#     4   4   4   2   4   4   4   4
#     4  12  21  32  61  90 115 153 203 238 292 356
#     4   9  17  34  56  76 116 144 190 247 294 333
#     4  10  18  37  54  86 119 149 192 253 290 341
#     4   8  14  30  62  74 108 150 178 240 296 328
#     4  10  19  35  56  84 111 150 193 245 292 348
#     4  10  19  38  58  84 121 153 191 248 298 344
#     4  10  19  35  59  78 114 154 190 241 300 341
#     4  10  19  32  58  84 114 149 197 243 292 341
#
# _framework density 18.854523
#
# number of rings (size 3 to 8) (size 9 to 14) (size 15 to 20)
#    0.000    2.133    8.000    0.400    1.867    0.000 
#    9.600    0.000    1.467    2.400    0.000    0.000 
#    0.000    0.000    0.000    0.000    0.000    0.000 
#
# Total GULP energy -83508.824622 kJ/mol
# GULP energy per Si atom -5567.254975 kJ/mol
# Density = 1.881161 g / cm^3
# Si number density = 18.854523 Si / 1000 Ang^3
#
#
#
# Elastic Constant Matrix: (Units=GPa)
#
#
# Indices 1 2 3 4 5 6 
#
# 1 107.8530 11.5626 49.2235 0.0000 -22.5306 0.0000
# 2 11.5626 33.9569 7.9614 0.0000 -4.7180 0.0000
# 3 49.2235 7.9614 69.1365 0.0000 -31.1911 0.0000
# 4 0.0000 0.0000 0.0000 7.1125 0.0000 0.6744
# 5 -22.5306 -4.7180 -31.1911 0.0000 51.2685 0.0000
# 6 0.0000 0.0000 0.0000 0.6744 0.0000 12.4733
#
#
#
# Elastic Compliance Matrix: (Units=1/GPa)
#
#
# Indices 1 2 3 4 5 6 
#
# 1 0.013936 -0.002485 -0.009615 0.000000 0.000046 0.000000
# 2 -0.002485 0.030740 -0.001361 0.000000 0.000909 0.000000
# 3 -0.009615 -0.001361 0.026883 0.000000 0.012004 0.000000
# 4 0.000000 0.000000 0.000000 0.141322 0.000000 -0.007641
# 5 0.000046 0.000909 0.012004 0.000000 0.026912 0.000000
# 6 0.000000 0.000000 0.000000 -0.007641 0.000000 0.080584
#
#
# Mechanical properties :
#
#
# Convention : Reuss Voigt Hill
#
# Bulk Modulus (GPa) = 22.40265 38.71571 30.55918
# Shear Modulus (GPa) = 13.80535 23.65078 18.72807
#
# Velocity S-wave (km/s) = 2.70886 3.54557 3.15507
# Velocity P-wave (km/s) = 4.65742 6.11064 5.43284
#
# Compressibility (1/GPa) = 0.04463757
#
# Stress axis : x y z
#
# Youngs Moduli (GPa) = 71.75520 32.53039 37.19887
#
# Poissons Ratio (x) = 0.08083 0.35768
# Poissons Ratio (y) = 0.17828 0.05062
# Poissons Ratio (z) = 0.68996 0.04427
#
# Static dielectric constant tensor:
#      x y z
#    x 1.716860 0.000000 -0.036710 
#    y 0.000000 1.641320 0.000000 
#    z -0.036710 0.000000 1.694800 
# 
# From -- ./inp_files/21260.got.cif
#   From: 2010.05.17/outbox.cif.g08.bks.cpg/sg5_11_cif.got.tgz:21260.got - 2010.06.03 18:56:24.
