data_PCOD9120708
_publ_section_title
;
Structure prediction by ZEFSAII (Michael W. Deem and Ramdas Pophale) SiO2 
 PCOD9120708
Probable space group: C 2
;
_chemical_formula_sum "Si O2"
_cell_formula_units_Z 20
_cell_length_a 10.045421
_cell_length_b 11.273134
_cell_length_c 8.366810
_cell_angle_alpha 90.000000
_cell_angle_beta 56.381898
_cell_angle_gamma 90.000000
_cell_volume 789.015368
_symmetry_space_group_name_H-M "C 2"
_symmetry_group_IT_number 5
_symmetry_cell_setting 'monoclinic'
loop_
_space_group_symop_operation_xyz
x,y,z
-x,y,-z
1/2+x,1/2+y,z
1/2-x,1/2+y,-z
loop_
_atom_site_type_symbol
_atom_site_label
_atom_site_fract_x
_atom_site_fract_y
_atom_site_fract_z
Si Si1 0.234402 0.617670 0.604724
Si Si2 0.328541 0.925887 0.895339
Si Si3 0.500000 0.125645 0.000000
Si Si4 0.437949 0.705048 0.198938
Si Si5 0.158169 0.876802 0.297092
Si Si6 0.500000 0.026795 0.500000
O O1 0.140428 0.690908 0.806026
O O2 0.393276 0.651613 0.400787
O O3 0.268638 0.492270 0.664980
O O4 0.101071 0.599675 0.558795
O O5 0.436605 0.810336 0.856168
O O6 0.406954 0.037992 0.938711
O O7 0.363611 0.954006 0.687653
O O8 0.164529 0.902489 0.102189
O O9 0.276165 0.768417 0.249858
O O10 0.500000 0.634313 0.000000
O O11 0.000000 0.854145 0.500000
#
# Coordination Sequence:
#
# PCOD9120708 Si02
#       6
#     4   4   2   4   4   2
#     4  10  20  34  59  84 110 143 188 228 272 322
#     4   9  16  36  59  75 108 152 180 214 280 328
#     4   8  14  36  56  72 106 152 176 210 270 338
#     4  10  19  37  59  81 111 147 186 222 273 335
#     4  10  20  38  58  80 112 150 183 223 273 334
#     4  10  18  34  60  82 110 146 182 230 274 324
#
# _framework density 25.348047999999999
#
# number of rings (size 3 to 8) (size 9 to 14) (size 15 to 20)
#    0.000    2.400    7.000    0.000    1.400    1.600 
#    1.800    2.000    2.200    0.000    0.000    0.000 
#    0.000    0.000    0.000    0.000    0.000    0.000 
#
# Total GULP energy -55752.207388 kJ/mol
# GULP energy per Si atom -5575.220739 kJ/mol
# Density = 2.529035 g / cm^3
# Si number density = 25.348048 Si / 1000 Ang^3
#
#
#
# Elastic Constant Matrix: (Units=GPa)
#
#
# Indices 1 2 3 4 5 6 
#
# 1 29.6170 1.8023 22.2002 0.0000 -3.0938 0.0000
# 2 1.8023 24.3172 51.4066 0.0000 1.8666 0.0000
# 3 22.2002 51.4066 325.5118 0.0000 -11.3464 0.0000
# 4 0.0000 0.0000 0.0000 31.3561 0.0000 -8.0151
# 5 -3.0938 1.8666 -11.3464 0.0000 41.0439 0.0000
# 6 0.0000 0.0000 0.0000 -8.0151 0.0000 7.4446
#
#
#
# Elastic Compliance Matrix: (Units=1/GPa)
#
#
# Indices 1 2 3 4 5 6 
#
# 1 0.035933 0.003385 -0.002924 0.000000 0.001746 0.000000
# 2 0.003385 0.063333 -0.010425 0.000000 -0.005507 0.000000
# 3 -0.002924 -0.010425 0.004975 0.000000 0.001629 0.000000
# 4 0.000000 0.000000 0.000000 0.044001 0.000000 0.047372
# 5 0.001746 -0.005507 0.001629 0.000000 0.025197 0.000000
# 6 0.000000 0.000000 0.000000 0.047372 0.000000 0.185327
#
#
# Mechanical properties :
#
#
# Convention : Reuss Voigt Hill
#
# Bulk Modulus (GPa) = 11.86074 58.91826 35.38950
# Shear Modulus (GPa) = 12.29115 36.23804 24.26460
#
# Velocity S-wave (km/s) = 2.20442 3.78513 3.09731
# Velocity P-wave (km/s) = 3.34195 6.51131 5.17522
#
# Compressibility (1/GPa) = 0.08431176
#
# Stress axis : x y z
#
# Youngs Moduli (GPa) = 27.82972 15.78963 201.02019
#
# Poissons Ratio (x) = -0.05344 0.58785
# Poissons Ratio (y) = -0.09420 2.09557
# Poissons Ratio (z) = 0.08138 0.16460
#
# Static dielectric constant tensor:
#      x y z
#    x 2.010460 0.000000 -0.019300 
#    y 0.000000 2.046920 0.000000 
#    z -0.019300 0.000000 2.225090 
# 
# From -- ./inp_files/19236.got.cif
#   From: 2010.05.17/outbox.cif.g08.bks.cpg/sg5_10_cif.got.tgz:19236.got - 2010.06.03 18:56:24.
