data_PCOD9120983
_publ_section_title
;
Structure prediction by ZEFSAII (Michael W. Deem and Ramdas Pophale) SiO2 
 PCOD9120983
Probable space group: C 2
;
_chemical_formula_sum "Si O2"
_cell_formula_units_Z 24
_cell_length_a 29.359116
_cell_length_b 9.680343
_cell_length_c 8.460090
_cell_angle_alpha 90.000000
_cell_angle_beta 154.778768
_cell_angle_gamma 90.000000
_cell_volume 1024.554536
_symmetry_space_group_name_H-M "C 2"
_symmetry_group_IT_number 5
_symmetry_cell_setting 'monoclinic'
loop_
_space_group_symop_operation_xyz
x,y,z
-x,y,-z
1/2+x,1/2+y,z
1/2-x,1/2+y,-z
loop_
_atom_site_type_symbol
_atom_site_label
_atom_site_fract_x
_atom_site_fract_y
_atom_site_fract_z
Si Si1 0.375240 0.361490 0.072228
Si Si2 0.999233 0.467426 0.820264
Si Si3 0.407562 0.267020 0.822578
Si Si4 0.202662 0.136633 0.020829
Si Si5 0.797771 0.587128 0.010621
Si Si6 0.888294 0.384604 0.100270
O O1 0.500000 0.387120 0.500000
O O2 0.340670 0.228313 0.068498
O O3 0.369148 0.338442 0.863911
O O4 0.309294 0.492710 0.926888
O O5 0.084841 0.372598 0.997455
O O6 0.879845 0.494605 0.377695
O O7 0.043609 0.623229 0.959978
O O8 0.000000 0.416989 0.000000
O O9 0.312282 0.215304 0.410429
O O10 0.500000 0.332331 0.000000
O O11 0.202040 0.116205 0.830422
O O12 0.117273 0.243202 0.822875
O O13 0.790983 0.483471 0.841314
O O14 0.000000 0.461421 0.500000
#
# Coordination Sequence:
#
# PCOD9120983 Si02
#       6
#     4   4   4   4   4   4
#     4  12  23  41  64  91 122 160 201 250 303 355
#     4  10  18  37  65  82 110 158 212 234 280 360
#     4  11  22  40  63  85 117 164 206 239 290 367
#     4  12  25  37  61  96 126 148 198 265 305 339
#     4  11  20  39  64  86 112 169 203 236 285 381
#     4  10  22  40  61  88 123 161 197 245 306 363
#
# _framework density 23.424816
#
# number of rings (size 3 to 8) (size 9 to 14) (size 15 to 20)
#    0.000    1.000    6.667    2.000    2.333    0.000 
#    0.000    0.833    0.000    0.000    0.000    0.000 
#    0.000    0.000    0.000    0.000    0.000    0.000 
#
# Total GULP energy -66924.862425 kJ/mol
# GULP energy per Si atom -5577.071869 kJ/mol
# Density = 2.337150 g / cm^3
# Si number density = 23.424816 Si / 1000 Ang^3
#
#
#
# Elastic Constant Matrix: (Units=GPa)
#
#
# Indices 1 2 3 4 5 6 
#
# 1 255.3005 74.3736 15.9667 0.0000 27.7709 0.0000
# 2 74.3736 97.2936 3.0794 0.0000 18.5329 0.0000
# 3 15.9667 3.0794 39.7645 0.0000 -0.6626 0.0000
# 4 0.0000 0.0000 0.0000 14.4776 0.0000 2.0659
# 5 27.7709 18.5329 -0.6626 0.0000 25.1688 0.0000
# 6 0.0000 0.0000 0.0000 2.0659 0.0000 17.6086
#
#
#
# Elastic Compliance Matrix: (Units=1/GPa)
#
#
# Indices 1 2 3 4 5 6 
#
# 1 0.005415 -0.003407 -0.001969 0.000000 -0.003518 0.000000
# 2 -0.003407 0.014145 0.000162 0.000000 -0.006652 0.000000
# 3 -0.001969 0.000162 0.025972 0.000000 0.002737 0.000000
# 4 0.000000 0.000000 0.000000 0.070248 0.000000 -0.008242
# 5 -0.003518 -0.006652 0.002737 0.000000 0.048584 0.000000
# 6 0.000000 0.000000 0.000000 -0.008242 0.000000 0.057757
#
#
# Mechanical properties :
#
#
# Convention : Reuss Voigt Hill
#
# Bulk Modulus (GPa) = 28.48775 64.35534 46.42155
# Shear Modulus (GPa) = 20.47073 31.38026 25.92550
#
# Velocity S-wave (km/s) = 2.95937 3.66405 3.33040
# Velocity P-wave (km/s) = 4.88517 6.74041 5.88634
#
# Compressibility (1/GPa) = 0.03510281
#
# Stress axis : x y z
#
# Youngs Moduli (GPa) = 184.65928 70.69847 38.50323
#
# Poissons Ratio (x) = 0.24088 0.07582
# Poissons Ratio (y) = 0.62916 -0.00623
# Poissons Ratio (z) = 0.36363 -0.01144
#
# Static dielectric constant tensor:
#      x y z
#    x 2.166030 0.000000 -0.020130 
#    y 0.000000 1.880770 0.000000 
#    z -0.020130 0.000000 2.015490 
# 
# From -- ./inp_files/23455.got.cif
#   From: 2010.05.17/outbox.cif.g08.bks.cpg/sg5_12_cif.got.tgz:23455.got - 2010.06.03 18:56:24.
