data_PCOD9120283
_publ_section_title
;
Structure prediction by ZEFSAII (Michael W. Deem and Ramdas Pophale) SiO2 
 PCOD9120283
Probable space group: C 2
;
_chemical_formula_sum "Si O2"
_cell_formula_units_Z 26
_cell_length_a 17.218537
_cell_length_b 13.973265
_cell_length_c 10.149142
_cell_angle_alpha 90.000000
_cell_angle_beta 29.867687
_cell_angle_gamma 90.000000
_cell_volume 1216.050841
_symmetry_space_group_name_H-M "C 2"
_symmetry_group_IT_number 5
_symmetry_cell_setting 'monoclinic'
loop_
_space_group_symop_operation_xyz
x,y,z
-x,y,-z
1/2+x,1/2+y,z
1/2-x,1/2+y,-z
loop_
_atom_site_type_symbol
_atom_site_label
_atom_site_fract_x
_atom_site_fract_y
_atom_site_fract_z
Si Si1 0.248648 0.358690 0.992625
Si Si2 0.304316 0.208658 0.090490
Si Si3 0.174435 0.084996 0.512518
Si Si4 0.118129 0.062820 0.199867
Si Si5 0.000000 0.715693 0.500000
Si Si6 0.840740 0.690551 0.487156
Si Si7 0.831074 0.386858 0.186119
O O1 0.311676 0.461366 0.936258
O O2 0.391769 0.290218 0.738251
O O3 0.156044 0.373555 0.991974
O O4 0.205769 0.301588 0.188387
O O5 0.245274 0.166135 0.313601
O O6 0.252643 0.131309 0.055262
O O7 0.491513 0.212675 0.826807
O O8 0.242291 0.111873 0.554342
O O9 0.989521 0.095335 0.762506
O O10 0.230323 0.981054 0.375169
O O11 0.000000 0.054069 0.500000
O O12 0.893383 0.658440 0.555916
O O13 0.748638 0.790249 0.641351
O O14 0.000000 0.399676 0.000000
#
# Coordination Sequence:
#
# PCOD9120283 Si02
#       7
#     4   4   4   4   2   4   4
#     4  10  17  34  58  83 113 150 198 241 288 349
#     4  10  20  32  60  88 116 154 196 237 296 350
#     4  11  21  37  61  92 117 151 203 244 291 354
#     4  10  18  34  57  88 115 155 199 237 286 355
#     4   8  16  34  56  82 102 158 186 236 296 344
#     4  10  21  36  60  86 121 148 200 251 290 346
#     4  11  22  37  62  87 117 155 206 244 296 347
#
# _framework density 21.380686000000001
#
# number of rings (size 3 to 8) (size 9 to 14) (size 15 to 20)
#    0.000    1.846    3.846    3.231    2.154    0.000 
#    0.000    0.000   10.154    0.000    2.000    0.000 
#    0.000    0.000    0.000    0.000    0.000    0.000 
#
# Total GULP energy -72472.552020 kJ/mol
# GULP energy per Si atom -5574.811694 kJ/mol
# Density = 2.133202 g / cm^3
# Si number density = 21.380686 Si / 1000 Ang^3
#
#
#
# Elastic Constant Matrix: (Units=GPa)
#
#
# Indices 1 2 3 4 5 6 
#
# 1 124.2533 21.1907 -1.1280 0.0000 -31.6230 0.0000
# 2 21.1907 74.1446 1.2570 0.0000 8.0289 0.0000
# 3 -1.1280 1.2570 30.4938 0.0000 -17.4954 0.0000
# 4 0.0000 0.0000 0.0000 10.2912 0.0000 -4.8985
# 5 -31.6230 8.0289 -17.4954 0.0000 25.7361 0.0000
# 6 0.0000 0.0000 0.0000 -4.8985 0.0000 35.5586
#
#
#
# Elastic Compliance Matrix: (Units=1/GPa)
#
#
# Indices 1 2 3 4 5 6 
#
# 1 0.028052 -0.015897 0.039861 0.000000 0.066526 0.000000
# 2 -0.015897 0.023456 -0.027805 0.000000 -0.045753 0.000000
# 3 0.039861 -0.027805 0.112287 0.000000 0.133986 0.000000
# 4 0.000000 0.000000 0.000000 0.103989 0.000000 0.014325
# 5 0.066526 -0.045753 0.133986 0.000000 0.225957 0.000000
# 6 0.000000 0.000000 0.000000 0.014325 0.000000 0.030096
#
#
# Mechanical properties :
#
#
# Convention : Reuss Voigt Hill
#
# Bulk Modulus (GPa) = 6.40558 30.17013 18.28785
# Shear Modulus (GPa) = 8.56814 28.15531 18.36172
#
# Velocity S-wave (km/s) = 2.00403 3.63279 2.93371
# Velocity P-wave (km/s) = 2.89090 5.63363 4.47745
#
# Compressibility (1/GPa) = 0.15611399
#
# Stress axis : x y z
#
# Youngs Moduli (GPa) = 35.64773 42.63228 8.90577
#
# Poissons Ratio (x) = 0.67773 -0.35500
# Poissons Ratio (y) = 0.56670 0.24763
# Poissons Ratio (z) = -1.42097 1.18539
#
# Static dielectric constant tensor:
#      x y z
#    x 1.881130 0.000000 0.073140 
#    y 0.000000 1.776900 0.000000 
#    z 0.073140 0.000000 1.846860 
# 
# From -- ./inp_files/20001.got.cif
#   From: 2010.05.17/outbox.cif.g08.bks.cpg/sg5_11_cif.got.tgz:20001.got - 2010.06.03 18:56:24.
