data_PCOD9120386
_publ_section_title
;
Structure prediction by ZEFSAII (Michael W. Deem and Ramdas Pophale) SiO2 
 PCOD9120386
Probable space group: C 2
;
_chemical_formula_sum "Si O2"
_cell_formula_units_Z 28
_cell_length_a 9.469132
_cell_length_b 10.617812
_cell_length_c 14.721767
_cell_angle_alpha 90.000000
_cell_angle_beta 61.335520
_cell_angle_gamma 90.000000
_cell_volume 1298.746544
_symmetry_space_group_name_H-M "C 2"
_symmetry_group_IT_number 5
_symmetry_cell_setting 'monoclinic'
loop_
_space_group_symop_operation_xyz
x,y,z
-x,y,-z
1/2+x,1/2+y,z
1/2-x,1/2+y,-z
loop_
_atom_site_type_symbol
_atom_site_label
_atom_site_fract_x
_atom_site_fract_y
_atom_site_fract_z
Si Si1 0.500000 0.558960 0.000000
Si Si2 0.881399 0.250784 0.451453
Si Si3 0.298565 0.791075 0.994898
Si Si4 0.270271 0.990640 0.163137
Si Si5 0.406426 0.537918 0.217215
Si Si6 0.807192 0.502598 0.554591
Si Si7 0.500000 0.191146 0.000000
Si Si8 0.945496 0.321750 0.233279
O O1 0.631402 0.653534 0.002720
O O2 0.419916 0.491767 0.110083
O O3 0.776699 0.373366 0.509904
O O4 0.779917 0.125700 0.459886
O O5 0.971085 0.296345 0.331530
O O6 0.000000 0.228423 0.500000
O O7 0.115543 0.771396 0.027053
O O8 0.397629 0.840940 0.877647
O O9 0.312283 0.883187 0.075643
O O10 0.324374 0.933505 0.242970
O O11 0.081345 0.020601 0.211044
O O12 0.381090 0.106737 0.098602
O O13 0.268829 0.482867 0.322448
O O14 0.373471 0.687966 0.221783
O O15 0.000000 0.520826 0.500000
#
# Coordination Sequence:
#
# PCOD9120386 Si02
#       8
#     2   4   4   4   4   4   2   4
#     4  10  17  41  64  94 144 172 205 283 336 396
#     4  10  24  47  69 101 135 174 235 292 340 404
#     4  11  21  40  62 100 138 172 224 264 329 413
#     4  12  21  41  64  95 137 180 211 270 340 403
#     4  10  22  40  70  96 133 178 223 270 340 408
#     4  10  24  49  70 100 135 178 236 290 341 402
#     4  12  23  39  60 100 138 170 227 261 320 418
#     4  10  20  40  69  91 132 179 217 279 337 390
#
# _framework density 21.559251
#
# number of rings (size 3 to 8) (size 9 to 14) (size 15 to 20)
#    0.000    1.429    7.143    0.000    0.000    5.714 
#   15.429    0.000    0.000    0.000    0.000    0.000 
#    0.000    0.000    0.000    0.000    0.000    0.000 
#
# Total GULP energy -78203.851176 kJ/mol
# GULP energy per Si atom -5585.989370 kJ/mol
# Density = 2.151018 g / cm^3
# Si number density = 21.559251 Si / 1000 Ang^3
#
#
#
# Elastic Constant Matrix: (Units=GPa)
#
#
# Indices 1 2 3 4 5 6 
#
# 1 110.3721 20.3890 43.0688 0.0000 1.4051 0.0000
# 2 20.3890 83.8840 28.1822 0.0000 5.2785 0.0000
# 3 43.0688 28.1822 151.2485 0.0000 6.0581 0.0000
# 4 0.0000 0.0000 0.0000 13.1823 0.0000 -1.4867
# 5 1.4051 5.2785 6.0581 0.0000 36.9115 0.0000
# 6 0.0000 0.0000 0.0000 -1.4867 0.0000 36.6365
#
#
#
# Elastic Compliance Matrix: (Units=1/GPa)
#
#
# Indices 1 2 3 4 5 6 
#
# 1 0.010402 -0.001650 -0.002666 0.000000 0.000278 0.000000
# 2 -0.001650 0.013056 -0.001903 0.000000 -0.001492 0.000000
# 3 -0.002666 -0.001903 0.007761 0.000000 -0.000900 0.000000
# 4 0.000000 0.000000 0.000000 0.076208 0.000000 0.003092
# 5 0.000278 -0.001492 -0.000900 0.000000 0.027442 0.000000
# 6 0.000000 0.000000 0.000000 0.003092 0.000000 0.027421
#
#
# Mechanical properties :
#
#
# Convention : Reuss Voigt Hill
#
# Bulk Modulus (GPa) = 53.24512 58.75385 55.99948
# Shear Modulus (GPa) = 27.62627 34.27039 30.94833
#
# Velocity S-wave (km/s) = 3.58356 3.99129 3.79291
# Velocity P-wave (km/s) = 6.47096 6.96793 6.72403
#
# Compressibility (1/GPa) = 0.01878107
#
# Stress axis : x y z
#
# Youngs Moduli (GPa) = 96.13801 76.59586 128.84411
#
# Poissons Ratio (x) = 0.12640 0.34344
# Poissons Ratio (y) = 0.15864 0.24519
# Poissons Ratio (z) = 0.25626 0.14576
#
# Static dielectric constant tensor:
#      x y z
#    x 1.839660 0.000000 0.009190 
#    y 0.000000 1.806920 0.000000 
#    z 0.009190 0.000000 1.820010 
# 
# From -- ./inp_files/50454.got.cif
#   From: 2010.05.17/outbox.cif.g08.bks.cpg/sg5_26_cif.got.tgz:50454.got - 2010.06.03 18:56:24.
