data_PCOD9120691
_publ_section_title
;
Structure prediction by ZEFSAII (Michael W. Deem and Ramdas Pophale) SiO2 
 PCOD9120691
Probable space group: C 2
;
_chemical_formula_sum "Si O2"
_cell_formula_units_Z 26
_cell_length_a 19.752600
_cell_length_b 7.849272
_cell_length_c 11.869730
_cell_angle_alpha 90.000000
_cell_angle_beta 136.465701
_cell_angle_gamma 90.000000
_cell_volume 1267.594924
_symmetry_space_group_name_H-M "C 2"
_symmetry_group_IT_number 5
_symmetry_cell_setting 'monoclinic'
loop_
_space_group_symop_operation_xyz
x,y,z
-x,y,-z
1/2+x,1/2+y,z
1/2-x,1/2+y,-z
loop_
_atom_site_type_symbol
_atom_site_label
_atom_site_fract_x
_atom_site_fract_y
_atom_site_fract_z
Si Si1 0.619887 0.536290 0.931654
Si Si2 0.000000 0.759981 0.500000
Si Si3 0.109063 0.460493 0.531260
Si Si4 0.911349 0.131012 0.632716
Si Si5 0.205525 0.278218 0.857110
Si Si6 0.313124 0.636843 0.753984
Si Si7 0.695846 0.456133 0.697061
O O1 0.508905 0.517109 0.757673
O O2 0.657884 0.705748 0.912999
O O3 0.699272 0.390504 0.002509
O O4 0.621915 0.555792 0.068861
O O5 0.960741 0.625196 0.546000
O O6 0.903735 0.876881 0.367406
O O7 0.068738 0.309987 0.405597
O O8 0.133091 0.385039 0.686079
O O9 0.216291 0.520578 0.618289
O O10 0.868943 0.161163 0.705167
O O11 0.835969 0.036155 0.460353
O O12 0.232783 0.109815 0.818566
O O13 0.271594 0.809102 0.759388
#
# Coordination Sequence:
#
# PCOD9120691 Si02
#       7
#     4   2   4   4   4   4   4
#     4  11  22  36  60  83 117 151 188 242 289 343
#     4  10  18  34  58  92 112 142 194 238 288 326
#     4   9  20  36  60  88 121 149 190 243 282 339
#     4  11  21  37  60  88 115 153 195 234 278 342
#     4  10  21  38  57  86 115 151 191 239 302 335
#     4  10  21  38  57  84 120 159 188 226 289 347
#     4  10  21  37  61  84 116 153 193 239 282 340
#
# _framework density 20.511285000000001
#
# number of rings (size 3 to 8) (size 9 to 14) (size 15 to 20)
#    0.000    1.846    0.000    4.154    0.000    4.923 
#    0.000    4.615    0.000    9.231    0.000    0.000 
#    0.000    0.000    0.000    0.000    0.000    0.000 
#
# Total GULP energy -72600.880563 kJ/mol
# GULP energy per Si atom -5584.683120 kJ/mol
# Density = 2.046460 g / cm^3
# Si number density = 20.511285 Si / 1000 Ang^3
#
#
#
# Elastic Constant Matrix: (Units=GPa)
#
#
# Indices 1 2 3 4 5 6 
#
# 1 86.7672 8.6420 28.4276 0.0000 -9.1645 0.0000
# 2 8.6420 73.7539 16.1510 0.0000 6.2527 0.0000
# 3 28.4276 16.1510 63.4243 0.0000 -12.9295 0.0000
# 4 0.0000 0.0000 0.0000 30.6305 0.0000 3.1367
# 5 -9.1645 6.2527 -12.9295 0.0000 21.2580 0.0000
# 6 0.0000 0.0000 0.0000 3.1367 0.0000 13.1113
#
#
#
# Elastic Compliance Matrix: (Units=1/GPa)
#
#
# Indices 1 2 3 4 5 6 
#
# 1 0.013649 -0.000660 -0.005377 0.000000 0.002808 0.000000
# 2 -0.000660 0.015476 -0.005287 0.000000 -0.008052 0.000000
# 3 -0.005377 -0.005287 0.022109 0.000000 0.012684 0.000000
# 4 0.000000 0.000000 0.000000 0.033467 0.000000 -0.008007
# 5 0.002808 -0.008052 0.012684 0.000000 0.058334 0.000000
# 6 0.000000 0.000000 0.000000 -0.008007 0.000000 0.078185
#
#
# Mechanical properties :
#
#
# Convention : Reuss Voigt Hill
#
# Bulk Modulus (GPa) = 34.98138 36.70960 35.84549
# Shear Modulus (GPa) = 19.73181 24.38163 22.05672
#
# Velocity S-wave (km/s) = 3.10497 3.45148 3.28280
# Velocity P-wave (km/s) = 5.47231 5.81548 5.64650
#
# Compressibility (1/GPa) = 0.02858663
#
# Stress axis : x y z
#
# Youngs Moduli (GPa) = 73.26464 64.61502 45.23049
#
# Poissons Ratio (x) = 0.04263 0.24322
# Poissons Ratio (y) = 0.04834 0.23912
# Poissons Ratio (z) = 0.39397 0.34160
#
# Static dielectric constant tensor:
#      x y z
#    x 1.713220 0.000000 0.000460 
#    y 0.000000 1.723810 0.000000 
#    z 0.000460 0.000000 1.738890 
# 
# From -- ./inp_files/46169.got.cif
#   From: 2010.05.17/outbox.cif.g08.bks.cpg/sg5_24_cif.got.tgz:46169.got - 2010.06.03 18:56:24.
