data_PCOD9120356
_publ_section_title
;
Structure prediction by ZEFSAII (Michael W. Deem and Ramdas Pophale) SiO2 
 PCOD9120356
Probable space group: C 2
;
_chemical_formula_sum "Si O2"
_cell_formula_units_Z 28
_cell_length_a 15.902113
_cell_length_b 16.810396
_cell_length_c 10.133500
_cell_angle_alpha 90.000000
_cell_angle_beta 150.474647
_cell_angle_gamma 90.000000
_cell_volume 1334.967101
_symmetry_space_group_name_H-M "C 2"
_symmetry_group_IT_number 5
_symmetry_cell_setting 'monoclinic'
loop_
_space_group_symop_operation_xyz
x,y,z
-x,y,-z
1/2+x,1/2+y,z
1/2-x,1/2+y,-z
loop_
_atom_site_type_symbol
_atom_site_label
_atom_site_fract_x
_atom_site_fract_y
_atom_site_fract_z
Si Si1 0.022410 0.818040 0.740400
Si Si2 0.345759 0.603167 0.203267
Si Si3 0.833095 0.245584 0.670303
Si Si4 0.825914 0.978439 0.974849
Si Si5 0.837415 0.710841 0.838208
Si Si6 0.137676 0.267345 0.920593
Si Si7 0.500000 0.880548 0.500000
Si Si8 0.000000 0.092510 0.000000
O O1 0.825685 0.789135 0.473138
O O2 0.098518 0.782089 0.981376
O O3 0.158399 0.786400 0.815271
O O4 0.048814 0.912088 0.792076
O O5 0.500000 0.568510 0.500000
O O6 0.245832 0.649617 0.178018
O O7 0.388577 0.675598 0.160636
O O8 0.259545 0.534314 0.002508
O O9 0.769403 0.240923 0.430734
O O10 0.028554 0.277348 0.906866
O O11 0.856275 0.154875 0.752823
O O12 0.663742 0.934338 0.690623
O O13 0.925350 0.035233 0.010252
O O14 0.000000 0.668591 0.000000
O O15 0.057586 0.324826 0.699592
#
# Coordination Sequence:
#
# PCOD9120356 Si02
#       8
#     4   4   4   4   4   4   2   2
#     4   9  22  37  65  93 114 158 219 254 300 360
#     4  11  18  36  62  85 122 154 204 257 305 357
#     4  11  20  40  62  88 120 167 205 253 297 376
#     4  11  24  38  59  98 127 161 195 267 320 355
#     4   9  18  33  65  89 105 155 219 252 285 367
#     4  10  17  37  62  87 109 158 217 244 286 370
#     4  10  22  38  62  94 120 162 206 256 314 358
#     4  12  26  38  56  96 138 158 200 250 330 368
#
# _framework density 20.974298999999998
#
# number of rings (size 3 to 8) (size 9 to 14) (size 15 to 20)
#    0.000    1.714    3.571    1.714    5.000    3.429 
#    0.000    2.857    0.000    0.000    0.000    0.000 
#    0.000    0.000    0.000    0.000    0.000    0.000 
#
# Total GULP energy -78009.704911 kJ/mol
# GULP energy per Si atom -5572.121779 kJ/mol
# Density = 2.092656 g / cm^3
# Si number density = 20.974299 Si / 1000 Ang^3
#
#
#
# Elastic Constant Matrix: (Units=GPa)
#
#
# Indices 1 2 3 4 5 6 
#
# 1 116.8072 27.7790 20.6986 0.0000 31.0273 0.0000
# 2 27.7790 101.4789 37.9327 0.0000 9.8686 0.0000
# 3 20.6986 37.9327 94.5312 0.0000 28.7132 0.0000
# 4 0.0000 0.0000 0.0000 -8.1208 0.0000 7.4748
# 5 31.0273 9.8686 28.7132 0.0000 34.1567 0.0000
# 6 0.0000 0.0000 0.0000 7.4748 0.0000 5.4383
#
#
#
# Elastic Compliance Matrix: (Units=1/GPa)
#
#
# Indices 1 2 3 4 5 6 
#
# 1 0.012041 -0.002946 0.002161 0.000000 -0.011903 0.000000
# 2 -0.002946 0.012329 -0.005416 0.000000 0.003667 0.000000
# 3 0.002161 -0.005416 0.016651 0.000000 -0.014396 0.000000
# 4 0.000000 0.000000 0.000000 -0.054364 0.000000 0.074721
# 5 -0.011903 0.003667 -0.014396 0.000000 0.051132 0.000000
# 6 0.000000 0.000000 0.000000 0.074721 0.000000 0.081180
#
#
# Mechanical properties :
#
#
# Convention : Reuss Voigt Hill
#
# Bulk Modulus (GPa) = 34.94223 53.95976 44.45099
# Shear Modulus (GPa) = 35.48380 21.38864 28.43622
#
# Velocity S-wave (km/s) = 4.11758 3.19682 3.68607
# Velocity P-wave (km/s) = 6.26911 6.27764 6.27337
#
# Compressibility (1/GPa) = 0.02861867
#
# Stress axis : x y z
#
# Youngs Moduli (GPa) = 83.05221 81.11201 60.05573
#
# Poissons Ratio (x) = 0.23899 -0.12980
# Poissons Ratio (y) = 0.24470 0.32525
# Poissons Ratio (z) = -0.17951 0.43929
#
# Static dielectric constant tensor:
#      x y z
#    x 1.875940 0.000000 0.008100 
#    y 0.000000 1.720320 0.000000 
#    z 0.008100 0.000000 1.870230 
# 
# From -- ./inp_files/44863.got.cif
#   From: 2010.05.17/outbox.cif.g08.bks.cpg/sg5_23_cif.got.tgz:44863.got - 2010.06.03 18:56:24.
