data_PCOD9120147
_publ_section_title
;
Structure prediction by ZEFSAII (Michael W. Deem and Ramdas Pophale) SiO2 
 PCOD9120147
Probable space group: C 2
;
_chemical_formula_sum "Si O2"
_cell_formula_units_Z 32
_cell_length_a 9.301672
_cell_length_b 22.076764
_cell_length_c 11.177456
_cell_angle_alpha 90.000000
_cell_angle_beta 45.211051
_cell_angle_gamma 90.000000
_cell_volume 1628.989436
_symmetry_space_group_name_H-M "C 2"
_symmetry_group_IT_number 5
_symmetry_cell_setting 'monoclinic'
loop_
_space_group_symop_operation_xyz
x,y,z
-x,y,-z
1/2+x,1/2+y,z
1/2-x,1/2+y,-z
loop_
_atom_site_type_symbol
_atom_site_label
_atom_site_fract_x
_atom_site_fract_y
_atom_site_fract_z
Si Si1 0.224956 0.953810 0.312899
Si Si2 0.856294 0.083534 0.200143
Si Si3 0.719363 0.559037 0.128852
Si Si4 0.998814 0.539813 0.732700
Si Si5 0.236872 0.717240 0.335935
Si Si6 0.098894 0.828628 0.309296
Si Si7 0.235539 0.144515 0.328227
Si Si8 0.714619 0.772578 0.434781
O O1 0.227923 0.889901 0.241156
O O2 0.000000 0.959307 0.500000
O O3 0.259061 0.005160 0.195607
O O4 0.387075 0.975453 0.318287
O O5 0.647962 0.049923 0.293057
O O6 0.831651 0.154353 0.242336
O O7 0.984642 0.055749 0.231795
O O8 0.000000 0.078276 0.000000
O O9 0.760367 0.620360 0.178761
O O10 0.855145 0.551032 0.932773
O O11 0.152212 0.596538 0.651862
O O12 0.233710 0.767998 0.233522
O O13 0.324471 0.746315 0.407319
O O14 0.000000 0.703310 0.500000
O O15 0.000000 0.828009 0.500000
O O16 0.902063 0.819961 0.339376
O O17 0.296239 0.213658 0.315346
O O18 0.000000 0.141463 0.500000
O O19 0.500000 0.791684 0.500000
#
# Coordination Sequence:
#
# PCOD9120147 Si02
#       8
#     4   4   4   4   4   4   4   4
#     4  10  19  34  51  69  92 124 167 205 235 282
#     4  10  20  32  47  72 103 128 156 197 242 289
#     4  10  20  32  47  72 102 129 157 196 244 285
#     4  10  19  32  49  69  97 133 163 193 241 286
#     4   9  17  31  50  71  98 129 157 193 242 286
#     4   8  17  32  48  67  95 127 160 200 239 280
#     4  10  17  28  48  75  99 124 158 192 231 289
#     4   9  16  27  48  75 100 126 156 194 243 291
#
# _framework density 19.644081
#
# number of rings (size 3 to 8) (size 9 to 14) (size 15 to 20)
#    0.000    2.750    0.000    6.000    0.000    1.000 
#    0.000    5.000    0.000    0.000    0.000    8.750 
#    0.000    0.000    0.000    0.000    0.000    0.000 
#
# Total GULP energy -89086.962143 kJ/mol
# GULP energy per Si atom -5567.935134 kJ/mol
# Density = 1.959937 g / cm^3
# Si number density = 19.644081 Si / 1000 Ang^3
#
#
#
# Elastic Constant Matrix: (Units=GPa)
#
#
# Indices 1 2 3 4 5 6 
#
# 1 153.6406 37.9968 0.1986 0.0000 -23.7893 0.0000
# 2 37.9968 85.7668 -0.7705 0.0000 -15.1260 0.0000
# 3 0.1986 -0.7705 30.8122 0.0000 -3.7873 0.0000
# 4 0.0000 0.0000 0.0000 -13.8434 0.0000 14.3719
# 5 -23.7893 -15.1260 -3.7873 0.0000 21.7527 0.0000
# 6 0.0000 0.0000 0.0000 14.3719 0.0000 4.9351
#
#
#
# Elastic Compliance Matrix: (Units=1/GPa)
#
#
# Indices 1 2 3 4 5 6 
#
# 1 0.008250 -0.002315 0.000818 0.000000 0.007555 0.000000
# 2 -0.002315 0.014007 0.001279 0.000000 0.007431 0.000000
# 3 0.000818 0.001279 0.033416 0.000000 0.007601 0.000000
# 4 0.000000 0.000000 0.000000 -0.017954 0.000000 0.052286
# 5 0.007555 0.007431 0.007601 0.000000 0.060724 0.000000
# 6 0.000000 0.000000 0.000000 0.052286 0.000000 0.050364
#
#
# Mechanical properties :
#
#
# Convention : Reuss Voigt Hill
#
# Bulk Modulus (GPa) = 18.10462 38.34106 28.22284
# Shear Modulus (GPa) = 29.82298 18.08851 23.95574
#
# Velocity S-wave (km/s) = 3.90059 3.03778 3.49591
# Velocity P-wave (km/s) = 5.43346 5.64485 5.54017
#
# Compressibility (1/GPa) = 0.05523451
#
# Stress axis : x y z
#
# Youngs Moduli (GPa) = 121.21234 71.39180 29.92613
#
# Poissons Ratio (x) = 0.16529 -0.02447
# Poissons Ratio (y) = 0.28063 -0.03826
# Poissons Ratio (z) = -0.09909 -0.09128
#
# Static dielectric constant tensor:
#      x y z
#    x 1.782060 0.000000 -0.008990 
#    y 0.000000 1.767980 0.000000 
#    z -0.008990 0.000000 1.714870 
# 
# From -- ./inp_files/37485.got.cif
#   From: 2010.05.17/outbox.cif.g08.bks.cpg/sg5_19_cif.got.tgz:37485.got - 2010.06.03 18:56:24.
