data_PCOD9120148
_publ_section_title
;
Structure prediction by ZEFSAII (Michael W. Deem and Ramdas Pophale) SiO2 
 PCOD9120148
Probable space group: C 2
;
_chemical_formula_sum "Si O2"
_cell_formula_units_Z 30
_cell_length_a 19.697021
_cell_length_b 19.976073
_cell_length_c 14.938407
_cell_angle_alpha 90.000000
_cell_angle_beta 19.065465
_cell_angle_gamma 90.000000
_cell_volume 1919.973866
_symmetry_space_group_name_H-M "C 2"
_symmetry_group_IT_number 5
_symmetry_cell_setting 'monoclinic'
loop_
_space_group_symop_operation_xyz
x,y,z
-x,y,-z
1/2+x,1/2+y,z
1/2-x,1/2+y,-z
loop_
_atom_site_type_symbol
_atom_site_label
_atom_site_fract_x
_atom_site_fract_y
_atom_site_fract_z
Si Si1 0.828019 0.698170 0.057579
Si Si2 0.613841 0.629126 0.772629
Si Si3 0.099525 0.198152 0.514685
Si Si4 0.048756 0.741844 0.616269
Si Si5 0.215027 0.853604 0.284907
Si Si6 0.120061 0.242041 0.045204
Si Si7 0.000000 0.469518 0.000000
Si Si8 0.163721 0.585276 0.672580
O O1 0.756732 0.724773 0.243166
O O2 0.617340 0.683706 0.265259
O O3 0.965088 0.745351 0.822395
O O4 0.960867 0.631107 0.907037
O O5 0.796643 0.678910 0.578272
O O6 0.455010 0.679299 0.919855
O O7 0.712085 0.580738 0.575647
O O8 0.500000 0.598311 0.000000
O O9 0.196853 0.131057 0.435051
O O10 0.040819 0.245371 0.671408
O O11 0.161374 0.807104 0.437422
O O12 0.848390 0.730395 0.802727
O O13 0.000000 0.865674 0.500000
O O14 0.359761 0.807443 0.040979
O O15 0.327637 0.920964 0.172532
O O16 0.099262 0.517690 0.801293
#
# Coordination Sequence:
#
# PCOD9120148 Si02
#       8
#     4   4   4   4   4   4   2   4
#     4   9  16  28  48  71  96 120 143 187 243 283
#     4  10  17  28  50  71  91 119 144 190 249 282
#     4   9  16  28  48  71  96 120 143 187 243 283
#     4   9  17  29  46  72  97 115 148 192 236 281
#     4  10  20  32  48  68  94 126 159 192 226 270
#     4   9  17  29  46  72  97 115 148 192 236 281
#     4  12  22  34  46  62  94 136 164 188 216 264
#     4  10  20  31  43  66  96 123 159 189 219 274
#
# _framework density 15.625214
#
# number of rings (size 3 to 8) (size 9 to 14) (size 15 to 20)
#    0.000    2.400    2.667    0.800    0.000    1.067 
#    0.000    0.000    0.000    1.600    0.000    0.000 
#    0.000    0.000    0.000    0.000    0.000    0.000 
#
# Total GULP energy -83541.399063 kJ/mol
# GULP energy per Si atom -5569.426604 kJ/mol
# Density = 1.558965 g / cm^3
# Si number density = 15.625214 Si / 1000 Ang^3
#
#
#
# Elastic Constant Matrix: (Units=GPa)
#
#
# Indices 1 2 3 4 5 6 
#
# 1 75.6844 43.0109 56.4283 -0.0018 23.2941 0.0028
# 2 43.0109 86.4683 53.8525 0.0256 15.3998 -0.0061
# 3 56.4283 53.8525 117.8579 0.0196 38.1459 0.0217
# 4 -0.0018 0.0256 0.0196 17.4149 0.0022 10.4297
# 5 23.2941 15.3998 38.1459 0.0022 39.3846 -0.0086
# 6 0.0028 -0.0061 0.0217 10.4297 -0.0086 10.6846
#
#
#
# Elastic Compliance Matrix: (Units=1/GPa)
#
#
# Indices 1 2 3 4 5 6 
#
# 1 0.023414 -0.006680 -0.006586 0.000049 -0.004858 -0.000049
# 2 -0.006680 0.018111 -0.005919 -0.000088 0.002603 0.000112
# 3 -0.006586 -0.005919 0.017964 0.000042 -0.011190 -0.000088
# 4 0.000049 -0.000088 0.000042 0.138238 -0.000072 -0.134940
# 5 -0.004858 0.002603 -0.011190 -0.000072 0.038084 0.000127
# 6 -0.000049 0.000112 -0.000088 -0.134940 0.000127 0.225314
#
#
# Mechanical properties :
#
#
# Convention : Reuss Voigt Hill
#
# Bulk Modulus (GPa) = 47.35060 65.17709 56.26384
# Shear Modulus (GPa) = 9.87099 21.94475 15.90787
#
# Velocity S-wave (km/s) = 2.51616 3.75166 3.19421
# Velocity P-wave (km/s) = 6.22986 7.78267 7.04915
#
# Compressibility (1/GPa) = 0.02111906
#
# Stress axis : x y z
#
# Youngs Moduli (GPa) = 42.70900 55.21567 55.66572
#
# Poissons Ratio (x) = 0.36883 0.36660
# Poissons Ratio (y) = 0.28529 0.32951
# Poissons Ratio (z) = 0.28127 0.32685
#
# Static dielectric constant tensor:
#      x y z
#    x 1.558450 0.000000 0.014980 
#    y 0.000000 1.456520 0.000000 
#    z 0.014980 0.000000 1.568400 
# 
# From -- ./inp_files/21262.got.cif
#   From: 2010.05.17/outbox.cif.g08.bks.cpg/sg5_11_cif.got.tgz:21262.got - 2010.06.03 18:56:24.
