data_PCOD9120608
_publ_section_title
;
Structure prediction by ZEFSAII (Michael W. Deem and Ramdas Pophale) SiO2 
 PCOD9120608
Probable space group: C 2
;
_chemical_formula_sum "Si O2"
_cell_formula_units_Z 26
_cell_length_a 13.710010
_cell_length_b 18.220718
_cell_length_c 11.474986
_cell_angle_alpha 90.000000
_cell_angle_beta 151.081731
_cell_angle_gamma 90.000000
_cell_volume 1386.140148
_symmetry_space_group_name_H-M "C 2"
_symmetry_group_IT_number 5
_symmetry_cell_setting 'monoclinic'
loop_
_space_group_symop_operation_xyz
x,y,z
-x,y,-z
1/2+x,1/2+y,z
1/2-x,1/2+y,-z
loop_
_atom_site_type_symbol
_atom_site_label
_atom_site_fract_x
_atom_site_fract_y
_atom_site_fract_z
Si Si1 0.209909 0.331930 0.605185
Si Si2 0.956561 0.495054 0.587723
Si Si3 0.834689 0.047473 0.527170
Si Si4 0.785523 0.946074 0.098410
Si Si5 0.000000 0.501473 0.000000
Si Si6 0.161303 0.806164 0.997243
Si Si7 0.452716 0.691868 0.314161
O O1 0.124892 0.411468 0.489132
O O2 0.229300 0.327832 0.766092
O O3 0.078853 0.265274 0.419159
O O4 0.429227 0.318728 0.782599
O O5 0.784046 0.538813 0.475762
O O6 0.000000 0.514697 0.500000
O O7 0.165597 0.494077 0.876612
O O8 0.967434 0.120596 0.665408
O O9 0.656821 0.047305 0.243631
O O10 0.990509 0.980947 0.660606
O O11 0.789949 0.863023 0.054748
O O12 0.646851 0.955355 0.067932
O O13 0.227757 0.721237 0.052736
O O14 0.500000 0.676924 0.500000
#
# Coordination Sequence:
#
# PCOD9120608 Si02
#       7
#     4   4   4   4   2   4   4
#     4  10  18  33  57  91 118 146 190 252 310 353
#     4  11  20  35  60  94 121 154 205 249 302 365
#     4  11  24  38  60  87 125 165 203 247 306 359
#     4  11  20  36  59  86 120 159 205 247 295 362
#     4  10  24  38  56  84 122 166 210 246 290 358
#     4  10  19  31  60  88 116 149 189 247 309 351
#     4  10  20  36  55  86 124 150 194 252 305 361
#
# _framework density 18.757121999999999
#
# number of rings (size 3 to 8) (size 9 to 14) (size 15 to 20)
#    0.000    1.538    4.615    1.846    0.000    5.538 
#    0.000    0.000    0.000    3.692    0.000    0.000 
#    0.000    0.000    0.000    0.000    0.000    0.000 
#
# Total GULP energy -72473.563054 kJ/mol
# GULP energy per Si atom -5574.889466 kJ/mol
# Density = 1.871443 g / cm^3
# Si number density = 18.757122 Si / 1000 Ang^3
#
#
#
# Elastic Constant Matrix: (Units=GPa)
#
#
# Indices 1 2 3 4 5 6 
#
# 1 130.5393 43.4664 30.9210 0.0000 4.6982 0.0000
# 2 43.4664 86.9044 13.4917 0.0000 3.6363 0.0000
# 3 30.9210 13.4917 73.5818 0.0000 14.8037 0.0000
# 4 0.0000 0.0000 0.0000 18.6634 0.0000 7.7654
# 5 4.6982 3.6363 14.8037 0.0000 24.4153 0.0000
# 6 0.0000 0.0000 0.0000 7.7654 0.0000 29.5360
#
#
#
# Elastic Compliance Matrix: (Units=1/GPa)
#
#
# Indices 1 2 3 4 5 6 
#
# 1 0.009955 -0.004466 -0.003545 0.000000 0.000899 0.000000
# 2 -0.004466 0.013853 -0.000480 0.000000 -0.000913 0.000000
# 3 -0.003545 -0.000480 0.017103 0.000000 -0.009616 0.000000
# 4 0.000000 0.000000 0.000000 0.060162 0.000000 -0.015817
# 5 0.000899 -0.000913 -0.009616 0.000000 0.046751 0.000000
# 6 0.000000 0.000000 0.000000 -0.015817 0.000000 0.038016
#
#
# Mechanical properties :
#
#
# Convention : Reuss Voigt Hill
#
# Bulk Modulus (GPa) = 41.79074 51.86487 46.82781
# Shear Modulus (GPa) = 23.71922 28.06602 25.89262
#
# Velocity S-wave (km/s) = 3.55990 3.87238 3.71942
# Velocity P-wave (km/s) = 6.26303 6.90685 6.59280
#
# Compressibility (1/GPa) = 0.02392875
#
# Stress axis : x y z
#
# Youngs Moduli (GPa) = 100.45022 72.18394 58.47005
#
# Poissons Ratio (x) = 0.32240 0.20730
# Poissons Ratio (y) = 0.44865 0.02804
# Poissons Ratio (z) = 0.35614 0.03461
#
# Static dielectric constant tensor:
#      x y z
#    x 1.680400 0.000000 0.031210 
#    y 0.000000 1.649340 0.000000 
#    z 0.031210 0.000000 1.697530 
# 
# From -- ./inp_files/43268.got.cif
#   From: 2010.05.17/outbox.cif.g08.bks.cpg/sg5_22_cif.got.tgz:43268.got - 2010.06.03 18:56:24.
