data_PCOD9120755
_publ_section_title
;
Structure prediction by ZEFSAII (Michael W. Deem and Ramdas Pophale) SiO2 
 PCOD9120755
Probable space group: C 2
;
_chemical_formula_sum "Si O2"
_cell_formula_units_Z 28
_cell_length_a 18.375327
_cell_length_b 11.720415
_cell_length_c 7.911149
_cell_angle_alpha 90.000000
_cell_angle_beta 52.021527
_cell_angle_gamma 90.000000
_cell_volume 1343.003699
_symmetry_space_group_name_H-M "C 2"
_symmetry_group_IT_number 5
_symmetry_cell_setting 'monoclinic'
loop_
_space_group_symop_operation_xyz
x,y,z
-x,y,-z
1/2+x,1/2+y,z
1/2-x,1/2+y,-z
loop_
_atom_site_type_symbol
_atom_site_label
_atom_site_fract_x
_atom_site_fract_y
_atom_site_fract_z
Si Si1 0.067387 0.784350 0.700748
Si Si2 0.181696 0.490822 0.298631
Si Si3 0.118652 0.059382 0.114056
Si Si4 0.702183 0.101640 0.637355
Si Si5 0.000000 0.997769 0.000000
Si Si6 0.500000 0.387111 0.500000
Si Si7 0.191091 0.226849 0.266156
Si Si8 0.115603 0.632140 0.088424
O O1 0.151379 0.719184 0.660999
O O2 0.057458 0.905258 0.808206
O O3 0.073796 0.811899 0.494666
O O4 0.975516 0.703908 0.831848
O O5 0.193629 0.533257 0.475566
O O6 0.163479 0.356289 0.334034
O O7 0.114151 0.561288 0.266200
O O8 0.279863 0.512845 0.068411
O O9 0.125800 0.167234 0.224149
O O10 0.058616 0.964111 0.292390
O O11 0.067322 0.075205 0.011815
O O12 0.798559 0.143328 0.583930
O O13 0.644495 0.054733 0.882723
O O14 0.295778 0.217650 0.039313
#
# Coordination Sequence:
#
# PCOD9120755 Si02
#       8
#     4   4   4   4   2   2   4   4
#     4  11  17  36  62  93 118 144 204 250 301 341
#     4  11  21  40  61  85 124 165 189 241 309 344
#     4  10  22  39  57  88 120 148 208 246 294 365
#     4  10  21  35  59  92 115 157 198 244 287 355
#     4  10  18  34  66  82 116 154 186 260 308 328
#     4  10  22  32  64  90 112 162 188 260 308 334
#     4   9  21  39  57  84 123 155 194 244 284 366
#     4   9  20  38  59  92 121 149 198 259 282 356
#
# _framework density 20.848787999999999
#
# number of rings (size 3 to 8) (size 9 to 14) (size 15 to 20)
#    0.857    1.143    1.429    3.429    0.000    4.571 
#    5.143    1.429    3.143    0.000    0.000    0.000 
#    0.000    0.000    0.000    0.000    0.000    0.000 
#
# Total GULP energy -77940.477182 kJ/mol
# GULP energy per Si atom -5567.176942 kJ/mol
# Density = 2.080134 g / cm^3
# Si number density = 20.848788 Si / 1000 Ang^3
#
#
#
# Elastic Constant Matrix: (Units=GPa)
#
#
# Indices 1 2 3 4 5 6 
#
# 1 120.8607 48.6497 12.9845 0.0000 35.6293 0.0000
# 2 48.6497 94.4192 23.5957 0.0000 36.1375 0.0000
# 3 12.9845 23.5957 56.5169 0.0000 24.0497 0.0000
# 4 0.0000 0.0000 0.0000 -20.3747 0.0000 -7.7343
# 5 35.6293 36.1375 24.0497 0.0000 35.8506 0.0000
# 6 0.0000 0.0000 0.0000 -7.7343 0.0000 20.5871
#
#
#
# Elastic Compliance Matrix: (Units=1/GPa)
#
#
# Indices 1 2 3 4 5 6 
#
# 1 0.012535 -0.002715 0.003345 0.000000 -0.011964 0.000000
# 2 -0.002715 0.017835 -0.000449 0.000000 -0.014978 0.000000
# 3 0.003345 -0.000449 0.025659 0.000000 -0.020085 0.000000
# 4 0.000000 0.000000 0.000000 -0.042955 0.000000 -0.016138
# 5 -0.011964 -0.014978 -0.020085 0.000000 0.068355 0.000000
# 6 0.000000 0.000000 0.000000 -0.016138 0.000000 0.042511
#
#
# Mechanical properties :
#
#
# Convention : Reuss Voigt Hill
#
# Bulk Modulus (GPa) = 17.73334 49.13965 33.43649
# Shear Modulus (GPa) = 35.11825 19.65040 27.38433
#
# Velocity S-wave (km/s) = 4.10863 3.07338 3.62812
# Velocity P-wave (km/s) = 5.57063 6.01788 5.79857
#
# Compressibility (1/GPa) = 0.05639097
#
# Stress axis : x y z
#
# Youngs Moduli (GPa) = 79.77944 56.06988 38.97196
#
# Poissons Ratio (x) = 0.15225 -0.13036
# Poissons Ratio (y) = 0.21663 0.01748
# Poissons Ratio (z) = -0.26686 0.02515
#
# Static dielectric constant tensor:
#      x y z
#    x 1.791770 0.000000 0.047620 
#    y 0.000000 1.731200 0.000000 
#    z 0.047620 0.000000 1.877660 
# 
# From -- ./inp_files/29437.got.cif
#   From: 2010.05.17/outbox.cif.g08.bks.cpg/sg5_15_cif.got.tgz:29437.got - 2010.06.03 18:56:24.
