data_PCOD9120461
_publ_section_title
;
Structure prediction by ZEFSAII (Michael W. Deem and Ramdas Pophale) SiO2 
 PCOD9120461
Probable space group: C 2
;
_chemical_formula_sum "Si O2"
_cell_formula_units_Z 30
_cell_length_a 15.838090
_cell_length_b 8.661547
_cell_length_c 10.722372
_cell_angle_alpha 90.000000
_cell_angle_beta 119.051453
_cell_angle_gamma 90.000000
_cell_volume 1285.854973
_symmetry_space_group_name_H-M "C 2"
_symmetry_group_IT_number 5
_symmetry_cell_setting 'monoclinic'
loop_
_space_group_symop_operation_xyz
x,y,z
-x,y,-z
1/2+x,1/2+y,z
1/2-x,1/2+y,-z
loop_
_atom_site_type_symbol
_atom_site_label
_atom_site_fract_x
_atom_site_fract_y
_atom_site_fract_z
Si Si1 0.368042 0.539440 0.481144
Si Si2 0.504407 0.426817 0.773643
Si Si3 0.352370 0.631483 0.818753
Si Si4 0.927804 0.589939 0.752336
Si Si5 0.775095 0.923761 0.960391
Si Si6 0.256590 0.097154 0.829261
Si Si7 0.804063 0.345611 0.551470
Si Si8 0.000000 0.365232 0.000000
O O1 0.472155 0.506629 0.618006
O O2 0.328937 0.517688 0.312771
O O3 0.299609 0.427092 0.517427
O O4 0.336637 0.718896 0.475968
O O5 0.431979 0.515306 0.817251
O O6 0.476863 0.246552 0.747238
O O7 0.612538 0.428691 0.908810
O O8 0.275043 0.538987 0.842652
O O9 0.311005 0.741396 0.681298
O O10 0.410404 0.750753 0.944718
O O11 0.843387 0.622057 0.793639
O O12 0.877445 0.488996 0.609283
O O13 0.994336 0.472344 0.875435
O O14 0.739328 0.760497 0.883539
O O15 0.718487 0.986825 0.038147
#
# Coordination Sequence:
#
# PCOD9120461 Si02
#       8
#     4   4   4   4   4   4   4   2
#     4  10  21  40  62  96 128 174 214 273 326 396
#     4  11  21  41  69  93 127 167 228 273 327 377
#     4  10  20  36  61  93 121 168 215 274 317 384
#     4  10  20  37  61 100 123 165 215 279 317 384
#     4  12  25  41  64  93 132 175 214 266 330 400
#     4  11  26  40  61  92 136 173 214 259 333 403
#     4   9  20  33  62  94 129 156 218 277 327 370
#     4  10  18  30  60  92 130 144 210 274 322 366
#
# _framework density 23.330781000000002
#
# number of rings (size 3 to 8) (size 9 to 14) (size 15 to 20)
#    0.000    1.600    2.667    2.400    7.467    0.533 
#    0.000    0.000    0.000    0.000    0.000    0.000 
#    0.000    0.000    0.000    0.000    0.000    0.000 
#
# Total GULP energy -83750.379760 kJ/mol
# GULP energy per Si atom -5583.358651 kJ/mol
# Density = 2.327768 g / cm^3
# Si number density = 23.330781 Si / 1000 Ang^3
#
#
#
# Elastic Constant Matrix: (Units=GPa)
#
#
# Indices 1 2 3 4 5 6 
#
# 1 23.2430 -4.7817 -10.2819 0.0000 7.8091 0.0000
# 2 -4.7817 117.2093 -1.9554 0.0000 -0.3188 0.0000
# 3 -10.2819 -1.9554 52.7440 0.0000 2.0480 0.0000
# 4 0.0000 0.0000 0.0000 41.7994 0.0000 -5.7727
# 5 7.8091 -0.3188 2.0480 0.0000 35.4550 0.0000
# 6 0.0000 0.0000 0.0000 -5.7727 0.0000 2.3997
#
#
#
# Elastic Compliance Matrix: (Units=1/GPa)
#
#
# Indices 1 2 3 4 5 6 
#
# 1 0.052325 0.002281 0.010756 0.000000 -0.012125 0.000000
# 2 0.002281 0.008637 0.000783 0.000000 -0.000470 0.000000
# 3 0.010756 0.000783 0.021225 0.000000 -0.003588 0.000000
# 4 0.000000 0.000000 0.000000 0.035827 0.000000 0.086186
# 5 -0.012125 -0.000470 -0.003588 0.000000 0.031078 0.000000
# 6 0.000000 0.000000 0.000000 0.086186 0.000000 0.624054
#
#
# Mechanical properties :
#
#
# Convention : Reuss Voigt Hill
#
# Bulk Modulus (GPa) = 9.10535 17.68424 13.39480
# Shear Modulus (GPa) = 6.39293 29.94517 18.16905
#
# Velocity S-wave (km/s) = 1.65713 3.58649 2.79365
# Velocity P-wave (km/s) = 2.75184 4.97462 4.01991
#
# Compressibility (1/GPa) = 0.10982552
#
# Stress axis : x y z
#
# Youngs Moduli (GPa) = 19.11144 115.78637 47.11522
#
# Poissons Ratio (x) = -0.26412 -0.50675
# Poissons Ratio (y) = -0.04360 -0.03690
# Poissons Ratio (z) = -0.20555 -0.09067
#
# Static dielectric constant tensor:
#      x y z
#    x 1.933560 0.000000 0.013810 
#    y 0.000000 1.861140 0.000000 
#    z 0.013810 0.000000 1.981610 
# 
# From -- ./inp_files/44324.got.cif
#   From: 2010.05.17/outbox.cif.g08.bks.cpg/sg5_23_cif.got.tgz:44324.got - 2010.06.03 18:56:24.
