data_PCOD9120079
_publ_section_title
;
Structure prediction by ZEFSAII (Michael W. Deem and Ramdas Pophale) SiO2 
 PCOD9120079
Probable space group: C 2
;
_chemical_formula_sum "Si O2"
_cell_formula_units_Z 30
_cell_length_a 16.495210
_cell_length_b 8.216646
_cell_length_c 12.046822
_cell_angle_alpha 90.000000
_cell_angle_beta 130.719400
_cell_angle_gamma 90.000000
_cell_volume 1237.498153
_symmetry_space_group_name_H-M "C 2"
_symmetry_group_IT_number 5
_symmetry_cell_setting 'monoclinic'
loop_
_space_group_symop_operation_xyz
x,y,z
-x,y,-z
1/2+x,1/2+y,z
1/2-x,1/2+y,-z
loop_
_atom_site_type_symbol
_atom_site_label
_atom_site_fract_x
_atom_site_fract_y
_atom_site_fract_z
Si Si1 0.267772 0.818420 0.297295
Si Si2 0.533001 0.508830 0.399673
Si Si3 0.937178 0.107988 0.100087
Si Si4 0.753337 0.662606 0.503291
Si Si5 0.406657 0.231341 0.007670
Si Si6 0.513872 0.129055 0.313911
Si Si7 0.170188 0.168335 0.200484
Si Si8 0.500000 0.902841 0.500000
O O1 0.217687 0.785803 0.372516
O O2 0.393390 0.802038 0.422701
O O3 0.237294 0.003582 0.245904
O O4 0.206632 0.706690 0.153841
O O5 0.500000 0.510852 0.500000
O O6 0.453770 0.615223 0.247561
O O7 0.651019 0.566232 0.461737
O O8 0.521154 0.317940 0.355760
O O9 0.909103 0.919195 0.050222
O O10 0.053970 0.135439 0.150466
O O11 0.857154 0.217590 0.951820
O O12 0.864630 0.565732 0.593120
O O13 0.729719 0.743203 0.361353
O O14 0.440473 0.120186 0.140109
O O15 0.500000 0.215142 0.000000
O O16 0.470718 0.018807 0.372454
#
# Coordination Sequence:
#
# PCOD9120079 Si02
#       8
#     4   4   4   4   4   4   4   2
#     4  11  21  37  59  94 126 163 209 262 326 377
#     4  10  21  36  57  94 128 162 214 269 315 377
#     4   8  14  28  55  84 114 147 207 257 292 363
#     4  11  20  33  63  91 119 164 217 269 304 378
#     4  10  16  34  65  86 111 162 224 251 300 386
#     4  11  22  40  63  91 124 170 219 259 319 389
#     4   9  15  31  55  87 110 154 212 249 300 373
#     4  12  26  40  62  96 138 164 208 272 334 382
#
# _framework density 24.242462
#
# number of rings (size 3 to 8) (size 9 to 14) (size 15 to 20)
#    0.000    1.867    6.000    1.600    0.933    0.000 
#    0.000    4.000    2.933    0.000   20.800    0.000 
#    0.000    0.000    0.000    0.000    0.000    0.000 
#
# Total GULP energy -83631.661196 kJ/mol
# GULP energy per Si atom -5575.444080 kJ/mol
# Density = 2.418729 g / cm^3
# Si number density = 24.242462 Si / 1000 Ang^3
#
#
#
# Elastic Constant Matrix: (Units=GPa)
#
#
# Indices 1 2 3 4 5 6 
#
# 1 59.4840 10.7940 41.5852 0.0000 -35.4002 0.0000
# 2 10.7940 32.5476 12.3577 0.0000 -8.8598 0.0000
# 3 41.5852 12.3577 210.0376 0.0000 -40.8780 0.0000
# 4 0.0000 0.0000 0.0000 2.1437 0.0000 1.2599
# 5 -35.4002 -8.8598 -40.8780 0.0000 40.0186 0.0000
# 6 0.0000 0.0000 0.0000 1.2599 0.0000 28.2505
#
#
#
# Elastic Compliance Matrix: (Units=1/GPa)
#
#
# Indices 1 2 3 4 5 6 
#
# 1 0.036064 -0.003368 -0.001096 0.000000 0.030037 0.000000
# 2 -0.003368 0.033079 -0.000542 0.000000 0.003791 0.000000
# 3 -0.001096 -0.000542 0.005988 0.000000 0.005027 0.000000
# 4 0.000000 0.000000 0.000000 0.479043 0.000000 -0.021364
# 5 0.030037 0.003791 0.005027 0.000000 0.057533 0.000000
# 6 0.000000 0.000000 0.000000 -0.021364 0.000000 0.036350
#
#
# Mechanical properties :
#
#
# Convention : Reuss Voigt Hill
#
# Bulk Modulus (GPa) = 15.35628 47.94921 31.65275
# Shear Modulus (GPa) = 7.35536 29.90471 18.63004
#
# Velocity S-wave (km/s) = 1.74375 3.51603 2.77517
# Velocity P-wave (km/s) = 3.22528 6.02538 4.83258
#
# Compressibility (1/GPa) = 0.06511994
#
# Stress axis : x y z
#
# Youngs Moduli (GPa) = 27.72821 30.23093 166.98947
#
# Poissons Ratio (x) = 0.10181 0.18309
# Poissons Ratio (y) = 0.09338 0.09044
# Poissons Ratio (z) = 0.03040 0.01637
#
# Static dielectric constant tensor:
#      x y z
#    x 1.984230 0.000000 -0.076980 
#    y 0.000000 1.956240 0.000000 
#    z -0.076980 0.000000 2.062380 
# 
# From -- ./inp_files/42681.got.cif
#   From: 2010.05.17/outbox.cif.g08.bks.cpg/sg5_22_cif.got.tgz:42681.got - 2010.06.03 18:56:24.
