data_PCOD9120931
_publ_section_title
;
Structure prediction by ZEFSAII (Michael W. Deem and Ramdas Pophale) SiO2 
 PCOD9120931
Probable space group: C 2
;
_chemical_formula_sum "Si O2"
_cell_formula_units_Z 32
_cell_length_a 25.617877
_cell_length_b 15.326822
_cell_length_c 8.762799
_cell_angle_alpha 90.000000
_cell_angle_beta 150.548293
_cell_angle_gamma 90.000000
_cell_volume 1691.723131
_symmetry_space_group_name_H-M "C 2"
_symmetry_group_IT_number 5
_symmetry_cell_setting 'monoclinic'
loop_
_space_group_symop_operation_xyz
x,y,z
-x,y,-z
1/2+x,1/2+y,z
1/2-x,1/2+y,-z
loop_
_atom_site_type_symbol
_atom_site_label
_atom_site_fract_x
_atom_site_fract_y
_atom_site_fract_z
Si Si1 0.677692 0.846340 0.667906
Si Si2 0.725072 0.704703 0.566097
Si Si3 0.624976 0.199893 0.337981
Si Si4 0.738883 0.042250 0.784607
Si Si5 0.036436 0.065584 0.757781
Si Si6 0.550745 0.761976 0.882796
Si Si7 0.236109 0.350461 0.168104
Si Si8 0.676766 0.539016 0.652456
O O1 0.746255 0.786623 0.729647
O O2 0.557369 0.811408 0.356045
O O3 0.686279 0.947468 0.646641
O O4 0.718839 0.835386 0.944691
O O5 0.816815 0.689423 0.676831
O O6 0.703367 0.620623 0.614004
O O7 0.619927 0.731170 0.203361
O O8 0.661546 0.119278 0.536799
O O9 0.673917 0.286988 0.537049
O O10 0.500000 0.203726 0.000000
O O11 0.839079 0.045050 0.922865
O O12 0.781782 0.056123 0.067669
O O13 0.025180 0.170494 0.734985
O O14 0.000000 0.031933 0.500000
O O15 0.951174 0.029441 0.660131
O O16 0.628038 0.822131 0.978175
O O17 0.268814 0.451045 0.268746
#
# Coordination Sequence:
#
# PCOD9120931 Si02
#       8
#     4   4   4   4   4   4   4   4
#     4  11  22  37  65  96 119 155 209 261 297 352
#     4  11  23  38  60  94 121 151 209 258 301 360
#     4  11  25  43  58  82 125 172 196 241 319 372
#     4  10  22  41  62  89 124 164 205 249 304 367
#     4  10  18  36  65  89 118 161 204 248 303 355
#     4  11  21  37  63  94 125 160 197 254 315 351
#     4  10  22  42  61  88 126 163 207 245 303 371
#     4  10  22  38  66  94 119 158 209 258 296 353
#
# _framework density 18.915626
#
# number of rings (size 3 to 8) (size 9 to 14) (size 15 to 20)
#    0.000    1.500    3.750    2.250    0.000    5.000 
#    2.250    5.000    0.000    0.000    0.000    0.000 
#    0.000    0.000    0.000    0.000    0.000    0.000 
#
# Total GULP energy -89352.955420 kJ/mol
# GULP energy per Si atom -5584.559714 kJ/mol
# Density = 1.887257 g / cm^3
# Si number density = 18.915626 Si / 1000 Ang^3
#
#
#
# Elastic Constant Matrix: (Units=GPa)
#
#
# Indices 1 2 3 4 5 6 
#
# 1 87.2968 54.0316 31.3363 0.0000 1.5613 0.0000
# 2 54.0316 92.3891 20.4251 0.0000 -4.6016 0.0000
# 3 31.3363 20.4251 72.0914 0.0000 19.2344 0.0000
# 4 0.0000 0.0000 0.0000 21.5521 0.0000 15.5702
# 5 1.5613 -4.6016 19.2344 0.0000 28.6524 0.0000
# 6 0.0000 0.0000 0.0000 15.5702 0.0000 7.7031
#
#
#
# Elastic Compliance Matrix: (Units=1/GPa)
#
#
# Indices 1 2 3 4 5 6 
#
# 1 0.019990 -0.010261 -0.006154 0.000000 0.001394 0.000000
# 2 -0.010261 0.017416 -0.001669 0.000000 0.004476 0.000000
# 3 -0.006154 -0.001669 0.020711 0.000000 -0.013836 0.000000
# 4 0.000000 0.000000 0.000000 -0.100809 0.000000 0.203764
# 5 0.001394 0.004476 -0.013836 0.000000 0.044832 0.000000
# 6 0.000000 0.000000 0.000000 0.203764 0.000000 -0.282048
#
#
# Mechanical properties :
#
#
# Convention : Reuss Voigt Hill
#
# Bulk Modulus (GPa) = 45.55802 51.48482 48.52142
# Shear Modulus (GPa) = -21.14838 21.31382 0.08272
#
# Velocity S-wave (km/s) = -3.34733 3.36040 0.20935
# Velocity P-wave (km/s) = 3.03276 6.50643 5.07598
#
# Compressibility (1/GPa) = 0.02195003
#
# Stress axis : x y z
#
# Youngs Moduli (GPa) = 50.02459 57.41700 48.28466
#
# Poissons Ratio (x) = 0.58915 0.29715
# Poissons Ratio (y) = 0.51329 0.08057
# Poissons Ratio (z) = 0.30785 0.09581
#
# Static dielectric constant tensor:
#      x y z
#    x 1.675800 0.000000 -0.017670 
#    y 0.000000 1.630270 0.000000 
#    z -0.017670 0.000000 1.661790 
# 
# From -- ./inp_files/31094.got.cif
#   From: 2010.05.17/outbox.cif.g08.bks.cpg/sg5_16_cif.got.tgz:31094.got - 2010.06.03 18:56:24.
