data_PCOD9120953
_publ_section_title
;
Structure prediction by ZEFSAII (Michael W. Deem and Ramdas Pophale) SiO2 
 PCOD9120953
Probable space group: C 2
;
_chemical_formula_sum "Si O2"
_cell_formula_units_Z 32
_cell_length_a 14.895058
_cell_length_b 11.240055
_cell_length_c 8.955329
_cell_angle_alpha 90.000000
_cell_angle_beta 80.370113
_cell_angle_gamma 90.000000
_cell_volume 1478.185619
_symmetry_space_group_name_H-M "C 2"
_symmetry_group_IT_number 5
_symmetry_cell_setting 'monoclinic'
loop_
_space_group_symop_operation_xyz
x,y,z
-x,y,-z
1/2+x,1/2+y,z
1/2-x,1/2+y,-z
loop_
_atom_site_type_symbol
_atom_site_label
_atom_site_fract_x
_atom_site_fract_y
_atom_site_fract_z
Si Si1 0.330728 0.706180 0.089405
Si Si2 0.460080 0.765687 0.298861
Si Si3 0.697702 0.384308 0.230349
Si Si4 0.357581 0.826832 0.633636
Si Si5 0.804399 0.000682 0.337137
Si Si6 0.731625 0.111985 0.648782
Si Si7 0.550613 0.552028 0.141932
Si Si8 0.899368 0.787369 0.454351
O O1 0.405026 0.781560 0.162471
O O2 0.243704 0.790570 0.106108
O O3 0.313582 0.590962 0.198585
O O4 0.377375 0.650994 0.933825
O O5 0.398238 0.797813 0.457667
O O6 0.553264 0.837200 0.290367
O O7 0.490996 0.625762 0.279344
O O8 0.764828 0.495141 0.249399
O O9 0.605739 0.443480 0.194424
O O10 0.671558 0.315982 0.390634
O O11 0.287735 0.722711 0.697253
O O12 0.294205 0.940258 0.649815
O O13 0.794539 0.073068 0.492126
O O14 0.879767 0.896928 0.344079
O O15 0.636599 0.166727 0.615389
O O16 0.500000 0.521445 0.000000
O O17 0.000000 0.783162 0.500000
#
# Coordination Sequence:
#
# PCOD9120953 Si02
#       8
#     4   4   4   4   4   4   4   4
#     4  11  22  40  58  86 123 162 209 251 294 379
#     4  10  19  37  57  92 112 147 206 261 294 359
#     4  11  22  41  62  86 128 158 201 258 313 367
#     4  10  19  32  61  88 118 147 193 255 319 356
#     4  10  20  35  56  87 121 159 193 244 310 372
#     4  10  18  37  57  87 122 154 188 247 324 370
#     4  10  24  38  62  86 120 163 220 256 288 357
#     4  10  22  34  61  93 123 151 194 255 321 368
#
# _framework density 21.648159
#
# number of rings (size 3 to 8) (size 9 to 14) (size 15 to 20)
#    0.000    1.750    3.750    1.500    3.500    1.000 
#    4.500    0.000    0.000    0.000    0.000    0.000 
#    0.000    0.000    0.000    0.000    0.000    0.000 
#
# Total GULP energy -89271.515997 kJ/mol
# GULP energy per Si atom -5579.469750 kJ/mol
# Density = 2.159889 g / cm^3
# Si number density = 21.648159 Si / 1000 Ang^3
#
#
#
# Elastic Constant Matrix: (Units=GPa)
#
#
# Indices 1 2 3 4 5 6 
#
# 1 117.6819 36.5401 3.4636 0.0000 15.8577 0.0000
# 2 36.5401 70.3782 11.8723 0.0000 -5.2852 0.0000
# 3 3.4636 11.8723 46.8479 0.0000 2.3597 0.0000
# 4 0.0000 0.0000 0.0000 18.0785 0.0000 -0.8764
# 5 15.8577 -5.2852 2.3597 0.0000 31.8242 0.0000
# 6 0.0000 0.0000 0.0000 -0.8764 0.0000 44.5969
#
#
#
# Elastic Compliance Matrix: (Units=1/GPa)
#
#
# Indices 1 2 3 4 5 6 
#
# 1 0.011465 -0.006673 0.001191 0.000000 -0.006910 0.000000
# 2 -0.006673 0.018971 -0.004658 0.000000 0.006821 0.000000
# 3 0.001191 -0.004658 0.022591 0.000000 -0.003042 0.000000
# 4 0.000000 0.000000 0.000000 0.055367 0.000000 0.001088
# 5 -0.006910 0.006821 -0.003042 0.000000 0.036224 0.000000
# 6 0.000000 0.000000 0.000000 0.001088 0.000000 0.022444
#
#
# Mechanical properties :
#
#
# Convention : Reuss Voigt Hill
#
# Bulk Modulus (GPa) = 30.53490 37.62890 34.08190
# Shear Modulus (GPa) = 25.21961 31.10207 28.16084
#
# Velocity S-wave (km/s) = 3.41688 3.79450 3.61063
# Velocity P-wave (km/s) = 5.45000 6.05124 5.75847
#
# Compressibility (1/GPa) = 0.03274941
#
# Stress axis : x y z
#
# Youngs Moduli (GPa) = 87.21952 52.71105 44.26487
#
# Poissons Ratio (x) = 0.35172 -0.05274
# Poissons Ratio (y) = 0.58198 0.20619
# Poissons Ratio (z) = -0.10391 0.24553
#
# Static dielectric constant tensor:
#      x y z
#    x 1.850030 0.000000 0.019680 
#    y 0.000000 1.798790 0.000000 
#    z 0.019680 0.000000 1.827140 
# 
# From -- ./inp_files/23890.got.cif
#   From: 2010.05.17/outbox.cif.g08.bks.cpg/sg5_12_cif.got.tgz:23890.got - 2010.06.03 18:56:24.
