data_PCOD9120385
_publ_section_title
;
Structure prediction by ZEFSAII (Michael W. Deem and Ramdas Pophale) SiO2 
 PCOD9120385
Probable space group: C 2
;
_chemical_formula_sum "Si O2"
_cell_formula_units_Z 26
_cell_length_a 12.380177
_cell_length_b 14.175545
_cell_length_c 18.914851
_cell_angle_alpha 90.000000
_cell_angle_beta 158.498791
_cell_angle_gamma 90.000000
_cell_volume 1216.657225
_symmetry_space_group_name_H-M "C 2"
_symmetry_group_IT_number 5
_symmetry_cell_setting 'monoclinic'
loop_
_space_group_symop_operation_xyz
x,y,z
-x,y,-z
1/2+x,1/2+y,z
1/2-x,1/2+y,-z
loop_
_atom_site_type_symbol
_atom_site_label
_atom_site_fract_x
_atom_site_fract_y
_atom_site_fract_z
Si Si1 0.697023 0.912710 0.180290
Si Si2 0.000000 0.586456 0.000000
Si Si3 0.000000 0.284622 0.500000
Si Si4 0.457797 0.738274 0.317303
Si Si5 0.598106 0.231844 0.638230
Si Si6 0.800496 0.958960 0.619074
Si Si7 0.850096 0.040257 0.794168
Si Si8 0.000000 0.900743 0.000000
O O1 0.756219 0.835522 0.274684
O O2 0.998241 0.943079 0.325533
O O3 0.533909 0.013161 0.086502
O O4 0.500000 0.861801 0.000000
O O5 0.281407 0.653559 0.173254
O O6 0.075485 0.230247 0.617735
O O7 0.252460 0.357641 0.627850
O O8 0.799869 0.737086 0.503381
O O9 0.279523 0.832572 0.185374
O O10 0.500000 0.205234 0.500000
O O11 0.821647 0.149422 0.797813
O O12 0.918064 0.025043 0.753195
O O13 0.485745 0.000112 0.404628
O O14 0.041786 0.971571 0.959552
#
# Coordination Sequence:
#
# PCOD9120385 Si02
#       8
#     4   2   2   4   4   4   4   2
#     4  10  23  41  60  84 131 167 197 261 323 369
#     4   9  24  41  58  88 128 165 206 265 316 366
#     4  10  18  38  68  86 116 172 216 250 300 384
#     4  11  22  41  66  92 122 166 221 257 309 382
#     4  12  24  41  63  94 128 168 206 260 321 380
#     4  10  17  41  63  89 121 171 204 250 317 378
#     4  10  21  35  67  93 120 159 215 260 311 365
#     4  11  20  37  64  98 118 159 216 273 300 366
#
# _framework density 21.370028000000001
#
# number of rings (size 3 to 8) (size 9 to 14) (size 15 to 20)
#    0.462    1.231    6.154    0.923    1.077    1.231 
#    1.385    1.538    0.000    0.000    0.000    0.000 
#    0.000    0.000    0.000    0.000    0.000    0.000 
#
# Total GULP energy -72413.367093 kJ/mol
# GULP energy per Si atom -5570.259007 kJ/mol
# Density = 2.132139 g / cm^3
# Si number density = 21.370028 Si / 1000 Ang^3
#
#
#
# Elastic Constant Matrix: (Units=GPa)
#
#
# Indices 1 2 3 4 5 6 
#
# 1 48.9755 22.7576 14.1593 -0.1091 -2.3979 -0.0614
# 2 22.7576 148.3775 28.5102 0.1303 -9.5816 0.0046
# 3 14.1593 28.5102 39.4328 0.0673 -5.3596 -0.0131
# 4 -0.1091 0.1303 0.0673 38.2914 -0.0193 -12.7934
# 5 -2.3979 -9.5816 -5.3596 -0.0193 31.8859 -0.0578
# 6 -0.0614 0.0046 -0.0131 -12.7934 -0.0578 23.9732
#
#
#
# Elastic Compliance Matrix: (Units=1/GPa)
#
#
# Indices 1 2 3 4 5 6 
#
# 1 0.023440 -0.002300 -0.006763 0.000128 -0.000065 0.000125
# 2 -0.002300 0.008117 -0.004846 -0.000033 0.001452 -0.000024
# 3 -0.006763 -0.004846 0.031750 -0.000066 0.003372 -0.000026
# 4 0.000128 -0.000033 -0.000066 0.031783 0.000039 0.016962
# 5 -0.000065 0.001452 0.003372 0.000039 0.032360 0.000100
# 6 0.000125 -0.000024 -0.000026 0.016962 0.000100 0.050765
#
#
# Mechanical properties :
#
#
# Convention : Reuss Voigt Hill
#
# Bulk Modulus (GPa) = 28.17693 40.84889 34.51291
# Shear Modulus (GPa) = 22.95040 30.25404 26.60222
#
# Velocity S-wave (km/s) = 3.28068 3.76669 3.53205
# Velocity P-wave (km/s) = 5.25017 6.17040 5.72879
#
# Compressibility (1/GPa) = 0.03549003
#
# Stress axis : x y z
#
# Youngs Moduli (GPa) = 42.66303 123.19598 31.49642
#
# Poissons Ratio (x) = 0.28334 0.21300
# Poissons Ratio (y) = 0.09812 0.15262
# Poissons Ratio (z) = 0.28851 0.59695
#
# Static dielectric constant tensor:
#      x y z
#    x 1.782700 0.000040 0.018260 
#    y 0.000040 1.816070 -0.000060 
#    z 0.018260 -0.000060 1.827510 
# 
# From -- ./inp_files/66170.got.cif
#   From: 2010.05.17/outbox.cif.g08.bks.cpg/sg5_34_cif.got.tgz:66170.got - 2010.06.03 18:56:24.
