data_PCOD9120655
_publ_section_title
;
Structure prediction by ZEFSAII (Michael W. Deem and Ramdas Pophale) SiO2 
 PCOD9120655
Probable space group: C 2
;
_chemical_formula_sum "Si O2"
_cell_formula_units_Z 24
_cell_length_a 10.413781
_cell_length_b 19.942878
_cell_length_c 5.463694
_cell_angle_alpha 90.000000
_cell_angle_beta 102.362035
_cell_angle_gamma 90.000000
_cell_volume 1108.395292
_symmetry_space_group_name_H-M "C 2"
_symmetry_group_IT_number 5
_symmetry_cell_setting 'monoclinic'
loop_
_space_group_symop_operation_xyz
x,y,z
-x,y,-z
1/2+x,1/2+y,z
1/2-x,1/2+y,-z
loop_
_atom_site_type_symbol
_atom_site_label
_atom_site_fract_x
_atom_site_fract_y
_atom_site_fract_z
Si Si1 0.869744 0.397220 0.551861
Si Si2 0.500000 0.457332 0.000000
Si Si3 0.161190 0.650448 0.563758
Si Si4 0.500000 0.993667 0.000000
Si Si5 0.606658 0.339930 0.363313
Si Si6 0.847178 0.718508 0.936669
Si Si7 0.766259 0.519129 0.189769
O O1 0.741952 0.354381 0.560407
O O2 0.816895 0.449298 0.325739
O O3 0.000000 0.361125 0.500000
O O4 0.921933 0.444563 0.786905
O O5 0.536730 0.407567 0.238108
O O6 0.627831 0.502973 0.011583
O O7 0.207306 0.683503 0.329313
O O8 0.230754 0.578300 0.614513
O O9 0.000000 0.643107 0.500000
O O10 0.202374 0.694591 0.819634
O O11 0.385848 0.039145 0.062931
O O12 0.500000 0.305414 0.500000
O O13 0.648446 0.296832 0.142196
O O14 0.000000 0.699721 0.000000
#
# Coordination Sequence:
#
# PCOD9120655 Si02
#       7
#     4   2   4   2   4   4   4
#     4   9  20  35  55  85 118 154 196 247 310 366
#     4  10  22  38  59  89 124 162 188 256 322 370
#     4  10  21  36  59  89 117 160 204 259 299 357
#     4  10  18  34  55  85 110 154 192 252 290 374
#     4  11  20  36  59  89 120 153 205 256 308 368
#     4  10  21  36  59  89 118 156 208 260 300 347
#     4  10  21  35  58  87 120 151 204 242 316 363
#
# _framework density 21.652926000000001
#
# number of rings (size 3 to 8) (size 9 to 14) (size 15 to 20)
#    0.000    2.000    0.833    4.000    5.833    0.000 
#    0.000    0.000    3.667    0.000    0.000    0.000 
#    0.000    0.000    0.000    0.000    0.000    0.000 
#
# Total GULP energy -66917.110118 kJ/mol
# GULP energy per Si atom -5576.425843 kJ/mol
# Density = 2.160364 g / cm^3
# Si number density = 21.652926 Si / 1000 Ang^3
#
#
#
# Elastic Constant Matrix: (Units=GPa)
#
#
# Indices 1 2 3 4 5 6 
#
# 1 91.9471 31.3027 44.2256 0.0000 24.1415 0.0000
# 2 31.3027 66.3279 16.1468 0.0000 10.5686 0.0000
# 3 44.2256 16.1468 91.2083 0.0000 10.6046 0.0000
# 4 0.0000 0.0000 0.0000 36.8986 0.0000 -4.9374
# 5 24.1415 10.5686 10.6046 0.0000 27.6893 0.0000
# 6 0.0000 0.0000 0.0000 -4.9374 0.0000 3.8088
#
#
#
# Elastic Compliance Matrix: (Units=1/GPa)
#
#
# Indices 1 2 3 4 5 6 
#
# 1 0.019246 -0.005471 -0.006965 0.000000 -0.012024 0.000000
# 2 -0.005471 0.018053 -0.000310 0.000000 -0.002002 0.000000
# 3 -0.006965 -0.000310 0.014314 0.000000 0.000709 0.000000
# 4 0.000000 0.000000 0.000000 0.032789 0.000000 0.042505
# 5 -0.012024 -0.002002 0.000709 0.000000 0.047091 0.000000
# 6 0.000000 0.000000 0.000000 0.042505 0.000000 0.317653
#
#
# Mechanical properties :
#
#
# Convention : Reuss Voigt Hill
#
# Bulk Modulus (GPa) = 38.28680 48.09263 43.18971
# Shear Modulus (GPa) = 10.34457 24.19987 17.27222
#
# Velocity S-wave (km/s) = 2.18811 3.34672 2.82740
# Velocity P-wave (km/s) = 4.90960 6.09860 5.53611
#
# Compressibility (1/GPa) = 0.02611866
#
# Stress axis : x y z
#
# Youngs Moduli (GPa) = 51.95957 55.39181 69.86263
#
# Poissons Ratio (x) = 0.30307 0.48662
# Poissons Ratio (y) = 0.28429 0.02168
# Poissons Ratio (z) = 0.36192 0.01719
#
# Static dielectric constant tensor:
#      x y z
#    x 1.830000 0.000000 -0.071360 
#    y 0.000000 1.816740 0.000000 
#    z -0.071360 0.000000 1.862310 
# 
# From -- ./inp_files/5555.got.cif
#   From: 2010.05.17/outbox.cif.g08.bks.cpg/sg5_3_cif.got.tgz:5555.got - 2010.06.03 18:56:24.
