data_PCOD9120375
_publ_section_title
;
Structure prediction by ZEFSAII (Michael W. Deem and Ramdas Pophale) SiO2 
 PCOD9120375
Probable space group: C 2
;
_chemical_formula_sum "Si O2"
_cell_formula_units_Z 28
_cell_length_a 10.028368
_cell_length_b 10.185763
_cell_length_c 13.681972
_cell_angle_alpha 90.000000
_cell_angle_beta 107.851506
_cell_angle_gamma 90.000000
_cell_volume 1330.279684
_symmetry_space_group_name_H-M "C 2"
_symmetry_group_IT_number 5
_symmetry_cell_setting 'monoclinic'
loop_
_space_group_symop_operation_xyz
x,y,z
-x,y,-z
1/2+x,1/2+y,z
1/2-x,1/2+y,-z
loop_
_atom_site_type_symbol
_atom_site_label
_atom_site_fract_x
_atom_site_fract_y
_atom_site_fract_z
Si Si1 0.703116 0.445310 0.509775
Si Si2 0.839118 0.444375 0.948640
Si Si3 0.322231 0.475303 0.268884
Si Si4 0.184864 0.686877 0.717030
Si Si5 0.831632 0.133069 0.948736
Si Si6 0.500000 0.205444 0.500000
Si Si7 0.045872 0.163684 0.346866
Si Si8 0.000000 0.363011 0.500000
O O1 0.706953 0.490913 0.623031
O O2 0.614860 0.551537 0.430402
O O3 0.621869 0.305574 0.490088
O O4 0.855825 0.432388 0.497979
O O5 0.810469 0.476898 0.829251
O O6 0.811476 0.289686 0.961995
O O7 0.743963 0.537115 0.993085
O O8 0.000000 0.470880 0.000000
O O9 0.380056 0.327419 0.267278
O O10 0.430241 0.586244 0.259996
O O11 0.249786 0.612200 0.825254
O O12 0.070917 0.635930 0.611304
O O13 0.327506 0.718913 0.688604
O O14 0.000000 0.111470 0.000000
O O15 0.975344 0.270761 0.400024
#
# Coordination Sequence:
#
# PCOD9120375 Si02
#       8
#     4   4   4   4   4   2   4   2
#     4  11  21  38  59  92 126 163 212 248 308 383
#     4  10  23  44  66  95 128 164 219 272 328 382
#     4  10  19  38  65  84 123 170 201 258 322 371
#     4  10  21  37  66  90 125 167 211 255 319 382
#     4  10  22  45  70  95 126 171 219 275 324 383
#     4  10  17  39  60  84 136 166 193 257 320 382
#     4  12  20  39  60  88 127 169 199 255 318 371
#     4  12  23  37  58  92 130 160 215 251 294 390
#
# _framework density 21.048207000000001
#
# number of rings (size 3 to 8) (size 9 to 14) (size 15 to 20)
#    0.000    1.429    7.143    0.857    0.000    1.143 
#    7.714    0.000    0.000    0.000    0.000    0.000 
#    0.000    0.000    0.000    0.000    0.000    0.000 
#
# Total GULP energy -78064.629884 kJ/mol
# GULP energy per Si atom -5576.044992 kJ/mol
# Density = 2.100030 g / cm^3
# Si number density = 21.048207 Si / 1000 Ang^3
#
#
#
# Elastic Constant Matrix: (Units=GPa)
#
#
# Indices 1 2 3 4 5 6 
#
# 1 117.8631 36.8500 37.3661 0.0000 15.9963 0.0000
# 2 36.8500 49.1243 17.9886 0.0000 11.4252 0.0000
# 3 37.3661 17.9886 140.5973 0.0000 31.0204 0.0000
# 4 0.0000 0.0000 0.0000 27.7749 0.0000 9.7746
# 5 15.9963 11.4252 31.0204 0.0000 35.4989 0.0000
# 6 0.0000 0.0000 0.0000 9.7746 0.0000 45.0926
#
#
#
# Elastic Compliance Matrix: (Units=1/GPa)
#
#
# Indices 1 2 3 4 5 6 
#
# 1 0.011667 -0.007812 -0.001853 0.000000 -0.001124 0.000000
# 2 -0.007812 0.027511 -0.000331 0.000000 -0.005045 0.000000
# 3 -0.001853 -0.000331 0.009217 0.000000 -0.007112 0.000000
# 4 0.000000 0.000000 0.000000 0.038977 0.000000 -0.008449
# 5 -0.001124 -0.005045 -0.007112 0.000000 0.036515 0.000000
# 6 0.000000 0.000000 0.000000 -0.008449 0.000000 0.024008
#
#
# Mechanical properties :
#
#
# Convention : Reuss Voigt Hill
#
# Bulk Modulus (GPa) = 35.20753 54.66599 44.93676
# Shear Modulus (GPa) = 28.19231 36.03195 32.11213
#
# Velocity S-wave (km/s) = 3.66377 4.14197 3.91019
# Velocity P-wave (km/s) = 5.88736 6.99305 6.46389
#
# Compressibility (1/GPa) = 0.02840302
#
# Stress axis : x y z
#
# Youngs Moduli (GPa) = 85.71320 36.34921 108.50031
#
# Poissons Ratio (x) = 0.28395 0.20108
# Poissons Ratio (y) = 0.66957 0.03587
# Poissons Ratio (z) = 0.15885 0.01202
#
# Static dielectric constant tensor:
#      x y z
#    x 1.725880 0.000000 0.021200 
#    y 0.000000 1.804090 0.000000 
#    z 0.021200 0.000000 1.807570 
# 
# From -- ./inp_files/50357.got.cif
#   From: 2010.05.17/outbox.cif.g08.bks.cpg/sg5_26_cif.got.tgz:50357.got - 2010.06.03 18:56:24.
