data_PCOD9120213
_publ_section_title
;
Structure prediction by ZEFSAII (Michael W. Deem and Ramdas Pophale) SiO2 
 PCOD9120213
Probable space group: C 2
;
_chemical_formula_sum "Si O2"
_cell_formula_units_Z 32
_cell_length_a 14.174355
_cell_length_b 11.416564
_cell_length_c 11.816279
_cell_angle_alpha 90.000000
_cell_angle_beta 57.035770
_cell_angle_gamma 90.000000
_cell_volume 1604.304549
_symmetry_space_group_name_H-M "C 2"
_symmetry_group_IT_number 5
_symmetry_cell_setting 'monoclinic'
loop_
_space_group_symop_operation_xyz
x,y,z
-x,y,-z
1/2+x,1/2+y,z
1/2-x,1/2+y,-z
loop_
_atom_site_type_symbol
_atom_site_label
_atom_site_fract_x
_atom_site_fract_y
_atom_site_fract_z
Si Si1 0.877013 0.568340 0.023165
Si Si2 0.469092 0.072318 0.395079
Si Si3 0.967302 0.199136 0.393512
Si Si4 0.979127 0.379139 0.808661
Si Si5 0.644437 0.242443 0.157239
Si Si6 0.217826 0.769503 0.481887
Si Si7 0.017826 0.922008 0.624739
Si Si8 0.309571 0.861492 0.189706
O O1 0.850995 0.685868 0.970740
O O2 0.887191 0.463165 0.924039
O O3 0.800040 0.500395 0.165123
O O4 0.000000 0.584654 0.000000
O O5 0.500000 0.031004 0.500000
O O6 0.573208 0.149374 0.278869
O O7 0.360478 0.154728 0.470732
O O8 0.452788 0.967111 0.319035
O O9 0.045510 0.269517 0.254034
O O10 0.837913 0.237722 0.456127
O O11 0.000000 0.227378 0.500000
O O12 0.980127 0.060867 0.367418
O O13 0.063258 0.343146 0.853090
O O14 0.575846 0.360949 0.234446
O O15 0.768059 0.273624 0.120057
O O16 0.136163 0.866872 0.589133
O O17 0.239414 0.821606 0.343724
O O18 0.000000 0.893474 0.500000
#
# Coordination Sequence:
#
# PCOD9120213 Si02
#       8
#     4   4   4   4   4   4   4   4
#     4   9  20  38  59  74 105 149 192 236 275 326
#     4  10  17  31  58  88 114 146 181 231 270 340
#     4  10  22  34  51  83 121 146 181 224 279 338
#     4   9  20  34  54  81 114 149 183 225 282 325
#     4  10  18  35  60  82 106 143 196 225 281 333
#     4  10  19  32  57  84 111 150 183 220 284 337
#     4  10  19  36  57  81 114 149 178 225 281 350
#     4  10  18  35  57  83 105 144 192 228 273 338
#
# _framework density 19.946338000000001
#
# number of rings (size 3 to 8) (size 9 to 14) (size 15 to 20)
#    0.000    2.250    2.500    1.125    3.500    0.000 
#    2.250    0.000    5.500    0.000    0.000    0.000 
#    0.000    0.000    0.000    0.000    0.000    0.000 
#
# Total GULP energy -89102.195144 kJ/mol
# GULP energy per Si atom -5568.887196 kJ/mol
# Density = 1.990094 g / cm^3
# Si number density = 19.946338 Si / 1000 Ang^3
#
#
#
# Elastic Constant Matrix: (Units=GPa)
#
#
# Indices 1 2 3 4 5 6 
#
# 1 75.3982 45.0864 27.7284 0.0000 25.9400 0.0000
# 2 45.0864 101.3736 37.2082 0.0000 13.3829 0.0000
# 3 27.7284 37.2082 65.0374 0.0000 14.8040 0.0000
# 4 0.0000 0.0000 0.0000 33.8112 0.0000 15.9159
# 5 25.9400 13.3829 14.8040 0.0000 21.5625 0.0000
# 6 0.0000 0.0000 0.0000 15.9159 0.0000 21.2060
#
#
#
# Elastic Compliance Matrix: (Units=1/GPa)
#
#
# Indices 1 2 3 4 5 6 
#
# 1 0.028463 -0.008645 -0.000731 0.000000 -0.028374 0.000000
# 2 -0.008645 0.015323 -0.006261 0.000000 0.005189 0.000000
# 3 -0.000731 -0.006261 0.021553 0.000000 -0.010032 0.000000
# 4 0.000000 0.000000 0.000000 0.045734 0.000000 -0.034325
# 5 -0.028374 0.005189 -0.010032 0.000000 0.084179 0.000000
# 6 0.000000 0.000000 0.000000 -0.034325 0.000000 0.072919
#
#
# Mechanical properties :
#
#
# Convention : Reuss Voigt Hill
#
# Bulk Modulus (GPa) = 29.35615 51.31725 40.33670
# Shear Modulus (GPa) = 16.08758 24.10169 20.09463
#
# Velocity S-wave (km/s) = 2.84305 3.47987 3.17745
# Velocity P-wave (km/s) = 5.05240 6.47530 5.80759
#
# Compressibility (1/GPa) = 0.03406441
#
# Stress axis : x y z
#
# Youngs Moduli (GPa) = 35.13334 65.26302 46.39712
#
# Poissons Ratio (x) = 0.56420 0.03390
# Poissons Ratio (y) = 0.30373 0.29051
# Poissons Ratio (z) = 0.02567 0.40864
#
# Static dielectric constant tensor:
#      x y z
#    x 1.744960 0.000000 -0.028820 
#    y 0.000000 1.712580 0.000000 
#    z -0.028820 0.000000 1.774580 
# 
# From -- ./inp_files/42472.got.cif
#   From: 2010.05.17/outbox.cif.g08.bks.cpg/sg5_22_cif.got.tgz:42472.got - 2010.06.03 18:56:24.
