data_PCOD9120154
_publ_section_title
;
Structure prediction by ZEFSAII (Michael W. Deem and Ramdas Pophale) SiO2 
 PCOD9120154
Probable space group: C 2
;
_chemical_formula_sum "Si O2"
_cell_formula_units_Z 32
_cell_length_a 23.923573
_cell_length_b 7.023465
_cell_length_c 9.348025
_cell_angle_alpha 90.000000
_cell_angle_beta 58.781093
_cell_angle_gamma 90.000000
_cell_volume 1343.264708
_symmetry_space_group_name_H-M "C 2"
_symmetry_group_IT_number 5
_symmetry_cell_setting 'monoclinic'
loop_
_space_group_symop_operation_xyz
x,y,z
-x,y,-z
1/2+x,1/2+y,z
1/2-x,1/2+y,-z
loop_
_atom_site_type_symbol
_atom_site_label
_atom_site_fract_x
_atom_site_fract_y
_atom_site_fract_z
Si Si1 0.314692 0.527580 0.471112
Si Si2 0.698385 0.138025 0.120853
Si Si3 0.038943 0.972034 0.309742
Si Si4 0.188203 0.583203 0.451402
Si Si5 0.933279 0.577049 0.222853
Si Si6 0.921753 0.588329 0.911327
Si Si7 0.949960 0.035772 0.189553
Si Si8 0.326637 0.580275 0.775260
O O1 0.247776 0.533467 0.474631
O O2 0.323659 0.308137 0.504374
O O3 0.374627 0.596650 0.292104
O O4 0.314894 0.628048 0.624806
O O5 0.704455 0.040072 0.266550
O O6 0.641642 0.039881 0.100425
O O7 0.678261 0.351900 0.190770
O O8 0.766938 0.155496 0.948735
O O9 0.098411 0.108463 0.276391
O O10 0.000000 0.889791 0.500000
O O11 0.983856 0.080882 0.294193
O O12 0.065312 0.805493 0.167064
O O13 0.119339 0.505051 0.595424
O O14 0.004270 0.505779 0.181279
O O15 0.944411 0.805499 0.194981
O O16 0.905454 0.546093 0.099340
O O17 0.000000 0.097640 0.000000
#
# Coordination Sequence:
#
# PCOD9120154 Si02
#       8
#     4   4   4   4   4   4   4   4
#     4  10  21  36  53  79 111 143 175 220 268 320
#     4  10  22  34  53  82 107 143 180 217 265 316
#     4  10  17  29  50  78 106 133 174 225 269 306
#     4  10  22  34  54  80 109 141 181 218 265 318
#     4   9  16  30  48  76 104 134 171 216 266 310
#     4   9  17  28  50  75 104 135 169 218 267 308
#     4  10  17  29  50  80 104 133 178 221 267 313
#     4  10  21  36  53  79 111 143 176 219 268 317
#
# _framework density 23.822559999999999
#
# number of rings (size 3 to 8) (size 9 to 14) (size 15 to 20)
#    0.000    2.250    3.750    0.750    7.000    2.000 
#    0.000    0.000    0.000    1.500    3.250    0.000 
#    0.000    0.000    0.000    0.000    0.000    0.000 
#
# Total GULP energy -89194.529024 kJ/mol
# GULP energy per Si atom -5574.658064 kJ/mol
# Density = 2.376834 g / cm^3
# Si number density = 23.822560 Si / 1000 Ang^3
#
#
#
# Elastic Constant Matrix: (Units=GPa)
#
#
# Indices 1 2 3 4 5 6 
#
# 1 158.4884 -16.7510 69.6264 0.0000 3.5940 0.0000
# 2 -16.7510 61.6965 -8.7756 0.0000 3.4466 0.0000
# 3 69.6264 -8.7756 147.0986 0.0000 -6.2880 0.0000
# 4 0.0000 0.0000 0.0000 13.6263 0.0000 2.6612
# 5 3.5940 3.4466 -6.2880 0.0000 34.4820 0.0000
# 6 0.0000 0.0000 0.0000 2.6612 0.0000 11.8915
#
#
#
# Elastic Compliance Matrix: (Units=1/GPa)
#
#
# Indices 1 2 3 4 5 6 
#
# 1 0.008236 0.001784 -0.003867 0.000000 -0.001742 0.000000
# 2 0.001784 0.016807 0.000079 0.000000 -0.001851 0.000000
# 3 -0.003867 0.000079 0.008718 0.000000 0.001985 0.000000
# 4 0.000000 0.000000 0.000000 0.076741 0.000000 -0.017174
# 5 -0.001742 -0.001851 0.001985 0.000000 0.029729 0.000000
# 6 0.000000 0.000000 0.000000 -0.017174 0.000000 0.087937
#
#
# Mechanical properties :
#
#
# Convention : Reuss Voigt Hill
#
# Bulk Modulus (GPa) = 33.60874 50.60923 42.10899
# Shear Modulus (GPa) = 20.65313 33.54555 27.09934
#
# Velocity S-wave (km/s) = 2.94761 3.75659 3.37642
# Velocity P-wave (km/s) = 5.07179 6.33296 5.73714
#
# Compressibility (1/GPa) = 0.02975416
#
# Stress axis : x y z
#
# Youngs Moduli (GPa) = 121.41461 59.49786 114.70670
#
# Poissons Ratio (x) = -0.10612 0.44352
# Poissons Ratio (y) = -0.21655 -0.00910
# Poissons Ratio (z) = 0.46945 -0.00472
#
# Static dielectric constant tensor:
#      x y z
#    x 1.884990 0.000000 -0.009550 
#    y 0.000000 2.068290 0.000000 
#    z -0.009550 0.000000 1.922690 
# 
# From -- ./inp_files/30798.got.cif
#   From: 2010.05.17/outbox.cif.g08.bks.cpg/sg5_16_cif.got.tgz:30798.got - 2010.06.03 18:56:24.
