data_PCOD9120269
_publ_section_title
;
Structure prediction by ZEFSAII (Michael W. Deem and Ramdas Pophale) SiO2 
 PCOD9120269
Probable space group: C 2
;
_chemical_formula_sum "Si O2"
_cell_formula_units_Z 28
_cell_length_a 21.227879
_cell_length_b 14.906387
_cell_length_c 9.026865
_cell_angle_alpha 90.000000
_cell_angle_beta 149.511966
_cell_angle_gamma 90.000000
_cell_volume 1449.208263
_symmetry_space_group_name_H-M "C 2"
_symmetry_group_IT_number 5
_symmetry_cell_setting 'monoclinic'
loop_
_space_group_symop_operation_xyz
x,y,z
-x,y,-z
1/2+x,1/2+y,z
1/2-x,1/2+y,-z
loop_
_atom_site_type_symbol
_atom_site_label
_atom_site_fract_x
_atom_site_fract_y
_atom_site_fract_z
Si Si1 0.154725 0.033810 0.644136
Si Si2 0.367809 0.069413 0.307069
Si Si3 0.641057 0.398545 0.352139
Si Si4 0.553300 0.625538 0.939901
Si Si5 0.272994 0.449933 0.761910
Si Si6 0.269982 0.242923 0.262017
Si Si7 0.131180 0.853630 0.777538
O O1 0.055199 0.109464 0.400615
O O2 0.170862 0.982302 0.520469
O O3 0.112998 0.949750 0.660464
O O4 0.268491 0.071362 0.970366
O O5 0.500000 0.062074 0.500000
O O6 0.347274 0.156341 0.367261
O O7 0.334924 0.987178 0.351153
O O8 0.742792 0.405418 0.428575
O O9 0.658703 0.307513 0.479552
O O10 0.500000 0.403533 0.000000
O O11 0.500000 0.632161 0.000000
O O12 0.637978 0.535672 0.091379
O O13 0.642463 0.707120 0.073734
O O14 0.340847 0.375515 0.997961
O O15 0.262690 0.302330 0.097485
O O16 0.000000 0.803557 0.500000
#
# Coordination Sequence:
#
# PCOD9120269 Si02
#       7
#     4   4   4   4   4   4   4
#     4  10  19  36  72  88 117 168 220 261 295 372
#     4  10  23  41  57  93 128 165 207 262 319 381
#     4  11  19  40  66 100 121 163 220 264 301 383
#     4  11  19  39  62  98 120 158 214 271 306 379
#     4  10  18  34  67  86 118 155 223 251 297 368
#     4  10  24  36  57  91 138 154 203 263 330 354
#     4  10  17  33  61  93 116 164 210 256 294 367
#
# _framework density 19.320893999999999
#
# number of rings (size 3 to 8) (size 9 to 14) (size 15 to 20)
#    0.000    1.714    4.286    1.286    0.000    0.000 
#    5.143    5.000   18.857    0.000    0.000    0.000 
#    0.000    0.000    0.000    0.000    0.000    0.000 
#
# Total GULP energy -77973.140399 kJ/mol
# GULP energy per Si atom -5569.510029 kJ/mol
# Density = 1.927692 g / cm^3
# Si number density = 19.320894 Si / 1000 Ang^3
#
#
#
# Elastic Constant Matrix: (Units=GPa)
#
#
# Indices 1 2 3 4 5 6 
#
# 1 136.8800 32.8588 43.1945 0.0000 6.8434 0.0000
# 2 32.8588 63.7334 29.4903 0.0000 3.5075 0.0000
# 3 43.1945 29.4903 54.2407 0.0000 3.1170 0.0000
# 4 0.0000 0.0000 0.0000 17.8561 0.0000 -0.4598
# 5 6.8434 3.5075 3.1170 0.0000 33.8367 0.0000
# 6 0.0000 0.0000 0.0000 -0.4598 0.0000 15.6594
#
#
#
# Elastic Compliance Matrix: (Units=1/GPa)
#
#
# Indices 1 2 3 4 5 6 
#
# 1 0.009984 -0.001917 -0.006840 0.000000 -0.001190 0.000000
# 2 -0.001917 0.021375 -0.010043 0.000000 -0.000903 0.000000
# 3 -0.006840 -0.010043 0.029360 0.000000 -0.000280 0.000000
# 4 0.000000 0.000000 0.000000 0.056046 0.000000 0.001646
# 5 -0.001190 -0.000903 -0.000280 0.000000 0.029914 0.000000
# 6 0.000000 0.000000 0.000000 0.001646 0.000000 0.063908
#
#
# Mechanical properties :
#
#
# Convention : Reuss Voigt Hill
#
# Bulk Modulus (GPa) = 43.25469 51.77125 47.51297
# Shear Modulus (GPa) = 19.53940 23.42447 21.48194
#
# Velocity S-wave (km/s) = 3.18356 3.48572 3.33806
# Velocity P-wave (km/s) = 5.99579 6.56155 6.28504
#
# Compressibility (1/GPa) = 0.02311888
#
# Stress axis : x y z
#
# Youngs Moduli (GPa) = 100.16238 46.78258 34.06001
#
# Poissons Ratio (x) = 0.08967 0.23297
# Poissons Ratio (y) = 0.19200 0.34208
# Poissons Ratio (z) = 0.68511 0.46985
#
# Static dielectric constant tensor:
#      x y z
#    x 1.723470 0.000000 0.006460 
#    y 0.000000 1.715030 0.000000 
#    z 0.006460 0.000000 1.690320 
# 
# From -- ./inp_files/20088.got.cif
#   From: 2010.05.17/outbox.cif.g08.bks.cpg/sg5_11_cif.got.tgz:20088.got - 2010.06.03 18:56:24.
