data_PCOD9120712
_publ_section_title
;
Structure prediction by ZEFSAII (Michael W. Deem and Ramdas Pophale) SiO2 
 PCOD9120712
Probable space group: C 2
;
_chemical_formula_sum "Si O2"
_cell_formula_units_Z 24
_cell_length_a 12.803576
_cell_length_b 17.168621
_cell_length_c 8.930403
_cell_angle_alpha 90.000000
_cell_angle_beta 142.860883
_cell_angle_gamma 90.000000
_cell_volume 1185.213546
_symmetry_space_group_name_H-M "C 2"
_symmetry_group_IT_number 5
_symmetry_cell_setting 'monoclinic'
loop_
_space_group_symop_operation_xyz
x,y,z
-x,y,-z
1/2+x,1/2+y,z
1/2-x,1/2+y,-z
loop_
_atom_site_type_symbol
_atom_site_label
_atom_site_fract_x
_atom_site_fract_y
_atom_site_fract_z
Si Si1 0.694024 0.489290 0.788463
Si Si2 0.908824 0.203217 0.751717
Si Si3 0.671143 0.339959 0.601880
Si Si4 0.934907 0.912715 0.091124
Si Si5 0.141617 0.282581 0.770385
Si Si6 0.198490 0.644911 0.234119
O O1 0.500000 0.496602 0.500000
O O2 0.762967 0.405934 0.808183
O O3 0.662521 0.481655 0.929875
O O4 0.795521 0.560612 0.835935
O O5 0.780974 0.267610 0.675207
O O6 0.795983 0.151135 0.506408
O O7 0.050479 0.252342 0.817280
O O8 0.000000 0.163691 0.000000
O O9 0.500000 0.315436 0.500000
O O10 0.600941 0.386147 0.377116
O O11 0.804621 0.839530 0.956012
O O12 0.000000 0.929551 0.000000
O O13 0.197645 0.203982 0.751165
O O14 0.000000 0.321638 0.500000
O O15 0.000000 0.671540 0.000000
#
# Coordination Sequence:
#
# PCOD9120712 Si02
#       6
#     4   4   4   4   4   4
#     4   9  20  38  58  81 115 154 192 239 299 356
#     4  11  21  35  61  91 119 155 199 246 285 345
#     4   9  19  35  58  88 120 150 187 237 294 351
#     4  10  18  34  60  87 116 153 195 241 289 352
#     4  10  20  34  57  89 122 153 194 242 293 351
#     4  11  23  40  60  82 119 163 198 241 302 355
#
# _framework density 20.249516
#
# number of rings (size 3 to 8) (size 9 to 14) (size 15 to 20)
#    0.000    2.333    0.000    7.000    0.000    2.000 
#    0.000    7.500    0.000    0.000    0.000    0.000 
#    0.000    0.000    0.000    0.000    0.000    0.000 
#
# Total GULP energy -66904.975137 kJ/mol
# GULP energy per Si atom -5575.414595 kJ/mol
# Density = 2.020343 g / cm^3
# Si number density = 20.249516 Si / 1000 Ang^3
#
#
#
# Elastic Constant Matrix: (Units=GPa)
#
#
# Indices 1 2 3 4 5 6 
#
# 1 146.4410 41.1970 50.6120 0.0000 -26.4658 0.0000
# 2 41.1970 61.0033 15.8559 0.0000 -2.0008 0.0000
# 3 50.6120 15.8559 77.4379 0.0000 -23.9827 0.0000
# 4 0.0000 0.0000 0.0000 13.3864 0.0000 1.0142
# 5 -26.4658 -2.0008 -23.9827 0.0000 37.2915 0.0000
# 6 0.0000 0.0000 0.0000 1.0142 0.0000 18.6339
#
#
#
# Elastic Compliance Matrix: (Units=1/GPa)
#
#
# Indices 1 2 3 4 5 6 
#
# 1 0.010896 -0.006045 -0.004482 0.000000 0.004526 0.000000
# 2 -0.006045 0.020753 -0.001601 0.000000 -0.004206 0.000000
# 3 -0.004482 -0.001601 0.018929 0.000000 0.008907 0.000000
# 4 0.000000 0.000000 0.000000 0.075012 0.000000 -0.004083
# 5 0.004526 -0.004206 0.008907 0.000000 0.035531 0.000000
# 6 0.000000 0.000000 0.000000 -0.004083 0.000000 0.053888
#
#
# Mechanical properties :
#
#
# Convention : Reuss Voigt Hill
#
# Bulk Modulus (GPa) = 37.99074 55.57912 46.78493
# Shear Modulus (GPa) = 20.15802 25.67684 22.91743
#
# Velocity S-wave (km/s) = 3.15855 3.56479 3.36780
# Velocity P-wave (km/s) = 5.66603 6.66711 6.18685
#
# Compressibility (1/GPa) = 0.02632221
#
# Stress axis : x y z
#
# Youngs Moduli (GPa) = 91.77311 48.18531 52.82815
#
# Poissons Ratio (x) = 0.29129 0.23678
# Poissons Ratio (y) = 0.55479 0.08458
# Poissons Ratio (z) = 0.41134 0.07715
#
# Static dielectric constant tensor:
#      x y z
#    x 1.728230 0.000000 -0.029450 
#    y 0.000000 1.736190 0.000000 
#    z -0.029450 0.000000 1.789040 
# 
# From -- ./inp_files/21185.got.cif
#   From: 2010.05.17/outbox.cif.g08.bks.cpg/sg5_11_cif.got.tgz:21185.got - 2010.06.03 18:56:24.
