data_PCOD9120113
_publ_section_title
;
Structure prediction by ZEFSAII (Michael W. Deem and Ramdas Pophale) SiO2 
 PCOD9120113
Probable space group: C 2
;
_chemical_formula_sum "Si O2"
_cell_formula_units_Z 26
_cell_length_a 9.929272
_cell_length_b 15.505995
_cell_length_c 14.924163
_cell_angle_alpha 90.000000
_cell_angle_beta 34.841031
_cell_angle_gamma 90.000000
_cell_volume 1312.720813
_symmetry_space_group_name_H-M "C 2"
_symmetry_group_IT_number 5
_symmetry_cell_setting 'monoclinic'
loop_
_space_group_symop_operation_xyz
x,y,z
-x,y,-z
1/2+x,1/2+y,z
1/2-x,1/2+y,-z
loop_
_atom_site_type_symbol
_atom_site_label
_atom_site_fract_x
_atom_site_fract_y
_atom_site_fract_z
Si Si1 0.736666 0.127720 0.185089
Si Si2 0.048982 0.673828 0.825157
Si Si3 0.500000 0.634874 0.500000
Si Si4 0.573151 0.930672 0.240425
Si Si5 0.000000 0.804555 0.000000
Si Si6 0.000000 0.604925 0.500000
Si Si7 0.114367 0.476724 0.847130
Si Si8 0.333398 0.501332 0.447361
O O1 0.574859 0.177013 0.202515
O O2 0.642731 0.149028 0.337818
O O3 0.681460 0.025220 0.203814
O O4 0.000000 0.140524 0.000000
O O5 0.326900 0.688118 0.656902
O O6 0.038659 0.576994 0.871569
O O7 0.940462 0.742023 0.950771
O O8 0.344268 0.570860 0.523374
O O9 0.776680 0.862800 0.144852
O O10 0.480648 0.929251 0.188877
O O11 0.339955 0.925087 0.428408
O O12 0.206888 0.548177 0.433702
O O13 0.395489 0.475083 0.707982
O O14 0.000000 0.443688 0.000000
#
# Coordination Sequence:
#
# PCOD9120113 Si02
#       8
#     4   4   2   4   2   2   4   4
#     4  10  20  37  62  94 127 164 222 273 314 370
#     4  10  21  37  58  93 127 171 205 264 323 391
#     4  10  16  38  63  84 123 156 220 264 302 374
#     4  10  20  37  57  90 129 168 205 278 310 384
#     4  12  24  38  62  92 140 166 210 258 352 384
#     4  10  20  30  59 104 127 154 212 288 318 356
#     4  10  19  34  64  94 114 161 224 263 312 377
#     4  10  18  34  61  94 122 156 215 271 310 363
#
# _framework density 19.806191999999999
#
# number of rings (size 3 to 8) (size 9 to 14) (size 15 to 20)
#    0.000    1.846    7.692    0.000    4.308    0.000 
#    0.000    5.385    0.000    1.846    4.000    0.000 
#    0.000    0.000    0.000    0.000    0.000    0.000 
#
# Total GULP energy -72407.452049 kJ/mol
# GULP energy per Si atom -5569.804004 kJ/mol
# Density = 1.976111 g / cm^3
# Si number density = 19.806192 Si / 1000 Ang^3
#
#
#
# Elastic Constant Matrix: (Units=GPa)
#
#
# Indices 1 2 3 4 5 6 
#
# 1 107.6625 11.3079 25.5741 -0.0013 9.4780 -0.0003
# 2 11.3079 29.4327 10.7437 -0.0079 -0.7971 0.0039
# 3 25.5741 10.7437 114.2345 -0.0041 1.8302 0.0044
# 4 -0.0013 -0.0079 -0.0041 14.3661 0.0015 4.7443
# 5 9.4780 -0.7971 1.8302 0.0015 41.3247 0.0000
# 6 -0.0003 0.0039 0.0044 4.7443 0.0000 6.6683
#
#
#
# Elastic Compliance Matrix: (Units=1/GPa)
#
#
# Indices 1 2 3 4 5 6 
#
# 1 0.010307 -0.003308 -0.001959 -0.000003 -0.002341 0.000006
# 2 -0.003308 0.036274 -0.002696 0.000033 0.001578 -0.000043
# 3 -0.001959 -0.002696 0.009446 0.000003 -0.000021 -0.000007
# 4 -0.000003 0.000033 0.000003 0.090987 -0.000002 -0.064735
# 5 -0.002341 0.001578 -0.000021 -0.000002 0.024767 0.000001
# 6 0.000006 -0.000043 -0.000007 -0.064735 0.000001 0.196021
#
#
# Mechanical properties :
#
#
# Convention : Reuss Voigt Hill
#
# Bulk Modulus (GPa) = 24.93724 38.50900 31.72312
# Shear Modulus (GPa) = 12.59145 26.05211 19.32178
#
# Velocity S-wave (km/s) = 2.52411 3.63071 3.12676
# Velocity P-wave (km/s) = 4.59487 6.08779 5.39324
#
# Compressibility (1/GPa) = 0.04010066
#
# Stress axis : x y z
#
# Youngs Moduli (GPa) = 97.01997 27.56813 105.86084
#
# Poissons Ratio (x) = 0.09120 0.20737
# Poissons Ratio (y) = 0.32097 0.28542
# Poissons Ratio (z) = 0.19005 0.07433
#
# Static dielectric constant tensor:
#      x y z
#    x 1.708330 0.000000 0.006200 
#    y 0.000000 1.680170 0.000000 
#    z 0.006200 0.000000 1.782650 
# 
# From -- ./inp_files/51104.got.cif
#   From: 2010.05.17/outbox.cif.g08.bks.cpg/sg5_26_cif.got.tgz:51104.got - 2010.06.03 18:56:24.
