data_PCOD9120048
_publ_section_title
;
Structure prediction by ZEFSAII (Michael W. Deem and Ramdas Pophale) SiO2 
 PCOD9120048
Probable space group: C 2
;
_chemical_formula_sum "Si O2"
_cell_formula_units_Z 24
_cell_length_a 20.079027
_cell_length_b 7.200856
_cell_length_c 15.080771
_cell_angle_alpha 90.000000
_cell_angle_beta 150.405540
_cell_angle_gamma 90.000000
_cell_volume 1076.842643
_symmetry_space_group_name_H-M "C 2"
_symmetry_group_IT_number 5
_symmetry_cell_setting 'monoclinic'
loop_
_space_group_symop_operation_xyz
x,y,z
-x,y,-z
1/2+x,1/2+y,z
1/2-x,1/2+y,-z
loop_
_atom_site_type_symbol
_atom_site_label
_atom_site_fract_x
_atom_site_fract_y
_atom_site_fract_z
Si Si1 0.344096 0.771970 0.176776
Si Si2 0.000000 0.847372 0.500000
Si Si3 0.933363 0.848044 0.238093
Si Si4 0.401998 0.846238 0.612803
Si Si5 0.119739 0.991611 0.308548
Si Si6 0.790960 0.164785 0.303557
Si Si7 0.000000 0.784012 0.000000
O O1 0.398441 0.562588 0.224156
O O2 0.449315 0.902199 0.246303
O O3 0.333877 0.795888 0.270649
O O4 0.197570 0.782874 0.965302
O O5 0.037874 0.748907 0.635200
O O6 0.129305 0.974339 0.622255
O O7 0.058337 0.864873 0.316140
O O8 0.419949 0.701333 0.713696
O O9 0.341581 0.742038 0.455892
O O10 0.281787 0.983882 0.497175
O O11 0.055453 0.912932 0.144000
O O12 0.628766 0.162962 0.118233
#
# Coordination Sequence:
#
# PCOD9120048 Si02
#       7
#     4   2   4   4   4   4   2
#     4  10  19  35  58  82 105 144 184 231 264 323
#     4  10  18  36  58  76 112 146 180 230 272 318
#     4  10  20  36  58  79 113 138 187 227 275 318
#     4  10  20  35  57  79 112 146 181 226 270 327
#     4  10  20  36  54  80 114 143 183 224 277 318
#     4  10  16  33  57  81 101 143 192 219 261 320
#     4  10  20  30  58  80 110 146 186 222 270 322
#
# _framework density 22.287378
#
# number of rings (size 3 to 8) (size 9 to 14) (size 15 to 20)
#    0.000    2.000    6.667    0.000    0.000    1.333 
#    3.000    3.333    3.667    0.000    0.000    0.000 
#    0.000    0.000    0.000    0.000    0.000    0.000 
#
# Total GULP energy -66969.522794 kJ/mol
# GULP energy per Si atom -5580.793566 kJ/mol
# Density = 2.223665 g / cm^3
# Si number density = 22.287378 Si / 1000 Ang^3
#
#
#
# Elastic Constant Matrix: (Units=GPa)
#
#
# Indices 1 2 3 4 5 6 
#
# 1 103.6677 24.6132 27.5162 0.0000 3.8220 0.0000
# 2 24.6132 40.2068 27.4176 0.0000 7.8721 0.0000
# 3 27.5162 27.4176 104.1727 0.0000 13.1971 0.0000
# 4 0.0000 0.0000 0.0000 18.8864 0.0000 -6.4329
# 5 3.8220 7.8721 13.1971 0.0000 54.9269 0.0000
# 6 0.0000 0.0000 0.0000 -6.4329 0.0000 14.0214
#
#
#
# Elastic Compliance Matrix: (Units=1/GPa)
#
#
# Indices 1 2 3 4 5 6 
#
# 1 0.011471 -0.006097 -0.001480 0.000000 0.000431 0.000000
# 2 -0.006097 0.033890 -0.006959 0.000000 -0.002761 0.000000
# 3 -0.001480 -0.006959 0.012049 0.000000 -0.001795 0.000000
# 4 0.000000 0.000000 0.000000 0.062755 0.000000 0.028791
# 5 0.000431 -0.002761 -0.001795 0.000000 0.019003 0.000000
# 6 0.000000 0.000000 0.000000 0.028791 0.000000 0.084528
#
#
# Mechanical properties :
#
#
# Convention : Reuss Voigt Hill
#
# Bulk Modulus (GPa) = 35.28916 45.23792 40.26354
# Shear Modulus (GPa) = 19.06832 28.80028 23.93430
#
# Velocity S-wave (km/s) = 2.92818 3.59865 3.28059
# Velocity P-wave (km/s) = 5.22498 6.13259 5.69689
#
# Compressibility (1/GPa) = 0.02833731
#
# Stress axis : x y z
#
# Youngs Moduli (GPa) = 87.17842 29.50700 82.99215
#
# Poissons Ratio (x) = 0.17992 0.12280
# Poissons Ratio (y) = 0.53156 0.57758
# Poissons Ratio (z) = 0.12900 0.20535
#
# Static dielectric constant tensor:
#      x y z
#    x 1.845750 0.000000 0.023870 
#    y 0.000000 1.864470 0.000000 
#    z 0.023870 0.000000 1.810470 
# 
# From -- ./inp_files/23099.got.cif
#   From: 2010.05.17/outbox.cif.g08.bks.cpg/sg5_12_cif.got.tgz:23099.got - 2010.06.03 18:56:24.
