data_PCOD9120591
_publ_section_title
;
Structure prediction by ZEFSAII (Michael W. Deem and Ramdas Pophale) SiO2 
 PCOD9120591
Probable space group: C 2
;
_chemical_formula_sum "Si O2"
_cell_formula_units_Z 30
_cell_length_a 16.451723
_cell_length_b 9.132363
_cell_length_c 10.445480
_cell_angle_alpha 90.000000
_cell_angle_beta 68.281554
_cell_angle_gamma 90.000000
_cell_volume 1457.957871
_symmetry_space_group_name_H-M "C 2"
_symmetry_group_IT_number 5
_symmetry_cell_setting 'monoclinic'
loop_
_space_group_symop_operation_xyz
x,y,z
-x,y,-z
1/2+x,1/2+y,z
1/2-x,1/2+y,-z
loop_
_atom_site_type_symbol
_atom_site_label
_atom_site_fract_x
_atom_site_fract_y
_atom_site_fract_z
Si Si1 0.981363 0.477050 0.213397
Si Si2 0.883769 0.711103 0.968335
Si Si3 0.222421 0.727498 0.241041
Si Si4 0.082796 0.278772 0.366982
Si Si5 0.401067 0.066143 0.504131
Si Si6 0.232011 0.056248 0.188038
Si Si7 0.140598 0.035965 0.971959
Si Si8 0.500000 0.758392 0.000000
O O1 0.037307 0.603253 0.112397
O O2 0.043403 0.374058 0.270221
O O3 0.911565 0.552048 0.346819
O O4 0.949261 0.363900 0.126050
O O5 0.833650 0.720155 0.859303
O O6 0.899894 0.874543 0.011249
O O7 0.821609 0.641633 0.112700
O O8 0.163700 0.679353 0.394487
O O9 0.245015 0.898178 0.243058
O O10 0.300399 0.609621 0.173720
O O11 0.125341 0.406080 0.428419
O O12 0.154327 0.156923 0.291156
O O13 0.000000 0.222460 0.500000
O O14 0.500000 0.094548 0.500000
O O15 0.201614 0.027177 0.059916
O O16 0.064843 0.153600 0.037838
#
# Coordination Sequence:
#
# PCOD9120591 Si02
#       8
#     4   4   4   4   4   4   4   2
#     4  10  20  35  55  81 107 153 184 221 272 330
#     4  10  19  33  55  83 113 137 183 232 290 325
#     4  10  18  33  55  86 113 139 175 236 290 325
#     4   9  17  32  50  79 111 140 177 223 281 323
#     4   9  17  32  56  81 114 137 174 226 289 328
#     4  10  19  30  55  85 114 139 176 232 289 331
#     4  10  22  33  54  80 113 152 183 229 268 325
#     4  12  22  38  56  74 116 152 198 220 256 330
#
# _framework density 20.576726000000001
#
# number of rings (size 3 to 8) (size 9 to 14) (size 15 to 20)
#    0.000    2.400    4.000    1.600    3.733    1.067 
#    0.000    0.000    0.000    9.600    0.000    0.000 
#    0.000    0.000    0.000    0.000    0.000    0.000 
#
# Total GULP energy -83595.471662 kJ/mol
# GULP energy per Si atom -5573.031444 kJ/mol
# Density = 2.052989 g / cm^3
# Si number density = 20.576726 Si / 1000 Ang^3
#
#
#
# Elastic Constant Matrix: (Units=GPa)
#
#
# Indices 1 2 3 4 5 6 
#
# 1 23.3761 34.0374 21.1464 0.0000 -8.7101 0.0000
# 2 34.0374 165.5650 94.0288 0.0000 -29.3966 0.0000
# 3 21.1464 94.0288 135.1800 0.0000 -29.4206 0.0000
# 4 0.0000 0.0000 0.0000 22.6998 0.0000 8.5060
# 5 -8.7101 -29.3966 -29.4206 0.0000 26.0786 0.0000
# 6 0.0000 0.0000 0.0000 8.5060 0.0000 7.5659
#
#
#
# Elastic Compliance Matrix: (Units=1/GPa)
#
#
# Indices 1 2 3 4 5 6 
#
# 1 0.062355 -0.011331 -0.000159 0.000000 0.007874 0.000000
# 2 -0.011331 0.012464 -0.006181 0.000000 0.003293 0.000000
# 3 -0.000159 -0.006181 0.013511 0.000000 0.008222 0.000000
# 4 0.000000 0.000000 0.000000 0.076121 0.000000 -0.085579
# 5 0.007874 0.003293 0.008222 0.000000 0.053964 0.000000
# 6 0.000000 0.000000 0.000000 -0.085579 0.000000 0.228383
#
#
# Mechanical properties :
#
#
# Convention : Reuss Voigt Hill
#
# Bulk Modulus (GPa) = 18.87173 69.17180 44.02176
# Shear Modulus (GPa) = 10.00396 22.92944 16.46670
#
# Velocity S-wave (km/s) = 2.20734 3.34179 2.83195
# Velocity P-wave (km/s) = 3.96078 6.96991 5.66866
#
# Compressibility (1/GPa) = 0.05298932
#
# Stress axis : x y z
#
# Youngs Moduli (GPa) = 16.03725 80.22997 74.01280
#
# Poissons Ratio (x) = 0.90906 0.01177
# Poissons Ratio (y) = 0.18171 0.45745
# Poissons Ratio (z) = 0.00255 0.49588
#
# Static dielectric constant tensor:
#      x y z
#    x 1.784840 0.000000 0.015750 
#    y 0.000000 1.720510 0.000000 
#    z 0.015750 0.000000 1.748540 
# 
# From -- ./inp_files/45854.got.cif
#   From: 2010.05.17/outbox.cif.g08.bks.cpg/sg5_23_cif.got.tgz:45854.got - 2010.06.03 18:56:24.
