data_PCOD9120707
_publ_section_title
;
Structure prediction by ZEFSAII (Michael W. Deem and Ramdas Pophale) SiO2 
 PCOD9120707
Probable space group: C 2
;
_chemical_formula_sum "Si O2"
_cell_formula_units_Z 30
_cell_length_a 12.804960
_cell_length_b 17.978221
_cell_length_c 14.796123
_cell_angle_alpha 90.000000
_cell_angle_beta 150.692265
_cell_angle_gamma 90.000000
_cell_volume 1667.345983
_symmetry_space_group_name_H-M "C 2"
_symmetry_group_IT_number 5
_symmetry_cell_setting 'monoclinic'
loop_
_space_group_symop_operation_xyz
x,y,z
-x,y,-z
1/2+x,1/2+y,z
1/2-x,1/2+y,-z
loop_
_atom_site_type_symbol
_atom_site_label
_atom_site_fract_x
_atom_site_fract_y
_atom_site_fract_z
Si Si1 0.674145 0.123690 0.551946
Si Si2 0.000000 0.891766 0.000000
Si Si3 0.153702 0.412040 0.246048
Si Si4 0.992861 0.513037 0.717430
Si Si5 0.325049 0.394885 0.179011
Si Si6 0.809630 0.791007 0.502851
Si Si7 0.970982 0.004308 0.141163
Si Si8 0.464683 0.862412 0.366124
O O1 0.500000 0.119127 0.500000
O O2 0.591279 0.082558 0.400015
O O3 0.706184 0.208943 0.548709
O O4 0.877549 0.075214 0.736893
O O5 0.217806 0.845888 0.155103
O O6 0.039945 0.945946 0.115639
O O7 0.144159 0.485166 0.300805
O O8 0.268866 0.420930 0.237688
O O9 0.262463 0.347800 0.385730
O O10 0.905929 0.388484 0.042994
O O11 0.997247 0.443522 0.650485
O O12 0.231801 0.526418 0.932900
O O13 0.461526 0.319073 0.286462
O O14 0.457087 0.456485 0.222935
O O15 0.631038 0.807533 0.443722
O O16 0.500000 0.864167 0.500000
#
# Coordination Sequence:
#
# PCOD9120707 Si02
#       8
#     4   2   4   4   4   4   4   4
#     4  12  23  35  51  76 112 143 168 208 265 323
#     4  10  18  34  60  82 100 130 178 230 266 300
#     4   9  19  36  57  79 104 138 181 222 260 303
#     4   9  19  35  56  81 103 133 178 221 259 305
#     4  10  19  35  58  80 104 138 180 223 260 303
#     4  11  23  35  51  80 112 142 174 211 262 319
#     4  10  20  34  56  81 103 133 177 221 261 305
#     4  10  19  35  58  80 102 133 178 224 264 307
#
# _framework density 17.992667000000001
#
# number of rings (size 3 to 8) (size 9 to 14) (size 15 to 20)
#    0.000    1.867    0.000    7.200    0.000    1.067 
#    0.000    2.667    0.000    1.600    0.000    0.000 
#    0.000    0.000    0.000    0.000    0.000    0.000 
#
# Total GULP energy -83737.078488 kJ/mol
# GULP energy per Si atom -5582.471899 kJ/mol
# Density = 1.795171 g / cm^3
# Si number density = 17.992667 Si / 1000 Ang^3
#
#
#
# Elastic Constant Matrix: (Units=GPa)
#
#
# Indices 1 2 3 4 5 6 
#
# 1 105.8175 37.6907 43.6587 -0.0003 3.9721 -0.0001
# 2 37.6907 83.2895 48.2727 -0.0002 7.8511 0.0004
# 3 43.6587 48.2727 85.6051 -0.0020 2.5016 -0.0016
# 4 -0.0003 -0.0002 -0.0020 9.6715 -0.0007 -0.8879
# 5 3.9721 7.8511 2.5016 -0.0007 27.7274 -0.0007
# 6 -0.0001 0.0004 -0.0016 -0.8879 -0.0007 13.3082
#
#
#
# Elastic Compliance Matrix: (Units=1/GPa)
#
#
# Indices 1 2 3 4 5 6 
#
# 1 0.012430 -0.002834 -0.004725 -0.000001 -0.000552 0.000000
# 2 -0.002834 0.018972 -0.009132 -0.000002 -0.004142 -0.000002
# 3 -0.004725 -0.009132 0.019196 0.000004 0.001531 0.000003
# 4 -0.000001 -0.000002 0.000004 0.104033 0.000003 0.006941
# 5 -0.000552 -0.004142 0.001531 0.000003 0.037179 0.000002
# 6 0.000000 -0.000002 0.000003 0.006941 0.000002 0.075605
#
#
# Mechanical properties :
#
#
# Convention : Reuss Voigt Hill
#
# Bulk Modulus (GPa) = 58.08604 59.32847 58.70726
# Shear Modulus (GPa) = 16.31134 19.81410 18.06272
#
# Velocity S-wave (km/s) = 3.01417 3.32208 3.17187
# Velocity P-wave (km/s) = 6.66835 6.91088 6.79070
#
# Compressibility (1/GPa) = 0.01721584
#
# Stress axis : x y z
#
# Youngs Moduli (GPa) = 80.45099 52.70947 52.09475
#
# Poissons Ratio (x) = 0.14940 0.24614
# Poissons Ratio (y) = 0.22804 0.47571
# Poissons Ratio (z) = 0.38011 0.48132
#
# Static dielectric constant tensor:
#      x y z
#    x 1.637170 0.000000 0.016740 
#    y 0.000000 1.563260 0.000000 
#    z 0.016740 0.000000 1.670270 
# 
# From -- ./inp_files/53427.got.cif
#   From: 2010.05.17/outbox.cif.g08.bks.cpg/sg5_27_cif.got.tgz:53427.got - 2010.06.03 18:56:24.
