data_PCOD9120706
_publ_section_title
;
Structure prediction by ZEFSAII (Michael W. Deem and Ramdas Pophale) SiO2 
 PCOD9120706
Probable space group: C 2
;
_chemical_formula_sum "Si O2"
_cell_formula_units_Z 26
_cell_length_a 5.137810
_cell_length_b 14.208104
_cell_length_c 16.149939
_cell_angle_alpha 90.000000
_cell_angle_beta 116.493269
_cell_angle_gamma 90.000000
_cell_volume 1055.119552
_symmetry_space_group_name_H-M "C 2"
_symmetry_group_IT_number 5
_symmetry_cell_setting 'monoclinic'
loop_
_space_group_symop_operation_xyz
x,y,z
-x,y,-z
1/2+x,1/2+y,z
1/2-x,1/2+y,-z
loop_
_atom_site_type_symbol
_atom_site_label
_atom_site_fract_x
_atom_site_fract_y
_atom_site_fract_z
Si Si1 0.819965 0.797140 0.116813
Si Si2 0.361482 0.612839 0.304664
Si Si3 0.724946 0.031039 0.826505
Si Si4 0.500000 0.933951 0.500000
Si Si5 0.641753 0.408935 0.297353
Si Si6 0.355264 0.688099 0.141829
Si Si7 0.500000 0.568515 0.500000
Si Si8 0.000000 0.938024 0.000000
O O1 0.510753 0.755422 0.098319
O O2 0.939497 0.833959 0.223085
O O3 0.023156 0.717410 0.103647
O O4 0.866821 0.880545 0.058184
O O5 0.489281 0.507849 0.303437
O O6 0.470547 0.689549 0.254124
O O7 0.429878 0.629115 0.409245
O O8 0.020868 0.602672 0.237053
O O9 0.037542 0.083486 0.865163
O O10 0.675277 0.945609 0.755817
O O11 0.733125 0.994077 0.920360
O O12 0.324144 0.879238 0.403490
O O13 0.273732 0.001505 0.516954
#
# Coordination Sequence:
#
# PCOD9120706 Si02
#       8
#     4   4   4   2   4   4   2   2
#     4  11  25  44  64  96 133 177 213 275 330 406
#     4  10  20  41  69  98 133 177 221 280 321 394
#     4  10  20  44  67  98 124 176 218 284 316 389
#     4  10  18  34  59  98 127 168 218 282 324 380
#     4   9  21  36  65  92 128 168 223 272 325 381
#     4  11  24  44  67  90 138 174 214 265 346 386
#     4  10  20  32  67 102 129 166 234 270 326 372
#     4  10  26  44  70 100 128 168 236 274 330 390
#
# _framework density 24.641759
#
# number of rings (size 3 to 8) (size 9 to 14) (size 15 to 20)
#    0.000    1.846    3.077    0.000    4.308    1.846 
#    5.538    0.769    3.385    0.000    0.000    0.000 
#    0.000    0.000    0.000    0.000    0.000    0.000 
#
# Total GULP energy -72537.400171 kJ/mol
# GULP energy per Si atom -5579.800013 kJ/mol
# Density = 2.458567 g / cm^3
# Si number density = 24.641759 Si / 1000 Ang^3
#
#
#
# Elastic Constant Matrix: (Units=GPa)
#
#
# Indices 1 2 3 4 5 6 
#
# 1 107.7306 8.2557 29.9207 0.0000 -3.6693 0.0000
# 2 8.2557 48.0595 26.5906 0.0000 -1.2456 0.0000
# 3 29.9207 26.5906 188.5389 0.0000 -21.1124 0.0000
# 4 0.0000 0.0000 0.0000 27.0662 0.0000 -6.9481
# 5 -3.6693 -1.2456 -21.1124 0.0000 32.4598 0.0000
# 6 0.0000 0.0000 0.0000 -6.9481 0.0000 26.0805
#
#
#
# Elastic Compliance Matrix: (Units=1/GPa)
#
#
# Indices 1 2 3 4 5 6 
#
# 1 0.009746 -0.000894 -0.001403 0.000000 0.000155 0.000000
# 2 -0.000894 0.022701 -0.003207 0.000000 -0.001316 0.000000
# 3 -0.001403 -0.003207 0.006415 0.000000 0.003890 0.000000
# 4 0.000000 0.000000 0.000000 0.039659 0.000000 0.010565
# 5 0.000155 -0.001316 0.003890 0.000000 0.033305 0.000000
# 6 0.000000 0.000000 0.000000 0.010565 0.000000 0.041158
#
#
# Mechanical properties :
#
#
# Convention : Reuss Voigt Hill
#
# Bulk Modulus (GPa) = 35.90213 52.65144 44.27679
# Shear Modulus (GPa) = 28.85570 35.75876 32.30723
#
# Velocity S-wave (km/s) = 3.42571 3.81352 3.62481
# Velocity P-wave (km/s) = 5.49987 6.38778 5.96038
#
# Compressibility (1/GPa) = 0.02785350
#
# Stress axis : x y z
#
# Youngs Moduli (GPa) = 102.60708 44.05002 155.89368
#
# Poissons Ratio (x) = 0.03937 0.21876
# Poissons Ratio (y) = 0.09170 0.49999
# Poissons Ratio (z) = 0.14399 0.14128
#
# Static dielectric constant tensor:
#      x y z
#    x 2.041530 0.000000 0.008340 
#    y 0.000000 1.975440 0.000000 
#    z 0.008340 0.000000 2.003210 
# 
# From -- ./inp_files/58828.got.cif
#   From: 2010.05.17/outbox.cif.g08.bks.cpg/sg5_30_cif.got.tgz:58828.got - 2010.06.03 18:56:24.
