data_PCOD9120256
_publ_section_title
;
Structure prediction by ZEFSAII (Michael W. Deem and Ramdas Pophale) SiO2 
 PCOD9120256
Probable space group: C 2
;
_chemical_formula_sum "Si O2"
_cell_formula_units_Z 28
_cell_length_a 18.652597
_cell_length_b 17.030062
_cell_length_c 9.087124
_cell_angle_alpha 90.000000
_cell_angle_beta 151.967445
_cell_angle_gamma 90.000000
_cell_volume 1356.610133
_symmetry_space_group_name_H-M "C 2"
_symmetry_group_IT_number 5
_symmetry_cell_setting 'monoclinic'
loop_
_space_group_symop_operation_xyz
x,y,z
-x,y,-z
1/2+x,1/2+y,z
1/2-x,1/2+y,-z
loop_
_atom_site_type_symbol
_atom_site_label
_atom_site_fract_x
_atom_site_fract_y
_atom_site_fract_z
Si Si1 0.775348 0.908980 0.718431
Si Si2 0.465628 0.844152 0.262907
Si Si3 0.832405 0.455881 0.778906
Si Si4 0.577286 0.275119 0.864996
Si Si5 0.126806 0.553004 0.614263
Si Si6 0.898674 0.619836 0.956772
Si Si7 0.220005 0.725902 0.821775
O O1 0.627268 0.854584 0.478682
O O2 0.777729 0.924843 0.549027
O O3 0.736522 0.987369 0.743476
O O4 0.908473 0.857382 0.028764
O O5 0.500000 0.854390 0.500000
O O6 0.358106 0.906247 0.975778
O O7 0.385602 0.760465 0.094210
O O8 0.788633 0.546268 0.731049
O O9 0.000000 0.458697 0.000000
O O10 0.656891 0.272770 0.849743
O O11 0.401836 0.249479 0.524283
O O12 0.660928 0.202909 0.097773
O O13 0.207006 0.632072 0.821222
O O14 0.000000 0.522582 0.500000
O O15 0.018583 0.584336 0.289531
O O16 0.000000 0.637468 0.000000
#
# Coordination Sequence:
#
# PCOD9120256 Si02
#       7
#     4   4   4   4   4   4   4
#     4  11  21  36  61  90 113 148 193 239 286 335
#     4  11  20  34  63  86 110 149 193 237 281 335
#     4   9  19  34  54  92 115 137 197 242 272 338
#     4  10  21  35  57  86 121 145 186 244 289 333
#     4  11  19  34  59  82 109 152 193 233 273 337
#     4  10  17  33  56  83 111 146 194 232 272 340
#     4  10  21  37  55  89 117 144 195 237 284 341
#
# _framework density 20.639679999999998
#
# number of rings (size 3 to 8) (size 9 to 14) (size 15 to 20)
#    0.000    1.714    8.571    0.429    0.000    2.286 
#    0.000    0.000    6.286    0.000    0.000    0.000 
#    0.000    0.000    0.000    0.000    0.000    0.000 
#
# Total GULP energy -77977.627920 kJ/mol
# GULP energy per Si atom -5569.830566 kJ/mol
# Density = 2.059270 g / cm^3
# Si number density = 20.639680 Si / 1000 Ang^3
#
#
#
# Elastic Constant Matrix: (Units=GPa)
#
#
# Indices 1 2 3 4 5 6 
#
# 1 41.2697 23.5171 28.1133 0.0000 -20.8139 0.0000
# 2 23.5171 139.9630 56.1330 0.0000 -9.4780 0.0000
# 3 28.1133 56.1330 57.2871 0.0000 -24.6165 0.0000
# 4 0.0000 0.0000 0.0000 33.2477 0.0000 -5.1293
# 5 -20.8139 -9.4780 -24.6165 0.0000 34.0401 0.0000
# 6 0.0000 0.0000 0.0000 -5.1293 0.0000 11.5708
#
#
#
# Elastic Compliance Matrix: (Units=1/GPa)
#
#
# Indices 1 2 3 4 5 6 
#
# 1 0.041330 -0.000774 -0.012705 0.000000 0.015868 0.000000
# 2 -0.000774 0.013203 -0.016222 0.000000 -0.008528 0.000000
# 3 -0.012705 -0.016222 0.049774 0.000000 0.023709 0.000000
# 4 0.000000 0.000000 0.000000 0.032285 0.000000 0.014312
# 5 0.015868 -0.008528 0.023709 0.000000 0.053850 0.000000
# 6 0.000000 0.000000 0.000000 0.014312 0.000000 0.092769
#
#
# Mechanical properties :
#
#
# Convention : Reuss Voigt Hill
#
# Bulk Modulus (GPa) = 22.26970 50.44963 36.35967
# Shear Modulus (GPa) = 13.98281 24.48880 19.23581
#
# Velocity S-wave (km/s) = 2.60565 3.44829 3.05615
# Velocity P-wave (km/s) = 4.45710 6.35219 5.48708
#
# Compressibility (1/GPa) = 0.04490406
#
# Stress axis : x y z
#
# Youngs Moduli (GPa) = 24.19571 75.73929 20.09089
#
# Poissons Ratio (x) = 0.05865 0.25526
# Poissons Ratio (y) = 0.01874 0.32591
# Poissons Ratio (z) = 0.30741 1.22863
#
# Static dielectric constant tensor:
#      x y z
#    x 1.804940 0.000000 0.018810 
#    y 0.000000 1.793850 0.000000 
#    z 0.018810 0.000000 1.820350 
# 
# From -- ./inp_files/30021.got.cif
#   From: 2010.05.17/outbox.cif.g08.bks.cpg/sg5_16_cif.got.tgz:30021.got - 2010.06.03 18:56:24.
