data_PCOD9120998
_publ_section_title
;
Structure prediction by ZEFSAII (Michael W. Deem and Ramdas Pophale) SiO2 
 PCOD9120998
Probable space group: C 2
;
_chemical_formula_sum "Si O2"
_cell_formula_units_Z 32
_cell_length_a 11.238279
_cell_length_b 14.602685
_cell_length_c 9.116541
_cell_angle_alpha 90.000000
_cell_angle_beta 91.771158
_cell_angle_gamma 90.000000
_cell_volume 1495.392094
_symmetry_space_group_name_H-M "C 2"
_symmetry_group_IT_number 5
_symmetry_cell_setting 'monoclinic'
loop_
_space_group_symop_operation_xyz
x,y,z
-x,y,-z
1/2+x,1/2+y,z
1/2-x,1/2+y,-z
loop_
_atom_site_type_symbol
_atom_site_label
_atom_site_fract_x
_atom_site_fract_y
_atom_site_fract_z
Si Si1 0.658790 0.164860 0.785063
Si Si2 0.428950 0.657303 0.845762
Si Si3 0.371103 0.326885 0.030832
Si Si4 0.069324 0.031954 0.638426
Si Si5 0.721281 0.957899 0.170218
Si Si6 0.240751 0.678977 0.473512
Si Si7 0.894211 0.649866 0.826796
Si Si8 0.404390 0.823383 0.620951
O O1 0.787379 0.145824 0.861898
O O2 0.636550 0.273361 0.813849
O O3 0.678526 0.140891 0.616816
O O4 0.534181 0.125504 0.836014
O O5 0.480066 0.573533 0.754314
O O6 0.444751 0.744399 0.737757
O O7 0.500000 0.667745 0.000000
O O8 0.262290 0.397141 0.033042
O O9 0.500000 0.369601 0.000000
O O10 0.364995 0.239992 0.921003
O O11 0.148505 0.114913 0.571890
O O12 0.000000 0.988333 0.500000
O O13 0.159550 0.969557 0.729611
O O14 0.631147 0.906914 0.275913
O O15 0.675977 0.058726 0.131957
O O16 0.148742 0.676957 0.337441
O O17 0.295749 0.775755 0.527164
O O18 0.500000 0.845986 0.500000
#
# Coordination Sequence:
#
# PCOD9120998 Si02
#       8
#     4   4   4   4   4   4   4   4
#     4  10  20  40  70  95 133 180 226 279 343 415
#     4  11  22  38  75  97 131 192 232 271 350 410
#     4  10  22  45  65  93 142 185 220 285 344 405
#     4  11  21  42  65 101 134 178 238 285 334 408
#     4  11  25  42  70 105 141 172 238 292 340 407
#     4  10  18  37  72  98 127 183 230 273 349 406
#     4  10  24  41  74  97 140 186 227 279 356 413
#     4  11  21  42  67 100 143 175 230 299 333 408
#
# _framework density 21.399069000000001
#
# number of rings (size 3 to 8) (size 9 to 14) (size 15 to 20)
#    0.000    1.500    6.250    0.375    3.500    2.500 
#    4.500    1.875    2.750    0.000    0.000    0.000 
#    0.000    0.000    0.000    0.000    0.000    0.000 
#
# Total GULP energy -89285.168961 kJ/mol
# GULP energy per Si atom -5580.323060 kJ/mol
# Density = 2.135036 g / cm^3
# Si number density = 21.399069 Si / 1000 Ang^3
#
#
#
# Elastic Constant Matrix: (Units=GPa)
#
#
# Indices 1 2 3 4 5 6 
#
# 1 125.5847 37.6721 78.9188 0.0000 -14.4589 0.0000
# 2 37.6721 74.0247 36.4305 0.0000 -8.6849 0.0000
# 3 78.9188 36.4305 122.6483 0.0000 -8.5148 0.0000
# 4 0.0000 0.0000 0.0000 22.9057 0.0000 -2.3252
# 5 -14.4589 -8.6849 -8.5148 0.0000 44.7396 0.0000
# 6 0.0000 0.0000 0.0000 -2.3252 0.0000 30.6256
#
#
#
# Elastic Compliance Matrix: (Units=1/GPa)
#
#
# Indices 1 2 3 4 5 6 
#
# 1 0.014230 -0.002962 -0.008104 0.000000 0.002481 0.000000
# 2 -0.002962 0.016656 -0.002922 0.000000 0.001720 0.000000
# 3 -0.008104 -0.002922 0.014202 0.000000 -0.000483 0.000000
# 4 0.000000 0.000000 0.000000 0.043996 0.000000 0.003340
# 5 0.002481 0.001720 -0.000483 0.000000 0.023395 0.000000
# 6 0.000000 0.000000 0.000000 0.003340 0.000000 0.032906
#
#
# Mechanical properties :
#
#
# Convention : Reuss Voigt Hill
#
# Bulk Modulus (GPa) = 58.43900 69.81116 64.12508
# Shear Modulus (GPa) = 27.92255 30.93659 29.42957
#
# Velocity S-wave (km/s) = 3.61619 3.80636 3.71249
# Velocity P-wave (km/s) = 6.69359 7.21194 6.95760
#
# Compressibility (1/GPa) = 0.01711186
#
# Stress axis : x y z
#
# Youngs Moduli (GPa) = 70.27550 60.03719 70.41078
#
# Poissons Ratio (x) = 0.17784 0.57061
# Poissons Ratio (y) = 0.20817 0.20574
# Poissons Ratio (z) = 0.56952 0.17543
#
# Static dielectric constant tensor:
#      x y z
#    x 1.822020 0.000000 -0.016440 
#    y 0.000000 1.777570 0.000000 
#    z -0.016440 0.000000 1.808370 
# 
# From -- ./inp_files/20634.got.cif
#   From: 2010.05.17/outbox.cif.g08.bks.cpg/sg5_11_cif.got.tgz:20634.got - 2010.06.03 18:56:24.
