data_PCOD9120978
_publ_section_title
;
Structure prediction by ZEFSAII (Michael W. Deem and Ramdas Pophale) SiO2 
 PCOD9120978
Probable space group: C 2
;
_chemical_formula_sum "Si O2"
_cell_formula_units_Z 32
_cell_length_a 8.628762
_cell_length_b 22.555141
_cell_length_c 15.331862
_cell_angle_alpha 90.000000
_cell_angle_beta 150.149376
_cell_angle_gamma 90.000000
_cell_volume 1485.223820
_symmetry_space_group_name_H-M "C 2"
_symmetry_group_IT_number 5
_symmetry_cell_setting 'monoclinic'
loop_
_space_group_symop_operation_xyz
x,y,z
-x,y,-z
1/2+x,1/2+y,z
1/2-x,1/2+y,-z
loop_
_atom_site_type_symbol
_atom_site_label
_atom_site_fract_x
_atom_site_fract_y
_atom_site_fract_z
Si Si1 0.230166 0.427040 0.036654
Si Si2 0.382954 0.971925 0.342545
Si Si3 0.635546 0.889117 0.314918
Si Si4 0.331617 0.318294 0.694709
Si Si5 0.378274 0.192262 0.682764
Si Si6 0.658052 0.769805 0.795431
Si Si7 0.871721 0.597577 0.535522
Si Si8 0.721644 0.141416 0.184433
O O1 0.509920 0.472479 0.158896
O O2 0.413575 0.367875 0.160825
O O3 0.000000 0.446420 0.000000
O O4 0.037851 0.413993 0.855152
O O5 0.500000 0.966492 0.500000
O O6 0.483613 0.919301 0.326328
O O7 0.517408 0.034146 0.375819
O O8 0.579401 0.818110 0.284866
O O9 0.000000 0.901645 0.500000
O O10 0.468029 0.261097 0.710112
O O11 0.211522 0.286076 0.722158
O O12 0.000000 0.342661 0.500000
O O13 0.474693 0.149501 0.651384
O O14 0.461458 0.165324 0.818886
O O15 0.000000 0.191379 0.500000
O O16 0.605261 0.699770 0.772474
O O17 0.000000 0.781466 0.000000
O O18 0.496131 0.598345 0.347025
O O19 0.000000 0.605168 0.500000
O O20 0.500000 0.118506 0.000000
#
# Coordination Sequence:
#
# PCOD9120978 Si02
#       8
#     4   4   4   4   4   4   4   4
#     4  12  25  43  66  99 141 177 236 288 347 418
#     4  11  24  47  71  93 135 185 232 295 349 402
#     4  12  25  41  67 105 134 183 233 283 348 417
#     4  10  19  35  67  95 136 181 212 275 348 409
#     4   8  17  37  64  96 128 176 224 260 337 413
#     4  10  18  37  63  95 138 183 217 273 341 412
#     4  10  22  43  65  93 132 180 230 287 338 403
#     4   9  19  37  66  97 134 176 224 276 337 407
#
# _framework density 21.545574999999999
#
# number of rings (size 3 to 8) (size 9 to 14) (size 15 to 20)
#    0.000    1.750    2.500    2.250    1.750    2.000 
#    2.250   10.625    0.000    0.000    0.000    0.000 
#    0.000    0.000    0.000    0.000    0.000    0.000 
#
# Total GULP energy -89284.166723 kJ/mol
# GULP energy per Si atom -5580.260420 kJ/mol
# Density = 2.149654 g / cm^3
# Si number density = 21.545575 Si / 1000 Ang^3
#
#
#
# Elastic Constant Matrix: (Units=GPa)
#
#
# Indices 1 2 3 4 5 6 
#
# 1 60.6081 13.5285 30.6314 -0.0005 -3.1291 0.0005
# 2 13.5285 97.8103 37.1559 -0.0010 3.7665 0.0002
# 3 30.6314 37.1559 138.7226 0.0244 -2.9961 -0.0140
# 4 -0.0005 -0.0010 0.0244 11.1502 0.0028 12.2086
# 5 -3.1291 3.7665 -2.9961 0.0028 37.0120 -0.0021
# 6 0.0005 0.0002 -0.0140 12.2086 -0.0021 19.3202
#
#
#
# Elastic Compliance Matrix: (Units=1/GPa)
#
#
# Indices 1 2 3 4 5 6 
#
# 1 0.018756 -0.001209 -0.003787 0.000039 0.001402 -0.000028
# 2 -0.001209 0.011534 -0.002855 0.000033 -0.001507 -0.000023
# 3 -0.003787 -0.002855 0.008824 -0.000088 0.000685 0.000062
# 4 0.000039 0.000033 -0.000088 0.291084 -0.000040 -0.183939
# 5 0.001402 -0.001507 0.000685 -0.000040 0.027346 0.000028
# 6 -0.000028 -0.000023 0.000062 -0.183939 0.000028 0.167992
#
#
# Mechanical properties :
#
#
# Convention : Reuss Voigt Hill
#
# Bulk Modulus (GPa) = 42.71507 51.08585 46.90046
# Shear Modulus (GPa) = 9.10678 27.88484 18.49581
#
# Velocity S-wave (km/s) = 2.05814 3.60144 2.93311
# Velocity P-wave (km/s) = 5.05138 6.40749 5.76941
#
# Compressibility (1/GPa) = 0.02341094
#
# Stress axis : x y z
#
# Youngs Moduli (GPa) = 53.31657 86.70294 113.32321
#
# Poissons Ratio (x) = 0.10487 0.42919
# Poissons Ratio (y) = 0.06449 0.32350
# Poissons Ratio (z) = 0.20192 0.24751
#
# Static dielectric constant tensor:
#      x y z
#    x 1.812790 0.000000 -0.044000 
#    y 0.000000 1.872940 0.000010 
#    z -0.044000 0.000010 1.822620 
# 
# From -- ./inp_files/51705.got.cif
#   From: 2010.05.17/outbox.cif.g08.bks.cpg/sg5_26_cif.got.tgz:51705.got - 2010.06.03 18:56:24.
