data_PCOD9120152
_publ_section_title
;
Structure prediction by ZEFSAII (Michael W. Deem and Ramdas Pophale) SiO2 
 PCOD9120152
Probable space group: C 2
;
_chemical_formula_sum "Si O2"
_cell_formula_units_Z 32
_cell_length_a 28.766306
_cell_length_b 5.090056
_cell_length_c 15.305423
_cell_angle_alpha 90.000000
_cell_angle_beta 116.860739
_cell_angle_gamma 90.000000
_cell_volume 1999.259220
_symmetry_space_group_name_H-M "C 2"
_symmetry_group_IT_number 5
_symmetry_cell_setting 'monoclinic'
loop_
_space_group_symop_operation_xyz
x,y,z
-x,y,-z
1/2+x,1/2+y,z
1/2-x,1/2+y,-z
loop_
_atom_site_type_symbol
_atom_site_label
_atom_site_fract_x
_atom_site_fract_y
_atom_site_fract_z
Si Si1 0.036746 0.078600 0.114016
Si Si2 0.057181 0.508719 0.355559
Si Si3 0.604135 0.082454 0.210127
Si Si4 0.282926 0.217016 0.423167
Si Si5 0.890514 0.681513 0.421521
Si Si6 0.786615 0.715580 0.632555
Si Si7 0.499232 0.508648 0.274830
Si Si8 0.554906 0.695584 0.602833
O O1 0.079761 0.308924 0.157402
O O2 0.069547 0.810470 0.138174
O O3 0.001159 0.064302 0.172471
O O4 0.000000 0.115044 0.000000
O O5 0.091572 0.582423 0.302430
O O6 0.081243 0.597275 0.465467
O O7 0.007401 0.699439 0.298628
O O8 0.047371 0.197579 0.345428
O O9 0.665356 0.143514 0.263472
O O10 0.259071 0.505164 0.392043
O O11 0.300239 0.194460 0.540087
O O12 0.329907 0.173397 0.395665
O O13 0.237065 0.003673 0.372550
O O14 0.910722 0.966615 0.411191
O O15 0.913051 0.465414 0.374175
O O16 0.456781 0.612297 0.307179
O O17 0.500000 0.716320 0.500000
#
# Coordination Sequence:
#
# PCOD9120152 Si02
#       8
#     4   4   4   4   4   4   4   4
#     4  10  21  35  53  75 102 127 159 208 256 295
#     4  10  17  29  44  66  93 129 162 195 223 281
#     4  10  19  32  53  72  98 130 167 195 250 297
#     4  10  21  31  46  68 100 133 168 206 235 278
#     4  12  20  31  44  65 101 130 171 194 237 268
#     4  10  19  33  48  69  95 132 172 201 239 287
#     4  10  20  31  45  67  95 129 163 196 232 285
#     4  12  21  29  46  67  96 132 173 201 221 287
#
# _framework density 16.005928999999998
#
# number of rings (size 3 to 8) (size 9 to 14) (size 15 to 20)
#    0.000    1.500    3.750    3.000    0.000    0.000 
#    0.000    0.000    0.000    0.000    0.000    0.000 
#    0.000   20.000    0.000    0.000    0.000    0.000 
#
# Total GULP energy -89119.842155 kJ/mol
# GULP energy per Si atom -5569.990135 kJ/mol
# Density = 1.596950 g / cm^3
# Si number density = 16.005929 Si / 1000 Ang^3
#
#
#
# Elastic Constant Matrix: (Units=GPa)
#
#
# Indices 1 2 3 4 5 6 
#
# 1 60.3080 -10.8085 -1.3417 0.0000 -1.2298 0.0000
# 2 -10.8085 43.6703 -23.1072 0.0001 0.4145 0.0000
# 3 -1.3417 -23.1072 41.9563 0.0000 2.1323 0.0000
# 4 0.0000 0.0001 0.0000 12.2141 0.0000 -4.7335
# 5 -1.2298 0.4145 2.1323 0.0000 13.2721 0.0000
# 6 0.0000 0.0000 0.0000 -4.7335 0.0000 11.8902
#
#
#
# Elastic Compliance Matrix: (Units=1/GPa)
#
#
# Indices 1 2 3 4 5 6 
#
# 1 0.017879 0.006632 0.004185 0.000000 0.000777 0.000000
# 2 0.006632 0.034978 0.019661 0.000000 -0.003637 0.000000
# 3 0.004185 0.019661 0.035094 0.000000 -0.005865 0.000000
# 4 0.000000 0.000000 0.000000 0.096808 0.000000 0.038539
# 5 0.000777 -0.003637 -0.005865 0.000000 0.076474 0.000000
# 6 0.000000 0.000000 0.000000 0.038539 0.000000 0.099445
#
#
# Mechanical properties :
#
#
# Convention : Reuss Voigt Hill
#
# Bulk Modulus (GPa) = 6.71561 8.37996 7.54779
# Shear Modulus (GPa) = 14.31197 19.55476 16.93336
#
# Velocity S-wave (km/s) = 2.99351 3.49910 3.25613
# Velocity P-wave (km/s) = 4.01907 4.64455 4.34309
#
# Compressibility (1/GPa) = 0.14890679
#
# Stress axis : x y z
#
# Youngs Moduli (GPa) = 55.93117 28.58947 28.49465
#
# Poissons Ratio (x) = -0.18961 -0.11925
# Poissons Ratio (y) = -0.37094 -0.56023
# Poissons Ratio (z) = -0.23406 -0.56209
#
# Static dielectric constant tensor:
#      x y z
#    x 1.573680 0.000000 -0.008370 
#    y 0.000000 1.557600 0.000000 
#    z -0.008370 0.000000 1.515110 
# 
# From -- ./inp_files/57397.got.cif
#   From: 2010.05.17/outbox.cif.g08.bks.cpg/sg5_29_cif.got.tgz:57397.got - 2010.06.03 18:56:24.
