data_PCOD9120054
_publ_section_title
;
Structure prediction by ZEFSAII (Michael W. Deem and Ramdas Pophale) SiO2 
 PCOD9120054
Probable space group: C 2
;
_chemical_formula_sum "Si O2"
_cell_formula_units_Z 32
_cell_length_a 10.652459
_cell_length_b 16.863192
_cell_length_c 8.540366
_cell_angle_alpha 90.000000
_cell_angle_beta 89.604928
_cell_angle_gamma 90.000000
_cell_volume 1534.107576
_symmetry_space_group_name_H-M "C 2"
_symmetry_group_IT_number 5
_symmetry_cell_setting 'monoclinic'
loop_
_space_group_symop_operation_xyz
x,y,z
-x,y,-z
1/2+x,1/2+y,z
1/2-x,1/2+y,-z
loop_
_atom_site_type_symbol
_atom_site_label
_atom_site_fract_x
_atom_site_fract_y
_atom_site_fract_z
Si Si1 0.266971 0.555290 0.975826
Si Si2 0.687546 0.953518 0.272470
Si Si3 0.887705 0.297988 0.880578
Si Si4 0.853235 0.730172 0.948890
Si Si5 0.457805 0.625655 0.754505
Si Si6 0.578607 0.192411 0.362296
Si Si7 0.039575 0.550216 0.815703
Si Si8 0.191138 0.082043 0.557848
O O1 0.398978 0.576992 0.899077
O O2 0.183424 0.528097 0.827404
O O3 0.251537 0.491595 0.113959
O O4 0.199493 0.639163 0.028298
O O5 0.655392 0.862734 0.245825
O O6 0.550464 0.993659 0.278917
O O7 0.769078 0.990967 0.411174
O O8 0.937792 0.217278 0.800759
O O9 0.756255 0.279562 0.968981
O O10 0.000000 0.324462 0.000000
O O11 0.856810 0.747842 0.764442
O O12 0.000000 0.740561 0.000000
O O13 0.599808 0.607459 0.702867
O O14 0.379185 0.602502 0.600646
O O15 0.500000 0.231381 0.500000
O O16 0.485526 0.135906 0.260420
O O17 0.683970 0.134790 0.431465
O O18 0.000000 0.543981 0.000000
#
# Coordination Sequence:
#
# PCOD9120054 Si02
#       8
#     4   4   4   4   4   4   4   4
#     4  10  16  33  62  88 115 161 214 269 320 380
#     4  10  20  37  64  90 125 162 218 281 316 384
#     4  11  24  39  67  98 138 173 218 277 351 383
#     4  11  19  36  57  91 127 161 219 277 315 399
#     4  10  23  37  65  90 129 177 217 268 330 409
#     4  11  18  28  57  86 114 154 210 272 316 368
#     4   9  14  29  53  81 113 143 199 266 313 352
#     4  10  21  40  60  91 124 170 227 266 317 409
#
# _framework density 20.859033
#
# number of rings (size 3 to 8) (size 9 to 14) (size 15 to 20)
#    0.000    1.750    5.000    2.625    3.500    0.000 
#    2.250    0.000   24.750    0.000    0.000    0.000 
#    0.000    0.000    0.000    0.000    0.000    0.000 
#
# Total GULP energy -89131.952977 kJ/mol
# GULP energy per Si atom -5570.747061 kJ/mol
# Density = 2.081156 g / cm^3
# Si number density = 20.859033 Si / 1000 Ang^3
#
#
#
# Elastic Constant Matrix: (Units=GPa)
#
#
# Indices 1 2 3 4 5 6 
#
# 1 104.3029 13.3988 39.7534 0.0000 -3.2804 0.0000
# 2 13.3988 48.3636 4.2207 0.0000 2.9418 0.0000
# 3 39.7534 4.2207 48.9287 0.0000 1.3927 0.0000
# 4 0.0000 0.0000 0.0000 20.5124 0.0000 6.1783
# 5 -3.2804 2.9418 1.3927 0.0000 42.2513 0.0000
# 6 0.0000 0.0000 0.0000 6.1783 0.0000 11.1758
#
#
#
# Elastic Compliance Matrix: (Units=1/GPa)
#
#
# Indices 1 2 3 4 5 6 
#
# 1 0.014422 -0.003096 -0.011499 0.000000 0.001714 0.000000
# 2 -0.003096 0.021580 0.000704 0.000000 -0.001766 0.000000
# 3 -0.011499 0.000704 0.029775 0.000000 -0.001923 0.000000
# 4 0.000000 0.000000 0.000000 0.058490 0.000000 -0.032335
# 5 0.001714 -0.001766 -0.001923 0.000000 0.023987 0.000000
# 6 0.000000 0.000000 0.000000 -0.032335 0.000000 0.107355
#
#
# Mechanical properties :
#
#
# Convention : Reuss Voigt Hill
#
# Bulk Modulus (GPa) = 26.31936 35.14900 30.73418
# Shear Modulus (GPa) = 16.88869 24.40273 20.64571
#
# Velocity S-wave (km/s) = 2.84854 3.42407 3.14948
# Velocity P-wave (km/s) = 4.84397 5.70260 5.29073
#
# Compressibility (1/GPa) = 0.03799485
#
# Stress axis : x y z
#
# Youngs Moduli (GPa) = 69.33941 46.33824 33.58569
#
# Poissons Ratio (x) = 0.14347 0.38620
# Poissons Ratio (y) = 0.21469 -0.02365
# Poissons Ratio (z) = 0.79734 -0.03263
#
# Static dielectric constant tensor:
#      x y z
#    x 1.832030 0.000000 0.007570 
#    y 0.000000 1.746600 0.000000 
#    z 0.007570 0.000000 1.815290 
# 
# From -- ./inp_files/21282.got.cif
#   From: 2010.05.17/outbox.cif.g08.bks.cpg/sg5_11_cif.got.tgz:21282.got - 2010.06.03 18:56:24.
