data_PCOD9120303
_publ_section_title
;
Structure prediction by ZEFSAII (Michael W. Deem and Ramdas Pophale) SiO2 
 PCOD9120303
Probable space group: C 2
;
_chemical_formula_sum "Si O2"
_cell_formula_units_Z 30
_cell_length_a 12.329788
_cell_length_b 16.697093
_cell_length_c 9.592319
_cell_angle_alpha 90.000000
_cell_angle_beta 58.415584
_cell_angle_gamma 90.000000
_cell_volume 1682.259999
_symmetry_space_group_name_H-M "C 2"
_symmetry_group_IT_number 5
_symmetry_cell_setting 'monoclinic'
loop_
_space_group_symop_operation_xyz
x,y,z
-x,y,-z
1/2+x,1/2+y,z
1/2-x,1/2+y,-z
loop_
_atom_site_type_symbol
_atom_site_label
_atom_site_fract_x
_atom_site_fract_y
_atom_site_fract_z
Si Si1 0.013793 0.367690 0.334746
Si Si2 0.293341 0.933569 0.298501
Si Si3 0.795294 0.372866 0.015532
Si Si4 0.001593 0.879464 0.166758
Si Si5 0.500000 0.747744 0.000000
Si Si6 0.612527 0.698676 0.645609
Si Si7 0.416965 0.520738 0.422252
Si Si8 0.874506 0.782494 0.490423
O O1 0.000000 0.398363 0.500000
O O2 0.924291 0.411907 0.283937
O O3 0.960362 0.276187 0.369384
O O4 0.152886 0.380623 0.176499
O O5 0.309590 0.943074 0.121870
O O6 0.200987 0.856241 0.384656
O O7 0.225800 0.002225 0.431292
O O8 0.646285 0.358126 0.109005
O O9 0.887244 0.303684 0.015198
O O10 0.916384 0.815715 0.310311
O O11 0.960218 0.964867 0.264001
O O12 0.000000 0.880026 0.000000
O O13 0.437096 0.697200 0.163125
O O14 0.573313 0.614844 0.607275
O O15 0.764114 0.716289 0.545292
O O16 0.500000 0.495428 0.500000
O O17 0.000000 0.763492 0.500000
#
# Coordination Sequence:
#
# PCOD9120303 Si02
#       8
#     4   4   4   4   2   4   4   4
#     4  10  21  33  57  89 111 137 188 241 279 316
#     4  10  17  35  56  81 106 149 187 220 272 338
#     4  11  17  35  59  84 107 144 185 232 277 325
#     4  11  23  34  58  88 112 142 187 241 273 324
#     4  10  18  36  60  88 104 144 192 228 276 334
#     4  10  21  34  57  81 114 148 180 229 277 336
#     4  11  22  38  55  78 115 151 184 220 284 342
#     4  10  17  36  60  80 107 144 189 226 276 327
#
# _framework density 17.833154
#
# number of rings (size 3 to 8) (size 9 to 14) (size 15 to 20)
#    0.000    1.600    6.667    1.200    6.533    0.000 
#    0.000    0.667    0.000    1.600    0.000    0.000 
#    0.000    0.000    0.000    0.000    0.000    0.000 
#
# Total GULP energy -83518.406643 kJ/mol
# GULP energy per Si atom -5567.893776 kJ/mol
# Density = 1.779257 g / cm^3
# Si number density = 17.833154 Si / 1000 Ang^3
#
#
#
# Elastic Constant Matrix: (Units=GPa)
#
#
# Indices 1 2 3 4 5 6 
#
# 1 53.4437 9.1028 30.0373 0.0000 -1.7822 0.0000
# 2 9.1028 35.4776 19.3898 0.0000 -4.7054 0.0000
# 3 30.0373 19.3898 136.5837 0.0000 8.7189 0.0000
# 4 0.0000 0.0000 0.0000 16.0338 0.0000 0.9303
# 5 -1.7822 -4.7054 8.7189 0.0000 39.3206 0.0000
# 6 0.0000 0.0000 0.0000 0.9303 0.0000 7.7875
#
#
#
# Elastic Compliance Matrix: (Units=1/GPa)
#
#
# Indices 1 2 3 4 5 6 
#
# 1 0.021781 -0.002924 -0.004479 0.000000 0.001630 0.000000
# 2 -0.002924 0.031825 -0.004169 0.000000 0.004600 0.000000
# 3 -0.004479 -0.004169 0.009072 0.000000 -0.002713 0.000000
# 4 0.000000 0.000000 0.000000 0.062803 0.000000 -0.007502
# 5 0.001630 0.004600 -0.002713 0.000000 0.026658 0.000000
# 6 0.000000 0.000000 0.000000 -0.007502 0.000000 0.129307
#
#
# Mechanical properties :
#
#
# Convention : Reuss Voigt Hill
#
# Bulk Modulus (GPa) = 25.29453 38.06275 31.67864
# Shear Modulus (GPa) = 15.73472 23.76007 19.74739
#
# Velocity S-wave (km/s) = 2.97363 3.65410 3.33128
# Velocity P-wave (km/s) = 5.09948 6.26047 5.70956
#
# Compressibility (1/GPa) = 0.03953424
#
# Stress axis : x y z
#
# Youngs Moduli (GPa) = 45.91130 31.42135 110.23503
#
# Poissons Ratio (x) = 0.09189 0.49374
# Poissons Ratio (y) = 0.13426 0.45952
# Poissons Ratio (z) = 0.20564 0.13098
#
# Static dielectric constant tensor:
#      x y z
#    x 1.657310 0.000000 -0.020960 
#    y 0.000000 1.594900 0.000000 
#    z -0.020960 0.000000 1.690240 
# 
# From -- ./inp_files/21455.got.cif
#   From: 2010.05.17/outbox.cif.g08.bks.cpg/sg5_11_cif.got.tgz:21455.got - 2010.06.03 18:56:24.
