data_PCOD9120705
_publ_section_title
;
Structure prediction by ZEFSAII (Michael W. Deem and Ramdas Pophale) SiO2 
 PCOD9120705
Probable space group: C 2
;
_chemical_formula_sum "Si O2"
_cell_formula_units_Z 32
_cell_length_a 13.938181
_cell_length_b 22.304662
_cell_length_c 9.450554
_cell_angle_alpha 90.000000
_cell_angle_beta 149.653049
_cell_angle_gamma 90.000000
_cell_volume 1484.405010
_symmetry_space_group_name_H-M "C 2"
_symmetry_group_IT_number 5
_symmetry_cell_setting 'monoclinic'
loop_
_space_group_symop_operation_xyz
x,y,z
-x,y,-z
1/2+x,1/2+y,z
1/2-x,1/2+y,-z
loop_
_atom_site_type_symbol
_atom_site_label
_atom_site_fract_x
_atom_site_fract_y
_atom_site_fract_z
Si Si1 0.165322 0.272760 0.951902
Si Si2 0.019365 0.753619 0.188392
Si Si3 0.692799 0.846294 0.546876
Si Si4 0.689564 0.184898 0.655283
Si Si5 0.273260 0.399978 0.193779
Si Si6 0.684626 0.436521 0.061150
Si Si7 0.728319 0.548936 0.298243
Si Si8 0.734771 0.957256 0.432394
O O1 0.323571 0.262018 0.029488
O O2 0.153737 0.216012 0.043966
O O3 0.220187 0.329566 0.122059
O O4 0.966062 0.295705 0.635271
O O5 0.131765 0.815708 0.310447
O O6 0.156925 0.713206 0.459906
O O7 0.000000 0.731806 0.000000
O O8 0.625656 0.901425 0.363965
O O9 0.738252 0.926494 0.995275
O O10 0.500000 0.201132 0.500000
O O11 0.699013 0.113860 0.650376
O O12 0.500000 0.398162 0.500000
O O13 0.258812 0.379474 0.772544
O O14 0.210353 0.445549 0.236334
O O15 0.456873 0.445456 0.759896
O O16 0.769880 0.495545 0.241489
O O17 0.800190 0.521361 0.539413
O O18 0.500000 0.555157 0.000000
#
# Coordination Sequence:
#
# PCOD9120705 Si02
#       8
#     4   4   4   4   4   4   4   4
#     4  11  24  38  60  97 125 163 204 255 313 380
#     4  11  23  40  61  88 124 165 202 257 318 372
#     4  11  21  36  62  90 131 159 202 249 315 380
#     4  10  23  43  62  84 123 167 215 259 307 373
#     4  10  18  34  59  89 129 156 195 252 327 375
#     4   9  19  37  61  93 127 168 198 256 320 379
#     4   9  19  38  65  85 114 162 221 252 304 373
#     4   9  18  35  60  92 124 163 202 258 309 372
#
# _framework density 21.557459000000001
#
# number of rings (size 3 to 8) (size 9 to 14) (size 15 to 20)
#    0.000    2.000    0.000    6.000    1.750    3.500 
#    4.500    2.500    0.000    0.000    0.000    0.000 
#    0.000    0.000    0.000    0.000    0.000    0.000 
#
# Total GULP energy -89331.756131 kJ/mol
# GULP energy per Si atom -5583.234758 kJ/mol
# Density = 2.150839 g / cm^3
# Si number density = 21.557459 Si / 1000 Ang^3
#
#
#
# Elastic Constant Matrix: (Units=GPa)
#
#
# Indices 1 2 3 4 5 6 
#
# 1 76.0305 31.3321 37.6088 0.0000 -7.3623 0.0000
# 2 31.3321 128.6674 60.9616 0.0000 -22.3160 0.0000
# 3 37.6088 60.9616 83.1071 0.0000 -30.8352 0.0000
# 4 0.0000 0.0000 0.0000 29.9206 0.0000 -4.9024
# 5 -7.3623 -22.3160 -30.8352 0.0000 39.9293 0.0000
# 6 0.0000 0.0000 0.0000 -4.9024 0.0000 32.1058
#
#
#
# Elastic Compliance Matrix: (Units=1/GPa)
#
#
# Indices 1 2 3 4 5 6 
#
# 1 0.017444 -0.000764 -0.008829 0.000000 -0.004028 0.000000
# 2 -0.000764 0.011946 -0.008398 0.000000 0.000050 0.000000
# 3 -0.008829 -0.008398 0.027812 0.000000 0.015156 0.000000
# 4 0.000000 0.000000 0.000000 0.034279 0.000000 0.005234
# 5 -0.004028 0.000050 0.015156 0.000000 0.036033 0.000000
# 6 0.000000 0.000000 0.000000 0.005234 0.000000 0.031946
#
#
# Mechanical properties :
#
#
# Convention : Reuss Voigt Hill
#
# Bulk Modulus (GPa) = 47.12462 60.84555 53.98508
# Shear Modulus (GPa) = 24.68947 30.91798 27.80373
#
# Velocity S-wave (km/s) = 3.38788 3.79121 3.59520
# Velocity P-wave (km/s) = 6.10009 6.88843 6.50621
#
# Compressibility (1/GPa) = 0.02122033
#
# Stress axis : x y z
#
# Youngs Moduli (GPa) = 57.32518 83.71207 35.95616
#
# Poissons Ratio (x) = 0.06393 0.31744
# Poissons Ratio (y) = 0.04378 0.30198
# Poissons Ratio (z) = 0.50610 0.70305
#
# Static dielectric constant tensor:
#      x y z
#    x 1.878730 0.000000 0.057460 
#    y 0.000000 1.745730 0.000000 
#    z 0.057460 0.000000 1.866570 
# 
# From -- ./inp_files/21939.got.cif
#   From: 2010.05.17/outbox.cif.g08.bks.cpg/sg5_11_cif.got.tgz:21939.got - 2010.06.03 18:56:24.
