data_PCOD9120589
_publ_section_title
;
Structure prediction by ZEFSAII (Michael W. Deem and Ramdas Pophale) SiO2 
 PCOD9120589
Probable space group: C 2
;
_chemical_formula_sum "Si O2"
_cell_formula_units_Z 32
_cell_length_a 22.340584
_cell_length_b 18.803226
_cell_length_c 10.919124
_cell_angle_alpha 90.000000
_cell_angle_beta 22.037842
_cell_angle_gamma 90.000000
_cell_volume 1721.073335
_symmetry_space_group_name_H-M "C 2"
_symmetry_group_IT_number 5
_symmetry_cell_setting 'monoclinic'
loop_
_space_group_symop_operation_xyz
x,y,z
-x,y,-z
1/2+x,1/2+y,z
1/2-x,1/2+y,-z
loop_
_atom_site_type_symbol
_atom_site_label
_atom_site_fract_x
_atom_site_fract_y
_atom_site_fract_z
Si Si1 0.693847 0.931520 0.279813
Si Si2 0.250124 0.072889 0.415911
Si Si3 0.671595 0.389168 0.226748
Si Si4 0.382553 0.721609 0.336190
Si Si5 0.710999 0.868614 0.598703
Si Si6 0.562037 0.819431 0.141684
Si Si7 0.453823 0.449632 0.288560
Si Si8 0.413255 0.010297 0.311388
O O1 0.578381 0.865958 0.531469
O O2 0.604685 0.997704 0.510947
O O3 0.736168 0.929100 0.057196
O O4 0.863441 0.932796 0.029399
O O5 0.227498 0.154801 0.428639
O O6 0.290411 0.065300 0.483644
O O7 0.097655 0.026337 0.665565
O O8 0.407905 0.036090 0.057586
O O9 0.500000 0.365449 0.500000
O O10 0.635604 0.438499 0.411921
O O11 0.784541 0.327083 0.063655
O O12 0.291983 0.795083 0.470738
O O13 0.492434 0.742804 0.242596
O O14 0.500000 0.703874 0.000000
O O15 0.386610 0.850415 0.090327
O O16 0.878729 0.894506 0.334552
O O17 0.640831 0.936125 0.655353
#
# Coordination Sequence:
#
# PCOD9120589 Si02
#       8
#     4   4   4   4   4   4   4   4
#     4  11  19  31  57  88 108 145 197 248 288 336
#     4  10  21  35  52  80 121 157 186 230 296 353
#     4   9  19  35  57  88 111 140 194 258 294 326
#     4  10  21  34  55  83 119 160 192 230 294 358
#     4   9  18  36  56  79 119 155 192 234 289 341
#     4  10  18  33  55  81 113 147 189 236 292 343
#     4   9  20  33  55  83 117 148 189 251 289 342
#     4  10  19  34  55  80 119 157 188 234 288 346
#
# _framework density 18.593048
#
# number of rings (size 3 to 8) (size 9 to 14) (size 15 to 20)
#    0.000    2.250    1.250    3.375    7.000    1.500 
#    4.500    0.000    0.000    4.500    0.000    3.500 
#    0.000    0.000    0.000    0.000    0.000    0.000 
#
# Total GULP energy -89102.280103 kJ/mol
# GULP energy per Si atom -5568.892506 kJ/mol
# Density = 1.855073 g / cm^3
# Si number density = 18.593048 Si / 1000 Ang^3
#
#
#
# Elastic Constant Matrix: (Units=GPa)
#
#
# Indices 1 2 3 4 5 6 
#
# 1 88.5537 34.9023 36.1248 -0.0009 -4.9650 0.0002
# 2 34.9023 94.8418 34.7147 -0.0021 -12.1860 0.0012
# 3 36.1248 34.7147 77.4518 -0.0019 12.0972 0.0016
# 4 -0.0009 -0.0021 -0.0019 17.8375 0.0011 -6.6966
# 5 -4.9650 -12.1860 12.0972 0.0011 36.9545 -0.0004
# 6 0.0002 0.0012 0.0016 -6.6966 -0.0004 16.7461
#
#
#
# Elastic Compliance Matrix: (Units=1/GPa)
#
#
# Indices 1 2 3 4 5 6 
#
# 1 0.015162 -0.002881 -0.006271 0.000000 0.003140 0.000001
# 2 -0.002881 0.014744 -0.006285 0.000000 0.006532 0.000000
# 3 -0.006271 -0.006285 0.020138 0.000001 -0.009507 -0.000001
# 4 0.000000 0.000000 0.000001 0.065965 -0.000002 0.026379
# 5 0.003140 0.006532 -0.009507 -0.000002 0.032748 0.000000
# 6 0.000001 0.000000 -0.000001 0.026379 0.000000 0.070264
#
#
# Mechanical properties :
#
#
# Convention : Reuss Voigt Hill
#
# Bulk Modulus (GPa) = 52.16384 52.48120 52.32252
# Shear Modulus (GPa) = 19.50949 24.64800 22.07875
#
# Velocity S-wave (km/s) = 3.24279 3.64491 3.44971
# Velocity P-wave (km/s) = 6.49133 6.78243 6.63847
#
# Compressibility (1/GPa) = 0.01917037
#
# Stress axis : x y z
#
# Youngs Moduli (GPa) = 65.95265 67.82495 49.65706
#
# Poissons Ratio (x) = 0.19540 0.31141
# Poissons Ratio (y) = 0.19001 0.31209
# Poissons Ratio (z) = 0.41360 0.42627
#
# Static dielectric constant tensor:
#      x y z
#    x 1.696910 0.000000 0.004860 
#    y 0.000000 1.632340 0.000000 
#    z 0.004860 0.000000 1.733900 
# 
# From -- ./inp_files/47565.got.cif
#   From: 2010.05.17/outbox.cif.g08.bks.cpg/sg5_24_cif.got.tgz:47565.got - 2010.06.03 18:56:24.
