data_PCOD9120060
_publ_section_title
;
Structure prediction by ZEFSAII (Michael W. Deem and Ramdas Pophale) SiO2 
 PCOD9120060
Probable space group: C 2
;
_chemical_formula_sum "Si O2"
_cell_formula_units_Z 32
_cell_length_a 18.100894
_cell_length_b 14.638101
_cell_length_c 11.947289
_cell_angle_alpha 90.000000
_cell_angle_beta 151.216266
_cell_angle_gamma 90.000000
_cell_volume 1524.245153
_symmetry_space_group_name_H-M "C 2"
_symmetry_group_IT_number 5
_symmetry_cell_setting 'monoclinic'
loop_
_space_group_symop_operation_xyz
x,y,z
-x,y,-z
1/2+x,1/2+y,z
1/2-x,1/2+y,-z
loop_
_atom_site_type_symbol
_atom_site_label
_atom_site_fract_x
_atom_site_fract_y
_atom_site_fract_z
Si Si1 0.170303 0.397330 0.676479
Si Si2 0.822082 0.948158 0.460977
Si Si3 0.029056 0.095537 0.658547
Si Si4 0.926019 0.821845 0.146879
Si Si5 0.731638 0.103789 0.842468
Si Si6 0.419580 0.953378 0.680293
Si Si7 0.573962 0.144711 0.419958
Si Si8 0.720121 0.413652 0.841116
O O1 0.228676 0.495853 0.803656
O O2 0.157078 0.401809 0.525995
O O3 0.000000 0.384381 0.500000
O O4 0.291954 0.323376 0.878789
O O5 0.663874 0.936112 0.314137
O O6 0.824989 0.895489 0.346525
O O7 0.958044 0.906190 0.715690
O O8 0.871809 0.051396 0.496290
O O9 0.000000 0.144529 0.500000
O O10 0.135005 0.007799 0.763843
O O11 0.125568 0.134731 0.890955
O O12 0.838769 0.839333 0.149348
O O13 0.030179 0.733555 0.293662
O O14 0.703811 0.154988 0.687792
O O15 0.580112 0.117665 0.716184
O O16 0.393706 0.059603 0.616457
O O17 0.598810 0.929946 0.915674
#
# Coordination Sequence:
#
# PCOD9120060 Si02
#       8
#     4   4   4   4   4   4   4   4
#     4  11  17  36  64  86 117 157 209 251 297 374
#     4  10  22  32  60  89 118 164 204 249 304 375
#     4   9  16  32  56  86 115 150 212 254 281 352
#     4  11  21  37  60  95 121 149 209 263 313 351
#     4  10  16  34  58  90 111 152 204 247 295 359
#     4  11  20  38  62  85 120 164 215 242 308 379
#     4  10  21  32  61  88 115 156 198 262 305 359
#     4  10  18  35  61  86 116 157 209 255 289 379
#
# _framework density 20.993998000000001
#
# number of rings (size 3 to 8) (size 9 to 14) (size 15 to 20)
#    0.000    1.750    7.500    1.500    3.500    0.500 
#    0.000    0.625    8.250    0.000    0.000    0.000 
#    0.000    0.000    0.000    0.000    0.000    0.000 
#
# Total GULP energy -89285.793849 kJ/mol
# GULP energy per Si atom -5580.362116 kJ/mol
# Density = 2.094621 g / cm^3
# Si number density = 20.993998 Si / 1000 Ang^3
#
#
#
# Elastic Constant Matrix: (Units=GPa)
#
#
# Indices 1 2 3 4 5 6 
#
# 1 60.2259 -2.4844 13.3106 0.0000 11.3626 0.0000
# 2 -2.4844 29.8433 15.7344 0.0000 -6.6450 0.0000
# 3 13.3106 15.7344 128.2032 0.0000 -18.1919 0.0000
# 4 0.0000 0.0000 0.0000 24.1976 0.0000 -0.2920
# 5 11.3626 -6.6450 -18.1919 0.0000 20.5159 0.0000
# 6 0.0000 0.0000 0.0000 -0.2920 0.0000 1.5117
#
#
#
# Elastic Compliance Matrix: (Units=1/GPa)
#
#
# Indices 1 2 3 4 5 6 
#
# 1 0.020398 0.000652 -0.004314 0.000000 -0.014911 0.000000
# 2 0.000652 0.037297 -0.003412 0.000000 0.008694 0.000000
# 3 -0.004314 -0.003412 0.010123 0.000000 0.010260 0.000000
# 4 0.000000 0.000000 0.000000 0.041423 0.000000 0.008001
# 5 -0.014911 0.008694 0.010260 0.000000 0.068914 0.000000
# 6 0.000000 0.000000 0.000000 0.008001 0.000000 0.663049
#
#
# Mechanical properties :
#
#
# Convention : Reuss Voigt Hill
#
# Bulk Modulus (GPa) = 18.63187 30.15485 24.39336
# Shear Modulus (GPa) = 5.72581 22.02584 13.87582
#
# Velocity S-wave (km/s) = 1.65326 3.24257 2.57367
# Velocity P-wave (km/s) = 3.54097 5.33046 4.52506
#
# Compressibility (1/GPa) = 0.05367149
#
# Stress axis : x y z
#
# Youngs Moduli (GPa) = 49.02543 26.81167 98.78925
#
# Poissons Ratio (x) = -0.01749 0.42614
# Poissons Ratio (y) = -0.03198 0.33703
# Poissons Ratio (z) = 0.21148 0.09147
#
# Static dielectric constant tensor:
#      x y z
#    x 1.728420 0.000000 -0.034590 
#    y 0.000000 1.802040 0.000000 
#    z -0.034590 0.000000 1.811740 
# 
# From -- ./inp_files/45104.got.cif
#   From: 2010.05.17/outbox.cif.g08.bks.cpg/sg5_23_cif.got.tgz:45104.got - 2010.06.03 18:56:24.
