data_PCOD9120169
_publ_section_title
;
Structure prediction by ZEFSAII (Michael W. Deem and Ramdas Pophale) SiO2 
 PCOD9120169
Probable space group: C 2
;
_chemical_formula_sum "Si O2"
_cell_formula_units_Z 28
_cell_length_a 10.157939
_cell_length_b 27.582938
_cell_length_c 9.849196
_cell_angle_alpha 90.000000
_cell_angle_beta 147.075602
_cell_angle_gamma 90.000000
_cell_volume 1499.933371
_symmetry_space_group_name_H-M "C 2"
_symmetry_group_IT_number 5
_symmetry_cell_setting 'monoclinic'
loop_
_space_group_symop_operation_xyz
x,y,z
-x,y,-z
1/2+x,1/2+y,z
1/2-x,1/2+y,-z
loop_
_atom_site_type_symbol
_atom_site_label
_atom_site_fract_x
_atom_site_fract_y
_atom_site_fract_z
Si Si1 0.281333 0.912920 0.696578
Si Si2 0.203040 0.766889 0.866087
Si Si3 0.055380 0.665930 0.696723
Si Si4 0.697883 0.803864 0.359358
Si Si5 0.170292 0.070319 0.028721
Si Si6 0.937386 0.515674 0.787024
Si Si7 0.865243 0.113651 0.520285
O O1 0.292128 0.861975 0.628973
O O2 0.000000 0.916590 0.500000
O O3 0.330010 0.963228 0.660229
O O4 0.500000 0.909673 0.000000
O O5 0.217429 0.708790 0.896409
O O6 0.254492 0.785825 0.755908
O O7 0.920907 0.782266 0.639997
O O8 0.420155 0.788398 0.144326
O O9 0.176270 0.614069 0.774550
O O10 0.000000 0.686116 0.500000
O O11 0.826128 0.652950 0.591178
O O12 0.331828 0.028585 0.103927
O O13 0.000000 0.051562 0.000000
O O14 0.041078 0.098667 0.794237
O O15 0.767677 0.562503 0.624843
O O16 0.000000 0.513932 0.000000
O O17 0.000000 0.129004 0.500000
#
# Coordination Sequence:
#
# PCOD9120169 Si02
#       7
#     4   4   4   4   4   4   4
#     4  11  19  32  53  84 114 154 189 240 302 352
#     4  10  19  30  49  80 119 148 182 241 294 343
#     4  11  22  33  55  85 113 158 196 240 299 348
#     4  10  17  30  49  79 122 142 186 239 299 340
#     4  11  23  37  57  82 114 156 202 245 289 356
#     4  10  22  35  56  83 116 154 196 246 300 348
#     4  11  22  39  56  80 116 155 199 246 290 355
#
# _framework density 18.667496
#
# number of rings (size 3 to 8) (size 9 to 14) (size 15 to 20)
#    0.000    1.429    7.143    0.429    6.000    0.000 
#    0.000    0.000    0.000    0.000    0.000    2.000 
#    0.000    0.000    0.000    0.000    0.000    0.000 
#
# Total GULP energy -77968.310053 kJ/mol
# GULP energy per Si atom -5569.165004 kJ/mol
# Density = 1.862501 g / cm^3
# Si number density = 18.667496 Si / 1000 Ang^3
#
#
#
# Elastic Constant Matrix: (Units=GPa)
#
#
# Indices 1 2 3 4 5 6 
#
# 1 96.3531 41.0752 21.1499 0.0000 17.7039 0.0000
# 2 41.0752 128.3661 13.9812 0.0000 18.2571 0.0000
# 3 21.1499 13.9812 79.8921 0.0000 22.7837 0.0000
# 4 0.0000 0.0000 0.0000 1.0057 0.0000 17.6306
# 5 17.7039 18.2571 22.7837 0.0000 25.7260 0.0000
# 6 0.0000 0.0000 0.0000 17.6306 0.0000 29.8442
#
#
#
# Elastic Compliance Matrix: (Units=1/GPa)
#
#
# Indices 1 2 3 4 5 6 
#
# 1 0.013068 -0.003253 -0.001316 0.000000 -0.005518 0.000000
# 2 -0.003253 0.009481 0.000645 0.000000 -0.005061 0.000000
# 3 -0.001316 0.000645 0.016891 0.000000 -0.014511 0.000000
# 4 0.000000 0.000000 0.000000 -0.106274 0.000000 0.062782
# 5 -0.005518 -0.005061 -0.014511 0.000000 0.059112 0.000000
# 6 0.000000 0.000000 0.000000 0.062782 0.000000 -0.003581
#
#
# Mechanical properties :
#
#
# Convention : Reuss Voigt Hill
#
# Bulk Modulus (GPa) = 31.65471 50.78043 41.21757
# Shear Modulus (GPa) = 706.64505 26.54218 366.59362
#
# Velocity S-wave (km/s) = 19.47729 3.77482 14.02879
# Velocity P-wave (km/s) = 22.86512 6.80152 16.86823
#
# Compressibility (1/GPa) = 0.03159088
#
# Stress axis : x y z
#
# Youngs Moduli (GPa) = 76.52077 105.47671 59.20413
#
# Poissons Ratio (x) = 0.34316 0.07794
# Poissons Ratio (y) = 0.24895 -0.03821
# Poissons Ratio (z) = 0.10074 -0.06808
#
# Static dielectric constant tensor:
#      x y z
#    x 1.671190 0.000000 0.078060 
#    y 0.000000 1.641410 0.000000 
#    z 0.078060 0.000000 1.753240 
# 
# From -- ./inp_files/17513.got.cif
#   From: 2010.05.17/outbox.cif.g08.bks.cpg/sg5_9_cif.got.tgz:17513.got - 2010.06.03 18:56:24.
