data_PCOD9120061
_publ_section_title
;
Structure prediction by ZEFSAII (Michael W. Deem and Ramdas Pophale) SiO2 
 PCOD9120061
Probable space group: C 2
;
_chemical_formula_sum "Si O2"
_cell_formula_units_Z 26
_cell_length_a 5.718528
_cell_length_b 24.426642
_cell_length_c 9.428587
_cell_angle_alpha 90.000000
_cell_angle_beta 116.291329
_cell_angle_gamma 90.000000
_cell_volume 1180.785005
_symmetry_space_group_name_H-M "C 2"
_symmetry_group_IT_number 5
_symmetry_cell_setting 'monoclinic'
loop_
_space_group_symop_operation_xyz
x,y,z
-x,y,-z
1/2+x,1/2+y,z
1/2-x,1/2+y,-z
loop_
_atom_site_type_symbol
_atom_site_label
_atom_site_fract_x
_atom_site_fract_y
_atom_site_fract_z
Si Si1 0.677943 0.563940 0.904827
Si Si2 0.280216 0.363656 0.644653
Si Si3 0.526485 0.884257 0.838902
Si Si4 0.000000 0.749679 0.000000
Si Si5 0.329274 0.279681 0.252788
Si Si6 0.983845 0.181167 0.168443
Si Si7 0.370588 0.468324 0.328756
O O1 0.555723 0.618488 0.798721
O O2 0.632760 0.510076 0.800630
O O3 0.500000 0.557876 0.000000
O O4 0.000000 0.571367 0.000000
O O5 0.393545 0.304783 0.630119
O O6 0.454260 0.414309 0.644082
O O7 0.000000 0.369497 0.500000
O O8 0.279783 0.370543 0.815388
O O9 0.362689 0.829257 0.761999
O O10 0.413694 0.940197 0.739403
O O11 0.500000 0.892364 0.000000
O O12 0.782393 0.712569 0.865406
O O13 0.155665 0.778302 0.915501
O O14 0.221431 0.221299 0.274574
O O15 0.000000 0.178747 0.000000
O O16 0.500000 0.496222 0.500000
#
# Coordination Sequence:
#
# PCOD9120061 Si02
#       7
#     4   4   4   2   4   4   4
#     4  11  25  44  71 109 135 178 238 298 343 409
#     4  11  23  40  63  93 136 185 224 280 352 422
#     4  11  22  38  61  97 133 167 228 280 342 407
#     4  10  16  34  58  92 128 166 206 274 336 402
#     4  10  20  32  61  96 131 171 221 270 347 411
#     4   9  18  35  60  96 131 168 220 279 346 402
#     4  11  25  42  64  93 135 183 228 282 357 419
#
# _framework density 22.019248000000001
#
# number of rings (size 3 to 8) (size 9 to 14) (size 15 to 20)
#    0.000    1.538    2.308    3.692    4.308    1.231 
#    0.000    0.000    0.000    5.538    0.000    0.000 
#    0.000    0.000    0.000    0.000    0.000    0.000 
#
# Total GULP energy -72433.717358 kJ/mol
# GULP energy per Si atom -5571.824412 kJ/mol
# Density = 2.196913 g / cm^3
# Si number density = 22.019248 Si / 1000 Ang^3
#
#
#
# Elastic Constant Matrix: (Units=GPa)
#
#
# Indices 1 2 3 4 5 6 
#
# 1 96.1531 40.9430 24.6255 0.0000 -3.6351 0.0000
# 2 40.9430 150.0078 31.4104 0.0000 13.6912 0.0000
# 3 24.6255 31.4104 56.3026 0.0000 -0.8683 0.0000
# 4 0.0000 0.0000 0.0000 17.2680 0.0000 4.0941
# 5 -3.6351 13.6912 -0.8683 0.0000 33.3332 0.0000
# 6 0.0000 0.0000 0.0000 4.0941 0.0000 30.9242
#
#
#
# Elastic Compliance Matrix: (Units=1/GPa)
#
#
# Indices 1 2 3 4 5 6 
#
# 1 0.012723 -0.002876 -0.003922 0.000000 0.002467 0.000000
# 2 -0.002876 0.008558 -0.003577 0.000000 -0.003922 0.000000
# 3 -0.003922 -0.003577 0.021497 0.000000 0.001602 0.000000
# 4 0.000000 0.000000 0.000000 0.059787 0.000000 -0.007915
# 5 0.002467 -0.003922 0.001602 0.000000 0.031922 0.000000
# 6 0.000000 0.000000 0.000000 -0.007915 0.000000 0.033385
#
#
# Mechanical properties :
#
#
# Convention : Reuss Voigt Hill
#
# Bulk Modulus (GPa) = 45.39839 55.15791 50.27815
# Shear Modulus (GPa) = 25.51485 30.00408 27.75947
#
# Velocity S-wave (km/s) = 3.40774 3.69539 3.55447
# Velocity P-wave (km/s) = 6.01215 6.58119 6.30309
#
# Compressibility (1/GPa) = 0.02202721
#
# Stress axis : x y z
#
# Youngs Moduli (GPa) = 78.60064 116.84463 46.51874
#
# Poissons Ratio (x) = 0.33609 0.18244
# Poissons Ratio (y) = 0.22609 0.16640
# Poissons Ratio (z) = 0.30825 0.41795
#
# Static dielectric constant tensor:
#      x y z
#    x 1.905310 0.000000 0.032070 
#    y 0.000000 1.792760 0.000000 
#    z 0.032070 0.000000 1.916270 
# 
# From -- ./inp_files/34020.got.cif
#   From: 2010.05.17/outbox.cif.g08.bks.cpg/sg5_18_cif.got.tgz:34020.got - 2010.06.03 18:56:24.
