data_PCOD9120428
_publ_section_title
;
Structure prediction by ZEFSAII (Michael W. Deem and Ramdas Pophale) SiO2 
 PCOD9120428
Probable space group: C 2
;
_chemical_formula_sum "Si O2"
_cell_formula_units_Z 20
_cell_length_a 8.743940
_cell_length_b 23.304761
_cell_length_c 7.334845
_cell_angle_alpha 90.000000
_cell_angle_beta 144.867353
_cell_angle_gamma 90.000000
_cell_volume 860.134686
_symmetry_space_group_name_H-M "C 2"
_symmetry_group_IT_number 5
_symmetry_cell_setting 'monoclinic'
loop_
_space_group_symop_operation_xyz
x,y,z
-x,y,-z
1/2+x,1/2+y,z
1/2-x,1/2+y,-z
loop_
_atom_site_type_symbol
_atom_site_label
_atom_site_fract_x
_atom_site_fract_y
_atom_site_fract_z
Si Si1 0.032983 0.238780 0.810074
Si Si2 0.119539 0.111109 0.915927
Si Si3 0.756336 0.419511 0.623738
Si Si4 0.621519 0.041582 0.319811
Si Si5 0.033873 0.803518 0.312197
O O1 0.133631 0.175816 0.855350
O O2 0.743179 0.255291 0.457878
O O3 0.244874 0.287077 0.960176
O O4 0.000000 0.240065 0.000000
O O5 0.902026 0.073305 0.599529
O O6 0.399699 0.079349 0.202557
O O7 0.000000 0.116175 0.000000
O O8 0.500000 0.435107 0.500000
O O9 0.838512 0.475244 0.588534
O O10 0.661007 0.365908 0.409951
O O11 0.000000 0.403765 0.000000
O O12 0.500000 0.038036 0.000000
O O13 0.000000 0.801176 0.500000
#
# Coordination Sequence:
#
# PCOD9120428 Si02
#       5
#     4   4   4   4   4
#     4   9  17  28  46  73 105 136 172 220 273 321
#     4  11  22  37  56  82 115 150 187 229 274 330
#     4  10  18  30  49  77 110 141 177 227 279 327
#     4  11  22  37  56  82 115 151 187 228 274 329
#     4   9  15  26  45  72 104 134 166 220 283 319
#
# _framework density 23.252175000000001
#
# number of rings (size 3 to 8) (size 9 to 14) (size 15 to 20)
#    0.000    2.000    0.000    7.800    0.000    3.200 
#    0.000    0.000    0.000    0.000    0.000   21.000 
#    0.000    3.200    0.000    0.000    0.000    0.000 
#
# Total GULP energy -55868.098334 kJ/mol
# GULP energy per Si atom -5586.809833 kJ/mol
# Density = 2.319925 g / cm^3
# Si number density = 23.252175 Si / 1000 Ang^3
#
#
#
# Elastic Constant Matrix: (Units=GPa)
#
#
# Indices 1 2 3 4 5 6 
#
# 1 36.6346 23.6244 17.2796 0.0000 9.5877 0.0000
# 2 23.6244 181.0165 40.2411 0.0000 25.2186 0.0000
# 3 17.2796 40.2411 105.2444 0.0000 30.5162 0.0000
# 4 0.0000 0.0000 0.0000 37.0880 0.0000 11.1675
# 5 9.5877 25.2186 30.5162 0.0000 35.8653 0.0000
# 6 0.0000 0.0000 0.0000 11.1675 0.0000 26.8228
#
#
#
# Elastic Compliance Matrix: (Units=1/GPa)
#
#
# Indices 1 2 3 4 5 6 
#
# 1 0.031588 -0.002928 -0.002941 0.000000 -0.003883 0.000000
# 2 -0.002928 0.006567 -0.001219 0.000000 -0.002798 0.000000
# 3 -0.002941 -0.001219 0.013241 0.000000 -0.009623 0.000000
# 4 0.000000 0.000000 0.000000 0.030828 0.000000 -0.012835
# 5 -0.003883 -0.002798 -0.009623 0.000000 0.039075 0.000000
# 6 0.000000 0.000000 0.000000 -0.012835 0.000000 0.042626
#
#
# Mechanical properties :
#
#
# Convention : Reuss Voigt Hill
#
# Bulk Modulus (GPa) = 26.86672 53.90951 40.38811
# Shear Modulus (GPa) = 26.24581 36.07190 31.15885
#
# Velocity S-wave (km/s) = 3.36333 3.94297 3.66463
# Velocity P-wave (km/s) = 5.16355 6.63057 5.94250
#
# Compressibility (1/GPa) = 0.03722078
#
# Stress axis : x y z
#
# Youngs Moduli (GPa) = 31.65750 152.27053 75.52403
#
# Poissons Ratio (x) = 0.44581 0.22210
# Poissons Ratio (y) = 0.09269 0.09207
# Poissons Ratio (z) = 0.09310 0.18564
#
# Static dielectric constant tensor:
#      x y z
#    x 1.937940 0.000000 -0.034820 
#    y 0.000000 1.911770 0.000000 
#    z -0.034820 0.000000 1.811700 
# 
# From -- ./inp_files/2799.got.cif
#   From: 2010.05.17/outbox.cif.g08.bks.cpg/sg5_2_cif.got.tgz:2799.got - 2010.06.03 18:56:24.
