data_PCOD9120740
_publ_section_title
;
Structure prediction by ZEFSAII (Michael W. Deem and Ramdas Pophale) SiO2 
 PCOD9120740
Probable space group: C 2
;
_chemical_formula_sum "Si O2"
_cell_formula_units_Z 30
_cell_length_a 10.194861
_cell_length_b 17.549368
_cell_length_c 8.104806
_cell_angle_alpha 90.000000
_cell_angle_beta 98.265347
_cell_angle_gamma 90.000000
_cell_volume 1434.996258
_symmetry_space_group_name_H-M "C 2"
_symmetry_group_IT_number 5
_symmetry_cell_setting 'monoclinic'
loop_
_space_group_symop_operation_xyz
x,y,z
-x,y,-z
1/2+x,1/2+y,z
1/2-x,1/2+y,-z
loop_
_atom_site_type_symbol
_atom_site_label
_atom_site_fract_x
_atom_site_fract_y
_atom_site_fract_z
Si Si1 0.395975 0.555120 0.718261
Si Si2 0.757634 0.409123 0.695468
Si Si3 0.416129 0.689064 0.151070
Si Si4 0.853390 0.565475 0.546430
Si Si5 0.369533 0.128342 0.901572
Si Si6 0.036181 0.355167 0.810304
Si Si7 0.000000 0.923954 0.500000
Si Si8 0.271484 0.977112 0.046616
O O1 0.507913 0.620568 0.742017
O O2 0.260640 0.586079 0.606815
O O3 0.455244 0.482450 0.634513
O O4 0.346982 0.520610 0.883351
O O5 0.791860 0.489961 0.618186
O O6 0.626959 0.377880 0.584841
O O7 0.894328 0.364940 0.700088
O O8 0.729765 0.425124 0.883991
O O9 0.267427 0.667734 0.079706
O O10 0.411704 0.772588 0.229800
O O11 0.500000 0.697163 0.000000
O O12 0.871771 0.621733 0.704358
O O13 0.000000 0.552484 0.500000
O O14 0.500000 0.165705 0.000000
O O15 0.359186 0.044293 0.982522
O O16 0.140984 0.424613 0.813570
O O17 0.000000 0.358429 0.000000
#
# Coordination Sequence:
#
# PCOD9120740 Si02
#       8
#     4   4   4   4   4   4   2   4
#     4  11  20  34  59  88 122 153 207 249 299 357
#     4   9  18  34  55  86 116 152 196 251 298 361
#     4  11  22  36  62  91 122 160 199 254 312 363
#     4  10  20  33  58  89 120 153 199 256 299 348
#     4  11  21  36  62  91 118 152 207 252 302 362
#     4   9  19  36  60  86 119 152 197 250 309 361
#     4  10  22  32  56  84 122 150 196 258 298 350
#     4  10  18  34  63  89 111 153 208 250 292 356
#
# _framework density 20.905978000000001
#
# number of rings (size 3 to 8) (size 9 to 14) (size 15 to 20)
#    0.000    1.867    1.333    6.000    0.000    0.000 
#    0.000    0.000   35.200    0.000    0.000    0.000 
#    0.000    0.000    0.000    0.000    0.000    0.000 
#
# Total GULP energy -83687.427580 kJ/mol
# GULP energy per Si atom -5579.161839 kJ/mol
# Density = 2.085840 g / cm^3
# Si number density = 20.905978 Si / 1000 Ang^3
#
#
#
# Elastic Constant Matrix: (Units=GPa)
#
#
# Indices 1 2 3 4 5 6 
#
# 1 157.0446 36.1626 30.7222 0.0000 43.8457 0.0000
# 2 36.1626 64.7961 5.7242 0.0000 24.6598 0.0000
# 3 30.7222 5.7242 34.5778 0.0000 3.6509 0.0000
# 4 0.0000 0.0000 0.0000 1.8636 0.0000 -10.6083
# 5 43.8457 24.6598 3.6509 0.0000 45.6926 0.0000
# 6 0.0000 0.0000 0.0000 -10.6083 0.0000 -58.7356
#
#
#
# Elastic Compliance Matrix: (Units=1/GPa)
#
#
# Indices 1 2 3 4 5 6 
#
# 1 0.010918 -0.002035 -0.008445 0.000000 -0.008704 0.000000
# 2 -0.002035 0.019958 -0.000570 0.000000 -0.008773 0.000000
# 3 -0.008445 -0.000570 0.035933 0.000000 0.005540 0.000000
# 4 0.000000 0.000000 0.000000 0.264579 0.000000 -0.047786
# 5 -0.008704 -0.008773 0.005540 0.000000 0.034530 0.000000
# 6 0.000000 0.000000 0.000000 -0.047786 0.000000 -0.008395
#
#
# Mechanical properties :
#
#
# Convention : Reuss Voigt Hill
#
# Bulk Modulus (GPa) = 22.36638 44.62629 33.49633
# Shear Modulus (GPa) = 12.67347 10.01809 11.34578
#
# Velocity S-wave (km/s) = 2.46481 2.19143 2.33213
# Velocity P-wave (km/s) = 4.33845 5.27216 4.82793
#
# Compressibility (1/GPa) = 0.04470997
#
# Stress axis : x y z
#
# Youngs Moduli (GPa) = 91.58866 50.10590 27.82955
#
# Poissons Ratio (x) = 0.10196 0.23502
# Poissons Ratio (y) = 0.18638 0.01585
# Poissons Ratio (z) = 0.77347 0.02854
#
# Static dielectric constant tensor:
#      x y z
#    x 1.901260 0.000000 -0.090960 
#    y 0.000000 1.748040 0.000000 
#    z -0.090960 0.000000 1.945770 
# 
# From -- ./inp_files/16803.got.cif
#   From: 2010.05.17/outbox.cif.g08.bks.cpg/sg5_9_cif.got.tgz:16803.got - 2010.06.03 18:56:24.
