data_PCOD9120034
_publ_section_title
;
Structure prediction by ZEFSAII (Michael W. Deem and Ramdas Pophale) SiO2 
 PCOD9120034
Probable space group: C 2
;
_chemical_formula_sum "Si O2"
_cell_formula_units_Z 18
_cell_length_a 14.613536
_cell_length_b 5.014449
_cell_length_c 12.531339
_cell_angle_alpha 90.000000
_cell_angle_beta 49.962054
_cell_angle_gamma 90.000000
_cell_volume 703.053652
_symmetry_space_group_name_H-M "C 2"
_symmetry_group_IT_number 5
_symmetry_cell_setting 'monoclinic'
loop_
_space_group_symop_operation_xyz
x,y,z
-x,y,-z
1/2+x,1/2+y,z
1/2-x,1/2+y,-z
loop_
_atom_site_type_symbol
_atom_site_label
_atom_site_fract_x
_atom_site_fract_y
_atom_site_fract_z
Si Si1 0.500000 0.046901 0.500000
Si Si2 0.339716 0.789673 0.143443
Si Si3 0.732597 0.268095 0.441383
Si Si4 0.873171 0.511887 0.795085
Si Si5 0.373273 0.290999 0.996502
O O1 0.603578 0.210383 0.484499
O O2 0.443884 0.888030 0.642828
O O3 0.330463 0.722732 0.274415
O O4 0.203707 0.744658 0.204467
O O5 0.404487 0.583831 0.014051
O O6 0.377171 0.088515 0.092277
O O7 0.744212 0.561786 0.480505
O O8 0.770558 0.317526 0.917568
O O9 0.934509 0.656245 0.848937
#
# Coordination Sequence:
#
# PCOD9120034 Si02
#       5
#     2   4   4   4   4
#     4  10  24  44  68 108 126 178 228 282 324 406
#     4   9  18  32  58  85 115 174 210 254 320 392
#     4  11  24  44  65  96 139 175 216 278 341 392
#     4   9  18  33  59  95 125 167 221 264 322 399
#     4  10  16  32  58  89 125 166 218 255 328 394
#
# _framework density 25.602596999999999
#
# number of rings (size 3 to 8) (size 9 to 14) (size 15 to 20)
#    1.333    0.889    2.222    1.333    0.000    0.889 
#    4.000    0.000    0.000    8.000    0.000    0.000 
#    0.000    0.000    0.000    0.000    0.000    0.000 
#
# Total GULP energy -50174.294290 kJ/mol
# GULP energy per Si atom -5574.921588 kJ/mol
# Density = 2.554432 g / cm^3
# Si number density = 25.602597 Si / 1000 Ang^3
#
#
#
# Elastic Constant Matrix: (Units=GPa)
#
#
# Indices 1 2 3 4 5 6 
#
# 1 89.6438 -16.0464 12.4704 -0.0027 3.7889 0.0088
# 2 -16.0464 72.6379 4.1726 -0.0074 0.8595 0.0280
# 3 12.4704 4.1726 166.4736 -0.0016 25.7506 0.0070
# 4 -0.0027 -0.0074 -0.0016 29.6901 -0.0003 18.7395
# 5 3.7889 0.8595 25.7506 -0.0003 29.1001 -0.0016
# 6 0.0088 0.0280 0.0070 18.7395 -0.0016 -14.9295
#
#
#
# Elastic Compliance Matrix: (Units=1/GPa)
#
#
# Indices 1 2 3 4 5 6 
#
# 1 0.011782 0.002660 -0.000811 -0.000003 -0.000895 0.000008
# 2 0.002660 0.014388 -0.000510 -0.000008 -0.000320 0.000018
# 3 -0.000811 -0.000510 0.007023 -0.000001 -0.006094 0.000001
# 4 -0.000003 -0.000008 -0.000001 0.018793 0.000003 0.023589
# 5 -0.000895 -0.000320 -0.006094 0.000003 0.039883 -0.000005
# 6 0.000008 0.000018 0.000001 0.023589 -0.000005 -0.037373
#
#
# Mechanical properties :
#
#
# Convention : Reuss Voigt Hill
#
# Bulk Modulus (GPa) = 27.87830 36.66093 32.26961
# Shear Modulus (GPa) = 78.40070 30.64937 54.52503
#
# Velocity S-wave (km/s) = 5.53973 3.46370 4.61984
# Velocity P-wave (km/s) = 7.19935 5.50877 6.41004
#
# Compressibility (1/GPa) = 0.03587019
#
# Stress axis : x y z
#
# Youngs Moduli (GPa) = 84.87508 69.50420 142.38632
#
# Poissons Ratio (x) = -0.18488 0.11545
# Poissons Ratio (y) = -0.22576 0.07268
# Poissons Ratio (z) = 0.06882 0.03548
#
# Static dielectric constant tensor:
#      x y z
#    x 2.163810 0.000000 -0.080480 
#    y 0.000000 1.892550 0.000000 
#    z -0.080480 0.000000 2.069090 
# 
# From -- ./inp_files/43608.got.cif
#   From: 2010.05.17/outbox.cif.g08.bks.cpg/sg5_22_cif.got.tgz:43608.got - 2010.06.03 18:56:24.
