data_PCOD9120881
_publ_section_title
;
Structure prediction by ZEFSAII (Michael W. Deem and Ramdas Pophale) SiO2 
 PCOD9120881
Probable space group: C 2
;
_chemical_formula_sum "Si O2"
_cell_formula_units_Z 28
_cell_length_a 16.512165
_cell_length_b 10.900435
_cell_length_c 13.481864
_cell_angle_alpha 90.000000
_cell_angle_beta 150.434858
_cell_angle_gamma 90.000000
_cell_volume 1197.314357
_symmetry_space_group_name_H-M "C 2"
_symmetry_group_IT_number 5
_symmetry_cell_setting 'monoclinic'
loop_
_space_group_symop_operation_xyz
x,y,z
-x,y,-z
1/2+x,1/2+y,z
1/2-x,1/2+y,-z
loop_
_atom_site_type_symbol
_atom_site_label
_atom_site_fract_x
_atom_site_fract_y
_atom_site_fract_z
Si Si1 0.774152 0.785930 0.118481
Si Si2 0.446874 0.053432 0.340528
Si Si3 0.020127 0.177471 0.309736
Si Si4 0.500000 0.537337 0.000000
Si Si5 0.800250 0.454426 0.785721
Si Si6 0.126087 0.938887 0.933638
Si Si7 0.753552 0.206832 0.609400
Si Si8 0.500000 0.637402 0.500000
O O1 0.846465 0.677239 0.261538
O O2 0.747698 0.901396 0.158095
O O3 0.601607 0.743979 0.894971
O O4 0.883642 0.814517 0.138673
O O5 0.500000 0.991805 0.500000
O O6 0.399554 0.113769 0.549398
O O7 0.318044 0.979714 0.137310
O O8 0.966671 0.209609 0.363548
O O9 0.194498 0.214205 0.450903
O O10 0.980836 0.035458 0.243495
O O11 0.579030 0.452295 0.998492
O O12 0.615834 0.628524 0.185860
O O13 0.755782 0.343510 0.660731
O O14 0.663406 0.562782 0.635947
O O15 0.000000 0.478978 0.000000
#
# Coordination Sequence:
#
# PCOD9120881 Si02
#       8
#     4   4   4   2   4   4   4   2
#     4  11  21  40  62  91 127 166 207 264 328 377
#     4  11  20  35  63  93 117 158 215 266 306 379
#     4  10  23  42  61  88 136 165 200 269 329 367
#     4  10  18  36  60  90 130 154 200 272 324 358
#     4  12  21  38  72  97 122 167 227 265 309 386
#     4  10  21  37  61  91 121 166 204 260 322 378
#     4  11  19  37  63  94 120 161 216 268 306 375
#     4  12  26  44  64  98 134 172 212 272 328 384
#
# _framework density 23.385670999999999
#
# number of rings (size 3 to 8) (size 9 to 14) (size 15 to 20)
#    0.000    1.143    6.429    1.714    0.000    1.143 
#    1.286    1.429    0.000    0.000    0.000    0.000 
#    0.000    0.000    0.000    0.000    0.000    0.000 
#
# Total GULP energy -78046.620146 kJ/mol
# GULP energy per Si atom -5574.758582 kJ/mol
# Density = 2.333244 g / cm^3
# Si number density = 23.385671 Si / 1000 Ang^3
#
#
#
# Elastic Constant Matrix: (Units=GPa)
#
#
# Indices 1 2 3 4 5 6 
#
# 1 140.9373 11.2089 16.1980 0.0000 -15.6993 0.0000
# 2 11.2089 28.5673 3.5062 0.0000 3.3916 0.0000
# 3 16.1980 3.5062 69.2089 0.0000 -5.5024 0.0000
# 4 0.0000 0.0000 0.0000 16.2156 0.0000 -1.7667
# 5 -15.6993 3.3916 -5.5024 0.0000 35.5497 0.0000
# 6 0.0000 0.0000 0.0000 -1.7667 0.0000 43.9119
#
#
#
# Elastic Compliance Matrix: (Units=1/GPa)
#
#
# Indices 1 2 3 4 5 6 
#
# 1 0.007925 -0.003366 -0.001398 0.000000 0.003605 0.000000
# 2 -0.003366 0.037136 -0.001512 0.000000 -0.005263 0.000000
# 3 -0.001398 -0.001512 0.015000 0.000000 0.001849 0.000000
# 4 0.000000 0.000000 0.000000 0.061940 0.000000 0.002492
# 5 0.003605 -0.005263 0.001849 0.000000 0.030510 0.000000
# 6 0.000000 0.000000 0.000000 0.002492 0.000000 0.022873
#
#
# Mechanical properties :
#
#
# Convention : Reuss Voigt Hill
#
# Bulk Modulus (GPa) = 21.04838 33.39329 27.22083
# Shear Modulus (GPa) = 24.53714 32.98880 28.76297
#
# Velocity S-wave (km/s) = 3.24271 3.75993 3.51085
# Velocity P-wave (km/s) = 4.80003 5.75845 5.30095
#
# Compressibility (1/GPa) = 0.04750959
#
# Stress axis : x y z
#
# Youngs Moduli (GPa) = 126.17927 26.92789 66.66791
#
# Poissons Ratio (x) = 0.09064 0.09318
# Poissons Ratio (y) = 0.42472 0.10080
# Poissons Ratio (z) = 0.17637 0.04072
#
# Static dielectric constant tensor:
#      x y z
#    x 1.934940 0.000000 0.041310 
#    y 0.000000 1.868900 0.000000 
#    z 0.041310 0.000000 1.841460 
# 
# From -- ./inp_files/42951.got.cif
#   From: 2010.05.17/outbox.cif.g08.bks.cpg/sg5_22_cif.got.tgz:42951.got - 2010.06.03 18:56:24.
