data_PCOD9120909
_publ_section_title
;
Structure prediction by ZEFSAII (Michael W. Deem and Ramdas Pophale) SiO2 
 PCOD9120909
Probable space group: C 2
;
_chemical_formula_sum "Si O2"
_cell_formula_units_Z 24
_cell_length_a 11.256537
_cell_length_b 7.493787
_cell_length_c 19.900974
_cell_angle_alpha 90.000000
_cell_angle_beta 143.356815
_cell_angle_gamma 90.000000
_cell_volume 1001.915243
_symmetry_space_group_name_H-M "C 2"
_symmetry_group_IT_number 5
_symmetry_cell_setting 'monoclinic'
loop_
_space_group_symop_operation_xyz
x,y,z
-x,y,-z
1/2+x,1/2+y,z
1/2-x,1/2+y,-z
loop_
_atom_site_type_symbol
_atom_site_label
_atom_site_fract_x
_atom_site_fract_y
_atom_site_fract_z
Si Si1 0.611637 0.855080 0.983494
Si Si2 0.228983 0.936552 0.553494
Si Si3 0.477549 0.799266 0.415839
Si Si4 0.664715 0.272546 0.659621
Si Si5 0.735733 0.085817 0.207225
Si Si6 0.957375 0.088431 0.170987
O O1 0.491462 0.040326 0.913471
O O2 0.590538 0.726678 0.910591
O O3 0.500000 0.783818 0.000000
O O4 0.838973 0.907788 0.100953
O O5 0.416498 0.918267 0.591873
O O6 0.116578 0.121361 0.490016
O O7 0.267565 0.897212 0.648725
O O8 0.067363 0.783089 0.461796
O O9 0.500000 0.882692 0.500000
O O10 0.285149 0.716057 0.291391
O O11 0.685562 0.386826 0.736922
O O12 0.801303 0.097176 0.717907
O O13 0.861337 0.144137 0.198943
#
# Coordination Sequence:
#
# PCOD9120909 Si02
#       6
#     4   4   4   4   4   4
#     4   9  20  36  58  84 112 148 195 239 288 340
#     4  10  19  35  58  84 119 152 191 230 279 343
#     4  11  20  37  57  86 120 155 191 233 283 340
#     4   9  17  34  60  83 113 158 185 227 290 339
#     4   9  17  34  60  82 110 156 192 228 286 341
#     4  10  18  36  63  82 113 154 191 239 291 339
#
# _framework density 23.954122000000002
#
# number of rings (size 3 to 8) (size 9 to 14) (size 15 to 20)
#    0.000    2.333    5.000    0.000    0.000    0.000 
#    3.000   12.500    0.000    0.000    0.000    0.000 
#    0.000    0.000    0.000    0.000    0.000    0.000 
#
# Total GULP energy -66920.916894 kJ/mol
# GULP energy per Si atom -5576.743075 kJ/mol
# Density = 2.389960 g / cm^3
# Si number density = 23.954122 Si / 1000 Ang^3
#
#
#
# Elastic Constant Matrix: (Units=GPa)
#
#
# Indices 1 2 3 4 5 6 
#
# 1 140.3460 22.2662 38.4553 0.0000 -17.3511 0.0000
# 2 22.2662 50.2783 -6.5990 0.0000 -12.7918 0.0000
# 3 38.4553 -6.5990 72.3852 0.0000 -15.5694 0.0000
# 4 0.0000 0.0000 0.0000 20.0911 0.0000 -0.9346
# 5 -17.3511 -12.7918 -15.5694 0.0000 48.3471 0.0000
# 6 0.0000 0.0000 0.0000 -0.9346 0.0000 36.3993
#
#
#
# Elastic Compliance Matrix: (Units=1/GPa)
#
#
# Indices 1 2 3 4 5 6 
#
# 1 0.009392 -0.004760 -0.005339 0.000000 0.000392 0.000000
# 2 -0.004760 0.024542 0.006227 0.000000 0.006790 0.000000
# 3 -0.005339 0.006227 0.018439 0.000000 0.005669 0.000000
# 4 0.000000 0.000000 0.000000 0.049833 0.000000 0.001280
# 5 0.000392 0.006790 0.005669 0.000000 0.024447 0.000000
# 6 0.000000 0.000000 0.000000 0.001280 0.000000 0.027506
#
#
# Mechanical properties :
#
#
# Convention : Reuss Voigt Hill
#
# Bulk Modulus (GPa) = 22.40775 41.25050 31.82913
# Shear Modulus (GPa) = 28.28383 34.89329 31.58856
#
# Velocity S-wave (km/s) = 3.43993 3.82078 3.63535
# Velocity P-wave (km/s) = 5.01520 6.05991 5.56214
#
# Compressibility (1/GPa) = 0.04462741
#
# Stress axis : x y z
#
# Youngs Moduli (GPa) = 106.47476 40.74582 54.23413
#
# Poissons Ratio (x) = 0.19397 0.28957
# Poissons Ratio (y) = 0.50686 -0.33771
# Poissons Ratio (z) = 0.56850 -0.25372
#
# Static dielectric constant tensor:
#      x y z
#    x 1.902610 0.000000 0.001450 
#    y 0.000000 1.945590 0.000000 
#    z 0.001450 0.000000 2.003890 
# 
# From -- ./inp_files/60187.got.cif
#   From: 2010.05.17/outbox.cif.g08.bks.cpg/sg5_31_cif.got.tgz:60187.got - 2010.06.03 18:56:24.
