data_PCOD9120570
_publ_section_title
;
Structure prediction by ZEFSAII (Michael W. Deem and Ramdas Pophale) SiO2 
 PCOD9120570
Probable space group: C 2
;
_chemical_formula_sum "Si O2"
_cell_formula_units_Z 28
_cell_length_a 23.234353
_cell_length_b 4.997623
_cell_length_c 17.581868
_cell_angle_alpha 90.000000
_cell_angle_beta 30.046294
_cell_angle_gamma 90.000000
_cell_volume 1022.201017
_symmetry_space_group_name_H-M "C 2"
_symmetry_group_IT_number 5
_symmetry_cell_setting 'monoclinic'
loop_
_space_group_symop_operation_xyz
x,y,z
-x,y,-z
1/2+x,1/2+y,z
1/2-x,1/2+y,-z
loop_
_atom_site_type_symbol
_atom_site_label
_atom_site_fract_x
_atom_site_fract_y
_atom_site_fract_z
Si Si1 0.608944 0.700790 0.498209
Si Si2 0.000000 0.825295 0.500000
Si Si3 0.053350 0.375779 0.778240
Si Si4 0.103963 0.865553 0.633673
Si Si5 0.220704 0.893799 0.811491
Si Si6 0.290627 0.894424 0.073651
Si Si7 0.500000 0.094903 0.000000
Si Si8 0.085373 0.613088 0.251129
O O1 0.574594 0.508061 0.469039
O O2 0.671723 0.527255 0.491027
O O3 0.692752 0.904545 0.358999
O O4 0.494550 0.846772 0.661019
O O5 0.927681 0.657740 0.642344
O O6 0.130722 0.578926 0.639164
O O7 0.050964 0.432716 0.870238
O O8 0.082847 0.072521 0.725307
O O9 0.922246 0.435160 0.898842
O O10 0.989278 0.813003 0.714667
O O11 0.254424 0.679972 0.841633
O O12 0.102090 0.771881 0.917179
O O13 0.198188 0.184730 0.870354
O O14 0.215310 0.733346 0.096645
#
# Coordination Sequence:
#
# PCOD9120570 Si02
#       8
#     4   2   4   4   4   4   2   4
#     4  11  22  40  66 104 147 187 227 292 350 431
#     4  10  18  32  62  94 142 182 226 270 330 424
#     4  11  24  47  68  98 136 180 241 301 352 420
#     4  11  25  42  67 100 147 181 227 285 360 434
#     4  11  24  43  70 111 134 180 247 300 350 415
#     4  11  24  40  70 102 143 185 237 285 345 423
#     4  10  26  50  80  98 128 188 246 320 360 400
#     4  11  22  38  64 104 146 196 218 276 352 431
#
# _framework density 27.391873
#
# number of rings (size 3 to 8) (size 9 to 14) (size 15 to 20)
#    0.000    1.143    2.857    3.857    4.000    6.286 
#    0.000    1.429    0.000    0.000    0.000    0.000 
#    0.000    0.000    0.000    0.000    0.000    0.000 
#
# Total GULP energy -78282.894629 kJ/mol
# GULP energy per Si atom -5591.635331 kJ/mol
# Density = 2.732953 g / cm^3
# Si number density = 27.391873 Si / 1000 Ang^3
#
#
#
# Elastic Constant Matrix: (Units=GPa)
#
#
# Indices 1 2 3 4 5 6 
#
# 1 115.9970 20.8867 22.8537 -0.0335 -0.6599 0.0068
# 2 20.8867 147.8803 19.5860 -0.0896 18.6385 0.0069
# 3 22.8537 19.5860 88.9502 0.0192 18.0095 0.0199
# 4 -0.0335 -0.0896 0.0192 37.2433 0.0040 26.9783
# 5 -0.6599 18.6385 18.0095 0.0040 49.0235 -0.0035
# 6 0.0068 0.0069 0.0199 26.9783 -0.0035 11.4742
#
#
#
# Elastic Compliance Matrix: (Units=1/GPa)
#
#
# Indices 1 2 3 4 5 6 
#
# 1 0.009321 -0.001179 -0.002432 -0.000010 0.001467 0.000023
# 2 -0.001179 0.007353 -0.000807 -0.000028 -0.002515 0.000062
# 3 -0.002432 -0.000807 0.012953 -0.000008 -0.004484 -0.000003
# 4 -0.000010 -0.000028 -0.000008 -0.038185 0.000023 0.089780
# 5 0.001467 -0.002515 -0.004484 0.000023 0.023022 -0.000038
# 6 0.000023 0.000062 -0.000003 0.089780 -0.000038 -0.123940
#
#
# Mechanical properties :
#
#
# Convention : Reuss Voigt Hill
#
# Bulk Modulus (GPa) = 48.10106 53.27559 50.68833
# Shear Modulus (GPa) = -53.35591 38.84827 -7.25382
#
# Velocity S-wave (km/s) = -4.41826 3.77004 -1.62908
# Velocity P-wave (km/s) = 2.90337 6.20021 3.87382
#
# Compressibility (1/GPa) = 0.02078956
#
# Stress axis : x y z
#
# Youngs Moduli (GPa) = 107.28700 136.00629 77.20382
#
# Poissons Ratio (x) = 0.16039 0.18777
# Poissons Ratio (y) = 0.12652 0.06229
# Poissons Ratio (z) = 0.26094 0.10973
#
# Static dielectric constant tensor:
#      x y z
#    x 2.167010 -0.000070 -0.062180 
#    y -0.000070 2.102400 0.000160 
#    z -0.062180 0.000160 2.286570 
# 
# From -- ./inp_files/63120.got.cif
#   From: 2010.05.17/outbox.cif.g08.bks.cpg/sg5_32_cif.got.tgz:63120.got - 2010.06.03 18:56:24.
