data_PCOD9120568
_publ_section_title
;
Structure prediction by ZEFSAII (Michael W. Deem and Ramdas Pophale) SiO2 
 PCOD9120568
Probable space group: C 2
;
_chemical_formula_sum "Si O2"
_cell_formula_units_Z 32
_cell_length_a 14.486941
_cell_length_b 12.643882
_cell_length_c 8.769386
_cell_angle_alpha 90.000000
_cell_angle_beta 121.654631
_cell_angle_gamma 90.000000
_cell_volume 1367.324727
_symmetry_space_group_name_H-M "C 2"
_symmetry_group_IT_number 5
_symmetry_cell_setting 'monoclinic'
loop_
_space_group_symop_operation_xyz
x,y,z
-x,y,-z
1/2+x,1/2+y,z
1/2-x,1/2+y,-z
loop_
_atom_site_type_symbol
_atom_site_label
_atom_site_fract_x
_atom_site_fract_y
_atom_site_fract_z
Si Si1 0.618205 0.608670 0.520852
Si Si2 0.618200 0.845407 0.520841
Si Si3 0.334444 0.016979 0.197915
Si Si4 0.897988 0.727047 0.786537
Si Si5 0.869274 0.727046 0.400769
Si Si6 0.165554 0.937106 0.802104
Si Si7 0.553846 0.989976 0.200147
Si Si8 0.446151 0.464117 0.799861
O O1 0.500000 0.618148 0.500000
O O2 0.665475 0.727039 0.564581
O O3 0.670172 0.524060 0.675905
O O4 0.611713 0.555312 0.348851
O O5 0.500000 0.835925 0.500000
O O6 0.670168 0.930021 0.675887
O O7 0.611702 0.898766 0.348837
O O8 0.319000 0.127263 0.269904
O O9 0.453293 0.024239 0.222784
O O10 0.249999 0.977044 0.000008
O O11 0.865382 0.727063 0.578306
O O12 0.882007 0.597051 0.787886
O O13 0.882013 0.857042 0.787931
O O14 0.000000 0.727036 0.000000
O O15 0.819006 0.826819 0.269880
O O16 0.000000 0.727036 0.500000
O O17 0.046704 0.929851 0.777228
O O18 0.500000 0.945483 0.000000
O O19 0.500000 0.508627 0.000000
#
# Coordination Sequence:
#
# PCOD9120568 Si02
#       8
#     4   4   4   4   4   4   4   4
#     4   9  18  34  54  75 104 148 188 220 268 345
#     4   9  18  34  54  75 104 148 188 220 268 345
#     4  11  22  34  56  87 115 141 186 244 283 323
#     4  10  18  32  62  88 104 136 204 243 265 324
#     4  12  18  38  64  84 108 156 201 226 274 355
#     4  11  22  34  56  87 115 141 186 244 283 323
#     4  10  19  35  58  80 108 146 190 230 279 343
#     4  10  19  35  58  80 108 146 190 230 279 343
#
# _framework density 23.403364
#
# number of rings (size 3 to 8) (size 9 to 14) (size 15 to 20)
#    0.000    1.750    5.000    0.750    1.750    0.500 
#    0.000    1.250    0.000    0.000    0.000    0.000 
#    0.000    0.000    0.000    0.000    0.000    0.000 
#
# Total GULP energy -89069.562355 kJ/mol
# GULP energy per Si atom -5566.847647 kJ/mol
# Density = 2.335010 g / cm^3
# Si number density = 23.403364 Si / 1000 Ang^3
#
#
#
# Elastic Constant Matrix: (Units=GPa)
#
#
# Indices 1 2 3 4 5 6 
#
# 1 91.2004 19.7978 -12.6945 0.0000 -4.8656 0.0000
# 2 19.7978 239.5235 113.3526 0.0000 0.0208 0.0000
# 3 -12.6945 113.3526 197.7432 0.0000 -32.3623 0.0000
# 4 0.0000 0.0000 0.0000 35.8882 0.0000 -21.1886
# 5 -4.8656 0.0208 -32.3623 0.0000 20.7025 0.0000
# 6 0.0000 0.0000 0.0000 -21.1886 0.0000 -35.4233
#
#
#
# Elastic Compliance Matrix: (Units=1/GPa)
#
#
# Indices 1 2 3 4 5 6 
#
# 1 0.012658 -0.002949 0.004018 0.000000 0.009259 0.000000
# 2 -0.002949 0.007259 -0.006000 0.000000 -0.010080 0.000000
# 3 0.004018 -0.006000 0.011973 0.000000 0.019667 0.000000
# 4 0.000000 0.000000 0.000000 0.020592 0.000000 -0.012317
# 5 0.009259 -0.010080 0.019667 0.000000 0.081233 0.000000
# 6 0.000000 0.000000 0.000000 -0.012317 0.000000 -0.020862
#
#
# Mechanical properties :
#
#
# Convention : Reuss Voigt Hill
#
# Bulk Modulus (GPa) = 45.39364 85.48655 65.44009
# Shear Modulus (GPa) = 38.44478 31.43425 34.93951
#
# Velocity S-wave (km/s) = 4.05742 3.66888 3.86803
# Velocity P-wave (km/s) = 6.43339 7.38609 6.92614
#
# Compressibility (1/GPa) = 0.02202952
#
# Stress axis : x y z
#
# Youngs Moduli (GPa) = 78.99969 137.76006 83.52107
#
# Poissons Ratio (x) = 0.40621 -0.33561
# Poissons Ratio (y) = 0.23295 0.50112
# Poissons Ratio (z) = -0.31744 0.82656
#
# Static dielectric constant tensor:
#      x y z
#    x 2.052080 0.000000 0.044050 
#    y 0.000000 1.876240 0.000000 
#    z 0.044050 0.000000 1.781860 
# 
# From -- ./inp_files/29626.got.cif
#   From: 2010.05.17/outbox.cif.g08.bks.cpg/sg5_15_cif.got.tgz:29626.got - 2010.06.03 18:56:24.
