data_PCOD9120639
_publ_section_title
;
Structure prediction by ZEFSAII (Michael W. Deem and Ramdas Pophale) SiO2 
 PCOD9120639
Probable space group: C 2
;
_chemical_formula_sum "Si O2"
_cell_formula_units_Z 32
_cell_length_a 21.968102
_cell_length_b 12.889355
_cell_length_c 23.386701
_cell_angle_alpha 90.000000
_cell_angle_beta 17.353303
_cell_angle_gamma 90.000000
_cell_volume 1975.113353
_symmetry_space_group_name_H-M "C 2"
_symmetry_group_IT_number 5
_symmetry_cell_setting 'monoclinic'
loop_
_space_group_symop_operation_xyz
x,y,z
-x,y,-z
1/2+x,1/2+y,z
1/2-x,1/2+y,-z
loop_
_atom_site_type_symbol
_atom_site_label
_atom_site_fract_x
_atom_site_fract_y
_atom_site_fract_z
Si Si1 0.168571 0.518660 0.538987
Si Si2 0.634815 0.157937 0.733662
Si Si3 0.998337 0.005762 0.435091
Si Si4 0.544980 0.712129 0.727890
Si Si5 0.676901 0.185734 0.886912
Si Si6 0.592739 0.187833 0.180543
Si Si7 0.373862 0.369351 0.446943
Si Si8 0.453969 0.806143 0.403525
O O1 0.336399 0.603920 0.371346
O O2 0.275071 0.461489 0.497777
O O3 0.963203 0.586533 0.732270
O O4 0.108402 0.423583 0.552432
O O5 0.542008 0.161717 0.754069
O O6 0.783998 0.063718 0.614815
O O7 0.786357 0.256263 0.595897
O O8 0.446865 0.159923 0.944941
O O9 0.178306 0.089700 0.262150
O O10 0.000000 0.973990 0.500000
O O11 0.000382 0.914924 0.386314
O O12 0.680280 0.799253 0.637994
O O13 0.542806 0.747027 0.662158
O O14 0.321590 0.703324 0.954315
O O15 0.827928 0.281024 0.764450
O O16 0.500000 0.206755 0.000000
O O17 0.508252 0.291558 0.287065
#
# Coordination Sequence:
#
# PCOD9120639 Si02
#       8
#     4   4   4   4   4   4   4   4
#     4  10  18  34  50  79 112 140 181 220 279 332
#     4  11  19  34  52  79 117 144 174 223 272 324
#     4  11  22  38  57  82 115 153 180 222 276 340
#     4  10  20  33  50  80 111 143 180 228 275 326
#     4  11  22  35  53  83 112 142 185 223 271 335
#     4  11  20  33  55  81 114 143 179 235 276 325
#     4  10  21  35  50  83 113 141 184 225 279 340
#     4  10  20  33  52  77 110 147 178 224 279 329
#
# _framework density 16.201602000000001
#
# number of rings (size 3 to 8) (size 9 to 14) (size 15 to 20)
#    0.000    1.500    7.500    0.750    0.000    4.000 
#    0.000    0.000    0.000    0.000   19.500    0.000 
#    0.000    0.000    0.000    0.000    0.000    0.000 
#
# Total GULP energy -89093.511089 kJ/mol
# GULP energy per Si atom -5568.344443 kJ/mol
# Density = 1.616473 g / cm^3
# Si number density = 16.201602 Si / 1000 Ang^3
#
#
#
# Elastic Constant Matrix: (Units=GPa)
#
#
# Indices 1 2 3 4 5 6 
#
# 1 84.1986 32.4520 6.8887 0.0011 -10.6980 -0.0027
# 2 32.4520 82.8718 26.6204 0.0276 -4.9448 -0.0049
# 3 6.8887 26.6204 94.8587 0.0554 -10.4232 -0.0131
# 4 0.0011 0.0276 0.0554 10.5449 -0.0112 -3.1106
# 5 -10.6980 -4.9448 -10.4232 -0.0112 27.3921 -0.0014
# 6 -0.0027 -0.0049 -0.0131 -3.1106 -0.0014 23.3322
#
#
#
# Elastic Compliance Matrix: (Units=1/GPa)
#
#
# Indices 1 2 3 4 5 6 
#
# 1 0.014670 -0.005801 0.001124 0.000014 0.005110 0.000003
# 2 -0.005801 0.015584 -0.004062 -0.000021 -0.000998 -0.000003
# 3 0.001124 -0.004062 0.012073 -0.000048 0.004300 0.000000
# 4 0.000014 -0.000021 -0.000048 0.098715 0.000024 0.013161
# 5 0.005110 -0.000998 0.004300 0.000024 0.039958 0.000009
# 6 0.000003 -0.000003 0.000000 0.013161 0.000009 0.044614
#
#
# Mechanical properties :
#
#
# Convention : Reuss Voigt Hill
#
# Bulk Modulus (GPa) = 40.24271 43.76124 42.00197
# Shear Modulus (GPa) = 19.89074 25.31836 22.60455
#
# Velocity S-wave (km/s) = 3.50766 3.95740 3.73930
# Velocity P-wave (km/s) = 6.42632 6.92462 6.68012
#
# Compressibility (1/GPa) = 0.02484922
#
# Stress axis : x y z
#
# Youngs Moduli (GPa) = 68.16774 64.17036 82.83171
#
# Poissons Ratio (x) = 0.37223 -0.09310
# Poissons Ratio (y) = 0.39542 0.33643
# Poissons Ratio (z) = -0.07662 0.26064
#
# Static dielectric constant tensor:
#      x y z
#    x 1.576640 0.000000 0.014010 
#    y 0.000000 1.546220 0.000000 
#    z 0.014010 0.000000 1.552530 
# 
# From -- ./inp_files/67132.got.cif
#   From: 2010.05.17/outbox.cif.g08.bks.cpg/sg5_34_cif.got.tgz:67132.got - 2010.06.03 18:56:24.
