data_PCOD9120467
_publ_section_title
;
Structure prediction by ZEFSAII (Michael W. Deem and Ramdas Pophale) SiO2 
 PCOD9120467
Probable space group: C 2
;
_chemical_formula_sum "Si O2"
_cell_formula_units_Z 24
_cell_length_a 31.148973
_cell_length_b 8.161333
_cell_length_c 8.529747
_cell_angle_alpha 90.000000
_cell_angle_beta 156.590628
_cell_angle_gamma 90.000000
_cell_volume 861.504131
_symmetry_space_group_name_H-M "C 2"
_symmetry_group_IT_number 5
_symmetry_cell_setting 'monoclinic'
loop_
_space_group_symop_operation_xyz
x,y,z
-x,y,-z
1/2+x,1/2+y,z
1/2-x,1/2+y,-z
loop_
_atom_site_type_symbol
_atom_site_label
_atom_site_fract_x
_atom_site_fract_y
_atom_site_fract_z
Si Si1 0.123749 0.797950 0.847540
Si Si2 0.198111 0.114439 0.965180
Si Si3 0.467499 0.319980 0.063820
Si Si4 0.043897 0.455977 0.969624
Si Si5 0.183752 0.481315 0.945939
Si Si6 0.542025 0.643444 0.822601
O O1 0.187376 0.629209 0.083584
O O2 0.000000 0.794162 0.500000
O O3 0.084981 0.793848 0.536498
O O4 0.188521 0.969489 0.063023
O O5 0.226558 0.297735 0.119969
O O6 0.075966 0.138117 0.489156
O O7 0.266138 0.044328 0.049574
O O8 0.410186 0.468662 0.962760
O O9 0.411886 0.141112 0.880925
O O10 0.500000 0.367694 0.000000
O O11 0.104125 0.299164 0.099198
O O12 0.943785 0.462347 0.513250
O O13 0.000000 0.427347 0.000000
O O14 0.500000 0.653745 0.500000
#
# Coordination Sequence:
#
# PCOD9120467 Si02
#       6
#     4   4   4   4   4   4
#     4  10  20  33  52  82 111 137 184 237 279 322
#     4  10  18  31  49  78 111 139 178 226 280 329
#     4   9  17  30  49  75 106 140 176 221 268 326
#     4   9  19  33  51  79 104 141 186 228 271 334
#     4  10  19  31  53  78 111 143 181 227 280 328
#     4  10  20  32  52  82 108 138 181 235 282 319
#
# _framework density 27.858252
#
# number of rings (size 3 to 8) (size 9 to 14) (size 15 to 20)
#    0.000    2.333    1.667    2.500    0.000    7.333 
#    0.000    0.000    0.000    0.000   30.333    7.000 
#    0.000    0.000    0.000    0.000    0.000    0.000 
#
# Total GULP energy -66907.460460 kJ/mol
# GULP energy per Si atom -5575.621705 kJ/mol
# Density = 2.779485 g / cm^3
# Si number density = 27.858252 Si / 1000 Ang^3
#
#
#
# Elastic Constant Matrix: (Units=GPa)
#
#
# Indices 1 2 3 4 5 6 
#
# 1 144.0602 93.0368 7.9578 0.0000 -4.3302 0.0000
# 2 93.0368 377.4754 35.3771 0.0000 -3.1017 0.0000
# 3 7.9578 35.3771 71.3714 0.0000 -2.4339 0.0000
# 4 0.0000 0.0000 0.0000 3.7747 0.0000 12.9615
# 5 -4.3302 -3.1017 -2.4339 0.0000 37.2074 0.0000
# 6 0.0000 0.0000 0.0000 12.9615 0.0000 21.0698
#
#
#
# Elastic Compliance Matrix: (Units=1/GPa)
#
#
# Indices 1 2 3 4 5 6 
#
# 1 0.008280 -0.002045 0.000118 0.000000 0.000801 0.000000
# 2 -0.002045 0.003284 -0.001402 0.000000 -0.000056 0.000000
# 3 0.000118 -0.001402 0.014722 0.000000 0.000860 0.000000
# 4 0.000000 0.000000 0.000000 -0.238160 0.000000 0.146509
# 5 0.000801 -0.000056 0.000860 0.000000 0.027021 0.000000
# 6 0.000000 0.000000 0.000000 0.146509 0.000000 -0.042667
#
#
# Mechanical properties :
#
#
# Convention : Reuss Voigt Hill
#
# Bulk Modulus (GPa) = 50.94729 96.18339 73.56534
# Shear Modulus (GPa) = -23.32971 42.84606 9.75817
#
# Velocity S-wave (km/s) = -2.89700 3.92599 1.87361
# Velocity P-wave (km/s) = 2.67163 7.42645 5.58076
#
# Compressibility (1/GPa) = 0.01962813
#
# Stress axis : x y z
#
# Youngs Moduli (GPa) = 120.77354 304.48944 67.92452
#
# Poissons Ratio (x) = 0.62275 -0.00801
# Poissons Ratio (y) = 0.24701 0.09521
# Poissons Ratio (z) = -0.01424 0.42682
#
# Static dielectric constant tensor:
#      x y z
#    x 2.230520 0.000000 0.030760 
#    y 0.000000 2.530030 0.000000 
#    z 0.030760 0.000000 3.115030 
# 
# From -- ./inp_files/32408.got.cif
#   From: 2010.05.17/outbox.cif.g08.bks.cpg/sg5_17_cif.got.tgz:32408.got - 2010.06.03 18:56:24.
