data_PCOD9120108
_publ_section_title
;
Structure prediction by ZEFSAII (Michael W. Deem and Ramdas Pophale) SiO2 
 PCOD9120108
Probable space group: C 2
;
_chemical_formula_sum "Si O2"
_cell_formula_units_Z 32
_cell_length_a 14.845462
_cell_length_b 14.857255
_cell_length_c 11.290205
_cell_angle_alpha 90.000000
_cell_angle_beta 36.949228
_cell_angle_gamma 90.000000
_cell_volume 1496.876498
_symmetry_space_group_name_H-M "C 2"
_symmetry_group_IT_number 5
_symmetry_cell_setting 'monoclinic'
loop_
_space_group_symop_operation_xyz
x,y,z
-x,y,-z
1/2+x,1/2+y,z
1/2-x,1/2+y,-z
loop_
_atom_site_type_symbol
_atom_site_label
_atom_site_fract_x
_atom_site_fract_y
_atom_site_fract_z
Si Si1 0.206420 0.922060 0.112867
Si Si2 0.325355 0.265919 0.219094
Si Si3 0.847626 0.579682 0.097876
Si Si4 0.029261 0.643942 0.282672
Si Si5 0.899899 0.839152 0.391368
Si Si6 0.733315 0.100396 0.296345
Si Si7 0.831026 0.426331 0.728107
Si Si8 0.669986 0.800609 0.826652
O O1 0.263191 0.831395 0.117914
O O2 0.033810 0.911677 0.252537
O O3 0.234598 0.002074 0.176924
O O4 0.310954 0.940051 0.889200
O O5 0.286128 0.160650 0.245058
O O6 0.320779 0.312513 0.351865
O O7 0.225222 0.326284 0.239272
O O8 0.500000 0.271196 0.000000
O O9 0.000000 0.545155 0.000000
O O10 0.901021 0.624400 0.917419
O O11 0.985521 0.747702 0.337276
O O12 0.871573 0.595715 0.477424
O O13 0.134733 0.618862 0.281344
O O14 0.772749 0.850769 0.622535
O O15 0.825675 0.192891 0.205080
O O16 0.780231 0.998091 0.220372
O O17 0.000000 0.437539 0.500000
O O18 0.500000 0.830072 0.000000
#
# Coordination Sequence:
#
# PCOD9120108 Si02
#       8
#     4   4   4   4   4   4   4   4
#     4  12  23  40  69  96 132 177 223 274 330 406
#     4  11  23  42  67  97 132 179 223 273 336 401
#     4  11  21  38  64  98 137 174 225 268 335 395
#     4  10  16  37  66  91 119 178 214 265 321 401
#     4  11  22  45  70  92 130 175 227 273 336 404
#     4  10  20  38  66  89 126 166 226 265 328 391
#     4  12  24  39  67 100 135 177 224 274 332 395
#     4  11  26  43  67  97 128 170 224 284 339 396
#
# _framework density 21.377849000000001
#
# number of rings (size 3 to 8) (size 9 to 14) (size 15 to 20)
#    0.000    1.000    7.500    0.750    1.750    0.500 
#    2.250    1.250    2.750    0.000    0.000    0.000 
#    0.000    0.000    0.000    0.000    0.000    0.000 
#
# Total GULP energy -89221.547044 kJ/mol
# GULP energy per Si atom -5576.346690 kJ/mol
# Density = 2.132919 g / cm^3
# Si number density = 21.377849 Si / 1000 Ang^3
#
#
#
# Elastic Constant Matrix: (Units=GPa)
#
#
# Indices 1 2 3 4 5 6 
#
# 1 65.4161 11.1201 20.3763 0.0000 6.1492 0.0000
# 2 11.1201 93.1979 6.4311 0.0000 -5.4664 0.0000
# 3 20.3763 6.4311 87.7781 0.0000 10.1969 0.0000
# 4 0.0000 0.0000 0.0000 19.5802 0.0000 -0.3105
# 5 6.1492 -5.4664 10.1969 0.0000 24.7223 0.0000
# 6 0.0000 0.0000 0.0000 -0.3105 0.0000 41.8926
#
#
#
# Elastic Compliance Matrix: (Units=1/GPa)
#
#
# Indices 1 2 3 4 5 6 
#
# 1 0.016996 -0.001983 -0.003422 0.000000 -0.003254 0.000000
# 2 -0.001983 0.011210 -0.000742 0.000000 0.003278 0.000000
# 3 -0.003422 -0.000742 0.012773 0.000000 -0.004581 0.000000
# 4 0.000000 0.000000 0.000000 0.051078 0.000000 0.000379
# 5 -0.003254 0.003278 -0.004581 0.000000 0.043873 0.000000
# 6 0.000000 0.000000 0.000000 0.000379 0.000000 0.023873
#
#
# Mechanical properties :
#
#
# Convention : Reuss Voigt Hill
#
# Bulk Modulus (GPa) = 34.86030 35.80521 35.33276
# Shear Modulus (GPa) = 27.52427 31.13667 29.33047
#
# Velocity S-wave (km/s) = 3.59209 3.82054 3.70807
# Velocity P-wave (km/s) = 5.79191 6.02056 5.90734
#
# Compressibility (1/GPa) = 0.02868592
#
# Stress axis : x y z
#
# Youngs Moduli (GPa) = 58.83880 89.20717 78.28850
#
# Poissons Ratio (x) = 0.17686 0.26790
# Poissons Ratio (y) = 0.11665 0.05808
# Poissons Ratio (z) = 0.20134 0.06618
#
# Static dielectric constant tensor:
#      x y z
#    x 1.758240 0.000000 -0.003290 
#    y 0.000000 1.844780 0.000000 
#    z -0.003290 0.000000 1.749450 
# 
# From -- ./inp_files/43069.got.cif
#   From: 2010.05.17/outbox.cif.g08.bks.cpg/sg5_22_cif.got.tgz:43069.got - 2010.06.03 18:56:24.
