data_PCOD9120478
_publ_section_title
;
Structure prediction by ZEFSAII (Michael W. Deem and Ramdas Pophale) SiO2 
 PCOD9120478
Probable space group: C 2
;
_chemical_formula_sum "Si O2"
_cell_formula_units_Z 32
_cell_length_a 8.942205
_cell_length_b 16.363638
_cell_length_c 17.848254
_cell_angle_alpha 90.000000
_cell_angle_beta 140.102139
_cell_angle_gamma 90.000000
_cell_volume 1675.187375
_symmetry_space_group_name_H-M "C 2"
_symmetry_group_IT_number 5
_symmetry_cell_setting 'monoclinic'
loop_
_space_group_symop_operation_xyz
x,y,z
-x,y,-z
1/2+x,1/2+y,z
1/2-x,1/2+y,-z
loop_
_atom_site_type_symbol
_atom_site_label
_atom_site_fract_x
_atom_site_fract_y
_atom_site_fract_z
Si Si1 0.051462 0.727650 0.939425
Si Si2 0.100412 0.550261 0.164333
Si Si3 0.425333 0.495514 0.049281
Si Si4 0.474083 0.271219 0.745274
Si Si5 0.532422 0.455398 0.257769
Si Si6 0.623138 0.099270 0.620666
Si Si7 0.582355 0.676169 0.146261
Si Si8 0.733889 0.107488 0.380927
O O1 0.929458 0.638180 0.887301
O O2 0.964574 0.771577 0.831594
O O3 0.329575 0.715315 0.043540
O O4 0.000000 0.764938 0.000000
O O5 0.308351 0.498982 0.208239
O O6 0.148551 0.566808 0.270632
O O7 0.851851 0.507540 0.058326
O O8 0.494179 0.454351 0.153388
O O9 0.551219 0.585024 0.100454
O O10 0.500000 0.456124 0.000000
O O11 0.444360 0.362921 0.705280
O O12 0.724630 0.230944 0.820488
O O13 0.294256 0.204958 0.643728
O O14 0.750854 0.515220 0.354211
O O15 0.500000 0.134624 0.500000
O O16 0.819631 0.157925 0.732762
O O17 0.435430 0.086215 0.614884
O O18 0.000000 0.086057 0.500000
#
# Coordination Sequence:
#
# PCOD9120478 Si02
#       8
#     4   4   4   4   4   4   4   4
#     4  10  18  31  53  79 109 144 184 223 261 312
#     4  10  19  33  55  82 109 143 186 227 264 317
#     4  10  18  32  54  79 111 147 185 224 264 317
#     4  10  22  36  53  80 114 147 175 216 275 326
#     4  11  22  35  54  84 115 144 178 221 276 326
#     4  10  20  36  60  82 104 139 184 228 270 319
#     4   9  18  34  54  77 106 144 184 219 263 321
#     4  10  21  39  61  81 102 140 188 228 267 320
#
# _framework density 19.102339000000001
#
# number of rings (size 3 to 8) (size 9 to 14) (size 15 to 20)
#    0.000    2.000    0.000    7.500    0.000    4.000 
#    0.000    1.250    0.000    9.000    0.000    0.000 
#    0.000    0.000    0.000    0.000    0.000    0.000 
#
# Total GULP energy -89307.311611 kJ/mol
# GULP energy per Si atom -5581.706976 kJ/mol
# Density = 1.905886 g / cm^3
# Si number density = 19.102339 Si / 1000 Ang^3
#
#
#
# Elastic Constant Matrix: (Units=GPa)
#
#
# Indices 1 2 3 4 5 6 
#
# 1 63.9847 10.3604 0.3881 -0.0001 -11.1202 0.0000
# 2 10.3604 54.8691 -10.3335 -0.0002 0.7339 -0.0001
# 3 0.3881 -10.3335 78.5403 -0.0007 -8.4956 -0.0003
# 4 -0.0001 -0.0002 -0.0007 -11.0058 -0.0002 -2.1632
# 5 -11.1202 0.7339 -8.4956 -0.0002 34.8368 -0.0001
# 6 0.0000 -0.0001 -0.0003 -2.1632 -0.0001 12.3858
#
#
#
# Elastic Compliance Matrix: (Units=1/GPa)
#
#
# Indices 1 2 3 4 5 6 
#
# 1 0.017127 -0.003293 0.000083 0.000000 0.005557 0.000000
# 2 -0.003293 0.019323 0.002466 -0.000001 -0.000857 0.000000
# 3 0.000083 0.002466 0.013407 -0.000001 0.003244 0.000000
# 4 0.000000 -0.000001 -0.000001 -0.087846 -0.000001 -0.015342
# 5 0.005557 -0.000857 0.003244 -0.000001 0.031288 0.000000
# 6 0.000000 0.000000 0.000000 -0.015342 0.000000 0.078058
#
#
# Mechanical properties :
#
#
# Convention : Reuss Voigt Hill
#
# Bulk Modulus (GPa) = 20.67390 22.02491 21.34940
# Shear Modulus (GPa) = 56.19976 20.37530 38.28753
#
# Velocity S-wave (km/s) = 5.42994 3.26949 4.48184
# Velocity P-wave (km/s) = 7.08227 5.08013 6.16304
#
# Compressibility (1/GPa) = 0.04837018
#
# Stress axis : x y z
#
# Youngs Moduli (GPa) = 58.38699 51.75248 74.58644
#
# Poissons Ratio (x) = 0.17040 -0.00621
# Poissons Ratio (y) = 0.19224 -0.18392
# Poissons Ratio (z) = -0.00486 -0.12762
#
# Static dielectric constant tensor:
#      x y z
#    x 1.677280 0.000000 -0.019750 
#    y 0.000000 1.665250 0.000000 
#    z -0.019750 0.000000 1.655330 
# 
# From -- ./inp_files/59830.got.cif
#   From: 2010.05.17/outbox.cif.g08.bks.cpg/sg5_30_cif.got.tgz:59830.got - 2010.06.03 18:56:24.
