data_PCOD9120089
_publ_section_title
;
Structure prediction by ZEFSAII (Michael W. Deem and Ramdas Pophale) SiO2 
 PCOD9120089
Probable space group: C 2
;
_chemical_formula_sum "Si O2"
_cell_formula_units_Z 26
_cell_length_a 20.251852
_cell_length_b 7.992224
_cell_length_c 14.572618
_cell_angle_alpha 90.000000
_cell_angle_beta 25.810314
_cell_angle_gamma 90.000000
_cell_volume 1026.955385
_symmetry_space_group_name_H-M "C 2"
_symmetry_group_IT_number 5
_symmetry_cell_setting 'monoclinic'
loop_
_space_group_symop_operation_xyz
x,y,z
-x,y,-z
1/2+x,1/2+y,z
1/2-x,1/2+y,-z
loop_
_atom_site_type_symbol
_atom_site_label
_atom_site_fract_x
_atom_site_fract_y
_atom_site_fract_z
Si Si1 0.917262 0.155640 0.942483
Si Si2 0.596031 0.857368 0.222643
Si Si3 0.710129 0.321594 0.442798
Si Si4 0.711254 0.986055 0.323768
Si Si5 0.000000 0.411670 0.000000
Si Si6 0.108618 0.829941 0.756940
Si Si7 0.903440 0.704526 0.882763
O O1 0.928876 0.219030 0.825413
O O2 0.821824 0.454097 0.253817
O O3 0.756766 0.293274 0.908097
O O4 0.021641 0.999400 0.837689
O O5 0.448767 0.897140 0.466603
O O6 0.271208 0.138187 0.624764
O O7 0.621310 0.029138 0.135000
O O8 0.740628 0.317813 0.514580
O O9 0.523805 0.321594 0.674842
O O10 0.752034 0.085202 0.180182
O O11 0.830830 0.852969 0.217079
O O12 0.039781 0.299551 0.039630
O O13 0.992507 0.685755 0.868354
#
# Coordination Sequence:
#
# PCOD9120089 Si02
#       7
#     4   4   4   4   2   4   4
#     4  11  20  35  72  91 131 173 222 272 346 410
#     4  11  22  41  66  96 130 185 226 277 340 415
#     4   8  18  32  59  87 131 158 216 272 323 406
#     4  10  20  37  64 100 127 167 232 270 341 408
#     4  10  16  36  54 100 114 162 212 270 328 402
#     4  10  18  37  63  93 131 169 215 288 336 409
#     4   9  22  39  61  98 131 179 226 267 345 417
#
# _framework density 25.317554999999999
#
# number of rings (size 3 to 8) (size 9 to 14) (size 15 to 20)
#    0.923    1.231    3.077    1.846    0.000    0.000 
#    0.000   12.308   10.154    5.538    0.000    0.000 
#    0.000    0.000    0.000    0.000    0.000    0.000 
#
# Total GULP energy -72420.689349 kJ/mol
# GULP energy per Si atom -5570.822258 kJ/mol
# Density = 2.525993 g / cm^3
# Si number density = 25.317555 Si / 1000 Ang^3
#
#
#
# Elastic Constant Matrix: (Units=GPa)
#
#
# Indices 1 2 3 4 5 6 
#
# 1 69.5694 19.2027 13.2847 0.0000 -9.4399 0.0000
# 2 19.2027 84.8164 27.7756 0.0000 -5.4846 0.0000
# 3 13.2847 27.7756 152.4172 0.0000 -18.1965 0.0000
# 4 0.0000 0.0000 0.0000 36.9659 0.0000 2.1096
# 5 -9.4399 -5.4846 -18.1965 0.0000 54.1898 0.0000
# 6 0.0000 0.0000 0.0000 2.1096 0.0000 33.0358
#
#
#
# Elastic Compliance Matrix: (Units=1/GPa)
#
#
# Indices 1 2 3 4 5 6 
#
# 1 0.015667 -0.003236 -0.000510 0.000000 0.002231 0.000000
# 2 -0.003236 0.013221 -0.002120 0.000000 0.000063 0.000000
# 3 -0.000510 -0.002120 0.007246 0.000000 0.002130 0.000000
# 4 0.000000 0.000000 0.000000 0.027151 0.000000 -0.001734
# 5 0.002231 0.000063 0.002130 0.000000 0.019564 0.000000
# 6 0.000000 0.000000 0.000000 -0.001734 0.000000 0.030381
#
#
# Mechanical properties :
#
#
# Convention : Reuss Voigt Hill
#
# Bulk Modulus (GPa) = 40.97762 47.48098 44.22930
# Shear Modulus (GPa) = 37.56712 41.27430 39.42071
#
# Velocity S-wave (km/s) = 3.85624 4.04203 3.95023
# Velocity P-wave (km/s) = 6.00400 6.37016 6.18979
#
# Compressibility (1/GPa) = 0.02440356
#
# Stress axis : x y z
#
# Youngs Moduli (GPa) = 63.82715 75.63690 138.00862
#
# Poissons Ratio (x) = 0.24476 0.07032
# Poissons Ratio (y) = 0.20655 0.29255
# Poissons Ratio (z) = 0.03252 0.16034
#
# Static dielectric constant tensor:
#      x y z
#    x 2.032500 0.000000 -0.013260 
#    y 0.000000 2.014400 0.000000 
#    z -0.013260 0.000000 2.217060 
# 
# From -- ./inp_files/56983.got.cif
#   From: 2010.05.17/outbox.cif.g08.bks.cpg/sg5_29_cif.got.tgz:56983.got - 2010.06.03 18:56:24.
