data_PCOD9120268
_publ_section_title
;
Structure prediction by ZEFSAII (Michael W. Deem and Ramdas Pophale) SiO2 
 PCOD9120268
Probable space group: C 2
;
_chemical_formula_sum "Si O2"
_cell_formula_units_Z 24
_cell_length_a 8.011320
_cell_length_b 16.037110
_cell_length_c 14.133984
_cell_angle_alpha 90.000000
_cell_angle_beta 138.375728
_cell_angle_gamma 90.000000
_cell_volume 1206.206682
_symmetry_space_group_name_H-M "C 2"
_symmetry_group_IT_number 5
_symmetry_cell_setting 'monoclinic'
loop_
_space_group_symop_operation_xyz
x,y,z
-x,y,-z
1/2+x,1/2+y,z
1/2-x,1/2+y,-z
loop_
_atom_site_type_symbol
_atom_site_label
_atom_site_fract_x
_atom_site_fract_y
_atom_site_fract_z
Si Si1 0.362621 0.351370 0.845859
Si Si2 0.139920 0.014036 0.930251
Si Si3 0.604167 0.290453 0.754477
Si Si4 0.804626 0.472581 0.794652
Si Si5 0.000000 0.972993 0.500000
Si Si6 0.144614 0.346105 0.462284
Si Si7 0.500000 0.663059 0.000000
O O1 0.410250 0.451412 0.855500
O O2 0.506442 0.313582 0.817324
O O3 0.073396 0.326819 0.705796
O O4 0.500000 0.324845 0.000000
O O5 0.189354 0.014868 0.839241
O O6 0.115947 0.101815 0.970636
O O7 0.396900 0.974694 0.078758
O O8 0.734977 0.374553 0.770883
O O9 0.355946 0.278642 0.583823
O O10 0.801640 0.218465 0.857730
O O11 0.680948 0.516075 0.651741
O O12 0.809125 0.918807 0.484080
O O13 0.000000 0.369136 0.500000
#
# Coordination Sequence:
#
# PCOD9120268 Si02
#       7
#     4   4   4   4   2   4   2
#     4  10  17  33  61  93 111 154 216 256 293 360
#     4  10  20  34  60  90 123 155 202 256 308 376
#     4   9  20  37  59  86 120 164 202 257 300 367
#     4   9  19  39  62  89 117 158 220 249 296 364
#     4  10  18  32  66  90 118 154 202 274 300 336
#     4   9  19  34  58  90 122 151 205 259 300 352
#     4  12  22  36  60  88 134 164 196 252 330 370
#
# _framework density 19.897089999999999
#
# number of rings (size 3 to 8) (size 9 to 14) (size 15 to 20)
#    0.000    2.333    0.833    4.000    0.000    1.333 
#    3.000    0.000    5.500    6.000    0.000    0.000 
#    0.000    0.000    0.000    0.000    0.000    0.000 
#
# Total GULP energy -66848.596960 kJ/mol
# GULP energy per Si atom -5570.716413 kJ/mol
# Density = 1.985180 g / cm^3
# Si number density = 19.897090 Si / 1000 Ang^3
#
#
#
# Elastic Constant Matrix: (Units=GPa)
#
#
# Indices 1 2 3 4 5 6 
#
# 1 63.5488 18.8728 33.0493 0.0000 5.3968 0.0000
# 2 18.8728 51.4874 41.8006 -0.0002 12.5173 0.0000
# 3 33.0493 41.8006 203.8130 -0.0003 -0.1578 -0.0002
# 4 0.0000 -0.0002 -0.0003 -0.1553 -0.0001 -3.0240
# 5 5.3968 12.5173 -0.1578 -0.0001 31.1183 -0.0001
# 6 0.0000 0.0000 -0.0002 -3.0240 -0.0001 13.7824
#
#
#
# Elastic Compliance Matrix: (Units=1/GPa)
#
#
# Indices 1 2 3 4 5 6 
#
# 1 0.018298 -0.004789 -0.001986 0.000003 -0.001257 0.000001
# 2 -0.004789 0.027671 -0.004907 -0.000003 -0.010325 -0.000001
# 3 -0.001986 -0.004907 0.006237 -0.000002 0.002350 0.000000
# 4 0.000003 -0.000003 -0.000002 -1.221220 -0.000006 -0.267950
# 5 -0.001257 -0.010325 0.002350 -0.000006 0.036519 -0.000001
# 6 0.000001 -0.000001 0.000000 -0.267950 -0.000001 0.013765
#
#
# Mechanical properties :
#
#
# Convention : Reuss Voigt Hill
#
# Bulk Modulus (GPa) = 34.67128 56.25498 45.46313
# Shear Modulus (GPa) = -4.60510 23.95749 9.67619
#
# Velocity S-wave (km/s) = -1.52299 3.47374 2.20764
# Velocity P-wave (km/s) = 3.79084 6.66509 5.42190
#
# Compressibility (1/GPa) = 0.02884231
#
# Stress axis : x y z
#
# Youngs Moduli (GPa) = 54.65148 36.13843 160.34394
#
# Poissons Ratio (x) = 0.17308 0.31841
# Poissons Ratio (y) = 0.26174 0.78674
# Poissons Ratio (z) = 0.10853 0.17732
#
# Static dielectric constant tensor:
#      x y z
#    x 1.752260 0.000000 0.006890 
#    y 0.000000 1.686490 0.000000 
#    z 0.006890 0.000000 1.781390 
# 
# From -- ./inp_files/51036.got.cif
#   From: 2010.05.17/outbox.cif.g08.bks.cpg/sg5_26_cif.got.tgz:51036.got - 2010.06.03 18:56:24.
