data_PCOD9120404
_publ_section_title
;
Structure prediction by ZEFSAII (Michael W. Deem and Ramdas Pophale) SiO2 
 PCOD9120404
Probable space group: C 2
;
_chemical_formula_sum "Si O2"
_cell_formula_units_Z 30
_cell_length_a 14.796256
_cell_length_b 18.876463
_cell_length_c 6.818766
_cell_angle_alpha 90.000000
_cell_angle_beta 112.280325
_cell_angle_gamma 90.000000
_cell_volume 1762.298880
_symmetry_space_group_name_H-M "C 2"
_symmetry_group_IT_number 5
_symmetry_cell_setting 'monoclinic'
loop_
_space_group_symop_operation_xyz
x,y,z
-x,y,-z
1/2+x,1/2+y,z
1/2-x,1/2+y,-z
loop_
_atom_site_type_symbol
_atom_site_label
_atom_site_fract_x
_atom_site_fract_y
_atom_site_fract_z
Si Si1 0.669131 0.503080 0.377776
Si Si2 0.654691 0.661759 0.484991
Si Si3 0.428806 0.679091 0.162942
Si Si4 0.736280 0.395499 0.128513
Si Si5 0.612457 0.393056 0.645052
Si Si6 0.000000 0.052137 0.000000
Si Si7 0.108339 0.335572 0.041731
Si Si8 0.259908 0.300773 0.487124
O O1 0.687779 0.583713 0.451984
O O2 0.731566 0.466956 0.255550
O O3 0.669268 0.454027 0.569521
O O4 0.557791 0.506174 0.203688
O O5 0.637035 0.668966 0.701629
O O6 0.731675 0.719391 0.479609
O O7 0.544757 0.679394 0.313960
O O8 0.422691 0.606648 0.033684
O O9 0.402157 0.753529 0.040768
O O10 0.727804 0.334962 0.288441
O O11 0.647303 0.395408 0.898527
O O12 0.831472 0.378398 0.074310
O O13 0.500000 0.401871 0.500000
O O14 0.649115 0.320303 0.574711
O O15 0.169448 0.335239 0.293056
O O16 0.000000 0.361907 0.000000
#
# Coordination Sequence:
#
# PCOD9120404 Si02
#       8
#     4   4   4   4   4   2   4   4
#     4  10  21  33  51  76 113 142 177 215 269 333
#     4  10  19  31  52  82 112 144 174 216 272 330
#     4  10  18  28  51  84 117 140 169 215 277 327
#     4  10  22  36  51  77 115 147 178 220 267 321
#     4  10  22  37  54  77 107 142 186 226 266 316
#     4  10  18  30  50  80 108 144 176 214 278 326
#     4  11  18  32  55  81 118 142 175 216 265 329
#     4  10  20  35  52  82 108 142 184 215 269 320
#
# _framework density 17.023218
#
# number of rings (size 3 to 8) (size 9 to 14) (size 15 to 20)
#    0.000    1.867    3.333    1.600    5.600    2.133 
#    0.000    0.000    0.000    0.000   10.400    0.000 
#    0.000    0.000    0.000    0.000    0.000    0.000 
#
# Total GULP energy -83564.453275 kJ/mol
# GULP energy per Si atom -5570.963552 kJ/mol
# Density = 1.698447 g / cm^3
# Si number density = 17.023218 Si / 1000 Ang^3
#
#
#
# Elastic Constant Matrix: (Units=GPa)
#
#
# Indices 1 2 3 4 5 6 
#
# 1 65.1544 40.4662 30.3842 0.0000 -11.0030 0.0000
# 2 40.4662 108.0289 34.3169 0.0000 -9.0621 0.0000
# 3 30.3842 34.3169 106.1621 0.0000 -12.3123 0.0000
# 4 0.0000 0.0000 0.0000 29.0910 0.0000 -3.9559
# 5 -11.0030 -9.0621 -12.3123 0.0000 20.6850 0.0000
# 6 0.0000 0.0000 0.0000 -3.9559 0.0000 28.1950
#
#
#
# Elastic Compliance Matrix: (Units=1/GPa)
#
#
# Indices 1 2 3 4 5 6 
#
# 1 0.022245 -0.006672 -0.003412 0.000000 0.006879 0.000000
# 2 -0.006672 0.012462 -0.002038 0.000000 0.000698 0.000000
# 3 -0.003412 -0.002038 0.011537 0.000000 0.004159 0.000000
# 4 0.000000 0.000000 0.000000 0.035043 0.000000 0.004917
# 5 0.006879 0.000698 0.004159 0.000000 0.054785 0.000000
# 6 0.000000 0.000000 0.000000 0.004917 0.000000 0.036157
#
#
# Mechanical properties :
#
#
# Convention : Reuss Voigt Hill
#
# Bulk Modulus (GPa) = 45.45382 54.40892 49.93137
# Shear Modulus (GPa) = 24.53316 27.20608 25.86962
#
# Velocity S-wave (km/s) = 3.80038 4.00205 3.90252
# Velocity P-wave (km/s) = 6.78352 7.30659 7.04991
#
# Compressibility (1/GPa) = 0.02200035
#
# Stress axis : x y z
#
# Youngs Moduli (GPa) = 44.95455 80.24539 86.67539
#
# Poissons Ratio (x) = 0.53537 0.29575
# Poissons Ratio (y) = 0.29992 0.17664
# Poissons Ratio (z) = 0.15339 0.16353
#
# Static dielectric constant tensor:
#      x y z
#    x 1.586780 0.000000 -0.016350 
#    y 0.000000 1.582020 0.000000 
#    z -0.016350 0.000000 1.630230 
# 
# From -- ./inp_files/7551.got.cif
#   From: 2010.05.17/outbox.cif.g08.bks.cpg/sg5_4_cif.got.tgz:7551.got - 2010.06.03 18:56:24.
