data_PCOD9120203
_publ_section_title
;
Structure prediction by ZEFSAII (Michael W. Deem and Ramdas Pophale) SiO2 
 PCOD9120203
Probable space group: C 2
;
_chemical_formula_sum "Si O2"
_cell_formula_units_Z 26
_cell_length_a 13.210034
_cell_length_b 18.441108
_cell_length_c 9.423591
_cell_angle_alpha 90.000000
_cell_angle_beta 148.690988
_cell_angle_gamma 90.000000
_cell_volume 1192.947233
_symmetry_space_group_name_H-M "C 2"
_symmetry_group_IT_number 5
_symmetry_cell_setting 'monoclinic'
loop_
_space_group_symop_operation_xyz
x,y,z
-x,y,-z
1/2+x,1/2+y,z
1/2-x,1/2+y,-z
loop_
_atom_site_type_symbol
_atom_site_label
_atom_site_fract_x
_atom_site_fract_y
_atom_site_fract_z
Si Si1 0.836677 0.193390 0.689043
Si Si2 0.310153 0.974501 0.417735
Si Si3 0.933205 0.347581 0.707795
Si Si4 0.806951 0.553615 0.116572
Si Si5 0.371063 0.550143 0.557997
Si Si6 0.222206 0.917762 0.722428
Si Si7 0.000000 0.684783 0.500000
O O1 0.922100 0.261748 0.705669
O O2 0.799533 0.127531 0.534457
O O3 0.651242 0.217151 0.565336
O O4 0.000000 0.169200 0.000000
O O5 0.352021 0.889391 0.474192
O O6 0.284697 0.006156 0.232937
O O7 0.498062 0.016917 0.711876
O O8 0.139218 0.998009 0.316373
O O9 0.796199 0.375353 0.672381
O O10 0.142875 0.382438 0.994862
O O11 0.866657 0.632788 0.242478
O O12 0.599394 0.556731 0.793145
O O13 0.260781 0.502367 0.306837
O O14 0.000000 0.906176 0.500000
#
# Coordination Sequence:
#
# PCOD9120203 Si02
#       7
#     4   4   4   4   4   4   2
#     4  12  20  35  54  83 117 136 184 234 286 321
#     4   9  18  33  52  80 109 138 183 226 274 321
#     4  10  22  36  53  81 111 151 179 229 278 331
#     4  10  17  31  56  85 104 133 185 233 273 316
#     4  11  19  32  57  84 106 144 182 230 270 328
#     4  10  21  37  54  80 112 152 187 220 272 336
#     4  10  20  30  52  84 116 134 170 238 288 318
#
# _framework density 21.79476
#
# number of rings (size 3 to 8) (size 9 to 14) (size 15 to 20)
#    0.000    1.846    6.154    1.385    1.077    0.000 
#    0.000    0.000    3.385    0.000   32.000    0.000 
#    0.000    0.000    0.000    0.000    0.000    0.000 
#
# Total GULP energy -72392.368425 kJ/mol
# GULP energy per Si atom -5568.643725 kJ/mol
# Density = 2.174515 g / cm^3
# Si number density = 21.794760 Si / 1000 Ang^3
#
#
#
# Elastic Constant Matrix: (Units=GPa)
#
#
# Indices 1 2 3 4 5 6 
#
# 1 54.7411 4.4912 24.4943 0.0000 23.7619 0.0000
# 2 4.4912 127.9230 36.6818 0.0000 -2.2953 0.0000
# 3 24.4943 36.6818 66.4026 0.0000 27.8959 0.0000
# 4 0.0000 0.0000 0.0000 12.9456 0.0000 -2.6082
# 5 23.7619 -2.2953 27.8959 0.0000 33.5493 0.0000
# 6 0.0000 0.0000 0.0000 -2.6082 0.0000 30.4521
#
#
#
# Elastic Compliance Matrix: (Units=1/GPa)
#
#
# Indices 1 2 3 4 5 6 
#
# 1 0.026771 -0.000541 -0.002451 0.000000 -0.016960 0.000000
# 2 -0.000541 0.010729 -0.009523 0.000000 0.009036 0.000000
# 3 -0.002451 -0.009523 0.031918 0.000000 -0.025455 0.000000
# 4 0.000000 0.000000 0.000000 0.078602 0.000000 0.006732
# 5 -0.016960 0.009036 -0.025455 0.000000 0.063603 0.000000
# 6 0.000000 0.000000 0.000000 0.006732 0.000000 0.033415
#
#
# Mechanical properties :
#
#
# Convention : Reuss Voigt Hill
#
# Bulk Modulus (GPa) = 22.52922 42.26680 32.39801
# Shear Modulus (GPa) = 17.55212 27.61604 22.58408
#
# Velocity S-wave (km/s) = 2.84092 3.56349 3.22252
# Velocity P-wave (km/s) = 4.59571 6.03046 5.36130
#
# Compressibility (1/GPa) = 0.04438679
#
# Stress axis : x y z
#
# Youngs Moduli (GPa) = 37.35402 93.20431 31.32988
#
# Poissons Ratio (x) = 0.05045 0.07680
# Poissons Ratio (y) = 0.02022 0.29836
# Poissons Ratio (z) = 0.09156 0.88761
#
# Static dielectric constant tensor:
#      x y z
#    x 1.813040 0.000000 0.017550 
#    y 0.000000 1.820610 0.000000 
#    z 0.017550 0.000000 1.875050 
# 
# From -- ./inp_files/43428.got.cif
#   From: 2010.05.17/outbox.cif.g08.bks.cpg/sg5_22_cif.got.tgz:43428.got - 2010.06.03 18:56:24.
