data_PCOD9120011
_publ_section_title
;
Structure prediction by ZEFSAII (Michael W. Deem and Ramdas Pophale) SiO2 
 PCOD9120011
Probable space group: C 2
;
_chemical_formula_sum "Si O2"
_cell_formula_units_Z 28
_cell_length_a 20.773452
_cell_length_b 6.828875
_cell_length_c 13.627510
_cell_angle_alpha 90.000000
_cell_angle_beta 149.390424
_cell_angle_gamma 90.000000
_cell_volume 984.351420
_symmetry_space_group_name_H-M "C 2"
_symmetry_group_IT_number 5
_symmetry_cell_setting 'monoclinic'
loop_
_space_group_symop_operation_xyz
x,y,z
-x,y,-z
1/2+x,1/2+y,z
1/2-x,1/2+y,-z
loop_
_atom_site_type_symbol
_atom_site_label
_atom_site_fract_x
_atom_site_fract_y
_atom_site_fract_z
Si Si1 0.707750 0.892240 0.703530
Si Si2 0.727708 0.562672 0.882378
Si Si3 0.934699 0.053511 0.134372
Si Si4 0.676387 0.917605 0.263545
Si Si5 0.623380 0.298091 0.608482
Si Si6 0.382141 0.453559 0.776192
Si Si7 0.978609 0.491972 0.141651
O O1 0.673744 0.720025 0.733349
O O2 0.761665 0.843933 0.666197
O O3 0.609944 0.069821 0.566739
O O4 0.827489 0.994962 0.914230
O O5 0.641263 0.543257 0.863498
O O6 0.721205 0.349101 0.824059
O O7 0.879928 0.606558 0.084097
O O8 0.982523 0.276085 0.191591
O O9 0.056450 0.934310 0.250743
O O10 0.818710 0.909552 0.408263
O O11 0.645949 0.686241 0.243177
O O12 0.620782 0.028255 0.286304
O O13 0.597720 0.983229 0.062959
O O14 0.500000 0.372279 0.500000
O O15 0.500000 0.397821 0.000000
#
# Coordination Sequence:
#
# PCOD9120011 Si02
#       7
#     4   4   4   4   4   4   4
#     4  10  19  33  53  82 108 147 185 220 278 340
#     4  11  21  30  53  88 112 139 177 237 290 333
#     4  10  16  31  51  80 121 141 163 223 301 338
#     4   8  12  28  52  71  93 139 176 211 259 322
#     4  10  21  38  54  75 108 154 191 224 264 327
#     4   8  12  27  48  72 106 146 166 207 270 337
#     4   9  14  29  49  74 111 134 163 214 286 333
#
# _framework density 28.445125999999998
#
# number of rings (size 3 to 8) (size 9 to 14) (size 15 to 20)
#    0.000    2.571    7.143    0.857    0.000    0.571 
#   15.429    0.000    0.000    0.000   55.714    0.000 
#    0.000    0.000    0.000    0.000    0.000    0.000 
#
# Total GULP energy -78075.112326 kJ/mol
# GULP energy per Si atom -5576.793738 kJ/mol
# Density = 2.838038 g / cm^3
# Si number density = 28.445126 Si / 1000 Ang^3
#
#
#
# Elastic Constant Matrix: (Units=GPa)
#
#
# Indices 1 2 3 4 5 6 
#
# 1 303.6837 63.0077 80.4502 0.0000 86.3986 0.0000
# 2 63.0077 109.2425 16.8964 0.0000 26.1572 0.0000
# 3 80.4502 16.8964 61.2178 0.0000 29.7340 0.0000
# 4 0.0000 0.0000 0.0000 7.3746 0.0000 18.6192
# 5 86.3986 26.1572 29.7340 0.0000 76.3669 0.0000
# 6 0.0000 0.0000 0.0000 18.6192 0.0000 52.8256
#
#
#
# Elastic Compliance Matrix: (Units=1/GPa)
#
#
# Indices 1 2 3 4 5 6 
#
# 1 0.006476 -0.001765 -0.005868 0.000000 -0.004437 0.000000
# 2 -0.001765 0.010544 0.000239 0.000000 -0.001708 0.000000
# 3 -0.005868 0.000239 0.025646 0.000000 -0.003428 0.000000
# 4 0.000000 0.000000 0.000000 1.231572 0.000000 -0.434086
# 5 -0.004437 -0.001708 -0.003428 0.000000 0.020035 0.000000
# 6 0.000000 0.000000 0.000000 -0.434086 0.000000 0.171930
#
#
# Mechanical properties :
#
#
# Convention : Reuss Voigt Hill
#
# Bulk Modulus (GPa) = 35.87165 88.31698 62.09432
# Shear Modulus (GPa) = 3.35506 48.23272 25.79389
#
# Velocity S-wave (km/s) = 1.08722 4.12228 3.01457
# Velocity P-wave (km/s) = 3.77018 7.33302 5.83042
#
# Compressibility (1/GPa) = 0.02787717
#
# Stress axis : x y z
#
# Youngs Moduli (GPa) = 154.41215 94.84142 38.99221
#
# Poissons Ratio (x) = 0.16741 0.22882
# Poissons Ratio (y) = 0.27255 -0.00931
# Poissons Ratio (z) = 0.90613 -0.02265
#
# Static dielectric constant tensor:
#      x y z
#    x 2.228860 0.000000 -0.008760 
#    y 0.000000 2.275140 0.000000 
#    z -0.008760 0.000000 2.439390 
# 
# From -- ./inp_files/62740.got.cif
#   From: 2010.05.17/outbox.cif.g08.bks.cpg/sg5_32_cif.got.tgz:62740.got - 2010.06.03 18:56:24.
