data_PCOD9120722
_publ_section_title
;
Structure prediction by ZEFSAII (Michael W. Deem and Ramdas Pophale) SiO2 
 PCOD9120722
Probable space group: C 2
;
_chemical_formula_sum "Si O2"
_cell_formula_units_Z 28
_cell_length_a 16.955671
_cell_length_b 9.332932
_cell_length_c 9.231687
_cell_angle_alpha 90.000000
_cell_angle_beta 105.401393
_cell_angle_gamma 90.000000
_cell_volume 1408.416999
_symmetry_space_group_name_H-M "C 2"
_symmetry_group_IT_number 5
_symmetry_cell_setting 'monoclinic'
loop_
_space_group_symop_operation_xyz
x,y,z
-x,y,-z
1/2+x,1/2+y,z
1/2-x,1/2+y,-z
loop_
_atom_site_type_symbol
_atom_site_label
_atom_site_fract_x
_atom_site_fract_y
_atom_site_fract_z
Si Si1 0.341491 0.010920 0.451789
Si Si2 0.708050 0.306388 0.503675
Si Si3 0.429541 0.292454 0.082869
Si Si4 0.141533 0.001281 0.712383
Si Si5 0.058621 0.306349 0.667502
Si Si6 0.315268 0.149222 0.816807
Si Si7 0.033541 0.527314 0.240707
O O1 0.290373 0.156506 0.407021
O O2 0.290382 0.898211 0.523775
O O3 0.369786 0.922461 0.327089
O O4 0.422211 0.053443 0.582386
O O5 0.648617 0.413096 0.563917
O O6 0.689185 0.248111 0.331628
O O7 0.403213 0.403885 0.191626
O O8 0.469916 0.152743 0.176747
O O9 0.500000 0.339265 0.000000
O O10 0.345919 0.249849 0.960079
O O11 0.092680 0.148861 0.686120
O O12 0.233567 0.056836 0.793493
O O13 0.000000 0.309704 0.500000
O O14 0.007445 0.372322 0.773765
O O15 0.392373 0.043531 0.833941
#
# Coordination Sequence:
#
# PCOD9120722 Si02
#       7
#     4   4   4   4   4   4   4
#     4  10  18  34  60  94 126 163 205 265 319 378
#     4  11  19  37  66  94 127 157 216 272 322 375
#     4  10  24  45  64  90 131 179 217 262 327 398
#     4  12  23  41  67  97 127 169 222 269 327 381
#     4  10  21  35  60  96 131 161 212 272 325 382
#     4  10  22  42  66  91 131 169 218 267 323 393
#     4   9  19  40  63  82 125 174 210 252 322 391
#
# _framework density 19.880475000000001
#
# number of rings (size 3 to 8) (size 9 to 14) (size 15 to 20)
#    0.000    1.714    4.286    0.857    0.000    5.714 
#    2.571    3.571    0.000    0.000    0.000    0.000 
#    0.000    0.000    0.000    0.000    0.000    0.000 
#
# Total GULP energy -77961.442852 kJ/mol
# GULP energy per Si atom -5568.674489 kJ/mol
# Density = 1.983523 g / cm^3
# Si number density = 19.880475 Si / 1000 Ang^3
#
#
#
# Elastic Constant Matrix: (Units=GPa)
#
#
# Indices 1 2 3 4 5 6 
#
# 1 90.9376 70.7730 33.6565 0.0000 -10.6029 0.0000
# 2 70.7730 129.4286 36.9448 0.0000 -5.3499 0.0000
# 3 33.6565 36.9448 50.3700 0.0000 -8.3118 0.0000
# 4 0.0000 0.0000 0.0000 17.9966 0.0000 -5.8749
# 5 -10.6029 -5.3499 -8.3118 0.0000 21.6221 0.0000
# 6 0.0000 0.0000 0.0000 -5.8749 0.0000 34.4343
#
#
#
# Elastic Compliance Matrix: (Units=1/GPa)
#
#
# Indices 1 2 3 4 5 6 
#
# 1 0.021617 -0.009778 -0.006324 0.000000 0.005750 0.000000
# 2 -0.009778 0.014197 -0.004369 0.000000 -0.002961 0.000000
# 3 -0.006324 -0.004369 0.028394 0.000000 0.006733 0.000000
# 4 0.000000 0.000000 0.000000 0.058843 0.000000 0.010039
# 5 0.005750 -0.002961 0.006733 0.000000 0.050924 0.000000
# 6 0.000000 0.000000 0.000000 0.010039 0.000000 0.030754
#
#
# Mechanical properties :
#
#
# Convention : Reuss Voigt Hill
#
# Bulk Modulus (GPa) = 42.97720 61.49831 52.23776
# Shear Modulus (GPa) = 19.72964 23.43472 21.58218
#
# Velocity S-wave (km/s) = 3.15368 3.43706 3.29841
# Velocity P-wave (km/s) = 5.90979 6.83757 6.39054
#
# Compressibility (1/GPa) = 0.02326815
#
# Stress axis : x y z
#
# Youngs Moduli (GPa) = 46.25990 70.43534 35.21884
#
# Poissons Ratio (x) = 0.68869 0.22271
# Poissons Ratio (y) = 0.45231 0.15386
# Poissons Ratio (z) = 0.29253 0.30771
#
# Static dielectric constant tensor:
#      x y z
#    x 1.753620 0.000000 -0.013290 
#    y 0.000000 1.713960 0.000000 
#    z -0.013290 0.000000 1.757700 
# 
# From -- ./inp_files/26759.got.cif
#   From: 2010.05.17/outbox.cif.g08.bks.cpg/sg5_14_cif.got.tgz:26759.got - 2010.06.03 18:56:24.
