data_PCOD9120627
_publ_section_title
;
Structure prediction by ZEFSAII (Michael W. Deem and Ramdas Pophale) SiO2 
 PCOD9120627
Probable space group: C 2
;
_chemical_formula_sum "Si O2"
_cell_formula_units_Z 32
_cell_length_a 16.408080
_cell_length_b 21.790593
_cell_length_c 8.208533
_cell_angle_alpha 90.000000
_cell_angle_beta 146.027897
_cell_angle_gamma 90.000000
_cell_volume 1639.986803
_symmetry_space_group_name_H-M "C 2"
_symmetry_group_IT_number 5
_symmetry_cell_setting 'monoclinic'
loop_
_space_group_symop_operation_xyz
x,y,z
-x,y,-z
1/2+x,1/2+y,z
1/2-x,1/2+y,-z
loop_
_atom_site_type_symbol
_atom_site_label
_atom_site_fract_x
_atom_site_fract_y
_atom_site_fract_z
Si Si1 0.910704 0.317650 0.505090
Si Si2 0.346518 0.209902 0.403517
Si Si3 0.153834 0.510815 0.848635
Si Si4 0.177672 0.906693 0.973103
Si Si5 0.838264 0.651166 0.063563
Si Si6 0.104579 0.407025 0.036595
Si Si7 0.680214 0.224917 0.284170
Si Si8 0.112764 0.854027 0.502727
O O1 0.026784 0.349920 0.816332
O O2 0.788317 0.277659 0.395409
O O3 0.000000 0.288085 0.500000
O O4 0.818833 0.372667 0.272351
O O5 0.275924 0.190872 0.113790
O O6 0.488560 0.166636 0.647520
O O7 0.270684 0.204978 0.453335
O O8 0.395152 0.281323 0.484166
O O9 0.189644 0.579904 0.956014
O O10 0.000000 0.511365 0.500000
O O11 0.135041 0.463492 0.966721
O O12 0.284053 0.478180 0.963697
O O13 0.147168 0.882219 0.738665
O O14 0.031097 0.882745 0.813326
O O15 0.796743 0.673729 0.815701
O O16 0.754128 0.377396 0.643493
O O17 0.000000 0.431903 0.000000
O O18 0.500000 0.238136 0.000000
#
# Coordination Sequence:
#
# PCOD9120627 Si02
#       8
#     4   4   4   4   4   4   4   4
#     4  12  20  37  60  89 129 156 194 254 314 370
#     4  10  18  34  56  87 118 148 200 250 295 359
#     4  11  19  38  56  85 114 156 207 250 297 354
#     4  10  18  33  60  82 116 153 201 242 296 363
#     4  10  20  34  60  84 115 157 207 251 294 352
#     4  11  23  36  57  90 127 159 196 250 316 366
#     4  10  22  36  57  91 121 155 204 249 301 365
#     4  10  19  34  58  90 115 153 196 244 305 368
#
# _framework density 19.512352
#
# number of rings (size 3 to 8) (size 9 to 14) (size 15 to 20)
#    0.000    1.500    5.000    4.500    0.000    1.500 
#    0.000    0.000    5.500    0.000    0.000    1.750 
#    0.000    0.000    0.000    0.000    0.000    0.000 
#
# Total GULP energy -89077.793030 kJ/mol
# GULP energy per Si atom -5567.362064 kJ/mol
# Density = 1.946794 g / cm^3
# Si number density = 19.512352 Si / 1000 Ang^3
#
#
#
# Elastic Constant Matrix: (Units=GPa)
#
#
# Indices 1 2 3 4 5 6 
#
# 1 112.7817 49.1498 25.1729 0.0000 -9.3078 0.0000
# 2 49.1498 145.1256 29.5987 0.0000 8.7026 0.0000
# 3 25.1729 29.5987 52.3702 0.0000 14.0348 0.0000
# 4 0.0000 0.0000 0.0000 17.9206 0.0000 0.4996
# 5 -9.3078 8.7026 14.0348 0.0000 27.8696 0.0000
# 6 0.0000 0.0000 0.0000 0.4996 0.0000 20.3942
#
#
#
# Elastic Compliance Matrix: (Units=1/GPa)
#
#
# Indices 1 2 3 4 5 6 
#
# 1 0.012467 -0.003441 -0.006302 0.000000 0.008412 0.000000
# 2 -0.003441 0.008740 -0.002596 0.000000 -0.002571 0.000000
# 3 -0.006302 -0.002596 0.027673 0.000000 -0.015230 0.000000
# 4 0.000000 0.000000 0.000000 0.055840 0.000000 -0.001368
# 5 0.008412 -0.002571 -0.015230 0.000000 0.047163 0.000000
# 6 0.000000 0.000000 0.000000 -0.001368 0.000000 0.049067
#
#
# Mechanical properties :
#
#
# Convention : Reuss Voigt Hill
#
# Bulk Modulus (GPa) = 41.32169 57.56890 49.44529
# Shear Modulus (GPa) = 21.39527 26.99395 24.19461
#
# Velocity S-wave (km/s) = 3.31493 3.72348 3.52513
# Velocity P-wave (km/s) = 5.98956 6.93207 6.47798
#
# Compressibility (1/GPa) = 0.02420037
#
# Stress axis : x y z
#
# Youngs Moduli (GPa) = 80.20983 114.41902 36.13640
#
# Poissons Ratio (x) = 0.39377 0.22773
# Poissons Ratio (y) = 0.27604 0.09382
# Poissons Ratio (z) = 0.50548 0.29708
#
# Static dielectric constant tensor:
#      x y z
#    x 1.879980 0.000000 0.050350 
#    y 0.000000 1.656720 0.000000 
#    z 0.050350 0.000000 1.743160 
# 
# From -- ./inp_files/25434.got.cif
#   From: 2010.05.17/outbox.cif.g08.bks.cpg/sg5_13_cif.got.tgz:25434.got - 2010.06.03 18:56:24.
