data_PCOD9120725
_publ_section_title
;
Structure prediction by ZEFSAII (Michael W. Deem and Ramdas Pophale) SiO2 
 PCOD9120725
Probable space group: C 2
;
_chemical_formula_sum "Si O2"
_cell_formula_units_Z 28
_cell_length_a 8.814653
_cell_length_b 12.271753
_cell_length_c 20.651040
_cell_angle_alpha 90.000000
_cell_angle_beta 36.396541
_cell_angle_gamma 90.000000
_cell_volume 1325.499455
_symmetry_space_group_name_H-M "C 2"
_symmetry_group_IT_number 5
_symmetry_cell_setting 'monoclinic'
loop_
_space_group_symop_operation_xyz
x,y,z
-x,y,-z
1/2+x,1/2+y,z
1/2-x,1/2+y,-z
loop_
_atom_site_type_symbol
_atom_site_label
_atom_site_fract_x
_atom_site_fract_y
_atom_site_fract_z
Si Si1 0.932347 0.826580 0.090986
Si Si2 0.606224 0.611042 0.169288
Si Si3 0.622548 0.859798 0.311406
Si Si4 0.614559 0.382103 0.232449
Si Si5 0.229863 0.172442 0.605218
Si Si6 0.265872 0.936762 0.535396
Si Si7 0.945176 0.208799 0.946668
O O1 0.785996 0.714026 0.123083
O O2 0.744830 0.894512 0.201224
O O3 0.190840 0.784718 0.036004
O O4 0.000000 0.881810 0.000000
O O5 0.698558 0.499508 0.172419
O O6 0.337861 0.637246 0.298170
O O7 0.584600 0.617349 0.099088
O O8 0.864626 0.856249 0.275342
O O9 0.504592 0.741670 0.339897
O O10 0.383559 0.923124 0.424093
O O11 0.499847 0.390289 0.345083
O O12 0.828901 0.291108 0.152509
O O13 0.500000 0.230258 0.500000
O O14 0.246945 0.063257 0.558113
O O15 0.500000 0.892267 0.500000
O O16 0.000000 0.167894 0.000000
#
# Coordination Sequence:
#
# PCOD9120725 Si02
#       7
#     4   4   4   4   4   4   4
#     4   9  19  38  58  88 125 167 203 254 315 359
#     4   9  21  39  63  86 123 163 210 259 315 371
#     4  10  18  34  61  86 121 153 205 257 301 374
#     4  10  20  37  62  90 113 164 205 261 316 373
#     4   9  18  34  60  85 117 161 196 254 316 372
#     4   8  17  33  55  88 108 147 209 243 303 375
#     4  11  21  36  63  90 121 161 216 251 310 377
#
# _framework density 21.124110999999999
#
# number of rings (size 3 to 8) (size 9 to 14) (size 15 to 20)
#    0.000    2.571    1.429    0.857    2.000    1.714 
#    0.000    0.714    9.429    0.000    0.000    0.000 
#    0.000    0.000    0.000    0.000    0.000    0.000 
#
# Total GULP energy -77961.030692 kJ/mol
# GULP energy per Si atom -5568.645049 kJ/mol
# Density = 2.107603 g / cm^3
# Si number density = 21.124111 Si / 1000 Ang^3
#
#
#
# Elastic Constant Matrix: (Units=GPa)
#
#
# Indices 1 2 3 4 5 6 
#
# 1 36.8151 -2.3107 27.8700 0.0003 13.3201 0.0000
# 2 -2.3107 28.1868 35.2902 0.0001 4.9858 0.0001
# 3 27.8700 35.2902 177.8534 -0.0005 33.8803 0.0001
# 4 0.0003 0.0001 -0.0005 31.0990 0.0001 -1.3879
# 5 13.3201 4.9858 33.8803 0.0001 32.4179 0.0001
# 6 0.0000 0.0001 0.0001 -1.3879 0.0001 17.1598
#
#
#
# Elastic Compliance Matrix: (Units=1/GPa)
#
#
# Indices 1 2 3 4 5 6 
#
# 1 0.036439 0.012634 -0.006236 0.000000 -0.010398 0.000000
# 2 0.012634 0.051845 -0.012185 -0.000001 -0.000430 0.000000
# 3 -0.006236 -0.012185 0.010204 0.000000 -0.006228 0.000000
# 4 0.000000 -0.000001 0.000000 0.032272 0.000000 0.002610
# 5 -0.010398 -0.000430 -0.006228 0.000000 0.041695 0.000000
# 6 0.000000 0.000000 0.000000 0.002610 0.000000 0.058487
#
#
# Mechanical properties :
#
#
# Convention : Reuss Voigt Hill
#
# Bulk Modulus (GPa) = 11.50566 40.50603 26.00584
# Shear Modulus (GPa) = 18.41709 28.26906 23.34307
#
# Velocity S-wave (km/s) = 2.95592 3.66216 3.32783
# Velocity P-wave (km/s) = 4.13624 6.09088 5.20611
#
# Compressibility (1/GPa) = 0.08691375
#
# Stress axis : x y z
#
# Youngs Moduli (GPa) = 27.44334 19.28813 98.00035
#
# Poissons Ratio (x) = -0.24369 0.61115
# Poissons Ratio (y) = -0.34672 1.19415
# Poissons Ratio (z) = 0.17114 0.23503
#
# Static dielectric constant tensor:
#      x y z
#    x 1.805730 0.000000 0.037490 
#    y 0.000000 1.752780 0.000000 
#    z 0.037490 0.000000 1.873970 
# 
# From -- ./inp_files/68343.got.cif
#   From: 2010.05.17/outbox.cif.g08.bks.cpg/sg5_35_cif.got.tgz:68343.got - 2010.06.03 18:56:24.
