data_PCOD9120652
_publ_section_title
;
Structure prediction by ZEFSAII (Michael W. Deem and Ramdas Pophale) SiO2 
 PCOD9120652
Probable space group: C 2
;
_chemical_formula_sum "Si O2"
_cell_formula_units_Z 28
_cell_length_a 24.437258
_cell_length_b 8.291800
_cell_length_c 16.472051
_cell_angle_alpha 90.000000
_cell_angle_beta 26.378677
_cell_angle_gamma 90.000000
_cell_volume 1482.951838
_symmetry_space_group_name_H-M "C 2"
_symmetry_group_IT_number 5
_symmetry_cell_setting 'monoclinic'
loop_
_space_group_symop_operation_xyz
x,y,z
-x,y,-z
1/2+x,1/2+y,z
1/2-x,1/2+y,-z
loop_
_atom_site_type_symbol
_atom_site_label
_atom_site_fract_x
_atom_site_fract_y
_atom_site_fract_z
Si Si1 0.895836 0.329730 0.578733
Si Si2 0.991598 0.867081 0.255781
Si Si3 0.449649 0.855633 0.878694
Si Si4 0.068384 0.567028 0.249135
Si Si5 0.281528 0.564802 0.085406
Si Si6 0.168879 0.160462 0.499742
Si Si7 0.544486 0.160834 0.850166
O O1 0.788383 0.429401 0.767515
O O2 0.843763 0.213496 0.577849
O O3 0.000000 0.252044 0.500000
O O4 0.976972 0.463394 0.425091
O O5 0.996635 0.798229 0.158047
O O6 0.995936 0.715273 0.308014
O O7 0.876887 0.979319 0.426032
O O8 0.112634 0.974680 0.105749
O O9 0.573574 0.771055 0.678275
O O10 0.392152 0.954381 0.878962
O O11 0.490345 0.989695 0.889970
O O12 0.353569 0.714673 0.031501
O O13 0.180071 0.624318 0.156414
O O14 0.307829 0.168918 0.345212
O O15 0.500000 0.190451 0.000000
#
# Coordination Sequence:
#
# PCOD9120652 Si02
#       7
#     4   4   4   4   4   4   4
#     4   9  19  35  56  82 111 140 174 219 270 319
#     4  10  21  35  56  81 104 142 183 218 267 323
#     4   9  20  35  54  78 106 144 183 217 266 325
#     4   9  18  34  55  79 110 142 176 217 266 322
#     4  10  18  34  55  81 110 140 177 222 266 313
#     4  10  20  38  57  77 107 145 180 220 269 322
#     4  11  22  37  54  78 108 139 182 231 269 312
#
# _framework density 18.881259
#
# number of rings (size 3 to 8) (size 9 to 14) (size 15 to 20)
#    0.000    2.286    0.000    2.571    0.000    2.286 
#    0.000   10.714    0.000    0.000    0.000    0.000 
#    0.000    0.000    0.000    0.000    0.000    0.000 
#
# Total GULP energy -78047.692679 kJ/mol
# GULP energy per Si atom -5574.835191 kJ/mol
# Density = 1.883828 g / cm^3
# Si number density = 18.881259 Si / 1000 Ang^3
#
#
#
# Elastic Constant Matrix: (Units=GPa)
#
#
# Indices 1 2 3 4 5 6 
#
# 1 67.1028 11.0768 17.2076 0.0000 -2.6907 0.0000
# 2 11.0768 58.9738 -0.0847 0.0001 -3.1619 -0.0001
# 3 17.2076 -0.0847 50.0091 0.0001 -13.4139 0.0000
# 4 0.0000 0.0001 0.0001 22.6694 0.0000 -3.5325
# 5 -2.6907 -3.1619 -13.4139 0.0000 24.3870 0.0000
# 6 0.0000 -0.0001 0.0000 -3.5325 0.0000 14.5691
#
#
#
# Elastic Compliance Matrix: (Units=1/GPa)
#
#
# Indices 1 2 3 4 5 6 
#
# 1 0.017012 -0.003316 -0.006418 0.000000 -0.002083 0.000000
# 2 -0.003316 0.017745 0.001983 0.000000 0.003025 0.000000
# 3 -0.006418 0.001983 0.025910 0.000000 0.013800 0.000000
# 4 0.000000 0.000000 0.000000 0.045844 0.000000 0.011116
# 5 -0.002083 0.003025 0.013800 0.000000 0.048759 0.000000
# 6 0.000000 0.000000 0.000000 0.011116 0.000000 0.071333
#
#
# Mechanical properties :
#
#
# Convention : Reuss Voigt Hill
#
# Bulk Modulus (GPa) = 22.14195 25.83169 23.98682
# Shear Modulus (GPa) = 19.44307 22.18419 20.81363
#
# Velocity S-wave (km/s) = 3.21246 3.43145 3.32376
# Velocity P-wave (km/s) = 5.05097 5.42315 5.24037
#
# Compressibility (1/GPa) = 0.04516314
#
# Stress axis : x y z
#
# Youngs Moduli (GPa) = 58.78120 56.35512 38.59545
#
# Poissons Ratio (x) = 0.18689 0.24771
# Poissons Ratio (y) = 0.19493 -0.07652
# Poissons Ratio (z) = 0.37727 -0.11173
#
# Static dielectric constant tensor:
#      x y z
#    x 1.663180 0.000000 -0.003410 
#    y 0.000000 1.655250 0.000000 
#    z -0.003410 0.000000 1.642600 
# 
# From -- ./inp_files/41551.got.cif
#   From: 2010.05.17/outbox.cif.g08.bks.cpg/sg5_21_cif.got.tgz:41551.got - 2010.06.03 18:56:24.
