data_PCOD9120300
_publ_section_title
;
Structure prediction by ZEFSAII (Michael W. Deem and Ramdas Pophale) SiO2 
 PCOD9120300
Probable space group: C 2
;
_chemical_formula_sum "Si O2"
_cell_formula_units_Z 24
_cell_length_a 24.135240
_cell_length_b 11.205690
_cell_length_c 8.656623
_cell_angle_alpha 90.000000
_cell_angle_beta 26.880332
_cell_angle_gamma 90.000000
_cell_volume 1058.523893
_symmetry_space_group_name_H-M "C 2"
_symmetry_group_IT_number 5
_symmetry_cell_setting 'monoclinic'
loop_
_space_group_symop_operation_xyz
x,y,z
-x,y,-z
1/2+x,1/2+y,z
1/2-x,1/2+y,-z
loop_
_atom_site_type_symbol
_atom_site_label
_atom_site_fract_x
_atom_site_fract_y
_atom_site_fract_z
Si Si1 0.345764 0.363050 0.558028
Si Si2 0.861409 0.067759 0.286258
Si Si3 0.902367 0.377365 0.623560
Si Si4 0.574927 0.472979 0.167022
Si Si5 0.594340 0.148485 0.401972
Si Si6 0.239265 0.251776 0.246125
O O1 0.327683 0.436281 0.443429
O O2 0.464509 0.425555 0.335927
O O3 0.386833 0.225807 0.490126
O O4 0.226234 0.381017 0.962453
O O5 0.774994 0.169883 0.570368
O O6 0.000000 0.093613 0.000000
O O7 0.856009 0.064572 0.115086
O O8 0.937221 0.512235 0.492704
O O9 0.886159 0.304769 0.507605
O O10 0.000000 0.327596 0.500000
O O11 0.500000 0.518820 0.500000
O O12 0.668660 0.364532 0.969873
O O13 0.500000 0.192076 0.500000
O O14 0.718849 0.163395 0.995695
#
# Coordination Sequence:
#
# PCOD9120300 Si02
#       6
#     4   4   4   4   4   4
#     4  10  18  38  63  97 127 173 225 267 324 392
#     4  10  24  41  63  94 141 170 220 280 332 384
#     4  10  21  35  63 100 137 177 216 268 342 397
#     4  11  20  41  73  96 123 182 230 266 327 398
#     4  10  17  34  66  96 126 170 222 275 318 392
#     4  11  20  42  64  97 139 170 219 284 327 391
#
# _framework density 22.673082999999998
#
# number of rings (size 3 to 8) (size 9 to 14) (size 15 to 20)
#    0.000    1.667    6.667    0.000    0.000    0.000 
#    6.000    9.167    0.000    0.000    0.000    0.000 
#    0.000    0.000    0.000    0.000    0.000    0.000 
#
# Total GULP energy -66854.027521 kJ/mol
# GULP energy per Si atom -5571.168960 kJ/mol
# Density = 2.262148 g / cm^3
# Si number density = 22.673083 Si / 1000 Ang^3
#
#
#
# Elastic Constant Matrix: (Units=GPa)
#
#
# Indices 1 2 3 4 5 6 
#
# 1 83.5151 48.4560 28.7704 0.0000 14.1257 0.0000
# 2 48.4560 71.3637 21.5730 0.0000 14.4464 0.0000
# 3 28.7704 21.5730 52.9320 0.0000 17.5966 0.0000
# 4 0.0000 0.0000 0.0000 14.0834 0.0000 5.4999
# 5 14.1257 14.4464 17.5966 0.0000 47.5060 0.0000
# 6 0.0000 0.0000 0.0000 5.4999 0.0000 24.4396
#
#
#
# Elastic Compliance Matrix: (Units=1/GPa)
#
#
# Indices 1 2 3 4 5 6 
#
# 1 0.021592 -0.012657 -0.006526 0.000000 -0.000154 0.000000
# 2 -0.012657 0.023732 -0.001876 0.000000 -0.002759 0.000000
# 3 -0.006526 -0.001876 0.025510 0.000000 -0.006938 0.000000
# 4 0.000000 0.000000 0.000000 0.077847 0.000000 -0.017519
# 5 -0.000154 -0.002759 -0.006938 0.000000 0.024505 0.000000
# 6 0.000000 0.000000 0.000000 -0.017519 0.000000 0.044860
#
#
# Mechanical properties :
#
#
# Convention : Reuss Voigt Hill
#
# Bulk Modulus (GPa) = 34.82306 45.04553 39.93429
# Shear Modulus (GPa) = 18.53665 24.47323 21.50494
#
# Velocity S-wave (km/s) = 2.86241 3.28898 3.08308
# Velocity P-wave (km/s) = 5.12997 5.85950 5.50683
#
# Compressibility (1/GPa) = 0.02871660
#
# Stress axis : x y z
#
# Youngs Moduli (GPa) = 46.31408 42.13691 39.19958
#
# Poissons Ratio (x) = 0.53332 0.25583
# Poissons Ratio (y) = 0.58619 0.07353
# Poissons Ratio (z) = 0.30226 0.07904
#
# Static dielectric constant tensor:
#      x y z
#    x 1.904060 0.000000 -0.011290 
#    y 0.000000 1.933920 0.000000 
#    z -0.011290 0.000000 1.963380 
# 
# From -- ./inp_files/30906.got.cif
#   From: 2010.05.17/outbox.cif.g08.bks.cpg/sg5_16_cif.got.tgz:30906.got - 2010.06.03 18:56:24.
