data_PCOD9120192
_publ_section_title
;
Structure prediction by ZEFSAII (Michael W. Deem and Ramdas Pophale) SiO2 
 PCOD9120192
Probable space group: C 2
;
_chemical_formula_sum "Si O2"
_cell_formula_units_Z 28
_cell_length_a 10.010568
_cell_length_b 14.540474
_cell_length_c 8.154561
_cell_angle_alpha 90.000000
_cell_angle_beta 65.906123
_cell_angle_gamma 90.000000
_cell_volume 1083.553901
_symmetry_space_group_name_H-M "C 2"
_symmetry_group_IT_number 5
_symmetry_cell_setting 'monoclinic'
loop_
_space_group_symop_operation_xyz
x,y,z
-x,y,-z
1/2+x,1/2+y,z
1/2-x,1/2+y,-z
loop_
_atom_site_type_symbol
_atom_site_label
_atom_site_fract_x
_atom_site_fract_y
_atom_site_fract_z
Si Si1 0.884062 0.629490 0.279336
Si Si2 0.343144 0.344660 0.289696
Si Si3 0.601994 0.624179 0.598685
Si Si4 0.908997 0.330720 0.372013
Si Si5 0.789610 0.628425 0.943613
Si Si6 0.108606 0.977164 0.128556
Si Si7 0.324792 0.836757 0.972650
O O1 0.878367 0.738921 0.305898
O O2 0.759952 0.589270 0.460383
O O3 0.828719 0.616893 0.118918
O O4 0.054518 0.608064 0.218855
O O5 0.243992 0.374771 0.493646
O O6 0.490526 0.396865 0.178799
O O7 0.255342 0.347258 0.164259
O O8 0.500000 0.653910 0.500000
O O9 0.623451 0.724528 0.664894
O O10 0.493883 0.550699 0.729009
O O11 0.000000 0.338262 0.500000
O O12 0.009930 0.358971 0.168390
O O13 0.678277 0.546028 0.957220
O O14 0.718206 0.730394 0.961080
O O15 0.248187 0.916634 0.117414
#
# Coordination Sequence:
#
# PCOD9120192 Si02
#       7
#     4   4   4   4   4   4   4
#     4   9  17  33  53  70 108 134 173 218 267 297
#     4   9  18  31  52  81 103 137 170 222 262 305
#     4  10  17  31  49  78 103 136 172 219 258 307
#     4   8  15  31  53  70 104 137 166 217 268 296
#     4  10  18  31  51  81 103 137 170 226 262 302
#     4  12  20  27  52  86 106 135 176 219 266 307
#     4  10  18  33  50  80 112 131 176 218 263 309
#
# _framework density 25.840890999999999
#
# number of rings (size 3 to 8) (size 9 to 14) (size 15 to 20)
#    0.000    2.286    4.286    2.143    0.000    1.143 
#    0.000    0.000    0.000    0.000   22.286    0.000 
#    0.000    0.000    0.000    0.000    0.000    0.000 
#
# Total GULP energy -78002.637432 kJ/mol
# GULP energy per Si atom -5571.616959 kJ/mol
# Density = 2.578208 g / cm^3
# Si number density = 25.840891 Si / 1000 Ang^3
#
#
#
# Elastic Constant Matrix: (Units=GPa)
#
#
# Indices 1 2 3 4 5 6 
#
# 1 61.1669 23.0795 68.1214 0.0000 -15.4207 0.0000
# 2 23.0795 143.2766 49.8767 0.0000 -25.4554 0.0000
# 3 68.1214 49.8767 213.3114 0.0000 -60.6080 0.0000
# 4 0.0000 0.0000 0.0000 38.6935 0.0000 -21.4050
# 5 -15.4207 -25.4554 -60.6080 0.0000 50.1650 0.0000
# 6 0.0000 0.0000 0.0000 -21.4050 0.0000 17.1179
#
#
#
# Elastic Compliance Matrix: (Units=1/GPa)
#
#
# Indices 1 2 3 4 5 6 
#
# 1 0.026057 -0.001734 -0.008969 0.000000 -0.003706 0.000000
# 2 -0.001734 0.007943 -0.000472 0.000000 0.002928 0.000000
# 3 -0.008969 -0.000472 0.010371 0.000000 0.009534 0.000000
# 4 0.000000 0.000000 0.000000 0.083838 0.000000 0.104834
# 5 -0.003706 0.002928 0.009534 0.000000 0.031799 0.000000
# 6 0.000000 0.000000 0.000000 0.104834 0.000000 0.189508
#
#
# Mechanical properties :
#
#
# Convention : Reuss Voigt Hill
#
# Bulk Modulus (GPa) = 45.40678 77.76779 61.58728
# Shear Modulus (GPa) = 13.18543 39.64043 26.41293
#
# Velocity S-wave (km/s) = 2.26133 3.92091 3.20056
# Velocity P-wave (km/s) = 4.94247 7.11746 6.12724
#
# Compressibility (1/GPa) = 0.02202314
#
# Stress axis : x y z
#
# Youngs Moduli (GPa) = 38.37695 125.89460 96.41836
#
# Poissons Ratio (x) = 0.21824 0.86478
# Poissons Ratio (y) = 0.06653 0.04549
# Poissons Ratio (z) = 0.34420 0.05940
#
# Static dielectric constant tensor:
#      x y z
#    x 2.172130 0.000000 0.039600 
#    y 0.000000 2.066480 0.000000 
#    z 0.039600 0.000000 2.082040 
# 
# From -- ./inp_files/39821.got.cif
#   From: 2010.05.17/outbox.cif.g08.bks.cpg/sg5_20_cif.got.tgz:39821.got - 2010.06.03 18:56:24.
