data_PCOD9120000
_publ_section_title
;
Structure prediction by ZEFSAII (Michael W. Deem and Ramdas Pophale) SiO2 
 PCOD9120000
Probable space group: C 2
;
_chemical_formula_sum "Si O2"
_cell_formula_units_Z 26
_cell_length_a 16.067307
_cell_length_b 7.131075
_cell_length_c 7.799065
_cell_angle_alpha 90.000000
_cell_angle_beta 83.827100
_cell_angle_gamma 90.000000
_cell_volume 888.413685
_symmetry_space_group_name_H-M "C 2"
_symmetry_group_IT_number 5
_symmetry_cell_setting 'monoclinic'
loop_
_space_group_symop_operation_xyz
x,y,z
-x,y,-z
1/2+x,1/2+y,z
1/2-x,1/2+y,-z
loop_
_atom_site_type_symbol
_atom_site_label
_atom_site_fract_x
_atom_site_fract_y
_atom_site_fract_z
Si Si1 0.552509 0.910200 0.650546
Si Si2 0.069615 0.863481 0.631267
Si Si3 0.213046 0.410969 0.747850
Si Si4 0.100969 0.453391 0.115467
Si Si5 0.754613 0.839254 0.290878
Si Si6 0.859546 0.860669 0.921848
Si Si7 0.500000 0.554046 0.000000
O O1 0.500000 0.850384 0.500000
O O2 0.645810 0.828209 0.632783
O O3 0.491312 0.865903 0.825691
O O4 0.564571 0.135581 0.643429
O O5 0.170307 0.905443 0.597370
O O6 0.000000 0.913123 0.500000
O O7 0.041725 0.958425 0.816600
O O8 0.297749 0.314121 0.779468
O O9 0.153273 0.417004 0.930499
O O10 0.299298 0.364616 0.096772
O O11 0.162122 0.416276 0.265239
O O12 0.083277 0.676816 0.096217
O O13 0.757046 0.616425 0.309054
O O14 0.907222 0.058175 0.922624
#
# Coordination Sequence:
#
# PCOD9120000 Si02
#       7
#     4   4   4   4   4   4   2
#     4  10  19  31  49  76 100 133 174 212 246 310
#     4   9  17  30  50  77 101 133 177 217 250 307
#     4   9  18  33  52  74 103 131 166 214 260 306
#     4  10  17  31  55  76  95 135 170 212 255 304
#     4   8  17  30  51  75 105 127 168 216 256 305
#     4   9  17  29  54  77  97 130 175 211 254 309
#     4  10  16  30  52  76  98 136 172 214 254 304
#
# _framework density 29.265646
#
# number of rings (size 3 to 8) (size 9 to 14) (size 15 to 20)
#    0.000    2.769    1.538    1.385    0.000    0.000 
#    2.769    0.000   16.923    0.923    0.000    1.077 
#    0.000    0.000    0.000    0.000    0.000    0.000 
#
# Total GULP energy -72444.049853 kJ/mol
# GULP energy per Si atom -5572.619219 kJ/mol
# Density = 2.919904 g / cm^3
# Si number density = 29.265646 Si / 1000 Ang^3
#
#
#
# Elastic Constant Matrix: (Units=GPa)
#
#
# Indices 1 2 3 4 5 6 
#
# 1 121.5996 15.3292 15.2736 0.0000 60.6628 0.0000
# 2 15.3292 95.3117 -21.7947 0.0000 -8.0929 0.0000
# 3 15.2736 -21.7947 137.7445 0.0000 30.1586 0.0000
# 4 0.0000 0.0000 0.0000 -53.5576 0.0000 -18.6758
# 5 60.6628 -8.0929 30.1586 0.0000 61.5070 0.0000
# 6 0.0000 0.0000 0.0000 -18.6758 0.0000 33.5388
#
#
#
# Elastic Compliance Matrix: (Units=1/GPa)
#
#
# Indices 1 2 3 4 5 6 
#
# 1 0.018130 -0.004196 0.001525 0.000000 -0.019181 0.000000
# 2 -0.004196 0.011881 0.001229 0.000000 0.005099 0.000000
# 3 0.001525 0.001229 0.008491 0.000000 -0.005506 0.000000
# 4 0.000000 0.000000 0.000000 -0.015636 0.000000 -0.008706
# 5 -0.019181 0.005099 -0.005506 0.000000 0.038547 0.000000
# 6 0.000000 0.000000 0.000000 -0.008706 0.000000 0.024968
#
#
# Mechanical properties :
#
#
# Convention : Reuss Voigt Hill
#
# Bulk Modulus (GPa) = 28.07572 41.36358 34.71965
# Shear Modulus (GPa) = 49.43797 31.35414 40.39606
#
# Velocity S-wave (km/s) = 4.11455 3.27672 3.71930
# Velocity P-wave (km/s) = 5.67335 5.33670 5.50760
#
# Compressibility (1/GPa) = 0.03561796
#
# Stress axis : x y z
#
# Youngs Moduli (GPa) = 55.15701 84.17069 117.77739
#
# Poissons Ratio (x) = 0.35316 -0.17966
# Poissons Ratio (y) = 0.23143 -0.14471
# Poissons Ratio (z) = -0.08414 -0.10342
#
# Static dielectric constant tensor:
#      x y z
#    x 2.318180 0.000000 0.131370 
#    y 0.000000 2.425190 0.000000 
#    z 0.131370 0.000000 2.511230 
# 
# From -- ./inp_files/23430.got.cif
#   From: 2010.05.17/outbox.cif.g08.bks.cpg/sg5_12_cif.got.tgz:23430.got - 2010.06.03 18:56:24.
