data_PCOD9120717
_publ_section_title
;
Structure prediction by ZEFSAII (Michael W. Deem and Ramdas Pophale) SiO2 
 PCOD9120717
Probable space group: C 2
;
_chemical_formula_sum "Si O2"
_cell_formula_units_Z 30
_cell_length_a 18.761976
_cell_length_b 15.081516
_cell_length_c 12.417351
_cell_angle_alpha 90.000000
_cell_angle_beta 28.106949
_cell_angle_gamma 90.000000
_cell_volume 1655.324060
_symmetry_space_group_name_H-M "C 2"
_symmetry_group_IT_number 5
_symmetry_cell_setting 'monoclinic'
loop_
_space_group_symop_operation_xyz
x,y,z
-x,y,-z
1/2+x,1/2+y,z
1/2-x,1/2+y,-z
loop_
_atom_site_type_symbol
_atom_site_label
_atom_site_fract_x
_atom_site_fract_y
_atom_site_fract_z
Si Si1 0.630765 0.260740 0.398997
Si Si2 0.327836 0.764853 0.726461
Si Si3 0.903503 0.549748 0.236629
Si Si4 0.348710 0.845154 0.274857
Si Si5 0.000000 0.435995 0.500000
Si Si6 0.163728 0.200976 0.518063
Si Si7 0.467409 0.083115 0.707426
Si Si8 0.310914 0.678011 0.968094
O O1 0.500000 0.304231 0.500000
O O2 0.706686 0.320376 0.388439
O O3 0.554942 0.171566 0.550342
O O4 0.758500 0.230089 0.144058
O O5 0.500000 0.727522 0.500000
O O6 0.358178 0.869331 0.699034
O O7 0.272773 0.737424 0.681701
O O8 0.257786 0.728663 0.929399
O O9 0.849085 0.447660 0.310144
O O10 0.767463 0.620184 0.418251
O O11 0.008216 0.569385 0.199646
O O12 0.000000 0.561651 0.000000
O O13 0.343768 0.779351 0.383654
O O14 0.500000 0.831539 0.000000
O O15 0.028244 0.498006 0.563763
O O16 0.990432 0.169082 0.733002
O O17 0.293432 0.091597 0.901266
#
# Coordination Sequence:
#
# PCOD9120717 Si02
#       8
#     4   4   4   4   2   4   4   4
#     4  10  20  37  62  88 119 156 197 252 304 348
#     4   8  19  32  54  84 113 147 192 237 289 343
#     4  11  25  38  61  89 122 161 200 245 306 360
#     4  11  22  39  63  90 118 161 210 243 300 367
#     4  10  18  34  60  90 108 150 202 244 280 362
#     4  11  20  40  62  85 123 159 201 249 297 362
#     4  11  20  37  60  90 121 152 198 249 301 354
#     4  10  19  36  61  87 112 159 197 241 304 352
#
# _framework density 18.123339000000001
#
# number of rings (size 3 to 8) (size 9 to 14) (size 15 to 20)
#    0.400    1.333    4.667    1.600    0.000    0.000 
#    0.000    7.333    0.000    0.000    0.000    0.000 
#    0.000    0.000    0.000    0.000    0.000    0.000 
#
# Total GULP energy -83533.278190 kJ/mol
# GULP energy per Si atom -5568.885213 kJ/mol
# Density = 1.808209 g / cm^3
# Si number density = 18.123339 Si / 1000 Ang^3
#
#
#
# Elastic Constant Matrix: (Units=GPa)
#
#
# Indices 1 2 3 4 5 6 
#
# 1 103.5566 25.2634 13.4925 0.0001 6.3509 -0.0001
# 2 25.2634 84.3509 23.9760 0.0001 -0.7314 -0.0001
# 3 13.4925 23.9760 49.9007 0.0001 6.9400 -0.0001
# 4 0.0001 0.0001 0.0001 16.0454 -0.0001 4.9260
# 5 6.3509 -0.7314 6.9400 -0.0001 37.3900 0.0001
# 6 -0.0001 -0.0001 -0.0001 4.9260 0.0001 25.6387
#
#
#
# Elastic Compliance Matrix: (Units=1/GPa)
#
#
# Indices 1 2 3 4 5 6 
#
# 1 0.010613 -0.002827 -0.001286 0.000000 -0.001619 0.000000
# 2 -0.002827 0.014570 -0.006510 0.000000 0.001974 0.000000
# 3 -0.001286 -0.006510 0.024126 0.000000 -0.004387 0.000000
# 4 0.000000 0.000000 0.000000 0.066230 0.000000 -0.012725
# 5 -0.001619 0.001974 -0.004387 0.000000 0.027873 0.000000
# 6 0.000000 0.000000 0.000000 -0.012725 0.000000 0.041448
#
#
# Mechanical properties :
#
#
# Convention : Reuss Voigt Hill
#
# Bulk Modulus (GPa) = 35.63634 40.36357 37.99996
# Shear Modulus (GPa) = 23.20609 27.48656 25.34633
#
# Velocity S-wave (km/s) = 3.58222 3.89863 3.74377
# Velocity P-wave (km/s) = 6.06759 6.52577 6.30085
#
# Compressibility (1/GPa) = 0.02806124
#
# Stress axis : x y z
#
# Youngs Moduli (GPa) = 94.22291 68.63592 41.44951
#
# Poissons Ratio (x) = 0.19405 0.05331
# Poissons Ratio (y) = 0.26638 0.26985
# Poissons Ratio (z) = 0.12118 0.44685
#
# Static dielectric constant tensor:
#      x y z
#    x 1.642570 0.000000 0.021220 
#    y 0.000000 1.601110 0.000000 
#    z 0.021220 0.000000 1.649240 
# 
# From -- ./inp_files/44888.got.cif
#   From: 2010.05.17/outbox.cif.g08.bks.cpg/sg5_23_cif.got.tgz:44888.got - 2010.06.03 18:56:24.
