data_PCOD9120254
_publ_section_title
;
Structure prediction by ZEFSAII (Michael W. Deem and Ramdas Pophale) SiO2 
 PCOD9120254
Probable space group: C 2
;
_chemical_formula_sum "Si O2"
_cell_formula_units_Z 30
_cell_length_a 11.920541
_cell_length_b 9.193595
_cell_length_c 17.427516
_cell_angle_alpha 90.000000
_cell_angle_beta 35.918166
_cell_angle_gamma 90.000000
_cell_volume 1120.419008
_symmetry_space_group_name_H-M "C 2"
_symmetry_group_IT_number 5
_symmetry_cell_setting 'monoclinic'
loop_
_space_group_symop_operation_xyz
x,y,z
-x,y,-z
1/2+x,1/2+y,z
1/2-x,1/2+y,-z
loop_
_atom_site_type_symbol
_atom_site_label
_atom_site_fract_x
_atom_site_fract_y
_atom_site_fract_z
Si Si1 0.700173 0.694850 0.184427
Si Si2 0.879256 0.227010 0.463218
Si Si3 0.199074 0.473218 0.005899
Si Si4 0.214248 0.027415 0.875225
Si Si5 0.019121 0.858969 0.743891
Si Si6 0.780191 0.428882 0.224851
Si Si7 0.000000 0.962442 0.500000
Si Si8 0.865439 0.513088 0.633417
O O1 0.470669 0.707117 0.327654
O O2 0.786871 0.853529 0.135812
O O3 0.782951 0.605942 0.211851
O O4 0.756126 0.603678 0.078491
O O5 0.667983 0.261707 0.611198
O O6 0.918442 0.071900 0.480876
O O7 0.011965 0.364565 0.415799
O O8 0.183360 0.539020 0.099899
O O9 0.001070 0.391452 0.097909
O O10 0.373308 0.359569 0.897876
O O11 0.315107 0.083878 0.742564
O O12 0.000000 0.083566 0.000000
O O13 0.173867 0.968958 0.695586
O O14 0.858365 0.888660 0.768115
O O15 0.677167 0.387212 0.360426
O O16 0.000000 0.597710 0.500000
#
# Coordination Sequence:
#
# PCOD9120254 Si02
#       8
#     4   4   4   4   4   4   2   4
#     4   9  20  37  57  89 125 155 209 260 309 366
#     4   9  17  32  59  88 113 151 208 261 305 353
#     4  11  22  36  57  94 133 159 207 262 322 374
#     4  11  20  34  62  91 113 166 210 255 311 366
#     4  10  17  33  55  84 120 155 195 252 306 367
#     4  10  22  34  55  89 126 166 194 256 321 372
#     4  10  18  34  54  84 120 146 216 260 300 364
#     4   9  17  31  54  88 116 146 197 257 300 360
#
# _framework density 26.775697999999998
#
# number of rings (size 3 to 8) (size 9 to 14) (size 15 to 20)
#    0.000    2.133    3.333    2.400    0.000    4.267 
#    0.000    0.000    0.000    4.800   52.000    0.000 
#    0.000    0.000    0.000    0.000    0.000    0.000 
#
# Total GULP energy -83674.731416 kJ/mol
# GULP energy per Si atom -5578.315428 kJ/mol
# Density = 2.671476 g / cm^3
# Si number density = 26.775698 Si / 1000 Ang^3
#
#
#
# Elastic Constant Matrix: (Units=GPa)
#
#
# Indices 1 2 3 4 5 6 
#
# 1 116.6245 16.0326 95.2902 0.0000 -0.5396 0.0000
# 2 16.0326 73.2680 28.0939 0.0004 -0.0717 0.0000
# 3 95.2902 28.0939 265.3861 0.0010 20.6075 0.0002
# 4 0.0000 0.0004 0.0010 -7.5626 -0.0003 1.2832
# 5 -0.5396 -0.0717 20.6075 -0.0003 59.2834 0.0000
# 6 0.0000 0.0000 0.0002 1.2832 0.0000 13.6067
#
#
#
# Elastic Compliance Matrix: (Units=1/GPa)
#
#
# Indices 1 2 3 4 5 6 
#
# 1 0.012366 -0.000993 -0.004464 -0.000001 0.001663 0.000000
# 2 -0.000993 0.014323 -0.001193 0.000001 0.000423 0.000000
# 3 -0.004464 -0.001193 0.005653 0.000001 -0.002007 0.000000
# 4 -0.000001 0.000001 0.000001 -0.130148 -0.000001 0.012274
# 5 0.001663 0.000423 -0.002007 -0.000001 0.017582 0.000000
# 6 0.000000 0.000000 0.000000 0.012274 0.000000 0.072336
#
#
# Mechanical properties :
#
#
# Convention : Reuss Voigt Hill
#
# Bulk Modulus (GPa) = 52.51084 81.56801 67.03943
# Shear Modulus (GPa) = 425.17672 34.12296 229.64984
#
# Velocity S-wave (km/s) = 12.61494 3.57375 9.27115
# Velocity P-wave (km/s) = 15.22617 6.89627 11.81936
#
# Compressibility (1/GPa) = 0.01904369
#
# Stress axis : x y z
#
# Youngs Moduli (GPa) = 80.86445 69.81543 176.89067
#
# Poissons Ratio (x) = 0.06930 0.78971
# Poissons Ratio (y) = 0.08026 0.21098
# Poissons Ratio (z) = 0.36101 0.08327
#
# Static dielectric constant tensor:
#      x y z
#    x 4.797290 0.000000 0.027840 
#    y 0.000000 2.231020 0.000000 
#    z 0.027840 0.000000 2.150980 
# 
# From -- ./inp_files/60656.got.cif
#   From: 2010.05.17/outbox.cif.g08.bks.cpg/sg5_31_cif.got.tgz:60656.got - 2010.06.03 18:56:24.
