data_PCOD9120753
_publ_section_title
;
Structure prediction by ZEFSAII (Michael W. Deem and Ramdas Pophale) SiO2 
 PCOD9120753
Probable space group: C 2
;
_chemical_formula_sum "Si O2"
_cell_formula_units_Z 30
_cell_length_a 10.738592
_cell_length_b 13.256197
_cell_length_c 15.250635
_cell_angle_alpha 90.000000
_cell_angle_beta 134.661937
_cell_angle_gamma 90.000000
_cell_volume 1544.139860
_symmetry_space_group_name_H-M "C 2"
_symmetry_group_IT_number 5
_symmetry_cell_setting 'monoclinic'
loop_
_space_group_symop_operation_xyz
x,y,z
-x,y,-z
1/2+x,1/2+y,z
1/2-x,1/2+y,-z
loop_
_atom_site_type_symbol
_atom_site_label
_atom_site_fract_x
_atom_site_fract_y
_atom_site_fract_z
Si Si1 0.055062 0.325080 0.657272
Si Si2 0.953635 0.146495 0.874168
Si Si3 0.634239 0.066839 0.286274
Si Si4 0.924651 0.555121 0.366755
Si Si5 0.111974 0.944732 0.964121
Si Si6 0.000000 0.164967 0.500000
Si Si7 0.557207 0.244527 0.128658
Si Si8 0.504833 0.868030 0.183173
O O1 0.101151 0.433488 0.638699
O O2 0.947326 0.245298 0.548242
O O3 0.238186 0.271792 0.770797
O O4 0.954847 0.344502 0.696403
O O5 0.757460 0.110038 0.750516
O O6 0.986708 0.260475 0.858899
O O7 0.076046 0.052707 0.901979
O O8 0.000000 0.150548 0.000000
O O9 0.550576 0.064889 0.343109
O O10 0.530937 0.150670 0.179063
O O11 0.834083 0.099924 0.393490
O O12 0.627346 0.963514 0.226568
O O13 0.000000 0.588225 0.500000
O O14 0.038843 0.844299 0.882184
O O15 0.312238 0.919027 0.083157
O O16 0.000000 0.946371 0.000000
O O17 0.500000 0.225355 0.000000
#
# Coordination Sequence:
#
# PCOD9120753 Si02
#       8
#     4   4   4   4   4   2   4   4
#     4  10  18  37  63  88 113 160 221 258 296 368
#     4  11  24  41  63  93 131 168 215 262 319 384
#     4  10  24  41  64  91 131 166 209 265 322 383
#     4  11  23  42  64  94 127 172 218 265 314 376
#     4  10  18  36  63  90 120 159 209 264 303 366
#     4  10  22  40  64  88 122 162 214 264 310 376
#     4  10  18  34  65  94 119 156 209 272 311 361
#     4  11  23  37  61  93 130 164 202 263 329 380
#
# _framework density 19.428293
#
# number of rings (size 3 to 8) (size 9 to 14) (size 15 to 20)
#    0.000    1.600    4.667    2.400    5.600    0.533 
#    1.200    1.333    0.000    0.000    0.000    0.000 
#    0.000    0.000    0.000    0.000    0.000    0.000 
#
# Total GULP energy -83501.033840 kJ/mol
# GULP energy per Si atom -5566.735589 kJ/mol
# Density = 1.938407 g / cm^3
# Si number density = 19.428293 Si / 1000 Ang^3
#
#
#
# Elastic Constant Matrix: (Units=GPa)
#
#
# Indices 1 2 3 4 5 6 
#
# 1 29.4437 38.2636 22.3901 0.0000 -2.7422 0.0000
# 2 38.2636 185.2034 68.1765 0.0000 -1.6146 0.0000
# 3 22.3901 68.1765 93.5127 0.0000 -5.9518 0.0000
# 4 0.0000 0.0000 0.0000 31.8696 0.0000 -3.0685
# 5 -2.7422 -1.6146 -5.9518 0.0000 26.7627 0.0000
# 6 0.0000 0.0000 0.0000 -3.0685 0.0000 14.6340
#
#
#
# Elastic Compliance Matrix: (Units=1/GPa)
#
#
# Indices 1 2 3 4 5 6 
#
# 1 0.048989 -0.007998 -0.005690 0.000000 0.003272 0.000000
# 2 -0.007998 0.008701 -0.004511 0.000000 -0.001298 0.000000
# 3 -0.005690 -0.004511 0.015510 0.000000 0.002594 0.000000
# 4 0.000000 0.000000 0.000000 0.032024 0.000000 0.006715
# 5 0.003272 -0.001298 0.002594 0.000000 0.038199 0.000000
# 6 0.000000 0.000000 0.000000 0.006715 0.000000 0.069742
#
#
# Mechanical properties :
#
#
# Convention : Reuss Voigt Hill
#
# Bulk Modulus (GPa) = 27.17318 62.86893 45.02105
# Shear Modulus (GPa) = 19.09618 26.60858 22.85238
#
# Velocity S-wave (km/s) = 3.13853 3.70480 3.43336
# Velocity P-wave (km/s) = 5.21063 7.12253 6.24023
#
# Compressibility (1/GPa) = 0.03680099
#
# Stress axis : x y z
#
# Youngs Moduli (GPa) = 20.41287 114.92565 64.47291
#
# Poissons Ratio (x) = 0.91917 0.36687
# Poissons Ratio (y) = 0.16326 0.29086
# Poissons Ratio (z) = 0.11616 0.51847
#
# Static dielectric constant tensor:
#      x y z
#    x 1.720370 0.000000 -0.022100 
#    y 0.000000 1.768480 0.000000 
#    z -0.022100 0.000000 1.740210 
# 
# From -- ./inp_files/60495.got.cif
#   From: 2010.05.17/outbox.cif.g08.bks.cpg/sg5_31_cif.got.tgz:60495.got - 2010.06.03 18:56:24.
