data_PCOD9120982
_publ_section_title
;
Structure prediction by ZEFSAII (Michael W. Deem and Ramdas Pophale) SiO2 
 PCOD9120982
Probable space group: C 2
;
_chemical_formula_sum "Si O2"
_cell_formula_units_Z 32
_cell_length_a 14.972506
_cell_length_b 10.324249
_cell_length_c 15.332858
_cell_angle_alpha 90.000000
_cell_angle_beta 142.049262
_cell_angle_gamma 90.000000
_cell_volume 1457.604516
_symmetry_space_group_name_H-M "C 2"
_symmetry_group_IT_number 5
_symmetry_cell_setting 'monoclinic'
loop_
_space_group_symop_operation_xyz
x,y,z
-x,y,-z
1/2+x,1/2+y,z
1/2-x,1/2+y,-z
loop_
_atom_site_type_symbol
_atom_site_label
_atom_site_fract_x
_atom_site_fract_y
_atom_site_fract_z
Si Si1 0.549075 0.146070 0.435837
Si Si2 0.104692 0.382733 0.702375
Si Si3 0.922924 0.850271 0.204247
Si Si4 0.829195 0.022642 0.386792
Si Si5 0.171331 0.007746 0.410335
Si Si6 0.116019 0.742570 0.014741
Si Si7 0.656470 0.940221 0.092531
Si Si8 0.183267 0.301796 0.585867
O O1 0.500000 0.160211 0.500000
O O2 0.493095 0.266975 0.336978
O O3 0.721115 0.113717 0.550656
O O4 0.468676 0.019186 0.331992
O O5 0.162907 0.401900 0.648709
O O6 0.970097 0.283876 0.582242
O O7 0.233400 0.321009 0.855549
O O8 0.938186 0.779957 0.123178
O O9 0.753131 0.865735 0.096897
O O10 0.998017 0.994367 0.262671
O O11 0.798201 0.000061 0.463906
O O12 0.747647 0.940969 0.252404
O O13 0.774633 0.170504 0.335444
O O14 0.000000 0.015827 0.500000
O O15 0.215208 0.870093 0.403049
O O16 0.137117 0.588360 0.043720
O O17 0.000000 0.783577 0.000000
O O18 0.500000 0.888064 0.000000
#
# Coordination Sequence:
#
# PCOD9120982 Si02
#       8
#     4   4   4   4   4   4   4   4
#     4  11  25  45  72 103 145 180 233 306 367 420
#     4  10  18  39  67  94 134 177 229 284 345 405
#     4  12  28  46  70 107 147 189 241 294 372 440
#     4  12  21  41  69 100 140 183 240 300 347 417
#     4  11  24  39  68 104 134 180 236 303 347 419
#     4  11  25  43  72  98 143 188 242 293 347 435
#     4  11  27  47  69 102 145 197 241 291 365 439
#     4  10  18  37  65 101 128 175 237 286 343 415
#
# _framework density 21.953828999999999
#
# number of rings (size 3 to 8) (size 9 to 14) (size 15 to 20)
#    0.000    1.000    6.250    1.500    8.750    1.000 
#    0.000    1.875    0.000    0.000    0.000    0.000 
#    0.000    0.000    0.000    0.000    0.000    0.000 
#
# Total GULP energy -89287.021605 kJ/mol
# GULP energy per Si atom -5580.438850 kJ/mol
# Density = 2.190386 g / cm^3
# Si number density = 21.953829 Si / 1000 Ang^3
#
#
#
# Elastic Constant Matrix: (Units=GPa)
#
#
# Indices 1 2 3 4 5 6 
#
# 1 136.1314 14.2833 36.6679 0.0000 -5.1335 0.0000
# 2 14.2833 38.4897 5.7134 0.0000 6.9688 0.0000
# 3 36.6679 5.7134 82.2167 0.0000 -2.1147 0.0000
# 4 0.0000 0.0000 0.0000 28.9549 0.0000 -0.4808
# 5 -5.1335 6.9688 -2.1147 0.0000 40.0996 0.0000
# 6 0.0000 0.0000 0.0000 -0.4808 0.0000 30.6162
#
#
#
# Elastic Compliance Matrix: (Units=1/GPa)
#
#
# Indices 1 2 3 4 5 6 
#
# 1 0.008687 -0.002944 -0.003633 0.000000 0.001432 0.000000
# 2 -0.002944 0.028151 -0.000780 0.000000 -0.005310 0.000000
# 3 -0.003633 -0.000780 0.013848 0.000000 0.000401 0.000000
# 4 0.000000 0.000000 0.000000 0.034545 0.000000 0.000543
# 5 0.001432 -0.005310 0.000401 0.000000 0.026065 0.000000
# 6 0.000000 0.000000 0.000000 0.000543 0.000000 0.032671
#
#
# Mechanical properties :
#
#
# Convention : Reuss Voigt Hill
#
# Bulk Modulus (GPa) = 27.79931 41.12969 34.46450
# Shear Modulus (GPa) = 29.29602 33.27901 31.28752
#
# Velocity S-wave (km/s) = 3.65696 3.89763 3.77921
# Velocity P-wave (km/s) = 5.52460 6.24745 5.89712
#
# Compressibility (1/GPa) = 0.03597211
#
# Stress axis : x y z
#
# Youngs Moduli (GPa) = 115.11041 35.52325 72.21363
#
# Poissons Ratio (x) = 0.10457 0.26236
# Poissons Ratio (y) = 0.33886 0.05632
# Poissons Ratio (z) = 0.41820 0.02771
#
# Static dielectric constant tensor:
#      x y z
#    x 1.877210 0.000000 0.082560 
#    y 0.000000 1.836400 0.000000 
#    z 0.082560 0.000000 1.857000 
# 
# From -- ./inp_files/54589.got.cif
#   From: 2010.05.17/outbox.cif.g08.bks.cpg/sg5_28_cif.got.tgz:54589.got - 2010.06.03 18:56:24.
