data_PCOD9120156
_publ_section_title
;
Structure prediction by ZEFSAII (Michael W. Deem and Ramdas Pophale) SiO2 
 PCOD9120156
Probable space group: C 2
;
_chemical_formula_sum "Si O2"
_cell_formula_units_Z 30
_cell_length_a 7.999499
_cell_length_b 15.411209
_cell_length_c 13.125000
_cell_angle_alpha 90.000000
_cell_angle_beta 119.015291
_cell_angle_gamma 90.000000
_cell_volume 1414.991408
_symmetry_space_group_name_H-M "C 2"
_symmetry_group_IT_number 5
_symmetry_cell_setting 'monoclinic'
loop_
_space_group_symop_operation_xyz
x,y,z
-x,y,-z
1/2+x,1/2+y,z
1/2-x,1/2+y,-z
loop_
_atom_site_type_symbol
_atom_site_label
_atom_site_fract_x
_atom_site_fract_y
_atom_site_fract_z
Si Si1 0.240922 0.977960 0.240928
Si Si2 0.304916 0.956507 0.601740
Si Si3 0.273300 0.934609 0.036495
Si Si4 0.763899 0.596339 0.430000
Si Si5 0.193424 0.774074 0.491677
Si Si6 0.544834 0.291265 0.231176
Si Si7 0.272429 0.915146 0.816602
Si Si8 0.000000 0.776770 0.000000
O O1 0.469608 0.971446 0.319163
O O2 0.206869 0.993179 0.111067
O O3 0.150702 0.884161 0.241992
O O4 0.188058 0.052122 0.305023
O O5 0.288403 0.867079 0.534095
O O6 0.216584 0.948785 0.688636
O O7 0.218176 0.032901 0.509464
O O8 0.498358 0.916029 0.112763
O O9 0.222862 0.965076 0.907497
O O10 0.172192 0.842258 0.024047
O O11 0.693886 0.693572 0.427442
O O12 0.000000 0.600549 0.500000
O O13 0.142424 0.752128 0.359795
O O14 0.000000 0.783176 0.500000
O O15 0.331740 0.322307 0.200963
O O16 0.544659 0.237408 0.125033
#
# Coordination Sequence:
#
# PCOD9120156 Si02
#       8
#     4   4   4   4   4   4   4   2
#     4   9  17  31  52  71 100 138 175 212 257 310
#     4  10  18  32  52  73 103 135 175 218 261 311
#     4   8  15  27  47  79 101 131 177 214 254 312
#     4   9  19  32  49  74 104 138 177 211 260 317
#     4  11  20  31  52  78 107 138 177 216 269 315
#     4  10  17  29  51  73 105 135 172 214 261 316
#     4   9  16  27  48  78 104 130 172 216 260 310
#     4   8  16  28  46  78 102 134 172 212 256 316
#
# _framework density 21.201542
#
# number of rings (size 3 to 8) (size 9 to 14) (size 15 to 20)
#    0.000    2.667    2.667    0.000    0.000    0.000 
#    0.000    0.000    8.800    6.400    0.000   14.933 
#    0.000    0.000    0.000    0.000    0.000    0.000 
#
# Total GULP energy -83542.761939 kJ/mol
# GULP energy per Si atom -5569.517463 kJ/mol
# Density = 2.115329 g / cm^3
# Si number density = 21.201542 Si / 1000 Ang^3
#
#
#
# Elastic Constant Matrix: (Units=GPa)
#
#
# Indices 1 2 3 4 5 6 
#
# 1 46.1502 -5.8619 17.8719 0.0000 -11.0340 0.0000
# 2 -5.8619 41.1669 8.2156 0.0000 -3.4648 0.0000
# 3 17.8719 8.2156 140.3527 0.0000 -30.1810 0.0000
# 4 0.0000 0.0000 0.0000 14.0411 0.0000 1.6267
# 5 -11.0340 -3.4648 -30.1810 0.0000 30.1689 0.0000
# 6 0.0000 0.0000 0.0000 1.6267 0.0000 3.9895
#
#
#
# Elastic Compliance Matrix: (Units=1/GPa)
#
#
# Indices 1 2 3 4 5 6 
#
# 1 0.024794 0.004538 -0.001734 0.000000 0.007855 0.000000
# 2 0.004538 0.025483 -0.001380 0.000000 0.003205 0.000000
# 3 -0.001734 -0.001380 0.009245 0.000000 0.008456 0.000000
# 4 0.000000 0.000000 0.000000 0.074751 0.000000 -0.030480
# 5 0.007855 0.003205 0.008456 0.000000 0.044847 0.000000
# 6 0.000000 0.000000 0.000000 -0.030480 0.000000 0.263086
#
#
# Mechanical properties :
#
#
# Convention : Reuss Voigt Hill
#
# Bulk Modulus (GPa) = 16.03352 29.79122 22.91237
# Shear Modulus (GPa) = 10.86608 23.46951 17.16779
#
# Velocity S-wave (km/s) = 2.26633 3.33073 2.84868
# Velocity P-wave (km/s) = 3.79831 5.37342 4.65300
#
# Compressibility (1/GPa) = 0.06236934
#
# Stress axis : x y z
#
# Youngs Moduli (GPa) = 40.33205 39.24226 108.16916
#
# Poissons Ratio (x) = -0.17807 0.18753
# Poissons Ratio (y) = -0.18301 0.14929
# Poissons Ratio (z) = 0.06992 0.05416
#
# Static dielectric constant tensor:
#      x y z
#    x 1.817810 0.000000 -0.028180 
#    y 0.000000 1.734130 0.000000 
#    z -0.028180 0.000000 1.849180 
# 
# From -- ./inp_files/36831.got.cif
#   From: 2010.05.17/outbox.cif.g08.bks.cpg/sg5_19_cif.got.tgz:36831.got - 2010.06.03 18:56:24.
