data_PCOD9120248
_publ_section_title
;
Structure prediction by ZEFSAII (Michael W. Deem and Ramdas Pophale) SiO2 
 PCOD9120248
Probable space group: C 2
;
_chemical_formula_sum "Si O2"
_cell_formula_units_Z 22
_cell_length_a 14.367196
_cell_length_b 9.198960
_cell_length_c 7.142124
_cell_angle_alpha 90.000000
_cell_angle_beta 96.337278
_cell_angle_gamma 90.000000
_cell_volume 938.158396
_symmetry_space_group_name_H-M "C 2"
_symmetry_group_IT_number 5
_symmetry_cell_setting 'monoclinic'
loop_
_space_group_symop_operation_xyz
x,y,z
-x,y,-z
1/2+x,1/2+y,z
1/2-x,1/2+y,-z
loop_
_atom_site_type_symbol
_atom_site_label
_atom_site_fract_x
_atom_site_fract_y
_atom_site_fract_z
Si Si1 0.606926 0.500000 0.591155
Si Si2 0.748397 0.765236 0.304691
Si Si3 0.850853 0.316746 0.325576
Si Si4 0.674302 0.489553 0.183592
Si Si5 0.930896 0.608310 0.323452
Si Si6 0.000000 0.806411 0.000000
O O1 0.500000 0.463943 0.500000
O O2 0.680378 0.398666 0.724798
O O3 0.610125 0.655437 0.691938
O O4 0.655565 0.503772 0.400869
O O5 0.682102 0.813904 0.461283
O O6 0.696505 0.660074 0.142005
O O7 0.829399 0.650825 0.382106
O O8 0.761536 0.377285 0.188941
O O9 0.929257 0.436022 0.298363
O O10 0.583030 0.412090 0.083464
O O11 0.000000 0.649455 0.500000
O O12 0.959629 0.699442 0.149673
#
# Coordination Sequence:
#
# PCOD9120248 Si02
#       6
#     4   4   4   4   4   2
#     4  10  17  32  64  98 125 166 217 271 341 409
#     4   9  18  36  64  92 124 170 220 276 339 397
#     4   9  19  37  64  95 131 174 220 272 336 412
#     4   9  20  37  57  90 129 170 224 279 332 395
#     4  11  22  40  67  97 134 179 224 278 342 412
#     4  12  24  40  66 100 140 184 236 284 340 410
#
# _framework density 23.450195999999998
#
# number of rings (size 3 to 8) (size 9 to 14) (size 15 to 20)
#    0.000    2.182    0.000    5.455    0.000    0.000 
#    0.000   10.909    0.000   18.545    0.000    0.000 
#    0.000    0.000    0.000    0.000    0.000    0.000 
#
# Total GULP energy -61246.547935 kJ/mol
# GULP energy per Si atom -5567.867994 kJ/mol
# Density = 2.339682 g / cm^3
# Si number density = 23.450196 Si / 1000 Ang^3
#
#
#
# Elastic Constant Matrix: (Units=GPa)
#
#
# Indices 1 2 3 4 5 6 
#
# 1 110.9458 60.9695 45.8976 0.0000 13.5732 0.0000
# 2 60.9695 237.2069 56.0053 0.0000 22.7946 0.0000
# 3 45.8976 56.0053 85.4098 0.0000 7.8969 0.0000
# 4 0.0000 0.0000 0.0000 66.6352 0.0000 -7.2210
# 5 13.5732 22.7946 7.8969 0.0000 34.7262 0.0000
# 6 0.0000 0.0000 0.0000 -7.2210 0.0000 30.9647
#
#
#
# Elastic Compliance Matrix: (Units=1/GPa)
#
#
# Indices 1 2 3 4 5 6 
#
# 1 0.012472 -0.001697 -0.005354 0.000000 -0.002543 0.000000
# 2 -0.001697 0.005457 -0.002448 0.000000 -0.002362 0.000000
# 3 -0.005354 -0.002448 0.016189 0.000000 0.000018 0.000000
# 4 0.000000 0.000000 0.000000 0.015396 0.000000 0.003590
# 5 -0.002543 -0.002362 0.000018 0.000000 0.031337 0.000000
# 6 0.000000 0.000000 0.000000 0.003590 0.000000 0.033132
#
#
# Mechanical properties :
#
#
# Convention : Reuss Voigt Hill
#
# Bulk Modulus (GPa) = 66.13964 84.36748 75.25356
# Shear Modulus (GPa) = 36.22615 44.51123 40.36869
#
# Velocity S-wave (km/s) = 3.93467 4.36147 4.15356
# Velocity P-wave (km/s) = 6.99341 7.83700 7.42719
#
# Compressibility (1/GPa) = 0.01511953
#
# Stress axis : x y z
#
# Youngs Moduli (GPa) = 80.17771 183.25559 61.77048
#
# Poissons Ratio (x) = 0.31102 0.33074
# Poissons Ratio (y) = 0.13608 0.15120
# Poissons Ratio (z) = 0.42930 0.44857
#
# Static dielectric constant tensor:
#      x y z
#    x 1.853570 0.000000 0.036790 
#    y 0.000000 2.034290 0.000000 
#    z 0.036790 0.000000 1.912340 
# 
# From -- ./inp_files/22908.got.cif
#   From: 2010.05.17/outbox.cif.g08.bks.cpg/sg5_12_cif.got.tgz:22908.got - 2010.06.03 18:56:24.
