data_PCOD9120560
_publ_section_title
;
Structure prediction by ZEFSAII (Michael W. Deem and Ramdas Pophale) SiO2 
 PCOD9120560
Probable space group: C 2
;
_chemical_formula_sum "Si O2"
_cell_formula_units_Z 30
_cell_length_a 17.873101
_cell_length_b 14.682097
_cell_length_c 8.741032
_cell_angle_alpha 90.000000
_cell_angle_beta 143.084339
_cell_angle_gamma 90.000000
_cell_volume 1377.729893
_symmetry_space_group_name_H-M "C 2"
_symmetry_group_IT_number 5
_symmetry_cell_setting 'monoclinic'
loop_
_space_group_symop_operation_xyz
x,y,z
-x,y,-z
1/2+x,1/2+y,z
1/2-x,1/2+y,-z
loop_
_atom_site_type_symbol
_atom_site_label
_atom_site_fract_x
_atom_site_fract_y
_atom_site_fract_z
Si Si1 0.623386 0.921470 0.406689
Si Si2 0.302402 0.433025 0.999527
Si Si3 0.172252 0.743103 0.010747
Si Si4 0.785304 0.596433 0.532933
Si Si5 0.105006 0.219206 0.435508
Si Si6 0.500000 0.216844 0.000000
Si Si7 0.079910 0.086436 0.972763
Si Si8 0.412675 0.039652 0.207285
O O1 0.710127 0.920774 0.700846
O O2 0.601932 0.815316 0.340492
O O3 0.694345 0.989107 0.406899
O O4 0.496346 0.977070 0.231574
O O5 0.343178 0.332517 0.117262
O O6 0.413029 0.496710 0.118539
O O7 0.216825 0.487439 0.977229
O O8 0.320552 0.734733 0.286538
O O9 0.121856 0.644089 0.885070
O O10 0.094389 0.767995 0.040179
O O11 0.694373 0.645237 0.501569
O O12 0.911759 0.652094 0.754615
O O13 0.719536 0.606017 0.261044
O O14 0.973254 0.170669 0.209329
O O15 0.000000 0.073787 0.000000
O O16 0.500000 0.041523 0.500000
#
# Coordination Sequence:
#
# PCOD9120560 Si02
#       8
#     4   4   4   4   4   2   4   4
#     4   9  17  35  56  76 110 147 191 226 271 335
#     4   9  20  34  57  81 106 155 185 224 284 334
#     4  10  20  36  57  86 111 142 192 233 283 327
#     4   9  17  33  51  83 111 142 177 231 276 332
#     4   9  19  34  54  82 110 146 184 227 279 330
#     4  10  18  32  60  84 116 136 182 244 282 318
#     4   9  18  35  54  77 117 146 184 221 281 337
#     4  10  20  37  58  80 111 150 196 228 268 339
#
# _framework density 21.77495
#
# number of rings (size 3 to 8) (size 9 to 14) (size 15 to 20)
#    0.000    2.667    1.333    0.000    0.933    1.067 
#    6.000    3.333    0.000    0.000    0.000    0.000 
#    0.000    0.000    0.000    0.000    0.000    0.000 
#
# Total GULP energy -83508.233581 kJ/mol
# GULP energy per Si atom -5567.215572 kJ/mol
# Density = 2.172539 g / cm^3
# Si number density = 21.774950 Si / 1000 Ang^3
#
#
#
# Elastic Constant Matrix: (Units=GPa)
#
#
# Indices 1 2 3 4 5 6 
#
# 1 41.7667 37.0267 -2.5332 0.0000 15.4765 0.0000
# 2 37.0267 178.0499 26.6715 0.0000 18.4536 0.0000
# 3 -2.5332 26.6715 77.0474 0.0000 10.9767 0.0000
# 4 0.0000 0.0000 0.0000 30.8322 0.0000 2.5270
# 5 15.4765 18.4536 10.9767 0.0000 12.4677 0.0000
# 6 0.0000 0.0000 0.0000 2.5270 0.0000 22.3725
#
#
#
# Elastic Compliance Matrix: (Units=1/GPa)
#
#
# Indices 1 2 3 4 5 6 
#
# 1 0.059424 -0.006623 0.015275 0.000000 -0.077411 0.000000
# 2 -0.006623 0.007444 -0.002740 0.000000 -0.000385 0.000000
# 3 0.015275 -0.002740 0.018927 0.000000 -0.031570 0.000000
# 4 0.000000 0.000000 0.000000 0.032737 0.000000 -0.003698
# 5 -0.077411 -0.000385 -0.031570 0.000000 0.204664 0.000000
# 6 0.000000 0.000000 0.000000 -0.003698 0.000000 0.045115
#
#
# Mechanical properties :
#
#
# Convention : Reuss Voigt Hill
#
# Bulk Modulus (GPa) = 10.24381 46.57711 28.41046
# Shear Modulus (GPa) = 12.85260 28.84775 20.85017
#
# Velocity S-wave (km/s) = 2.43214 3.64375 3.09776
# Velocity P-wave (km/s) = 3.54988 6.25613 5.08630
#
# Compressibility (1/GPa) = 0.09761991
#
# Stress axis : x y z
#
# Youngs Moduli (GPa) = 16.82816 134.33759 52.83380
#
# Poissons Ratio (x) = 0.88968 -0.80702
# Poissons Ratio (y) = 0.11145 0.14475
# Poissons Ratio (z) = -0.25705 0.36806
#
# Static dielectric constant tensor:
#      x y z
#    x 1.862780 0.000000 0.004200 
#    y 0.000000 1.820840 0.000000 
#    z 0.004200 0.000000 1.881160 
# 
# From -- ./inp_files/39146.got.cif
#   From: 2010.05.17/outbox.cif.g08.bks.cpg/sg5_20_cif.got.tgz:39146.got - 2010.06.03 18:56:24.
