data_PCOD9120944
_publ_section_title
;
Structure prediction by ZEFSAII (Michael W. Deem and Ramdas Pophale) SiO2 
 PCOD9120944
Probable space group: C 2
;
_chemical_formula_sum "Si O2"
_cell_formula_units_Z 26
_cell_length_a 12.208275
_cell_length_b 7.273670
_cell_length_c 11.632021
_cell_angle_alpha 90.000000
_cell_angle_beta 83.992493
_cell_angle_gamma 90.000000
_cell_volume 1027.238858
_symmetry_space_group_name_H-M "C 2"
_symmetry_group_IT_number 5
_symmetry_cell_setting 'monoclinic'
loop_
_space_group_symop_operation_xyz
x,y,z
-x,y,-z
1/2+x,1/2+y,z
1/2-x,1/2+y,-z
loop_
_atom_site_type_symbol
_atom_site_label
_atom_site_fract_x
_atom_site_fract_y
_atom_site_fract_z
Si Si1 0.787054 0.479120 0.930443
Si Si2 0.911279 0.723495 0.240753
Si Si3 0.500000 0.192470 0.000000
Si Si4 0.968470 0.159579 0.628750
Si Si5 0.187169 0.101143 0.706996
Si Si6 0.801001 0.071700 0.827893
Si Si7 0.916693 0.571673 0.609232
O O1 0.729345 0.595179 0.834262
O O2 0.813188 0.281678 0.872396
O O3 0.899716 0.567926 0.964107
O O4 0.710364 0.460657 0.052397
O O5 0.815782 0.575810 0.225109
O O6 0.016441 0.634749 0.286991
O O7 0.855785 0.892677 0.312535
O O8 0.950968 0.800550 0.112937
O O9 0.895492 0.038598 0.723819
O O10 0.905645 0.350360 0.611286
O O11 0.000000 0.080663 0.500000
O O12 0.080046 0.212643 0.683669
O O13 0.294138 0.149299 0.621066
O O14 0.000000 0.622799 0.500000
#
# Coordination Sequence:
#
# PCOD9120944 Si02
#       7
#     4   4   2   4   4   4   4
#     4  10  21  39  65  96 131 169 221 270 326 392
#     4  10  21  41  66  91 135 167 215 273 324 390
#     4  10  18  36  68  92 130 170 208 270 334 388
#     4  11  25  45  67  97 139 173 219 276 324 395
#     4  11  24  43  65 100 131 167 229 268 327 396
#     4  10  22  41  64  97 133 172 216 272 325 390
#     4  11  24  44  67  93 132 178 219 272 325 393
#
# _framework density 25.310569000000001
#
# number of rings (size 3 to 8) (size 9 to 14) (size 15 to 20)
#    0.000    1.538    4.615    0.000    2.154    8.615 
#    2.769    0.000    0.000    0.000    0.000    0.000 
#    0.000    0.000    0.000    0.000    0.000    0.000 
#
# Total GULP energy -72757.483532 kJ/mol
# GULP energy per Si atom -5596.729502 kJ/mol
# Density = 2.525296 g / cm^3
# Si number density = 25.310569 Si / 1000 Ang^3
#
#
#
# Elastic Constant Matrix: (Units=GPa)
#
#
# Indices 1 2 3 4 5 6 
#
# 1 155.4743 -1.0956 44.2059 0.0000 -24.4082 0.0000
# 2 -1.0956 43.0884 18.4993 0.0000 0.1922 0.0000
# 3 44.2059 18.4993 139.2925 0.0000 -36.8709 0.0000
# 4 0.0000 0.0000 0.0000 17.9630 0.0000 5.6277
# 5 -24.4082 0.1922 -36.8709 0.0000 54.9288 0.0000
# 6 0.0000 0.0000 0.0000 5.6277 0.0000 27.0205
#
#
#
# Elastic Compliance Matrix: (Units=1/GPa)
#
#
# Indices 1 2 3 4 5 6 
#
# 1 0.007294 0.001008 -0.001935 0.000000 0.001938 0.000000
# 2 0.001008 0.025103 -0.004327 0.000000 -0.002545 0.000000
# 3 -0.001935 -0.004327 0.009904 0.000000 0.005803 0.000000
# 4 0.000000 0.000000 0.000000 0.059556 0.000000 -0.012404
# 5 0.001938 -0.002545 0.005803 0.000000 0.022971 0.000000
# 6 0.000000 0.000000 0.000000 -0.012404 0.000000 0.039592
#
#
# Mechanical properties :
#
#
# Convention : Reuss Voigt Hill
#
# Bulk Modulus (GPa) = 31.45570 51.23049 41.34309
# Shear Modulus (GPa) = 26.95022 38.39884 32.67453
#
# Velocity S-wave (km/s) = 3.26664 3.89923 3.59687
# Velocity P-wave (km/s) = 5.16554 6.36841 5.79825
#
# Compressibility (1/GPa) = 0.03179074
#
# Stress axis : x y z
#
# Youngs Moduli (GPa) = 137.10573 39.83602 100.96703
#
# Poissons Ratio (x) = -0.04015 0.19542
# Poissons Ratio (y) = -0.13817 0.43692
# Poissons Ratio (z) = 0.26537 0.17238
#
# Static dielectric constant tensor:
#      x y z
#    x 1.984720 0.000000 -0.033740 
#    y 0.000000 1.995350 0.000000 
#    z -0.033740 0.000000 2.056920 
# 
# From -- ./inp_files/38388.got.cif
#   From: 2010.05.17/outbox.cif.g08.bks.cpg/sg5_20_cif.got.tgz:38388.got - 2010.06.03 18:56:24.
