data_PCOD9120357
_publ_section_title
;
Structure prediction by ZEFSAII (Michael W. Deem and Ramdas Pophale) SiO2 
 PCOD9120357
Probable space group: C 2
;
_chemical_formula_sum "Si O2"
_cell_formula_units_Z 30
_cell_length_a 24.357981
_cell_length_b 13.937913
_cell_length_c 9.454272
_cell_angle_alpha 90.000000
_cell_angle_beta 150.506084
_cell_angle_gamma 90.000000
_cell_volume 1580.245031
_symmetry_space_group_name_H-M "C 2"
_symmetry_group_IT_number 5
_symmetry_cell_setting 'monoclinic'
loop_
_space_group_symop_operation_xyz
x,y,z
-x,y,-z
1/2+x,1/2+y,z
1/2-x,1/2+y,-z
loop_
_atom_site_type_symbol
_atom_site_label
_atom_site_fract_x
_atom_site_fract_y
_atom_site_fract_z
Si Si1 0.289439 0.378000 0.516297
Si Si2 0.782200 0.208102 0.337301
Si Si3 0.687312 0.497329 0.700889
Si Si4 0.500000 0.658184 0.000000
Si Si5 0.252807 0.916052 0.146219
Si Si6 0.378901 0.972018 0.665833
Si Si7 0.932468 0.988286 0.050079
Si Si8 0.633507 0.182094 0.276107
O O1 0.264819 0.447805 0.332306
O O2 0.192054 0.392592 0.410836
O O3 0.310040 0.270113 0.514903
O O4 0.396025 0.413657 0.845907
O O5 0.900582 0.210538 0.690548
O O6 0.756478 0.302195 0.186284
O O7 0.681609 0.195854 0.225434
O O8 0.791501 0.110979 0.265402
O O9 0.555014 0.476643 0.389727
O O10 0.735114 0.448580 0.947577
O O11 0.560894 0.588897 0.020905
O O12 0.366818 0.954249 0.473045
O O13 0.156474 0.967875 0.025269
O O14 0.331250 0.076976 0.594721
O O15 0.500000 0.968838 0.000000
O O16 0.500000 0.188162 0.000000
#
# Coordination Sequence:
#
# PCOD9120357 Si02
#       8
#     4   4   4   2   4   4   4   4
#     4  11  19  36  66  89 117 157 218 256 302 364
#     4  11  21  38  64  97 126 164 211 261 317 366
#     4  11  22  38  60  92 133 159 201 266 317 373
#     4  10  20  36  70  96 118 160 218 270 296 362
#     4  11  24  37  60  93 129 164 201 258 324 374
#     4  10  22  40  60  85 124 166 207 253 307 374
#     4  10  17  37  62  92 117 157 207 258 311 350
#     4  11  21  36  64  95 120 154 215 258 302 369
#
# _framework density 18.984396
#
# number of rings (size 3 to 8) (size 9 to 14) (size 15 to 20)
#    0.000    1.333    6.667    2.000    0.933    1.067 
#    0.000    0.667    0.000    3.200    0.000    0.000 
#    0.000    0.000    0.000    0.000    0.000    0.000 
#
# Total GULP energy -83609.445856 kJ/mol
# GULP energy per Si atom -5573.963057 kJ/mol
# Density = 1.894119 g / cm^3
# Si number density = 18.984396 Si / 1000 Ang^3
#
#
#
# Elastic Constant Matrix: (Units=GPa)
#
#
# Indices 1 2 3 4 5 6 
#
# 1 42.9472 34.8262 45.7407 0.0000 -7.6871 0.0000
# 2 34.8262 140.3983 47.9663 0.0000 -8.9779 0.0000
# 3 45.7407 47.9663 118.4527 0.0000 -18.9695 0.0000
# 4 0.0000 0.0000 0.0000 23.8414 0.0000 -3.4316
# 5 -7.6871 -8.9779 -18.9695 0.0000 38.5166 0.0000
# 6 0.0000 0.0000 0.0000 -3.4316 0.0000 29.2395
#
#
#
# Elastic Compliance Matrix: (Units=1/GPa)
#
#
# Indices 1 2 3 4 5 6 
#
# 1 0.043316 -0.005835 -0.014327 0.000000 0.000229 0.000000
# 2 -0.005835 0.009056 -0.001370 0.000000 0.000271 0.000000
# 3 -0.014327 -0.001370 0.015221 0.000000 0.004318 0.000000
# 4 0.000000 0.000000 0.000000 0.042665 0.000000 0.005007
# 5 0.000229 0.000271 0.004318 0.000000 0.028198 0.000000
# 6 0.000000 0.000000 0.000000 0.005007 0.000000 0.034788
#
#
# Mechanical properties :
#
#
# Convention : Reuss Voigt Hill
#
# Bulk Modulus (GPa) = 40.77055 62.09608 51.43331
# Shear Modulus (GPa) = 22.27329 29.87049 26.07189
#
# Velocity S-wave (km/s) = 3.42898 3.97094 3.70987
# Velocity P-wave (km/s) = 6.09915 7.33516 6.74552
#
# Compressibility (1/GPa) = 0.02452751
#
# Stress axis : x y z
#
# Youngs Moduli (GPa) = 23.08607 110.42979 65.69935
#
# Poissons Ratio (x) = 0.64439 0.94128
# Poissons Ratio (y) = 0.13471 0.09002
# Poissons Ratio (z) = 0.33075 0.15131
#
# Static dielectric constant tensor:
#      x y z
#    x 1.662790 0.000000 0.031310 
#    y 0.000000 1.705570 0.000000 
#    z 0.031310 0.000000 1.692830 
# 
# From -- ./inp_files/31024.got.cif
#   From: 2010.05.17/outbox.cif.g08.bks.cpg/sg5_16_cif.got.tgz:31024.got - 2010.06.03 18:56:24.
