data_PCOD9120352
_publ_section_title
;
Structure prediction by ZEFSAII (Michael W. Deem and Ramdas Pophale) SiO2 
 PCOD9120352
Probable space group: C 2
;
_chemical_formula_sum "Si O2"
_cell_formula_units_Z 26
_cell_length_a 20.258765
_cell_length_b 10.414412
_cell_length_c 12.936612
_cell_angle_alpha 90.000000
_cell_angle_beta 157.883644
_cell_angle_gamma 90.000000
_cell_volume 1027.590939
_symmetry_space_group_name_H-M "C 2"
_symmetry_group_IT_number 5
_symmetry_cell_setting 'monoclinic'
loop_
_space_group_symop_operation_xyz
x,y,z
-x,y,-z
1/2+x,1/2+y,z
1/2-x,1/2+y,-z
loop_
_atom_site_type_symbol
_atom_site_label
_atom_site_fract_x
_atom_site_fract_y
_atom_site_fract_z
Si Si1 0.000000 0.927310 0.000000
Si Si2 0.260099 0.073114 0.731001
Si Si3 0.000000 0.781792 0.500000
Si Si4 0.000000 0.237048 0.500000
Si Si5 0.916849 0.731759 0.723799
Si Si6 0.269046 0.766498 0.741819
Si Si7 0.983152 0.102932 0.168467
Si Si8 0.316910 0.391153 0.044050
O O1 0.126266 0.829702 0.244924
O O2 0.938253 0.017629 0.002238
O O3 0.126153 0.148297 0.612593
O O4 0.178153 0.099781 0.497770
O O5 0.248809 0.919535 0.714907
O O6 0.453937 0.121435 0.044562
O O7 0.114764 0.703318 0.586410
O O8 0.125118 0.865421 0.754885
O O9 0.127275 0.331348 0.749424
O O10 0.759494 0.711746 0.414317
O O11 0.051021 0.812387 0.841266
O O12 0.434677 0.739980 0.053765
O O13 0.857822 0.038651 0.073843
#
# Coordination Sequence:
#
# PCOD9120352 Si02
#       8
#     2   4   2   2   4   4   4   4
#     4  10  20  46  66  84 124 166 194 272 310 354
#     4  11  21  42  63  94 124 164 202 256 294 377
#     4  10  17  37  60  80 130 161 195 236 302 348
#     4  10  21  37  64  86 130 167 205 238 310 352
#     4   9  21  41  65  84 122 158 209 251 309 349
#     4  11  22  41  61  97 123 164 201 253 301 377
#     4  11  23  40  65  90 128 156 208 258 311 356
#     4   9  19  38  57  91 118 167 200 246 296 368
#
# _framework density 25.301895999999999
#
# number of rings (size 3 to 8) (size 9 to 14) (size 15 to 20)
#    0.000    1.846    4.615    1.385    0.000    1.846 
#   11.077    0.769    0.000    0.000    0.000    0.000 
#    0.000    0.000    0.000    0.000    0.000    0.000 
#
# Total GULP energy -72536.158992 kJ/mol
# GULP energy per Si atom -5579.704538 kJ/mol
# Density = 2.524431 g / cm^3
# Si number density = 25.301896 Si / 1000 Ang^3
#
#
#
# Elastic Constant Matrix: (Units=GPa)
#
#
# Indices 1 2 3 4 5 6 
#
# 1 96.0192 -0.2011 42.3625 0.0000 -20.9463 0.0000
# 2 -0.2011 76.1719 68.0245 0.0000 -12.3981 0.0000
# 3 42.3625 68.0245 194.1204 0.0000 -28.8386 0.0000
# 4 0.0000 0.0000 0.0000 36.2642 0.0000 -4.0970
# 5 -20.9463 -12.3981 -28.8386 0.0000 55.4146 0.0000
# 6 0.0000 0.0000 0.0000 -4.0970 0.0000 16.7024
#
#
#
# Elastic Compliance Matrix: (Units=1/GPa)
#
#
# Indices 1 2 3 4 5 6 
#
# 1 0.012844 0.003862 -0.003584 0.000000 0.003854 0.000000
# 2 0.003862 0.020306 -0.007659 0.000000 0.002017 0.000000
# 3 -0.003584 -0.007659 0.008845 0.000000 0.001535 0.000000
# 4 0.000000 0.000000 0.000000 0.028361 0.000000 0.006957
# 5 0.003854 0.002017 0.001535 0.000000 0.020753 0.000000
# 6 0.000000 0.000000 0.000000 0.006957 0.000000 0.061578
#
#
# Mechanical properties :
#
#
# Convention : Reuss Voigt Hill
#
# Bulk Modulus (GPa) = 36.71837 65.18704 50.95270
# Shear Modulus (GPa) = 28.32400 38.75128 33.53764
#
# Velocity S-wave (km/s) = 3.34944 3.91776 3.64469
# Velocity P-wave (km/s) = 5.43157 6.80329 6.15575
#
# Compressibility (1/GPa) = 0.02723433
#
# Stress axis : x y z
#
# Youngs Moduli (GPa) = 77.85442 49.24558 113.05290
#
# Poissons Ratio (x) = -0.19016 0.40514
# Poissons Ratio (y) = -0.30064 0.86586
# Poissons Ratio (z) = 0.27900 0.37717
#
# Static dielectric constant tensor:
#      x y z
#    x 2.141640 0.000000 0.053600 
#    y 0.000000 2.081410 0.000000 
#    z 0.053600 0.000000 2.117530 
# 
# From -- ./inp_files/58164.got.cif
#   From: 2010.05.17/outbox.cif.g08.bks.cpg/sg5_30_cif.got.tgz:58164.got - 2010.06.03 18:56:24.
