data_PCOD9120139
_publ_section_title
;
Structure prediction by ZEFSAII (Michael W. Deem and Ramdas Pophale) SiO2 
 PCOD9120139
Probable space group: C 2
;
_chemical_formula_sum "Si O2"
_cell_formula_units_Z 32
_cell_length_a 10.866242
_cell_length_b 22.829771
_cell_length_c 9.351717
_cell_angle_alpha 90.000000
_cell_angle_beta 43.401614
_cell_angle_gamma 90.000000
_cell_volume 1594.032879
_symmetry_space_group_name_H-M "C 2"
_symmetry_group_IT_number 5
_symmetry_cell_setting 'monoclinic'
loop_
_space_group_symop_operation_xyz
x,y,z
-x,y,-z
1/2+x,1/2+y,z
1/2-x,1/2+y,-z
loop_
_atom_site_type_symbol
_atom_site_label
_atom_site_fract_x
_atom_site_fract_y
_atom_site_fract_z
Si Si1 0.181686 0.022330 0.750643
Si Si2 0.802851 0.128000 0.091488
Si Si3 0.357972 0.851601 0.855302
Si Si4 0.725923 0.352971 0.413864
Si Si5 0.445164 0.566460 0.703321
Si Si6 0.714762 0.757945 0.853683
Si Si7 0.173461 0.891302 0.754704
Si Si8 0.794468 0.451097 0.127367
O O1 0.285327 0.072423 0.752339
O O2 0.117601 0.047001 0.651851
O O3 0.253543 0.956919 0.670631
O O4 0.000000 0.014860 0.000000
O O5 0.719690 0.191828 0.181199
O O6 0.839746 0.111259 0.895735
O O7 0.000000 0.132285 0.000000
O O8 0.569010 0.849913 0.705610
O O9 0.307677 0.852070 0.733089
O O10 0.272966 0.798167 0.015837
O O11 0.298245 0.913169 0.978656
O O12 0.696543 0.293964 0.350316
O O13 0.619774 0.366234 0.646514
O O14 0.716484 0.407127 0.312673
O O15 0.500000 0.587911 0.500000
O O16 0.322790 0.508806 0.788425
O O17 0.500000 0.756716 0.000000
O O18 0.000000 0.893318 0.000000
O O19 0.000000 0.463794 0.000000
#
# Coordination Sequence:
#
# PCOD9120139 Si02
#       8
#     4   4   4   4   4   4   4   4
#     4   8  16  27  42  66  97 124 146 182 231 277
#     4   8  15  29  47  68  92 120 153 194 235 268
#     4   9  17  30  47  69  93 119 157 197 229 267
#     4   9  18  30  47  70  95 124 157 194 233 278
#     4  10  17  27  45  72  97 119 154 196 233 276
#     4   8  15  31  50  66  88 119 159 198 231 270
#     4  11  19  29  45  72 102 124 148 189 241 284
#     4   9  17  29  45  67  98 131 156 184 229 282
#
# _framework density 20.074869
#
# number of rings (size 3 to 8) (size 9 to 14) (size 15 to 20)
#    0.000    3.250    0.000    4.875    0.000    0.000 
#    0.000    6.875    0.000    0.750    0.000   15.750 
#    0.000    1.000    0.000    0.000    0.000    0.000 
#
# Total GULP energy -89217.405374 kJ/mol
# GULP energy per Si atom -5576.087836 kJ/mol
# Density = 2.002918 g / cm^3
# Si number density = 20.074869 Si / 1000 Ang^3
#
#
#
# Elastic Constant Matrix: (Units=GPa)
#
#
# Indices 1 2 3 4 5 6 
#
# 1 59.6480 21.3183 32.6537 0.0000 17.0178 0.0000
# 2 21.3183 139.8772 45.9107 0.0000 18.2921 0.0000
# 3 32.6537 45.9107 96.9502 0.0000 33.2174 0.0000
# 4 0.0000 0.0000 0.0000 2.9736 0.0000 -2.8219
# 5 17.0178 18.2921 33.2174 0.0000 37.7299 0.0000
# 6 0.0000 0.0000 0.0000 -2.8219 0.0000 10.3042
#
#
#
# Elastic Compliance Matrix: (Units=1/GPa)
#
#
# Indices 1 2 3 4 5 6 
#
# 1 0.021221 -0.000952 -0.005120 0.000000 -0.004603 0.000000
# 2 -0.000952 0.008525 -0.003505 0.000000 -0.000618 0.000000
# 3 -0.005120 -0.003505 0.017649 0.000000 -0.011530 0.000000
# 4 0.000000 0.000000 0.000000 0.454387 0.000000 0.124439
# 5 -0.004603 -0.000618 -0.011530 0.000000 0.039031 0.000000
# 6 0.000000 0.000000 0.000000 0.124439 0.000000 0.131126
#
#
# Mechanical properties :
#
#
# Convention : Reuss Voigt Hill
#
# Bulk Modulus (GPa) = 35.40722 55.13788 45.27255
# Shear Modulus (GPa) = 7.13769 23.30772 15.22270
#
# Velocity S-wave (km/s) = 1.88766 3.41110 2.75671
# Velocity P-wave (km/s) = 4.73570 6.56048 5.72131
#
# Compressibility (1/GPa) = 0.02824283
#
# Stress axis : x y z
#
# Youngs Moduli (GPa) = 47.12278 117.29653 56.66059
#
# Poissons Ratio (x) = 0.11166 0.29008
# Poissons Ratio (y) = 0.04486 0.19858
# Poissons Ratio (z) = 0.24125 0.41109
#
# Static dielectric constant tensor:
#      x y z
#    x 1.760330 0.000000 -0.037220 
#    y 0.000000 1.728700 0.000000 
#    z -0.037220 0.000000 1.768110 
# 
# From -- ./inp_files/21944.got.cif
#   From: 2010.05.17/outbox.cif.g08.bks.cpg/sg5_11_cif.got.tgz:21944.got - 2010.06.03 18:56:24.
