data_PCOD9120784
_publ_section_title
;
Structure prediction by ZEFSAII (Michael W. Deem and Ramdas Pophale) SiO2 
 PCOD9120784
Probable space group: C 2
;
_chemical_formula_sum "Si O2"
_cell_formula_units_Z 24
_cell_length_a 14.880983
_cell_length_b 8.328203
_cell_length_c 15.802715
_cell_angle_alpha 90.000000
_cell_angle_beta 33.964283
_cell_angle_gamma 90.000000
_cell_volume 1094.144390
_symmetry_space_group_name_H-M "C 2"
_symmetry_group_IT_number 5
_symmetry_cell_setting 'monoclinic'
loop_
_space_group_symop_operation_xyz
x,y,z
-x,y,-z
1/2+x,1/2+y,z
1/2-x,1/2+y,-z
loop_
_atom_site_type_symbol
_atom_site_label
_atom_site_fract_x
_atom_site_fract_y
_atom_site_fract_z
Si Si1 0.368799 0.651950 0.290131
Si Si2 0.418227 0.689811 0.644926
Si Si3 0.695679 0.526911 0.102110
Si Si4 0.430408 0.168470 0.798623
Si Si5 0.737665 0.829797 0.481355
Si Si6 0.344123 0.039001 0.680980
O O1 0.557915 0.624723 0.156926
O O2 0.297104 0.809761 0.391459
O O3 0.290539 0.501628 0.404262
O O4 0.304798 0.629764 0.245650
O O5 0.500000 0.606681 0.500000
O O6 0.325962 0.582631 0.784262
O O7 0.571410 0.770147 0.571815
O O8 0.315955 0.846577 0.698408
O O9 0.653598 0.341467 0.129318
O O10 0.864465 0.564177 0.927185
O O11 0.617656 0.210502 0.654989
O O12 0.382488 0.089587 0.746513
O O13 0.500000 0.072339 0.500000
#
# Coordination Sequence:
#
# PCOD9120784 Si02
#       6
#     4   4   4   4   4   4
#     4  10  20  36  59  88 112 152 190 236 286 345
#     4  10  19  37  64  87 115 143 194 239 289 344
#     4  10  24  39  58  83 118 158 193 232 291 340
#     4  11  22  38  59  82 121 153 194 235 287 341
#     4  10  18  35  58  88 111 149 188 232 288 344
#     4  11  19  36  64  89 116 144 192 240 291 334
#
# _framework density 21.934947000000001
#
# number of rings (size 3 to 8) (size 9 to 14) (size 15 to 20)
#    0.000    1.667    5.000    1.000    0.000    2.667 
#    3.000    0.833    3.667    0.000    0.000    0.000 
#    0.000    0.000    0.000    0.000    0.000    0.000 
#
# Total GULP energy -67042.344007 kJ/mol
# GULP energy per Si atom -5586.862001 kJ/mol
# Density = 2.188502 g / cm^3
# Si number density = 21.934947 Si / 1000 Ang^3
#
#
#
# Elastic Constant Matrix: (Units=GPa)
#
#
# Indices 1 2 3 4 5 6 
#
# 1 48.2138 -5.5003 10.1280 0.0000 16.1479 0.0000
# 2 -5.5003 43.5099 24.6402 0.0000 3.2639 0.0000
# 3 10.1280 24.6402 93.7865 0.0000 12.3494 0.0000
# 4 0.0000 0.0000 0.0000 36.0707 0.0000 8.8184
# 5 16.1479 3.2639 12.3494 0.0000 29.1616 0.0000
# 6 0.0000 0.0000 0.0000 8.8184 0.0000 28.4894
#
#
#
# Elastic Compliance Matrix: (Units=1/GPa)
#
#
# Indices 1 2 3 4 5 6 
#
# 1 0.026776 0.005908 -0.002546 0.000000 -0.014410 0.000000
# 2 0.005908 0.028304 -0.007653 0.000000 -0.003198 0.000000
# 3 -0.002546 -0.007653 0.013397 0.000000 -0.003407 0.000000
# 4 0.000000 0.000000 0.000000 0.029993 0.000000 -0.009284
# 5 -0.014410 -0.003198 -0.003407 0.000000 0.044072 0.000000
# 6 0.000000 0.000000 0.000000 -0.009284 0.000000 0.037974
#
#
# Mechanical properties :
#
#
# Convention : Reuss Voigt Hill
#
# Bulk Modulus (GPa) = 16.69623 27.11622 21.90622
# Shear Modulus (GPa) = 23.91617 29.16047 26.53832
#
# Velocity S-wave (km/s) = 3.30559 3.65006 3.48208
# Velocity P-wave (km/s) = 4.71141 5.49116 5.11616
#
# Compressibility (1/GPa) = 0.05989377
#
# Stress axis : x y z
#
# Youngs Moduli (GPa) = 37.34688 35.33063 74.64505
#
# Poissons Ratio (x) = -0.20873 0.19007
# Poissons Ratio (y) = -0.22064 0.57126
# Poissons Ratio (z) = 0.09509 0.27039
#
# Static dielectric constant tensor:
#      x y z
#    x 1.844770 0.000000 0.024260 
#    y 0.000000 1.828680 0.000000 
#    z 0.024260 0.000000 1.802260 
# 
# From -- ./inp_files/22913.got.cif
#   From: 2010.05.17/outbox.cif.g08.bks.cpg/sg5_12_cif.got.tgz:22913.got - 2010.06.03 18:56:24.
