data_PCOD9120599
_publ_section_title
;
Structure prediction by ZEFSAII (Michael W. Deem and Ramdas Pophale) SiO2 
 PCOD9120599
Probable space group: C 2
;
_chemical_formula_sum "Si O2"
_cell_formula_units_Z 26
_cell_length_a 19.871140
_cell_length_b 7.340540
_cell_length_c 12.363508
_cell_angle_alpha 90.000000
_cell_angle_beta 38.080551
_cell_angle_gamma 90.000000
_cell_volume 1112.281832
_symmetry_space_group_name_H-M "C 2"
_symmetry_group_IT_number 5
_symmetry_cell_setting 'monoclinic'
loop_
_space_group_symop_operation_xyz
x,y,z
-x,y,-z
1/2+x,1/2+y,z
1/2-x,1/2+y,-z
loop_
_atom_site_type_symbol
_atom_site_label
_atom_site_fract_x
_atom_site_fract_y
_atom_site_fract_z
Si Si1 0.011118 0.515400 0.837054
Si Si2 0.996210 0.414166 0.389679
Si Si3 0.000000 0.214031 0.000000
Si Si4 0.740960 0.895756 0.840988
Si Si5 0.265961 0.749662 0.940146
Si Si6 0.450632 0.406316 0.893517
Si Si7 0.568618 0.507376 0.520306
O O1 0.040963 0.509552 0.672763
O O2 0.012368 0.728213 0.864309
O O3 0.066783 0.356030 0.837568
O O4 0.885345 0.447216 0.010982
O O5 0.120708 0.355605 0.209887
O O6 0.000000 0.513746 0.500000
O O7 0.926558 0.228361 0.491529
O O8 0.944043 0.072224 0.986651
O O9 0.786660 0.056806 0.859822
O O10 0.815008 0.909316 0.642188
O O11 0.757433 0.728895 0.902146
O O12 0.166212 0.834400 0.999897
O O13 0.513351 0.465714 0.704867
O O14 0.500000 0.451883 0.500000
#
# Coordination Sequence:
#
# PCOD9120599 Si02
#       7
#     4   4   2   4   4   4   4
#     4  10  24  41  64  96 123 166 221 263 305 384
#     4  10  18  35  65  97 133 160 194 258 330 380
#     4  12  24  46  68  80 124 186 220 254 314 370
#     4  10  20  34  61  95 132 157 204 258 323 381
#     4  10  18  33  56  98 126 155 203 249 316 380
#     4  11  23  39  67  94 123 170 217 263 309 381
#     4  11  18  36  65  97 130 170 193 256 338 380
#
# _framework density 23.375371999999999
#
# number of rings (size 3 to 8) (size 9 to 14) (size 15 to 20)
#    0.000    1.538    6.154    0.462    2.154    0.615 
#    2.769    0.000   13.538    0.000    0.000    0.000 
#    0.000    0.000    0.000    0.000    0.000    0.000 
#
# Total GULP energy -72518.038764 kJ/mol
# GULP energy per Si atom -5578.310674 kJ/mol
# Density = 2.332217 g / cm^3
# Si number density = 23.375372 Si / 1000 Ang^3
#
#
#
# Elastic Constant Matrix: (Units=GPa)
#
#
# Indices 1 2 3 4 5 6 
#
# 1 61.3715 18.4441 31.9951 -0.0001 29.9470 0.0001
# 2 18.4441 122.8599 6.9909 0.0001 24.6295 -0.0001
# 3 31.9951 6.9909 102.3524 0.0000 23.6486 0.0000
# 4 -0.0001 0.0001 0.0000 30.7915 -0.0001 6.2820
# 5 29.9470 24.6295 23.6486 -0.0001 46.6153 0.0001
# 6 0.0001 -0.0001 0.0000 6.2820 0.0001 24.0217
#
#
#
# Elastic Compliance Matrix: (Units=1/GPa)
#
#
# Indices 1 2 3 4 5 6 
#
# 1 0.025716 -0.000856 -0.004834 0.000000 -0.013616 0.000000
# 2 -0.000856 0.009160 0.000717 0.000000 -0.004654 0.000000
# 3 -0.004834 0.000717 0.012010 0.000000 -0.003366 0.000000
# 4 0.000000 0.000000 0.000000 0.034307 0.000000 -0.008972
# 5 -0.013616 -0.004654 -0.003366 0.000000 0.034366 0.000000
# 6 0.000000 0.000000 0.000000 -0.008972 0.000000 0.043975
#
#
# Mechanical properties :
#
#
# Convention : Reuss Voigt Hill
#
# Bulk Modulus (GPa) = 27.07117 44.60490 35.83804
# Shear Modulus (GPa) = 27.50382 35.56263 31.53322
#
# Velocity S-wave (km/s) = 3.43390 3.90471 3.67685
# Velocity P-wave (km/s) = 5.22766 6.28112 5.77845
#
# Compressibility (1/GPa) = 0.03693966
#
# Stress axis : x y z
#
# Youngs Moduli (GPa) = 38.88677 109.17087 83.26310
#
# Poissons Ratio (x) = 0.09344 0.40252
# Poissons Ratio (y) = 0.03328 -0.05971
# Poissons Ratio (z) = 0.18799 -0.07829
#
# Static dielectric constant tensor:
#      x y z
#    x 1.985990 0.000000 0.024800 
#    y 0.000000 1.976530 0.000000 
#    z 0.024800 0.000000 1.958710 
# 
# From -- ./inp_files/47166.got.cif
#   From: 2010.05.17/outbox.cif.g08.bks.cpg/sg5_24_cif.got.tgz:47166.got - 2010.06.03 18:56:24.
