data_PCOD9120452
_publ_section_title
;
Structure prediction by ZEFSAII (Michael W. Deem and Ramdas Pophale) SiO2 
 PCOD9120452
Probable space group: C 2
;
_chemical_formula_sum "Si O2"
_cell_formula_units_Z 30
_cell_length_a 5.134993
_cell_length_b 18.388560
_cell_length_c 16.477439
_cell_angle_alpha 90.000000
_cell_angle_beta 75.428865
_cell_angle_gamma 90.000000
_cell_volume 1505.840865
_symmetry_space_group_name_H-M "C 2"
_symmetry_group_IT_number 5
_symmetry_cell_setting 'monoclinic'
loop_
_space_group_symop_operation_xyz
x,y,z
-x,y,-z
1/2+x,1/2+y,z
1/2-x,1/2+y,-z
loop_
_atom_site_type_symbol
_atom_site_label
_atom_site_fract_x
_atom_site_fract_y
_atom_site_fract_z
Si Si1 0.413096 0.573260 0.659807
Si Si2 0.220624 0.424316 0.630827
Si Si3 0.147426 0.530250 0.256364
Si Si4 0.212104 0.228597 0.357366
Si Si5 0.500000 0.837282 0.500000
Si Si6 0.737105 0.785496 0.731544
Si Si7 0.958792 0.953454 0.094565
Si Si8 0.458990 0.854414 0.094811
O O1 0.401726 0.496794 0.612719
O O2 0.677224 0.575020 0.693411
O O3 0.371384 0.646742 0.613713
O O4 0.143156 0.565859 0.736798
O O5 0.318936 0.364258 0.687208
O O6 0.941927 0.455455 0.691166
O O7 0.162386 0.386515 0.550449
O O8 0.328118 0.510752 0.165755
O O9 0.508828 0.233831 0.298155
O O10 0.189879 0.283596 0.434087
O O11 0.003853 0.256860 0.305786
O O12 0.645134 0.798217 0.830488
O O13 0.739098 0.888880 0.102884
O O14 0.236547 0.918955 0.104992
O O15 0.000000 0.982036 0.000000
O O16 0.500000 0.826154 0.000000
#
# Coordination Sequence:
#
# PCOD9120452 Si02
#       8
#     4   4   4   4   2   4   4   4
#     4  10  22  40  61  83 115 163 196 241 296 374
#     4   9  22  37  65  85 117 148 203 247 302 345
#     4  10  19  36  62  83 120 152 206 231 306 355
#     4  11  25  42  59  87 121 164 196 248 307 364
#     4  10  24  44  58  96 116 150 202 260 296 358
#     4  11  21  38  64  85 120 157 200 248 305 356
#     4  10  18  30  54  92 126 150 192 256 304 341
#     4  10  19  31  54  89 123 154 193 245 301 356
#
# _framework density 19.922423999999999
#
# number of rings (size 3 to 8) (size 9 to 14) (size 15 to 20)
#    0.800    1.067    1.333    3.200    5.600    2.133 
#    2.400    0.000    0.000    4.800    0.000    0.000 
#    0.000    0.000    0.000    0.000    0.000    0.000 
#
# Total GULP energy -83692.988203 kJ/mol
# GULP energy per Si atom -5579.532547 kJ/mol
# Density = 1.987708 g / cm^3
# Si number density = 19.922424 Si / 1000 Ang^3
#
#
#
# Elastic Constant Matrix: (Units=GPa)
#
#
# Indices 1 2 3 4 5 6 
#
# 1 59.9832 8.5191 -5.7442 0.0000 -6.8720 0.0000
# 2 8.5191 80.0821 17.0810 0.0000 7.7503 0.0000
# 3 -5.7442 17.0810 71.0169 0.0000 -0.3800 0.0000
# 4 0.0000 0.0000 0.0000 10.6220 0.0000 -0.1569
# 5 -6.8720 7.7503 -0.3800 0.0000 18.5871 0.0000
# 6 0.0000 0.0000 0.0000 -0.1569 0.0000 26.4141
#
#
#
# Elastic Compliance Matrix: (Units=1/GPa)
#
#
# Indices 1 2 3 4 5 6 
#
# 1 0.018283 -0.003224 0.002298 0.000000 0.008151 0.000000
# 2 -0.003224 0.014330 -0.003746 0.000000 -0.007244 0.000000
# 3 0.002298 -0.003746 0.015183 0.000000 0.002722 0.000000
# 4 0.000000 0.000000 0.000000 0.094153 0.000000 0.000559
# 5 0.008151 -0.007244 0.002722 0.000000 0.059890 0.000000
# 6 0.000000 0.000000 0.000000 0.000559 0.000000 0.037862
#
#
# Mechanical properties :
#
#
# Convention : Reuss Voigt Hill
#
# Bulk Modulus (GPa) = 26.00688 27.86600 26.93644
# Shear Modulus (GPa) = 19.09398 23.87305 21.48352
#
# Velocity S-wave (km/s) = 3.09919 3.46540 3.28740
# Velocity P-wave (km/s) = 5.08813 5.47993 5.28766
#
# Compressibility (1/GPa) = 0.03845136
#
# Stress axis : x y z
#
# Youngs Moduli (GPa) = 54.69546 69.78249 65.86475
#
# Poissons Ratio (x) = 0.22497 -0.15135
# Poissons Ratio (y) = 0.17633 0.24675
# Poissons Ratio (z) = -0.12568 0.26142
#
# Static dielectric constant tensor:
#      x y z
#    x 1.701510 0.000000 -0.021340 
#    y 0.000000 1.714900 0.000000 
#    z -0.021340 0.000000 1.698220 
# 
# From -- ./inp_files/49326.got.cif
#   From: 2010.05.17/outbox.cif.g08.bks.cpg/sg5_25_cif.got.tgz:49326.got - 2010.06.03 18:56:24.
