data_PCOD9120005
_publ_section_title
;
Structure prediction by ZEFSAII (Michael W. Deem and Ramdas Pophale) SiO2 
 PCOD9120005
Probable space group: C 2
;
_chemical_formula_sum "Si O2"
_cell_formula_units_Z 30
_cell_length_a 25.970603
_cell_length_b 11.868698
_cell_length_c 8.613864
_cell_angle_alpha 90.000000
_cell_angle_beta 151.514541
_cell_angle_gamma 90.000000
_cell_volume 1266.318541
_symmetry_space_group_name_H-M "C 2"
_symmetry_group_IT_number 5
_symmetry_cell_setting 'monoclinic'
loop_
_space_group_symop_operation_xyz
x,y,z
-x,y,-z
1/2+x,1/2+y,z
1/2-x,1/2+y,-z
loop_
_atom_site_type_symbol
_atom_site_label
_atom_site_fract_x
_atom_site_fract_y
_atom_site_fract_z
Si Si1 0.841678 0.128620 0.537977
Si Si2 0.379019 0.073814 0.900984
Si Si3 0.633592 0.144414 0.799450
Si Si4 0.662393 0.861250 0.346591
Si Si5 0.500000 0.354544 0.500000
Si Si6 0.260990 0.026955 0.179796
Si Si7 0.182859 0.747473 0.495451
Si Si8 0.414887 0.436630 0.536631
O O1 0.753029 0.074306 0.422083
O O2 0.884280 0.243643 0.719678
O O3 0.920338 0.039596 0.670416
O O4 0.758867 0.162084 0.179692
O O5 0.396648 0.174200 0.826520
O O6 0.414663 0.953565 0.935152
O O7 0.417945 0.099448 0.176510
O O8 0.587713 0.268698 0.664353
O O9 0.639706 0.059982 0.672399
O O10 0.746336 0.820732 0.436321
O O11 0.712104 0.932495 0.621427
O O12 0.523094 0.420202 0.720248
O O13 0.249016 0.149254 0.233915
O O14 0.168168 0.979027 0.819940
O O15 0.127307 0.833071 0.468963
#
# Coordination Sequence:
#
# PCOD9120005 Si02
#       8
#     4   4   4   4   2   4   4   4
#     4   8  17  31  53  81 117 140 187 229 282 337
#     4   8  17  31  52  82 116 140 189 240 283 332
#     4   9  18  35  51  84 118 147 185 237 279 343
#     4  10  16  30  56  84 109 143 192 247 279 330
#     4  12  22  34  60  84 124 144 188 244 294 330
#     4  10  20  32  58  82 114 150 195 234 286 336
#     4  10  18  31  54  84 114 145 191 242 290 322
#     4  11  21  35  53  87 117 150 188 243 285 343
#
# _framework density 23.690722000000001
#
# number of rings (size 3 to 8) (size 9 to 14) (size 15 to 20)
#    0.800    1.600    2.667    0.800    1.867    0.000 
#    0.000    0.667    0.000    0.800    3.467    0.000 
#    0.000    0.000    0.000    0.000    0.000    0.000 
#
# Total GULP energy -83545.375516 kJ/mol
# GULP energy per Si atom -5569.691701 kJ/mol
# Density = 2.363680 g / cm^3
# Si number density = 23.690722 Si / 1000 Ang^3
#
#
#
# Elastic Constant Matrix: (Units=GPa)
#
#
# Indices 1 2 3 4 5 6 
#
# 1 184.4512 82.3487 39.8656 0.0000 -32.4690 0.0000
# 2 82.3487 188.9540 31.6811 0.0000 -27.4252 0.0000
# 3 39.8656 31.6811 62.0917 0.0000 -23.3030 0.0000
# 4 0.0000 0.0000 0.0000 16.3480 0.0000 -25.8961
# 5 -32.4690 -27.4252 -23.3030 0.0000 34.5817 0.0000
# 6 0.0000 0.0000 0.0000 -25.8961 0.0000 49.5586
#
#
#
# Elastic Compliance Matrix: (Units=1/GPa)
#
#
# Indices 1 2 3 4 5 6 
#
# 1 0.007647 -0.002408 -0.002279 0.000000 0.003733 0.000000
# 2 -0.002408 0.006877 -0.001023 0.000000 0.002503 0.000000
# 3 -0.002279 -0.001023 0.022732 0.000000 0.012366 0.000000
# 4 0.000000 0.000000 0.000000 0.355068 0.000000 0.185536
# 5 0.003733 0.002503 0.012366 0.000000 0.042741 0.000000
# 6 0.000000 0.000000 0.000000 0.185536 0.000000 0.117127
#
#
# Mechanical properties :
#
#
# Convention : Reuss Voigt Hill
#
# Bulk Modulus (GPa) = 38.70973 82.58752 60.64863
# Shear Modulus (GPa) = 8.73785 38.87108 23.80446
#
# Velocity S-wave (km/s) = 1.92258 4.05504 3.17330
# Velocity P-wave (km/s) = 4.61557 7.54061 6.25157
#
# Compressibility (1/GPa) = 0.02583330
#
# Stress axis : x y z
#
# Youngs Moduli (GPa) = 130.77727 145.41785 43.99119
#
# Poissons Ratio (x) = 0.35023 0.10028
# Poissons Ratio (y) = 0.31497 0.04501
# Poissons Ratio (z) = 0.29810 0.14877
#
# Static dielectric constant tensor:
#      x y z
#    x 2.038930 0.000000 0.068540 
#    y 0.000000 1.923790 0.000000 
#    z 0.068540 0.000000 2.022830 
# 
# From -- ./inp_files/31882.got.cif
#   From: 2010.05.17/outbox.cif.g08.bks.cpg/sg5_16_cif.got.tgz:31882.got - 2010.06.03 18:56:24.
