data_PCOD9120234
_publ_section_title
;
Structure prediction by ZEFSAII (Michael W. Deem and Ramdas Pophale) SiO2 
 PCOD9120234
Probable space group: C 2
;
_chemical_formula_sum "Si O2"
_cell_formula_units_Z 30
_cell_length_a 12.507615
_cell_length_b 15.957413
_cell_length_c 15.222203
_cell_angle_alpha 90.000000
_cell_angle_beta 149.446479
_cell_angle_gamma 90.000000
_cell_volume 1544.441101
_symmetry_space_group_name_H-M "C 2"
_symmetry_group_IT_number 5
_symmetry_cell_setting 'monoclinic'
loop_
_space_group_symop_operation_xyz
x,y,z
-x,y,-z
1/2+x,1/2+y,z
1/2-x,1/2+y,-z
loop_
_atom_site_type_symbol
_atom_site_label
_atom_site_fract_x
_atom_site_fract_y
_atom_site_fract_z
Si Si1 0.233224 0.359370 0.161614
Si Si2 0.444256 0.613613 0.061388
Si Si3 0.708224 0.219410 0.585311
Si Si4 0.992442 0.712132 0.264306
Si Si5 0.895846 0.651697 0.836917
Si Si6 0.686717 0.996977 0.983739
Si Si7 0.211486 0.409965 0.347131
Si Si8 0.000000 0.051411 0.500000
O O1 0.402901 0.297532 0.242056
O O2 0.261224 0.390006 0.279825
O O3 0.229149 0.438358 0.095943
O O4 0.000000 0.318007 0.000000
O O5 0.612361 0.671290 0.232414
O O6 0.500000 0.596474 0.000000
O O7 0.219149 0.658960 0.896254
O O8 0.391128 0.530443 0.079268
O O9 0.500000 0.221518 0.500000
O O10 0.645530 0.176866 0.448426
O O11 0.771579 0.315367 0.605508
O O12 0.093892 0.713494 0.239820
O O13 0.664400 0.609235 0.670737
O O14 0.050671 0.574297 0.923879
O O15 0.000000 0.687048 0.000000
O O16 0.524444 0.944139 0.808979
O O17 0.364145 0.490033 0.468600
#
# Coordination Sequence:
#
# PCOD9120234 Si02
#       8
#     4   4   4   4   4   4   4   2
#     4  10  17  32  57  83 111 142 188 248 296 338
#     4  11  21  37  57  83 126 158 192 239 290 361
#     4  12  21  34  60  93 118 151 190 246 302 345
#     4  11  22  36  58  89 113 153 199 242 303 346
#     4  10  22  37  55  82 118 154 196 235 290 362
#     4   9  20  33  56  87 111 155 196 234 296 351
#     4  10  17  32  58  87 119 142 189 250 299 340
#     4  10  18  34  56  78 116 152 180 242 300 340
#
# _framework density 19.424503999999999
#
# number of rings (size 3 to 8) (size 9 to 14) (size 15 to 20)
#    0.000    1.600    3.333    4.000    0.000    3.200 
#    0.000    2.000    0.000    0.000    0.000    0.000 
#    0.000    0.000    0.000    0.000    0.000    0.000 
#
# Total GULP energy -83562.244646 kJ/mol
# GULP energy per Si atom -5570.816310 kJ/mol
# Density = 1.938029 g / cm^3
# Si number density = 19.424504 Si / 1000 Ang^3
#
#
#
# Elastic Constant Matrix: (Units=GPa)
#
#
# Indices 1 2 3 4 5 6 
#
# 1 74.9375 29.6910 48.0994 -0.0012 -8.5933 -0.0008
# 2 29.6910 49.3770 24.3391 -0.0006 4.8779 -0.0003
# 3 48.0994 24.3391 107.9937 -0.0026 -17.1563 0.0011
# 4 -0.0012 -0.0006 -0.0026 1.7913 -0.0014 4.6527
# 5 -8.5933 4.8779 -17.1563 -0.0014 23.0513 -0.0011
# 6 -0.0008 -0.0003 0.0011 4.6527 -0.0011 25.4779
#
#
#
# Elastic Compliance Matrix: (Units=1/GPa)
#
#
# Indices 1 2 3 4 5 6 
#
# 1 0.022611 -0.010852 -0.006715 0.000006 0.005728 0.000000
# 2 -0.010852 0.030128 -0.004096 -0.000024 -0.013470 0.000004
# 3 -0.006715 -0.004096 0.014646 0.000045 0.009264 -0.000009
# 4 0.000006 -0.000024 0.000045 1.062036 0.000094 -0.193947
# 5 0.005728 -0.013470 0.009264 0.000094 0.055262 -0.000015
# 6 0.000000 0.000004 -0.000009 -0.193947 -0.000015 0.074668
#
#
# Mechanical properties :
#
#
# Convention : Reuss Voigt Hill
#
# Bulk Modulus (GPa) = 41.56775 48.50745 45.03760
# Shear Modulus (GPa) = 3.81476 18.74266 11.27871
#
# Velocity S-wave (km/s) = 1.40291 3.10965 2.41227
# Velocity P-wave (km/s) = 4.90615 6.15790 5.56732
#
# Compressibility (1/GPa) = 0.02405711
#
# Stress axis : x y z
#
# Youngs Moduli (GPa) = 44.22584 33.19181 68.28030
#
# Poissons Ratio (x) = 0.36021 0.45850
# Poissons Ratio (y) = 0.47995 0.27971
# Poissons Ratio (z) = 0.29698 0.13597
#
# Static dielectric constant tensor:
#      x y z
#    x 1.706760 0.000000 -0.012970 
#    y 0.000000 1.736360 0.000000 
#    z -0.012970 0.000000 1.804640 
# 
# From -- ./inp_files/53426.got.cif
#   From: 2010.05.17/outbox.cif.g08.bks.cpg/sg5_27_cif.got.tgz:53426.got - 2010.06.03 18:56:24.
