data_PCOD9120279
_publ_section_title
;
Structure prediction by ZEFSAII (Michael W. Deem and Ramdas Pophale) SiO2 
 PCOD9120279
Probable space group: C 2
;
_chemical_formula_sum "Si O2"
_cell_formula_units_Z 26
_cell_length_a 8.331296
_cell_length_b 10.991048
_cell_length_c 11.676064
_cell_angle_alpha 90.000000
_cell_angle_beta 90.211945
_cell_angle_gamma 90.000000
_cell_volume 1069.166062
_symmetry_space_group_name_H-M "C 2"
_symmetry_group_IT_number 5
_symmetry_cell_setting 'monoclinic'
loop_
_space_group_symop_operation_xyz
x,y,z
-x,y,-z
1/2+x,1/2+y,z
1/2-x,1/2+y,-z
loop_
_atom_site_type_symbol
_atom_site_label
_atom_site_fract_x
_atom_site_fract_y
_atom_site_fract_z
Si Si1 0.500000 0.552110 0.000000
Si Si2 0.751771 0.331133 0.332364
Si Si3 0.787063 0.996196 0.353594
Si Si4 0.000000 0.810547 0.500000
Si Si5 0.192327 0.278520 0.915443
Si Si6 0.094871 0.070622 0.246953
Si Si7 0.500000 0.928323 0.500000
Si Si8 0.665078 0.833242 0.154770
O O1 0.358687 0.644688 0.042208
O O2 0.559338 0.505831 0.123451
O O3 0.632094 0.258592 0.415091
O O4 0.724354 0.277246 0.205933
O O5 0.699458 0.473881 0.316759
O O6 0.919065 0.345886 0.400380
O O7 0.892157 0.892410 0.415886
O O8 0.638241 0.006387 0.439482
O O9 0.717994 0.938878 0.237430
O O10 0.926401 0.089749 0.314564
O O11 0.022846 0.342609 0.879811
O O12 0.258181 0.336351 0.033047
O O13 0.174218 0.200689 0.216951
#
# Coordination Sequence:
#
# PCOD9120279 Si02
#       8
#     2   4   4   2   4   4   2   4
#     4   8  18  36  54  88 108 142 184 240 284 374
#     4  10  17  34  56  83 112 155 182 242 286 343
#     4  10  18  36  58  81 114 156 197 234 294 343
#     4   8  20  32  52  82 116 148 204 228 270 360
#     4   8  16  31  57  82 110 135 191 234 287 346
#     4   9  20  33  57  84 117 142 190 238 297 346
#     4  10  20  32  58  82 110 158 202 226 276 362
#     4   9  18  35  56  86 109 148 189 244 288 362
#
# _framework density 24.318017000000001
#
# number of rings (size 3 to 8) (size 9 to 14) (size 15 to 20)
#    0.000    3.385    1.538    0.000    2.154    0.000 
#    0.000    5.385   13.538    0.000   16.000    0.000 
#    0.000    0.000    0.000    0.000    0.000    0.000 
#
# Total GULP energy -72411.825214 kJ/mol
# GULP energy per Si atom -5570.140401 kJ/mol
# Density = 2.426267 g / cm^3
# Si number density = 24.318017 Si / 1000 Ang^3
#
#
#
# Elastic Constant Matrix: (Units=GPa)
#
#
# Indices 1 2 3 4 5 6 
#
# 1 59.9095 9.9052 29.6167 0.0000 -8.8001 0.0000
# 2 9.9052 72.3331 25.4116 0.0000 4.7967 0.0000
# 3 29.6167 25.4116 167.9678 0.0000 -17.5629 0.0000
# 4 0.0000 0.0000 0.0000 21.9615 0.0000 -1.6110
# 5 -8.8001 4.7967 -17.5629 0.0000 60.4519 0.0000
# 6 0.0000 0.0000 0.0000 -1.6110 0.0000 -3.6515
#
#
#
# Elastic Compliance Matrix: (Units=1/GPa)
#
#
# Indices 1 2 3 4 5 6 
#
# 1 0.018666 -0.001700 -0.002822 0.000000 0.002032 0.000000
# 2 -0.001700 0.014961 -0.002180 0.000000 -0.002068 0.000000
# 3 -0.002822 -0.002180 0.006968 0.000000 0.001787 0.000000
# 4 0.000000 0.000000 0.000000 0.044107 0.000000 -0.019460
# 5 0.002032 -0.002068 0.001787 0.000000 0.017521 0.000000
# 6 0.000000 0.000000 0.000000 -0.019460 0.000000 -0.265273
#
#
# Mechanical properties :
#
#
# Convention : Reuss Voigt Hill
#
# Bulk Modulus (GPa) = 36.77529 47.78639 42.28084
# Shear Modulus (GPa) = -35.56583 31.43751 -2.06416
#
# Velocity S-wave (km/s) = -3.82845 3.59941 -0.92231
# Velocity P-wave (km/s) = 2.09458 6.08010 4.03611
#
# Compressibility (1/GPa) = 0.02719217
#
# Stress axis : x y z
#
# Youngs Moduli (GPa) = 53.57252 66.84216 143.52061
#
# Poissons Ratio (x) = 0.11361 0.40497
# Poissons Ratio (y) = 0.09105 0.31286
# Poissons Ratio (z) = 0.15116 0.14571
#
# Static dielectric constant tensor:
#      x y z
#    x 2.011910 0.000000 -0.084700 
#    y 0.000000 1.987630 0.000000 
#    z -0.084700 0.000000 2.028710 
# 
# From -- ./inp_files/35910.got.cif
#   From: 2010.05.17/outbox.cif.g08.bks.cpg/sg5_18_cif.got.tgz:35910.got - 2010.06.03 18:56:24.
