data_PCOD9120534
_publ_section_title
;
Structure prediction by ZEFSAII (Michael W. Deem and Ramdas Pophale) SiO2 
 PCOD9120534
Probable space group: C 2
;
_chemical_formula_sum "Si O2"
_cell_formula_units_Z 26
_cell_length_a 19.087000
_cell_length_b 6.978744
_cell_length_c 21.544655
_cell_angle_alpha 90.000000
_cell_angle_beta 22.274028
_cell_angle_gamma 90.000000
_cell_volume 1087.766743
_symmetry_space_group_name_H-M "C 2"
_symmetry_group_IT_number 5
_symmetry_cell_setting 'monoclinic'
loop_
_space_group_symop_operation_xyz
x,y,z
-x,y,-z
1/2+x,1/2+y,z
1/2-x,1/2+y,-z
loop_
_atom_site_type_symbol
_atom_site_label
_atom_site_fract_x
_atom_site_fract_y
_atom_site_fract_z
Si Si1 0.270149 0.918070 0.384358
Si Si2 0.666842 0.764410 0.543444
Si Si3 0.229925 0.352670 0.885879
Si Si4 0.307951 0.905995 0.216832
Si Si5 0.738373 0.812051 0.114313
Si Si6 0.452129 0.240134 0.819405
Si Si7 0.000000 0.768325 0.000000
O O1 0.290633 0.751032 0.417839
O O2 0.211268 0.888912 0.362350
O O3 0.788642 0.826480 0.765762
O O4 0.142243 0.068132 0.526021
O O5 0.472388 0.870552 0.701091
O O6 0.853732 0.840592 0.357994
O O7 0.010120 0.315114 0.063270
O O8 0.256672 0.578147 0.881544
O O9 0.331599 0.235870 0.855905
O O10 0.466276 0.036514 0.222960
O O11 0.366511 0.125217 0.149516
O O12 0.873626 0.884919 0.056981
O O13 0.832631 0.840643 0.970408
#
# Coordination Sequence:
#
# PCOD9120534 Si02
#       7
#     4   4   4   4   4   4   2
#     4  10  19  36  52  85 113 143 186 235 273 336
#     4  10  21  33  53  82 111 143 190 226 284 330
#     4   9  16  31  54  87 108 143 192 239 264 337
#     4   8  15  31  55  81 112 141 190 232 274 323
#     4  10  18  32  56  76 113 141 183 230 287 315
#     4  10  20  32  52  82 115 137 188 232 281 322
#     4   8  14  30  48  84 106 136 192 236 258 338
#
# _framework density 23.902183000000001
#
# number of rings (size 3 to 8) (size 9 to 14) (size 15 to 20)
#    0.923    2.154    3.077    1.846    0.000    0.000 
#    0.000   10.769    0.000    1.846   20.000    0.000 
#    0.000    0.000    0.000    0.000    0.000    0.000 
#
# Total GULP energy -72432.054230 kJ/mol
# GULP energy per Si atom -5571.696479 kJ/mol
# Density = 2.384778 g / cm^3
# Si number density = 23.902183 Si / 1000 Ang^3
#
#
#
# Elastic Constant Matrix: (Units=GPa)
#
#
# Indices 1 2 3 4 5 6 
#
# 1 224.3135 15.6481 87.8212 0.0003 25.1247 -0.0003
# 2 15.6481 57.1885 16.9186 0.0045 9.9600 -0.0012
# 3 87.8212 16.9186 155.4661 0.0052 16.6905 -0.0016
# 4 0.0003 0.0045 0.0052 14.6485 -0.0018 0.8396
# 5 25.1247 9.9600 16.6905 -0.0018 43.8019 0.0004
# 6 -0.0003 -0.0012 -0.0016 0.8396 0.0004 23.7744
#
#
#
# Elastic Compliance Matrix: (Units=1/GPa)
#
#
# Indices 1 2 3 4 5 6 
#
# 1 0.005929 -0.000336 -0.003082 0.000001 -0.002150 0.000000
# 2 -0.000336 0.018617 -0.001462 -0.000006 -0.003483 0.000001
# 3 -0.003082 -0.001462 0.008453 -0.000003 -0.001121 0.000001
# 4 0.000001 -0.000006 -0.000003 0.068405 0.000005 -0.002416
# 5 -0.002150 -0.003483 -0.001121 0.000005 0.025282 -0.000001
# 6 0.000000 0.000001 0.000001 -0.002416 -0.000001 0.042147
#
#
# Mechanical properties :
#
#
# Convention : Reuss Voigt Hill
#
# Bulk Modulus (GPa) = 43.03194 75.30489 59.16841
# Shear Modulus (GPa) = 26.83270 37.55030 32.19150
#
# Velocity S-wave (km/s) = 3.35416 3.96788 3.67386
# Velocity P-wave (km/s) = 5.74830 7.25024 6.54251
#
# Compressibility (1/GPa) = 0.02323855
#
# Stress axis : x y z
#
# Youngs Moduli (GPa) = 168.66671 53.71368 118.30754
#
# Poissons Ratio (x) = 0.01805 0.36459
# Poissons Ratio (y) = 0.05669 0.17299
# Poissons Ratio (z) = 0.51979 0.07854
#
# Static dielectric constant tensor:
#      x y z
#    x 1.917350 0.000000 -0.017290 
#    y 0.000000 1.990920 0.000000 
#    z -0.017290 0.000000 1.948150 
# 
# From -- ./inp_files/23420.got.cif
#   From: 2010.05.17/outbox.cif.g08.bks.cpg/sg5_12_cif.got.tgz:23420.got - 2010.06.03 18:56:24.
