data_PCOD9120758
_publ_section_title
;
Structure prediction by ZEFSAII (Michael W. Deem and Ramdas Pophale) SiO2 
 PCOD9120758
Probable space group: C 2
;
_chemical_formula_sum "Si O2"
_cell_formula_units_Z 28
_cell_length_a 8.291153
_cell_length_b 12.170633
_cell_length_c 10.461447
_cell_angle_alpha 90.000000
_cell_angle_beta 107.477496
_cell_angle_gamma 90.000000
_cell_volume 1006.915678
_symmetry_space_group_name_H-M "C 2"
_symmetry_group_IT_number 5
_symmetry_cell_setting 'monoclinic'
loop_
_space_group_symop_operation_xyz
x,y,z
-x,y,-z
1/2+x,1/2+y,z
1/2-x,1/2+y,-z
loop_
_atom_site_type_symbol
_atom_site_label
_atom_site_fract_x
_atom_site_fract_y
_atom_site_fract_z
Si Si1 0.107322 0.565610 0.689479
Si Si2 0.500000 0.245398 0.000000
Si Si3 0.480058 0.882947 0.844110
Si Si4 0.000000 0.217060 0.500000
Si Si5 0.731246 0.383093 0.424653
Si Si6 0.965020 0.138318 0.843714
Si Si7 0.091703 0.902819 0.779754
Si Si8 0.208699 0.679698 0.270207
O O1 0.172983 0.496998 0.580863
O O2 0.267124 0.638665 0.763617
O O3 0.081640 0.473777 0.791732
O O4 0.937562 0.637091 0.666399
O O5 0.421205 0.320488 0.097291
O O6 0.632895 0.168215 0.109794
O O7 0.529129 0.758658 0.820587
O O8 0.281546 0.902797 0.774171
O O9 0.500000 0.895922 0.000000
O O10 0.139873 0.301067 0.470963
O O11 0.113179 0.144666 0.622296
O O12 0.529382 0.390329 0.374683
O O13 0.726204 0.310729 0.292565
O O14 0.040137 0.022745 0.817332
O O15 0.000000 0.137181 0.000000
#
# Coordination Sequence:
#
# PCOD9120758 Si02
#       8
#     4   2   4   2   4   4   4   4
#     4  11  22  40  61  91 124 167 208 266 315 369
#     4  10  18  34  66  94 118 174 200 256 312 374
#     4  11  25  34  53  95 130 160 209 259 309 378
#     4   8  18  40  64  96 114 174 212 258 302 386
#     4   8  19  38  68  85 120 166 211 254 315 369
#     4  10  20  37  56  79 127 167 200 253 307 373
#     4  10  19  37  58  88 125 168 205 250 318 374
#     4   9  20  36  64  93 125 158 212 256 311 367
#
# _framework density 27.807691999999999
#
# number of rings (size 3 to 8) (size 9 to 14) (size 15 to 20)
#    0.857    1.429    0.714    2.571    5.000    1.143 
#    2.571    1.429    3.143    0.000    0.000    0.000 
#    0.000    0.000    0.000    0.000    0.000    0.000 
#
# Total GULP energy -78100.022725 kJ/mol
# GULP energy per Si atom -5578.573052 kJ/mol
# Density = 2.774440 g / cm^3
# Si number density = 27.807692 Si / 1000 Ang^3
#
#
#
# Elastic Constant Matrix: (Units=GPa)
#
#
# Indices 1 2 3 4 5 6 
#
# 1 73.7101 21.7375 51.1817 0.0000 13.8292 0.0000
# 2 21.7375 119.4990 35.9192 0.0000 -6.7760 0.0000
# 3 51.1817 35.9192 157.4868 0.0000 29.5472 0.0000
# 4 0.0000 0.0000 0.0000 35.3854 0.0000 13.3303
# 5 13.8292 -6.7760 29.5472 0.0000 57.7510 0.0000
# 6 0.0000 0.0000 0.0000 13.3303 0.0000 47.1555
#
#
#
# Elastic Compliance Matrix: (Units=1/GPa)
#
#
# Indices 1 2 3 4 5 6 
#
# 1 0.017992 -0.001862 -0.005059 0.000000 -0.001939 0.000000
# 2 -0.001862 0.009468 -0.002043 0.000000 0.002602 0.000000
# 3 -0.005059 -0.002043 0.009156 0.000000 -0.003713 0.000000
# 4 0.000000 0.000000 0.000000 0.031629 0.000000 -0.008941
# 5 -0.001939 0.002602 -0.003713 0.000000 0.019985 0.000000
# 6 0.000000 0.000000 0.000000 -0.008941 0.000000 0.023734
#
#
# Mechanical properties :
#
#
# Convention : Reuss Voigt Hill
#
# Bulk Modulus (GPa) = 53.50493 63.15253 58.32873
# Shear Modulus (GPa) = 36.73190 44.18222 40.45706
#
# Velocity S-wave (km/s) = 3.63840 3.99036 3.81844
# Velocity P-wave (km/s) = 6.07729 6.63253 6.36097
#
# Compressibility (1/GPa) = 0.01868987
#
# Stress axis : x y z
#
# Youngs Moduli (GPa) = 55.57944 105.61347 109.21476
#
# Poissons Ratio (x) = 0.19667 0.55250
# Poissons Ratio (y) = 0.10350 0.22307
# Poissons Ratio (z) = 0.28117 0.21572
#
# Static dielectric constant tensor:
#      x y z
#    x 2.382770 0.000000 0.124960 
#    y 0.000000 2.113100 0.000000 
#    z 0.124960 0.000000 2.288620 
# 
# From -- ./inp_files/50802.got.cif
#   From: 2010.05.17/outbox.cif.g08.bks.cpg/sg5_26_cif.got.tgz:50802.got - 2010.06.03 18:56:24.
