data_PCOD9120964
_publ_section_title
;
Structure prediction by ZEFSAII (Michael W. Deem and Ramdas Pophale) SiO2 
 PCOD9120964
Probable space group: C 2
;
_chemical_formula_sum "Si O2"
_cell_formula_units_Z 32
_cell_length_a 14.137440
_cell_length_b 27.144367
_cell_length_c 8.063392
_cell_angle_alpha 90.000000
_cell_angle_beta 31.139282
_cell_angle_gamma 90.000000
_cell_volume 1600.146786
_symmetry_space_group_name_H-M "C 2"
_symmetry_group_IT_number 5
_symmetry_cell_setting 'monoclinic'
loop_
_space_group_symop_operation_xyz
x,y,z
-x,y,-z
1/2+x,1/2+y,z
1/2-x,1/2+y,-z
loop_
_atom_site_type_symbol
_atom_site_label
_atom_site_fract_x
_atom_site_fract_y
_atom_site_fract_z
Si Si1 0.100636 0.450960 0.082936
Si Si2 0.252380 0.988378 0.475288
Si Si3 0.834812 0.689246 0.623305
Si Si4 0.345701 0.274764 0.359626
Si Si5 0.533443 0.752663 0.258003
Si Si6 0.197826 0.083080 0.772602
Si Si7 0.608168 0.503590 0.162139
Si Si8 0.671073 0.842266 0.871878
O O1 0.879490 0.451936 0.395880
O O2 0.162380 0.485223 0.836119
O O3 0.208008 0.472593 0.078508
O O4 0.182373 0.397293 0.921098
O O5 0.269605 0.040855 0.540193
O O6 0.036430 0.981054 0.755395
O O7 0.882549 0.723701 0.397347
O O8 0.813202 0.632210 0.612315
O O9 0.000000 0.695431 0.500000
O O10 0.650307 0.711346 0.985175
O O11 0.326193 0.317784 0.525589
O O12 0.156880 0.263759 0.547699
O O13 0.500000 0.288031 0.000000
O O14 0.500000 0.741141 0.500000
O O15 0.640983 0.804011 0.066800
O O16 0.167696 0.055485 0.993231
O O17 0.000000 0.097907 0.000000
O O18 0.500000 0.507893 0.500000
O O19 0.500000 0.842500 0.000000
#
# Coordination Sequence:
#
# PCOD9120964 Si02
#       8
#     4   4   4   4   4   4   4   4
#     4  10  18  37  62  81 121 164 199 248 309 357
#     4   9  19  35  57  81 120 154 200 246 299 359
#     4  11  23  39  63  92 124 162 210 257 319 376
#     4  10  21  41  64  91 122 161 208 262 314 383
#     4  10  21  40  64  88 126 159 205 261 315 376
#     4  10  21  39  58  86 122 161 202 254 307 366
#     4   9  20  36  54  84 118 160 203 253 296 363
#     4   9  18  37  63  86 120 165 201 251 318 369
#
# _framework density 19.998165
#
# number of rings (size 3 to 8) (size 9 to 14) (size 15 to 20)
#    0.000    2.250    1.250    2.625    1.750    0.500 
#    4.500   16.875    0.000    0.000    0.000    0.000 
#    0.000    0.000    0.000    0.000    0.000    0.000 
#
# Total GULP energy -89152.552792 kJ/mol
# GULP energy per Si atom -5572.034550 kJ/mol
# Density = 1.995265 g / cm^3
# Si number density = 19.998165 Si / 1000 Ang^3
#
#
#
# Elastic Constant Matrix: (Units=GPa)
#
#
# Indices 1 2 3 4 5 6 
#
# 1 81.4532 41.9362 10.0819 0.0000 -10.4534 0.0000
# 2 41.9362 84.0512 33.3096 0.0000 -5.5092 0.0000
# 3 10.0819 33.3096 45.0673 0.0000 -5.1018 0.0000
# 4 0.0000 0.0000 0.0000 4.3416 0.0000 -2.7518
# 5 -10.4534 -5.5092 -5.1018 0.0000 34.8691 0.0000
# 6 0.0000 0.0000 0.0000 -2.7518 0.0000 19.5144
#
#
#
# Elastic Compliance Matrix: (Units=1/GPa)
#
#
# Indices 1 2 3 4 5 6 
#
# 1 0.017490 -0.010024 0.003977 0.000000 0.004241 0.000000
# 2 -0.010024 0.022596 -0.014637 0.000000 -0.001577 0.000000
# 3 0.003977 -0.014637 0.032530 0.000000 0.003639 0.000000
# 4 0.000000 0.000000 0.000000 0.252935 0.000000 0.035667
# 5 0.004241 -0.001577 0.003639 0.000000 0.030234 0.000000
# 6 0.000000 0.000000 0.000000 0.035667 0.000000 0.056274
#
#
# Mechanical properties :
#
#
# Convention : Reuss Voigt Hill
#
# Bulk Modulus (GPa) = 32.00360 42.35858 37.18109
# Shear Modulus (GPa) = 10.77949 20.09463 15.43706
#
# Velocity S-wave (km/s) = 2.32421 3.17333 2.78137
# Velocity P-wave (km/s) = 4.82085 5.88676 5.38027
#
# Compressibility (1/GPa) = 0.03124649
#
# Stress axis : x y z
#
# Youngs Moduli (GPa) = 57.17494 44.25479 30.74098
#
# Poissons Ratio (x) = 0.44363 -0.12224
# Poissons Ratio (y) = 0.57314 0.44996
# Poissons Ratio (z) = -0.22736 0.64776
#
# Static dielectric constant tensor:
#      x y z
#    x 1.710620 0.000000 -0.045230 
#    y 0.000000 1.680320 0.000000 
#    z -0.045230 0.000000 1.750370 
# 
# From -- ./inp_files/25579.got.cif
#   From: 2010.05.17/outbox.cif.g08.bks.cpg/sg5_13_cif.got.tgz:25579.got - 2010.06.03 18:56:24.
