data_PCOD9120378
_publ_section_title
;
Structure prediction by ZEFSAII (Michael W. Deem and Ramdas Pophale) SiO2 
 PCOD9120378
Probable space group: C 2
;
_chemical_formula_sum "Si O2"
_cell_formula_units_Z 30
_cell_length_a 15.328729
_cell_length_b 9.291265
_cell_length_c 27.432433
_cell_angle_alpha 90.000000
_cell_angle_beta 23.060933
_cell_angle_gamma 90.000000
_cell_volume 1530.417101
_symmetry_space_group_name_H-M "C 2"
_symmetry_group_IT_number 5
_symmetry_cell_setting 'monoclinic'
loop_
_space_group_symop_operation_xyz
x,y,z
-x,y,-z
1/2+x,1/2+y,z
1/2-x,1/2+y,-z
loop_
_atom_site_type_symbol
_atom_site_label
_atom_site_fract_x
_atom_site_fract_y
_atom_site_fract_z
Si Si1 0.546738 0.839430 0.212051
Si Si2 0.632470 0.449960 0.479369
Si Si3 0.740725 0.547259 0.139630
Si Si4 0.596539 0.382479 0.756902
Si Si5 0.700751 0.412703 0.262223
Si Si6 0.000000 0.233671 0.500000
Si Si7 0.394614 0.082190 0.893752
Si Si8 0.418978 0.650648 0.184305
O O1 0.379607 0.896540 0.339836
O O2 0.709573 0.719168 0.150182
O O3 0.426826 0.748290 0.229663
O O4 0.642269 0.978435 0.134217
O O5 0.500000 0.389582 0.500000
O O6 0.505648 0.410992 0.593996
O O7 0.595974 0.621727 0.490951
O O8 0.592995 0.467407 0.175149
O O9 0.651405 0.488146 0.236792
O O10 0.000000 0.511123 0.000000
O O11 0.489556 0.237857 0.832177
O O12 0.686094 0.496722 0.750133
O O13 0.800039 0.330896 0.620067
O O14 0.791080 0.249814 0.211553
O O15 0.910835 0.502453 0.176072
O O16 0.167703 0.112093 0.038994
#
# Coordination Sequence:
#
# PCOD9120378 Si02
#       8
#     4   4   4   4   4   2   4   4
#     4  10  20  39  62  88 121 173 206 261 319 371
#     4  10  17  39  66  86 118 159 212 270 312 365
#     4  11  25  43  59  92 138 167 202 265 328 382
#     4  11  21  37  64  91 125 163 204 261 323 373
#     4  11  21  40  63  88 123 171 208 265 318 374
#     4  10  18  38  66  88 120 154 216 262 310 362
#     4  11  18  37  64  88 118 164 223 257 302 378
#     4  10  20  31  60  95 119 158 219 258 304 378
#
# _framework density 19.602498000000001
#
# number of rings (size 3 to 8) (size 9 to 14) (size 15 to 20)
#    0.400    1.067    5.333    4.000    0.000    2.133 
#    2.400    3.333    0.000    0.000    0.000    0.000 
#    0.000    0.000    0.000    0.000    0.000    0.000 
#
# Total GULP energy -83589.651371 kJ/mol
# GULP energy per Si atom -5572.643425 kJ/mol
# Density = 1.955788 g / cm^3
# Si number density = 19.602498 Si / 1000 Ang^3
#
#
#
# Elastic Constant Matrix: (Units=GPa)
#
#
# Indices 1 2 3 4 5 6 
#
# 1 22.7242 20.6228 -9.3711 -0.0128 10.6111 -0.0008
# 2 20.6228 136.4863 26.7589 -0.0058 1.2235 0.0002
# 3 -9.3711 26.7589 100.3352 -0.0662 9.0238 -0.0059
# 4 -0.0128 -0.0058 -0.0662 -81.4825 0.0155 -31.4308
# 5 10.6111 1.2235 9.0238 0.0155 23.0429 0.0000
# 6 -0.0008 0.0002 -0.0059 -31.4308 0.0000 13.7027
#
#
#
# Elastic Compliance Matrix: (Units=1/GPa)
#
#
# Indices 1 2 3 4 5 6 
#
# 1 0.086269 -0.015835 0.016354 -0.000021 -0.045290 -0.000035
# 2 -0.015835 0.010641 -0.005102 0.000005 0.008725 0.000007
# 3 0.016354 -0.005102 0.014001 -0.000010 -0.012743 -0.000016
# 4 -0.000021 0.000005 -0.000010 -0.006511 0.000018 -0.014936
# 5 -0.045290 0.008725 -0.012743 0.000018 0.068780 0.000032
# 6 -0.000035 0.000007 -0.000016 -0.014936 0.000032 0.038720
#
#
# Mechanical properties :
#
#
# Convention : Reuss Voigt Hill
#
# Bulk Modulus (GPa) = 9.82854 37.28521 23.55688
# Shear Modulus (GPa) = 19.60934 5.82162 12.71548
#
# Velocity S-wave (km/s) = 3.16626 1.72519 2.54966
# Velocity P-wave (km/s) = 4.28856 4.79899 4.55094
#
# Compressibility (1/GPa) = 0.10174452
#
# Stress axis : x y z
#
# Youngs Moduli (GPa) = 11.59165 93.97227 71.42542
#
# Poissons Ratio (x) = 1.48808 -1.16807
# Poissons Ratio (y) = 0.18356 0.36439
# Poissons Ratio (z) = -0.18957 0.47942
#
# Static dielectric constant tensor:
#      x y z
#    x 1.723600 0.000000 -0.012050 
#    y 0.000000 1.699180 0.000000 
#    z -0.012050 0.000000 1.858760 
# 
# From -- ./inp_files/72119.got.cif
#   From: 2010.05.17/outbox.cif.g08.bks.cpg/sg5_37_cif.got.tgz:72119.got - 2010.06.03 18:56:24.
