data_PCOD9120278
_publ_section_title
;
Structure prediction by ZEFSAII (Michael W. Deem and Ramdas Pophale) SiO2 
 PCOD9120278
Probable space group: C 2
;
_chemical_formula_sum "Si O2"
_cell_formula_units_Z 16
_cell_length_a 21.390749
_cell_length_b 5.099208
_cell_length_c 7.479499
_cell_angle_alpha 90.000000
_cell_angle_beta 52.785025
_cell_angle_gamma 90.000000
_cell_volume 649.706392
_symmetry_space_group_name_H-M "C 2"
_symmetry_group_IT_number 5
_symmetry_cell_setting 'monoclinic'
loop_
_space_group_symop_operation_xyz
x,y,z
-x,y,-z
1/2+x,1/2+y,z
1/2-x,1/2+y,-z
loop_
_atom_site_type_symbol
_atom_site_label
_atom_site_fract_x
_atom_site_fract_y
_atom_site_fract_z
Si Si1 0.714843 0.806660 0.481953
Si Si2 0.957894 0.234793 0.226521
Si Si3 0.432336 0.376480 0.766852
Si Si4 0.631200 0.882136 0.282790
O O1 0.774428 0.574824 0.426571
O O2 0.630951 0.672124 0.673507
O O3 0.704982 0.888885 0.290494
O O4 0.940135 0.380216 0.444783
O O5 0.017305 0.995349 0.158237
O O6 0.000000 0.399928 0.000000
O O7 0.500000 0.363438 0.500000
O O8 0.373803 0.606738 0.806755
O O9 0.384324 0.109155 0.832224
#
# Coordination Sequence:
#
# PCOD9120278 Si02
#       4
#     4   4   4   4
#     4  10  21  37  58  89 121 162 199 239 300 378
#     4   9  21  37  64  97 118 153 203 270 301 333
#     4  10  17  34  55  89 111 151 197 250 282 354
#     4   9  20  33  59  84 115 154 201 236 292 356
#
# _framework density 24.626508999999999
#
# number of rings (size 3 to 8) (size 9 to 14) (size 15 to 20)
#    1.500    1.000    0.000    3.750    0.000    0.000 
#    0.000   20.000    0.000    6.000    6.500    0.000 
#    0.000    0.000    0.000    0.000    0.000    0.000 
#
# Total GULP energy -44555.207341 kJ/mol
# GULP energy per Si atom -5569.400918 kJ/mol
# Density = 2.457046 g / cm^3
# Si number density = 24.626509 Si / 1000 Ang^3
#
#
#
# Elastic Constant Matrix: (Units=GPa)
#
#
# Indices 1 2 3 4 5 6 
#
# 1 137.8646 55.2853 2.9234 0.0000 8.0689 0.0000
# 2 55.2853 158.6970 -7.7584 0.0000 5.1388 0.0000
# 3 2.9234 -7.7584 63.5144 0.0000 0.7668 0.0000
# 4 0.0000 0.0000 0.0000 -3.9713 0.0000 4.9225
# 5 8.0689 5.1388 0.7668 0.0000 11.7509 0.0000
# 6 0.0000 0.0000 0.0000 4.9225 0.0000 22.6953
#
#
#
# Elastic Compliance Matrix: (Units=1/GPa)
#
#
# Indices 1 2 3 4 5 6 
#
# 1 0.008711 -0.002918 -0.000701 0.000000 -0.004660 0.000000
# 2 -0.002918 0.007412 0.001055 0.000000 -0.001306 0.000000
# 3 -0.000701 0.001055 0.015918 0.000000 -0.001019 0.000000
# 4 0.000000 0.000000 0.000000 -0.198453 0.000000 0.043044
# 5 -0.004660 -0.001306 -0.001019 0.000000 0.088938 0.000000
# 6 0.000000 0.000000 0.000000 0.043044 0.000000 0.034726
#
#
# Mechanical properties :
#
#
# Convention : Reuss Voigt Hill
#
# Bulk Modulus (GPa) = 37.15622 51.21960 44.18791
# Shear Modulus (GPa) = -174.52569 26.73668 -73.89450
#
# Velocity S-wave (km/s) = -8.42751 3.29855 -5.48372
# Velocity P-wave (km/s) = 8.92057 5.94567 4.70242
#
# Compressibility (1/GPa) = 0.02691340
#
# Stress axis : x y z
#
# Youngs Moduli (GPa) = 114.79343 134.91973 62.82209
#
# Poissons Ratio (x) = 0.39372 0.04405
# Poissons Ratio (y) = 0.33498 -0.06631
# Poissons Ratio (z) = 0.08049 -0.14240
#
# Static dielectric constant tensor:
#      x y z
#    x 2.099450 0.000000 0.004110 
#    y 0.000000 1.920060 0.000000 
#    z 0.004110 0.000000 1.998120 
# 
# From -- ./inp_files/25771.got.cif
#   From: 2010.05.17/outbox.cif.g08.bks.cpg/sg5_13_cif.got.tgz:25771.got - 2010.06.03 18:56:24.
