data_PCOD9120820
_publ_section_title
;
Structure prediction by ZEFSAII (Michael W. Deem and Ramdas Pophale) SiO2 
 PCOD9120820
Probable space group: C 2
;
_chemical_formula_sum "Si O2"
_cell_formula_units_Z 32
_cell_length_a 11.902532
_cell_length_b 8.650788
_cell_length_c 15.124787
_cell_angle_alpha 90.000000
_cell_angle_beta 126.512173
_cell_angle_gamma 90.000000
_cell_volume 1251.684072
_symmetry_space_group_name_H-M "C 2"
_symmetry_group_IT_number 5
_symmetry_cell_setting 'monoclinic'
loop_
_space_group_symop_operation_xyz
x,y,z
-x,y,-z
1/2+x,1/2+y,z
1/2-x,1/2+y,-z
loop_
_atom_site_type_symbol
_atom_site_label
_atom_site_fract_x
_atom_site_fract_y
_atom_site_fract_z
Si Si1 0.663068 0.772010 0.597858
Si Si2 0.041450 0.527009 0.267679
Si Si3 0.899420 0.071283 0.885993
Si Si4 0.839786 0.601554 0.332705
Si Si5 0.712485 0.830909 0.911479
Si Si6 0.062324 0.835066 0.839767
Si Si7 0.589044 0.584686 0.725383
Si Si8 0.288142 0.756033 0.577417
O O1 0.500000 0.806565 0.500000
O O2 0.651623 0.629068 0.659549
O O3 0.739316 0.758706 0.539990
O O4 0.709955 0.926603 0.668377
O O5 0.963346 0.573781 0.322695
O O6 0.936236 0.419213 0.160409
O O7 0.041008 0.688780 0.215065
O O8 0.167123 0.420970 0.361305
O O9 0.812559 0.946682 0.903058
O O10 0.993526 0.973858 0.862786
O O11 0.790179 0.172624 0.782030
O O12 0.000000 0.159460 0.000000
O O13 0.838460 0.687545 0.425070
O O14 0.681896 0.678166 0.840196
O O15 0.794561 0.794974 0.040614
O O16 0.086499 0.908948 0.754817
O O17 0.430043 0.651815 0.652207
#
# Coordination Sequence:
#
# PCOD9120820 Si02
#       8
#     4   4   4   4   4   4   4   4
#     4  10  19  40  64  81 118 164 212 265 317 375
#     4  10  21  39  59  89 130 156 202 268 313 375
#     4   9  18  33  58  83 115 157 202 245 302 377
#     4  11  19  41  63  87 116 168 206 250 327 377
#     4   9  18  36  59  82 117 170 204 239 315 383
#     4  11  20  33  58  93 123 153 205 264 309 374
#     4  10  18  35  63  84 120 165 203 256 316 379
#     4  10  21  40  65  86 115 168 211 254 321 384
#
# _framework density 25.565555
#
# number of rings (size 3 to 8) (size 9 to 14) (size 15 to 20)
#    0.000    2.000    6.250    0.750    0.000    0.000 
#    6.750    0.000    5.500    0.000    0.000    0.000 
#    0.000    0.000    0.000    0.000    0.000    0.000 
#
# Total GULP energy -89499.465378 kJ/mol
# GULP energy per Si atom -5593.716586 kJ/mol
# Density = 2.550737 g / cm^3
# Si number density = 25.565555 Si / 1000 Ang^3
#
#
#
# Elastic Constant Matrix: (Units=GPa)
#
#
# Indices 1 2 3 4 5 6 
#
# 1 83.7949 20.8593 18.5130 0.0000 -4.5239 0.0000
# 2 20.8593 76.6167 25.3503 0.0000 -6.5373 0.0000
# 3 18.5130 25.3503 119.9847 0.0000 5.8698 0.0000
# 4 0.0000 0.0000 0.0000 19.1582 0.0000 -10.2195
# 5 -4.5239 -6.5373 5.8698 0.0000 28.4817 0.0000
# 6 0.0000 0.0000 0.0000 -10.2195 0.0000 35.2302
#
#
#
# Elastic Compliance Matrix: (Units=1/GPa)
#
#
# Indices 1 2 3 4 5 6 
#
# 1 0.013082 -0.002924 -0.001484 0.000000 0.001713 0.000000
# 2 -0.002924 0.015122 -0.002920 0.000000 0.003608 0.000000
# 3 -0.001484 -0.002920 0.009319 0.000000 -0.002827 0.000000
# 4 0.000000 0.000000 0.000000 0.061752 0.000000 0.017913
# 5 0.001713 0.003608 -0.002827 0.000000 0.036793 0.000000
# 6 0.000000 0.000000 0.000000 0.017913 0.000000 0.033581
#
#
# Mechanical properties :
#
#
# Convention : Reuss Voigt Hill
#
# Bulk Modulus (GPa) = 43.73513 45.53797 44.63655
# Shear Modulus (GPa) = 26.05125 30.95227 28.50176
#
# Velocity S-wave (km/s) = 3.19564 3.48329 3.34256
# Velocity P-wave (km/s) = 5.54620 5.83341 5.69162
#
# Compressibility (1/GPa) = 0.02286491
#
# Stress axis : x y z
#
# Youngs Moduli (GPa) = 76.43904 66.12746 107.31082
#
# Poissons Ratio (x) = 0.19339 0.15930
# Poissons Ratio (y) = 0.22354 0.31338
# Poissons Ratio (z) = 0.11347 0.19311
#
# Static dielectric constant tensor:
#      x y z
#    x 2.039120 0.000000 0.021110 
#    y 0.000000 2.002590 0.000000 
#    z 0.021110 0.000000 2.050200 
# 
# From -- ./inp_files/54195.got.cif
#   From: 2010.05.17/outbox.cif.g08.bks.cpg/sg5_28_cif.got.tgz:54195.got - 2010.06.03 18:56:24.
