data_PCOD9120449
_publ_section_title
;
Structure prediction by ZEFSAII (Michael W. Deem and Ramdas Pophale) SiO2 
 PCOD9120449
Probable space group: C 2
;
_chemical_formula_sum "Si O2"
_cell_formula_units_Z 26
_cell_length_a 18.686778
_cell_length_b 9.867030
_cell_length_c 6.245244
_cell_angle_alpha 90.000000
_cell_angle_beta 119.564053
_cell_angle_gamma 90.000000
_cell_volume 1001.594689
_symmetry_space_group_name_H-M "C 2"
_symmetry_group_IT_number 5
_symmetry_cell_setting 'monoclinic'
loop_
_space_group_symop_operation_xyz
x,y,z
-x,y,-z
1/2+x,1/2+y,z
1/2-x,1/2+y,-z
loop_
_atom_site_type_symbol
_atom_site_label
_atom_site_fract_x
_atom_site_fract_y
_atom_site_fract_z
Si Si1 0.928144 0.050380 0.022912
Si Si2 0.872173 0.310664 0.169815
Si Si3 0.088476 0.570091 0.050119
Si Si4 0.189866 0.440623 0.554887
Si Si5 0.263555 0.130611 0.982554
Si Si6 0.168623 0.922756 0.518964
Si Si7 0.500000 0.370343 0.500000
O O1 0.900470 0.165109 0.143098
O O2 0.871591 0.995009 0.750044
O O3 0.000000 0.121991 0.000000
O O4 0.963663 0.936606 0.231026
O O5 0.910453 0.427591 0.081241
O O6 0.877996 0.347827 0.426702
O O7 0.774242 0.275831 0.012287
O O8 0.140779 0.542822 0.335950
O O9 0.146465 0.658251 0.984308
O O10 0.000000 0.616118 0.000000
O O11 0.252161 0.358872 0.491846
O O12 0.227185 0.533235 0.799283
O O13 0.209918 0.040889 0.731361
O O14 0.094116 0.840160 0.526001
#
# Coordination Sequence:
#
# PCOD9120449 Si02
#       7
#     4   4   4   4   4   4   2
#     4  10  20  30  53  83 118 150 187 238 300 354
#     4  11  21  35  58  89 118 155 201 248 295 366
#     4  10  24  40  59  91 124 159 202 255 309 361
#     4  10  22  37  59  84 125 160 200 251 303 362
#     4  10  21  39  59  82 122 162 204 242 309 364
#     4  10  18  35  53  82 116 158 194 241 301 357
#     4  10  18  30  54  82 116 154 190 234 294 358
#
# _framework density 25.958604000000001
#
# number of rings (size 3 to 8) (size 9 to 14) (size 15 to 20)
#    0.000    1.846    3.077    0.462    2.154    3.692 
#    0.000    0.000    0.000    8.308    0.000    8.615 
#    0.000    0.000    0.000    0.000    0.000    0.000 
#
# Total GULP energy -72367.976275 kJ/mol
# GULP energy per Si atom -5566.767406 kJ/mol
# Density = 2.589952 g / cm^3
# Si number density = 25.958604 Si / 1000 Ang^3
#
#
#
# Elastic Constant Matrix: (Units=GPa)
#
#
# Indices 1 2 3 4 5 6 
#
# 1 174.5123 13.7199 33.9587 0.0000 -29.1306 0.0000
# 2 13.7199 46.6931 22.7252 0.0000 -7.5771 0.0000
# 3 33.9587 22.7252 144.2022 0.0000 -23.7120 0.0000
# 4 0.0000 0.0000 0.0000 16.7507 0.0000 -11.3276
# 5 -29.1306 -7.5771 -23.7120 0.0000 41.9945 0.0000
# 6 0.0000 0.0000 0.0000 -11.3276 0.0000 27.3464
#
#
#
# Elastic Compliance Matrix: (Units=1/GPa)
#
#
# Indices 1 2 3 4 5 6 
#
# 1 0.006617 -0.000928 -0.000755 0.000000 0.003996 0.000000
# 2 -0.000928 0.023536 -0.003195 0.000000 0.001799 0.000000
# 3 -0.000755 -0.003195 0.008196 0.000000 0.003528 0.000000
# 4 0.000000 0.000000 0.000000 0.082929 0.000000 0.034352
# 5 0.003996 0.001799 0.003528 0.000000 0.028901 0.000000
# 6 0.000000 0.000000 0.000000 0.034352 0.000000 0.050797
#
#
# Mechanical properties :
#
#
# Convention : Reuss Voigt Hill
#
# Bulk Modulus (GPa) = 34.97323 56.24614 45.60969
# Shear Modulus (GPa) = 22.70000 36.88524 29.79262
#
# Velocity S-wave (km/s) = 2.96035 3.77361 3.39144
# Velocity P-wave (km/s) = 5.01865 6.37977 5.73970
#
# Compressibility (1/GPa) = 0.02859329
#
# Stress axis : x y z
#
# Youngs Moduli (GPa) = 151.12015 42.48820 122.01041
#
# Poissons Ratio (x) = 0.03945 0.09210
# Poissons Ratio (y) = 0.14031 0.38978
# Poissons Ratio (z) = 0.11407 0.13574
#
# Static dielectric constant tensor:
#      x y z
#    x 2.400480 0.000000 0.121490 
#    y 0.000000 2.083810 0.000000 
#    z 0.121490 0.000000 2.070450 
# 
# From -- ./inp_files/8587.got.cif
#   From: 2010.05.17/outbox.cif.g08.bks.cpg/sg5_5_cif.got.tgz:8587.got - 2010.06.03 18:56:24.
