data_PCOD9120280
_publ_section_title
;
Structure prediction by ZEFSAII (Michael W. Deem and Ramdas Pophale) SiO2 
 PCOD9120280
Probable space group: C 2
;
_chemical_formula_sum "Si O2"
_cell_formula_units_Z 30
_cell_length_a 14.488660
_cell_length_b 9.396955
_cell_length_c 9.492945
_cell_angle_alpha 90.000000
_cell_angle_beta 73.977674
_cell_angle_gamma 90.000000
_cell_volume 1242.251154
_symmetry_space_group_name_H-M "C 2"
_symmetry_group_IT_number 5
_symmetry_cell_setting 'monoclinic'
loop_
_space_group_symop_operation_xyz
x,y,z
-x,y,-z
1/2+x,1/2+y,z
1/2-x,1/2+y,-z
loop_
_atom_site_type_symbol
_atom_site_label
_atom_site_fract_x
_atom_site_fract_y
_atom_site_fract_z
Si Si1 0.609262 0.136740 0.725074
Si Si2 0.903499 0.718825 0.865847
Si Si3 0.817562 0.948967 0.219706
Si Si4 0.000000 0.962037 0.000000
Si Si5 0.288644 0.755765 0.931023
Si Si6 0.540793 0.773949 0.337790
Si Si7 0.093308 0.357721 0.859393
Si Si8 0.137682 0.573720 0.394158
O O1 0.502180 0.133314 0.834750
O O2 0.653660 0.291693 0.735874
O O3 0.603063 0.118866 0.561005
O O4 0.651339 0.995084 0.775929
O O5 0.876061 0.696893 0.715494
O O6 0.939102 0.868577 0.913629
O O7 0.811861 0.676507 0.997141
O O8 0.748077 0.906134 0.118975
O O9 0.750721 0.035368 0.352274
O O10 0.914613 0.025587 0.128250
O O11 0.370178 0.703281 0.786885
O O12 0.335032 0.779935 0.063311
O O13 0.500000 0.707336 0.500000
O O14 0.454758 0.795496 0.263115
O O15 0.583737 0.928886 0.366948
O O16 0.000000 0.378036 0.000000
#
# Coordination Sequence:
#
# PCOD9120280 Si02
#       8
#     4   4   4   2   4   4   4   4
#     4  11  21  35  62  89 116 163 200 251 299 351
#     4  10  19  34  57  85 117 152 206 245 285 355
#     4   9  21  34  55  85 120 148 199 252 300 342
#     4   8  18  36  58  82 112 158 198 246 296 346
#     4   9  21  33  52  92 122 154 196 258 295 347
#     4  10  17  34  57  85 124 152 189 245 308 344
#     4  10  20  32  59  89 118 156 202 247 299 352
#     4  11  20  35  56  90 124 153 194 260 301 347
#
# _framework density 24.149705000000001
#
# number of rings (size 3 to 8) (size 9 to 14) (size 15 to 20)
#    0.000    2.133    2.667    0.400    5.600    1.067 
#    0.000    0.000    4.400    0.000    3.467    0.000 
#    0.000    0.000    0.000    0.000    0.000    0.000 
#
# Total GULP energy -83660.100673 kJ/mol
# GULP energy per Si atom -5577.340045 kJ/mol
# Density = 2.409474 g / cm^3
# Si number density = 24.149705 Si / 1000 Ang^3
#
#
#
# Elastic Constant Matrix: (Units=GPa)
#
#
# Indices 1 2 3 4 5 6 
#
# 1 117.8367 27.5017 56.8574 0.0000 -19.9930 0.0000
# 2 27.5017 49.8183 29.5131 0.0000 10.1813 0.0000
# 3 56.8574 29.5131 173.8152 0.0000 -1.4147 0.0000
# 4 0.0000 0.0000 0.0000 2.7140 0.0000 -7.5760
# 5 -19.9930 10.1813 -1.4147 0.0000 51.7658 0.0000
# 6 0.0000 0.0000 0.0000 -7.5760 0.0000 16.4221
#
#
#
# Elastic Compliance Matrix: (Units=1/GPa)
#
#
# Indices 1 2 3 4 5 6 
#
# 1 0.012382 -0.006315 -0.002930 0.000000 0.005944 0.000000
# 2 -0.006315 0.026635 -0.002520 0.000000 -0.007746 0.000000
# 3 -0.002930 -0.002520 0.007136 0.000000 -0.000441 0.000000
# 4 0.000000 0.000000 0.000000 -1.280380 0.000000 -0.590672
# 5 0.005944 -0.007746 -0.000441 0.000000 0.023125 0.000000
# 6 0.000000 0.000000 0.000000 -0.590672 0.000000 -0.211599
#
#
# Mechanical properties :
#
#
# Convention : Reuss Voigt Hill
#
# Bulk Modulus (GPa) = 44.20047 63.24607 53.72327
# Shear Modulus (GPa) = -3.59291 29.35358 12.88034
#
# Velocity S-wave (km/s) = -1.22106 3.49016 2.31195
# Velocity P-wave (km/s) = 4.04406 6.51826 5.42412
#
# Compressibility (1/GPa) = 0.02262419
#
# Stress axis : x y z
#
# Youngs Moduli (GPa) = 80.76050 37.54492 140.13623
#
# Poissons Ratio (x) = 0.23708 0.41058
# Poissons Ratio (y) = 0.50997 0.35313
# Poissons Ratio (z) = 0.23662 0.09461
#
# Static dielectric constant tensor:
#      x y z
#    x 2.048020 0.000000 -0.032630 
#    y 0.000000 1.971800 0.000000 
#    z -0.032630 0.000000 1.912720 
# 
# From -- ./inp_files/23837.got.cif
#   From: 2010.05.17/outbox.cif.g08.bks.cpg/sg5_12_cif.got.tgz:23837.got - 2010.06.03 18:56:24.
