data_PCOD9120333
_publ_section_title
;
Structure prediction by ZEFSAII (Michael W. Deem and Ramdas Pophale) SiO2 
 PCOD9120333
Probable space group: C 2
;
_chemical_formula_sum "Si O2"
_cell_formula_units_Z 30
_cell_length_a 21.244972
_cell_length_b 14.424405
_cell_length_c 16.164589
_cell_angle_alpha 90.000000
_cell_angle_beta 163.126432
_cell_angle_gamma 90.000000
_cell_volume 1437.828428
_symmetry_space_group_name_H-M "C 2"
_symmetry_group_IT_number 5
_symmetry_cell_setting 'monoclinic'
loop_
_space_group_symop_operation_xyz
x,y,z
-x,y,-z
1/2+x,1/2+y,z
1/2-x,1/2+y,-z
loop_
_atom_site_type_symbol
_atom_site_label
_atom_site_fract_x
_atom_site_fract_y
_atom_site_fract_z
Si Si1 0.913164 0.734940 0.590498
Si Si2 0.165729 0.925083 0.931661
Si Si3 0.247480 0.232121 0.208334
Si Si4 0.164085 0.366480 0.572585
Si Si5 0.164634 0.123031 0.863950
Si Si6 0.258711 0.516880 0.806262
Si Si7 0.500000 0.729192 0.500000
Si Si8 0.879984 0.244662 0.628290
O O1 0.750630 0.747826 0.309966
O O2 0.790612 0.708192 0.519942
O O3 0.024193 0.834833 0.739494
O O4 0.100234 0.658705 0.808354
O O5 0.142678 0.012774 0.841915
O O6 0.412757 0.890330 0.239821
O O7 0.126087 0.966268 0.973053
O O8 0.500000 0.246050 0.500000
O O9 0.184269 0.123920 0.121807
O O10 0.080555 0.283099 0.937008
O O11 0.277646 0.459392 0.746026
O O12 0.154077 0.295635 0.638199
O O13 0.235845 0.317523 0.578822
O O14 0.127284 0.166659 0.726436
O O15 0.988352 0.170577 0.702646
O O16 0.000000 0.513222 0.500000
#
# Coordination Sequence:
#
# PCOD9120333 Si02
#       8
#     4   4   4   4   4   4   2   4
#     4  12  23  40  65  92 129 169 206 263 320 371
#     4  11  19  39  65  89 121 166 209 256 312 372
#     4  11  19  39  65  90 124 166 207 257 318 366
#     4  10  17  36  62  90 121 159 206 255 311 368
#     4  11  22  44  62  91 129 166 210 264 314 373
#     4   9  16  31  63  95 114 152 211 257 302 370
#     4  10  18  36  66  82 122 166 202 254 316 366
#     4  11  23  39  61  94 127 164 205 261 315 374
#
# _framework density 20.864799000000001
#
# number of rings (size 3 to 8) (size 9 to 14) (size 15 to 20)
#    0.000    1.333    7.333    2.000    0.000    0.000 
#    8.400    6.000    0.000    0.000    0.000    0.000 
#    0.000    0.000    0.000    0.000    0.000    0.000 
#
# Total GULP energy -83770.419637 kJ/mol
# GULP energy per Si atom -5584.694642 kJ/mol
# Density = 2.081731 g / cm^3
# Si number density = 20.864799 Si / 1000 Ang^3
#
#
#
# Elastic Constant Matrix: (Units=GPa)
#
#
# Indices 1 2 3 4 5 6 
#
# 1 97.7292 17.2523 17.2880 -0.0005 -5.4943 -0.0010
# 2 17.2523 58.3675 18.2559 0.0011 0.8557 0.0014
# 3 17.2880 18.2559 48.7481 -0.0039 -6.1286 -0.0017
# 4 -0.0005 0.0011 -0.0039 20.3630 0.0007 -19.9038
# 5 -5.4943 0.8557 -6.1286 0.0007 40.5005 0.0030
# 6 -0.0010 0.0014 -0.0017 -19.9038 0.0030 23.3478
#
#
#
# Elastic Compliance Matrix: (Units=1/GPa)
#
#
# Indices 1 2 3 4 5 6 
#
# 1 0.011243 -0.002421 -0.002938 0.000000 0.001132 0.000000
# 2 -0.002421 0.020022 -0.006865 -0.000023 -0.001790 -0.000022
# 3 -0.002938 -0.006865 0.024562 0.000039 0.003463 0.000035
# 4 0.000000 -0.000023 0.000039 0.294538 -0.000018 0.251092
# 5 0.001132 -0.001790 0.003463 -0.000018 0.025406 -0.000018
# 6 0.000000 -0.000022 0.000035 0.251092 -0.000018 0.256884
#
#
# Mechanical properties :
#
#
# Convention : Reuss Voigt Hill
#
# Bulk Modulus (GPa) = 31.86833 34.49302 33.18068
# Shear Modulus (GPa) = 7.48993 26.97883 17.23438
#
# Velocity S-wave (km/s) = 1.89672 3.59977 2.87714
# Velocity P-wave (km/s) = 4.48370 5.81768 5.19370
#
# Compressibility (1/GPa) = 0.03137912
#
# Stress axis : x y z
#
# Youngs Moduli (GPa) = 88.94328 49.94586 40.71363
#
# Poissons Ratio (x) = 0.12091 0.11963
# Poissons Ratio (y) = 0.21531 0.27948
# Poissons Ratio (z) = 0.26135 0.34286
#
# Static dielectric constant tensor:
#      x y z
#    x 1.803690 0.000000 -0.009550 
#    y 0.000000 1.744560 0.000000 
#    z -0.009550 0.000000 1.761820 
# 
# From -- ./inp_files/57157.got.cif
#   From: 2010.05.17/outbox.cif.g08.bks.cpg/sg5_29_cif.got.tgz:57157.got - 2010.06.03 18:56:24.
