data_PCOD9120364
_publ_section_title
;
Structure prediction by ZEFSAII (Michael W. Deem and Ramdas Pophale) SiO2 
 PCOD9120364
Probable space group: C 2
;
_chemical_formula_sum "Si O2"
_cell_formula_units_Z 24
_cell_length_a 16.233619
_cell_length_b 8.493968
_cell_length_c 19.805297
_cell_angle_alpha 90.000000
_cell_angle_beta 158.700669
_cell_angle_gamma 90.000000
_cell_volume 991.976575
_symmetry_space_group_name_H-M "C 2"
_symmetry_group_IT_number 5
_symmetry_cell_setting 'monoclinic'
loop_
_space_group_symop_operation_xyz
x,y,z
-x,y,-z
1/2+x,1/2+y,z
1/2-x,1/2+y,-z
loop_
_atom_site_type_symbol
_atom_site_label
_atom_site_fract_x
_atom_site_fract_y
_atom_site_fract_z
Si Si1 0.224489 0.285840 0.222163
Si Si2 0.114039 0.683763 0.828997
Si Si3 0.975199 0.182169 0.309640
Si Si4 0.917263 0.484771 0.061109
Si Si5 0.324980 0.364261 0.513063
Si Si6 0.256307 0.966078 0.201989
O O1 0.475279 0.316239 0.384765
O O2 0.164502 0.431996 0.224245
O O3 0.244646 0.098065 0.252362
O O4 0.000000 0.293227 0.000000
O O5 0.077916 0.584706 0.867845
O O6 0.175501 0.568146 0.813063
O O7 0.917052 0.802815 0.655700
O O8 0.311750 0.811288 0.990325
O O9 0.914101 0.313653 0.318598
O O10 0.086327 0.274983 0.330409
O O11 0.156226 0.050070 0.469107
O O12 0.747758 0.084873 0.114947
O O13 0.000000 0.907083 0.000000
#
# Coordination Sequence:
#
# PCOD9120364 Si02
#       6
#     4   4   4   4   4   4
#     4  10  17  38  60  87 123 161 213 253 300 372
#     4  10  20  36  59  90 126 159 206 258 316 368
#     4  11  22  35  63  93 125 163 215 259 320 368
#     4  11  21  37  61  97 125 166 206 267 311 379
#     4  10  21  37  60  92 123 164 213 264 306 380
#     4  10  19  35  61  91 119 160 213 258 298 373
#
# _framework density 24.194120000000002
#
# number of rings (size 3 to 8) (size 9 to 14) (size 15 to 20)
#    0.000    1.667    6.667    3.000    2.333    0.000 
#    0.000    0.000    0.000   13.000    0.000    0.000 
#    0.000    0.000    0.000    0.000    0.000    0.000 
#
# Total GULP energy -66854.874912 kJ/mol
# GULP energy per Si atom -5571.239576 kJ/mol
# Density = 2.413905 g / cm^3
# Si number density = 24.194120 Si / 1000 Ang^3
#
#
#
# Elastic Constant Matrix: (Units=GPa)
#
#
# Indices 1 2 3 4 5 6 
#
# 1 38.8525 27.9927 4.6340 0.0002 17.5069 -0.0001
# 2 27.9927 157.4489 24.8067 0.0024 27.3365 0.0019
# 3 4.6340 24.8067 62.7720 0.0042 23.1325 0.0014
# 4 0.0002 0.0024 0.0042 37.4503 0.0016 19.6174
# 5 17.5069 27.3365 23.1325 0.0016 48.5585 -0.0001
# 6 -0.0001 0.0019 0.0014 19.6174 -0.0001 56.7696
#
#
#
# Elastic Compliance Matrix: (Units=1/GPa)
#
#
# Indices 1 2 3 4 5 6 
#
# 1 0.033681 -0.004587 0.003456 0.000000 -0.011207 0.000000
# 2 -0.004587 0.007799 -0.002104 0.000000 -0.001735 0.000000
# 3 0.003456 -0.002104 0.020050 -0.000002 -0.009613 0.000000
# 4 0.000000 0.000000 -0.000002 0.032604 0.000000 -0.011267
# 5 -0.011207 -0.001735 -0.009613 0.000000 0.030190 0.000000
# 6 0.000000 0.000000 0.000000 -0.011267 0.000000 0.021508
#
#
# Mechanical properties :
#
#
# Convention : Reuss Voigt Hill
#
# Bulk Modulus (GPa) = 18.16194 41.54892 29.85543
# Shear Modulus (GPa) = 29.29879 41.99837 35.64858
#
# Velocity S-wave (km/s) = 3.48370 4.17092 3.84271
# Velocity P-wave (km/s) = 4.86874 6.35656 5.66174
#
# Compressibility (1/GPa) = 0.05506019
#
# Stress axis : x y z
#
# Youngs Moduli (GPa) = 29.69040 128.21374 49.87633
#
# Poissons Ratio (x) = 0.58809 -0.17239
# Poissons Ratio (y) = 0.13618 0.10496
# Poissons Ratio (z) = -0.10262 0.26982
#
# Static dielectric constant tensor:
#      x y z
#    x 2.109140 0.000000 0.054750 
#    y 0.000000 1.967000 0.000000 
#    z 0.054750 0.000000 2.037050 
# 
# From -- ./inp_files/69175.got.cif
#   From: 2010.05.17/outbox.cif.g08.bks.cpg/sg5_35_cif.got.tgz:69175.got - 2010.06.03 18:56:24.
