data_PCOD9120915
_publ_section_title
;
Structure prediction by ZEFSAII (Michael W. Deem and Ramdas Pophale) SiO2 
 PCOD9120915
Probable space group: C 2
;
_chemical_formula_sum "Si O2"
_cell_formula_units_Z 28
_cell_length_a 6.461806
_cell_length_b 22.393568
_cell_length_c 12.341640
_cell_angle_alpha 90.000000
_cell_angle_beta 128.659132
_cell_angle_gamma 90.000000
_cell_volume 1394.544130
_symmetry_space_group_name_H-M "C 2"
_symmetry_group_IT_number 5
_symmetry_cell_setting 'monoclinic'
loop_
_space_group_symop_operation_xyz
x,y,z
-x,y,-z
1/2+x,1/2+y,z
1/2-x,1/2+y,-z
loop_
_atom_site_type_symbol
_atom_site_label
_atom_site_fract_x
_atom_site_fract_y
_atom_site_fract_z
Si Si1 0.277596 0.400110 0.854497
Si Si2 0.503850 0.363522 0.702551
Si Si3 0.249472 0.970032 0.665319
Si Si4 0.290849 0.103877 0.649173
Si Si5 0.000000 0.648275 0.500000
Si Si6 0.073344 0.209734 0.702287
Si Si7 0.502820 0.788595 0.873989
Si Si8 0.000000 0.308561 0.500000
O O1 0.408794 0.369063 0.794122
O O2 0.033308 0.439914 0.731185
O O3 0.167824 0.347558 0.896022
O O4 0.500000 0.432934 0.000000
O O5 0.640870 0.426339 0.722296
O O6 0.704709 0.309405 0.747446
O O7 0.244738 0.349947 0.546597
O O8 0.000000 0.969847 0.500000
O O9 0.311107 0.039096 0.709659
O O10 0.483142 0.112036 0.608213
O O11 0.000000 0.105797 0.500000
O O12 0.277065 0.159001 0.728279
O O13 0.271048 0.685876 0.592426
O O14 0.103422 0.234899 0.832574
O O15 0.091453 0.265192 0.625766
O O16 0.500000 0.776067 0.000000
#
# Coordination Sequence:
#
# PCOD9120915 Si02
#       8
#     4   4   4   4   2   4   4   2
#     4  11  22  40  61  89 122 173 213 251 318 383
#     4  11  23  36  60  89 128 157 205 260 319 373
#     4  10  23  39  61  95 128 159 207 267 316 372
#     4   9  20  38  59  90 122 163 202 253 322 376
#     4  10  18  36  63  90 123 160 202 252 330 368
#     4  11  21  35  61  92 125 161 206 261 315 384
#     4  11  23  38  59  90 125 171 210 251 308 384
#     4  12  20  36  61  98 125 158 196 266 332 376
#
# _framework density 20.078244999999999
#
# number of rings (size 3 to 8) (size 9 to 14) (size 15 to 20)
#    0.000    1.429    5.000    1.714    2.000    3.429 
#    0.000    0.714    0.000    5.143    0.000    0.000 
#    0.000    0.000    0.000    0.000    0.000    0.000 
#
# Total GULP energy -78054.553331 kJ/mol
# GULP energy per Si atom -5575.325238 kJ/mol
# Density = 2.003255 g / cm^3
# Si number density = 20.078245 Si / 1000 Ang^3
#
#
#
# Elastic Constant Matrix: (Units=GPa)
#
#
# Indices 1 2 3 4 5 6 
#
# 1 91.9761 44.4611 19.0349 0.0000 -9.8777 0.0000
# 2 44.4611 115.4723 36.8030 0.0000 -19.1891 0.0000
# 3 19.0349 36.8030 58.7532 0.0000 -11.9332 0.0000
# 4 0.0000 0.0000 0.0000 14.1181 0.0000 -5.2306
# 5 -9.8777 -19.1891 -11.9332 0.0000 41.8634 0.0000
# 6 0.0000 0.0000 0.0000 -5.2306 0.0000 14.5107
#
#
#
# Elastic Compliance Matrix: (Units=1/GPa)
#
#
# Indices 1 2 3 4 5 6 
#
# 1 0.013466 -0.004656 -0.001310 0.000000 0.000670 0.000000
# 2 -0.004656 0.012853 -0.005912 0.000000 0.003108 0.000000
# 3 -0.001310 -0.005912 0.021797 0.000000 0.003194 0.000000
# 4 0.000000 0.000000 0.000000 0.081748 0.000000 0.029467
# 5 0.000670 0.003108 0.003194 0.000000 0.026380 0.000000
# 6 0.000000 0.000000 0.000000 0.029467 0.000000 0.079537
#
#
# Mechanical properties :
#
#
# Convention : Reuss Voigt Hill
#
# Bulk Modulus (GPa) = 41.05022 51.86660 46.45841
# Shear Modulus (GPa) = 18.68059 25.15861 21.91960
#
# Velocity S-wave (km/s) = 3.05354 3.54365 3.30769
# Velocity P-wave (km/s) = 5.73774 6.52929 6.14627
#
# Compressibility (1/GPa) = 0.02436040
#
# Stress axis : x y z
#
# Youngs Moduli (GPa) = 74.25987 77.79988 45.87858
#
# Poissons Ratio (x) = 0.36225 0.06011
# Poissons Ratio (y) = 0.34576 0.27122
# Poissons Ratio (z) = 0.09729 0.45993
#
# Static dielectric constant tensor:
#      x y z
#    x 1.751560 0.000000 0.012560 
#    y 0.000000 1.716050 0.000000 
#    z 0.012560 0.000000 1.749850 
# 
# From -- ./inp_files/33992.got.cif
#   From: 2010.05.17/outbox.cif.g08.bks.cpg/sg5_17_cif.got.tgz:33992.got - 2010.06.03 18:56:24.
