data_PCOD9120846
_publ_section_title
;
Structure prediction by ZEFSAII (Michael W. Deem and Ramdas Pophale) SiO2 
 PCOD9120846
Probable space group: C 2
;
_chemical_formula_sum "Si O2"
_cell_formula_units_Z 26
_cell_length_a 17.160692
_cell_length_b 14.808936
_cell_length_c 10.388626
_cell_angle_alpha 90.000000
_cell_angle_beta 34.091034
_cell_angle_gamma 90.000000
_cell_volume 1479.788578
_symmetry_space_group_name_H-M "C 2"
_symmetry_group_IT_number 5
_symmetry_cell_setting 'monoclinic'
loop_
_space_group_symop_operation_xyz
x,y,z
-x,y,-z
1/2+x,1/2+y,z
1/2-x,1/2+y,-z
loop_
_atom_site_type_symbol
_atom_site_label
_atom_site_fract_x
_atom_site_fract_y
_atom_site_fract_z
Si Si1 0.075195 0.926870 0.257944
Si Si2 0.287060 0.782662 0.072817
Si Si3 0.937022 0.376928 0.331008
Si Si4 0.000000 0.468603 0.500000
Si Si5 0.271816 0.087864 0.957101
Si Si6 0.710978 0.381152 0.434025
Si Si7 0.889646 0.533823 0.055521
O O1 0.203075 0.857458 0.103445
O O2 0.000000 0.931676 0.500000
O O3 0.954266 0.891705 0.329892
O O4 0.136482 0.023922 0.138800
O O5 0.245645 0.684118 0.083951
O O6 0.246412 0.807045 0.275525
O O7 0.451473 0.796787 0.830704
O O8 0.795568 0.360712 0.447652
O O9 0.925346 0.408294 0.493649
O O10 0.017810 0.457420 0.143899
O O11 0.110611 0.531892 0.278383
O O12 0.319397 0.093093 0.041326
O O13 0.774248 0.475457 0.290145
O O14 0.000000 0.580047 0.000000
#
# Coordination Sequence:
#
# PCOD9120846 Si02
#       7
#     4   4   4   2   4   4   4
#     4  10  18  36  56  84 110 146 194 231 278 337
#     4  10  19  33  59  83 111 147 195 233 276 335
#     4   9  17  36  55  78 109 152 185 228 282 341
#     4  10  20  36  56  80 114 152 188 230 300 342
#     4  11  20  33  57  87 115 151 191 237 285 337
#     4   9  17  33  61  79 105 145 196 231 270 334
#     4   8  14  30  56  79 102 140 190 230 268 326
#
# _framework density 17.570077999999999
#
# number of rings (size 3 to 8) (size 9 to 14) (size 15 to 20)
#    0.000    2.462    6.154    1.385    3.231    0.000 
#    1.385    3.846    6.769    0.000    0.000    0.000 
#    0.000    0.000    0.000    0.000    0.000    0.000 
#
# Total GULP energy -72419.092089 kJ/mol
# GULP energy per Si atom -5570.699391 kJ/mol
# Density = 1.753009 g / cm^3
# Si number density = 17.570078 Si / 1000 Ang^3
#
#
#
# Elastic Constant Matrix: (Units=GPa)
#
#
# Indices 1 2 3 4 5 6 
#
# 1 155.7754 47.4549 32.3565 0.0000 -24.7713 0.0000
# 2 47.4549 75.3087 9.7049 0.0000 -3.4525 0.0000
# 3 32.3565 9.7049 39.1923 0.0000 -14.3031 0.0000
# 4 0.0000 0.0000 0.0000 10.6608 0.0000 -2.0481
# 5 -24.7713 -3.4525 -14.3031 0.0000 29.2620 0.0000
# 6 0.0000 0.0000 0.0000 -2.0481 0.0000 23.8969
#
#
#
# Elastic Compliance Matrix: (Units=1/GPa)
#
#
# Indices 1 2 3 4 5 6 
#
# 1 0.009932 -0.005380 -0.004906 0.000000 0.005375 0.000000
# 2 -0.005380 0.016631 -0.000758 0.000000 -0.002963 0.000000
# 3 -0.004906 -0.000758 0.034329 0.000000 0.012537 0.000000
# 4 0.000000 0.000000 0.000000 0.095372 0.000000 0.008174
# 5 0.005375 -0.002963 0.012537 0.000000 0.044503 0.000000
# 6 0.000000 0.000000 0.000000 0.008174 0.000000 0.042547
#
#
# Mechanical properties :
#
#
# Convention : Reuss Voigt Hill
#
# Bulk Modulus (GPa) = 25.77047 49.92320 37.84684
# Shear Modulus (GPa) = 17.96395 24.81460 21.38928
#
# Velocity S-wave (km/s) = 3.20099 3.76216 3.49287
# Velocity P-wave (km/s) = 5.32550 6.88094 6.15257
#
# Compressibility (1/GPa) = 0.03880410
#
# Stress axis : x y z
#
# Youngs Moduli (GPa) = 100.68201 60.12986 29.13029
#
# Poissons Ratio (x) = 0.32350 0.14291
# Poissons Ratio (y) = 0.54167 0.02207
# Poissons Ratio (z) = 0.49395 0.04556
#
# Static dielectric constant tensor:
#      x y z
#    x 1.648200 0.000000 -0.014400 
#    y 0.000000 1.575680 0.000000 
#    z -0.014400 0.000000 1.608860 
# 
# From -- ./inp_files/39594.got.cif
#   From: 2010.05.17/outbox.cif.g08.bks.cpg/sg5_20_cif.got.tgz:39594.got - 2010.06.03 18:56:24.
