data_PCOD9120274
_publ_section_title
;
Structure prediction by ZEFSAII (Michael W. Deem and Ramdas Pophale) SiO2 
 PCOD9120274
Probable space group: C 2
;
_chemical_formula_sum "Si O2"
_cell_formula_units_Z 30
_cell_length_a 8.357634
_cell_length_b 17.222775
_cell_length_c 10.698306
_cell_angle_alpha 90.000000
_cell_angle_beta 63.042576
_cell_angle_gamma 90.000000
_cell_volume 1372.608423
_symmetry_space_group_name_H-M "C 2"
_symmetry_group_IT_number 5
_symmetry_cell_setting 'monoclinic'
loop_
_space_group_symop_operation_xyz
x,y,z
-x,y,-z
1/2+x,1/2+y,z
1/2-x,1/2+y,-z
loop_
_atom_site_type_symbol
_atom_site_label
_atom_site_fract_x
_atom_site_fract_y
_atom_site_fract_z
Si Si1 0.633482 0.027660 0.574075
Si Si2 0.046021 0.980117 0.699795
Si Si3 0.701878 0.043165 0.176994
Si Si4 0.691921 0.609472 0.124589
Si Si5 0.334522 0.204343 0.459525
Si Si6 0.152837 0.201654 0.762396
Si Si7 0.500000 0.221931 0.000000
Si Si8 0.423403 0.309645 0.784383
O O1 0.500000 0.025024 0.500000
O O2 0.496067 0.007375 0.733773
O O3 0.684103 0.116895 0.580218
O O4 0.811161 0.983389 0.464911
O O5 0.946293 0.899496 0.749207
O O6 0.158286 0.994275 0.789190
O O7 0.907339 0.051918 0.744900
O O8 0.720755 0.128808 0.236695
O O9 0.751703 0.058641 0.016371
O O10 0.542162 0.671664 0.133598
O O11 0.856489 0.661943 0.109020
O O12 0.500000 0.206908 0.500000
O O13 0.164054 0.215756 0.609546
O O14 0.399739 0.267540 0.338114
O O15 0.241146 0.276642 0.790016
O O16 0.418402 0.278284 0.926145
#
# Coordination Sequence:
#
# PCOD9120274 Si02
#       8
#     4   4   4   4   4   4   2   4
#     4   9  13  30  58  90 111 154 205 255 287 382
#     4  10  21  35  65  93 123 159 223 268 317 369
#     4  10  17  33  66  93 116 164 224 250 298 394
#     4  11  22  40  66  92 120 177 223 256 309 410
#     4   9  14  32  63  87 113 158 216 255 302 374
#     4  10  17  36  69  90 112 167 229 247 305 394
#     4  12  26  40  58  94 140 164 204 272 344 368
#     4  11  23  37  62  97 134 157 204 292 328 360
#
# _framework density 21.856199
#
# number of rings (size 3 to 8) (size 9 to 14) (size 15 to 20)
#    0.000    1.867    8.000    1.600    1.867    0.000 
#    0.000    6.000   17.600    0.000    0.000    0.000 
#    0.000    0.000    0.000    0.000    0.000    0.000 
#
# Total GULP energy -83657.035831 kJ/mol
# GULP energy per Si atom -5577.135722 kJ/mol
# Density = 2.180645 g / cm^3
# Si number density = 21.856199 Si / 1000 Ang^3
#
#
#
# Elastic Constant Matrix: (Units=GPa)
#
#
# Indices 1 2 3 4 5 6 
#
# 1 46.1553 38.2366 16.6936 0.0000 -21.3837 0.0000
# 2 38.2366 111.2638 6.4033 0.0000 -17.6391 0.0000
# 3 16.6936 6.4033 87.2162 0.0000 -19.5518 0.0000
# 4 0.0000 0.0000 0.0000 24.5331 0.0000 -9.9254
# 5 -21.3837 -17.6391 -19.5518 0.0000 28.4152 0.0000
# 6 0.0000 0.0000 0.0000 -9.9254 0.0000 26.3017
#
#
#
# Elastic Compliance Matrix: (Units=1/GPa)
#
#
# Indices 1 2 3 4 5 6 
#
# 1 0.042206 -0.010615 -0.001958 0.000000 0.023826 0.000000
# 2 -0.010615 0.012683 0.001271 0.000000 0.000759 0.000000
# 3 -0.001958 0.001271 0.013708 0.000000 0.008748 0.000000
# 4 0.000000 0.000000 0.000000 0.048106 0.000000 0.018154
# 5 0.023826 0.000759 0.008748 0.000000 0.059613 0.000000
# 6 0.000000 0.000000 0.000000 0.018154 0.000000 0.044871
#
#
# Mechanical properties :
#
#
# Convention : Reuss Voigt Hill
#
# Bulk Modulus (GPa) = 21.74229 40.81137 31.27683
# Shear Modulus (GPa) = 19.29601 28.07012 23.68307
#
# Velocity S-wave (km/s) = 2.97452 3.58761 3.29536
# Velocity P-wave (km/s) = 4.66546 5.98953 5.36847
#
# Compressibility (1/GPa) = 0.04599331
#
# Stress axis : x y z
#
# Youngs Moduli (GPa) = 23.69333 78.84770 72.94876
#
# Poissons Ratio (x) = 0.83693 0.14284
# Poissons Ratio (y) = 0.25149 -0.09270
# Poissons Ratio (z) = 0.04639 -0.10020
#
# Static dielectric constant tensor:
#      x y z
#    x 1.839580 0.000000 -0.016680 
#    y 0.000000 1.749310 0.000000 
#    z -0.016680 0.000000 1.924070 
# 
# From -- ./inp_files/36998.got.cif
#   From: 2010.05.17/outbox.cif.g08.bks.cpg/sg5_19_cif.got.tgz:36998.got - 2010.06.03 18:56:24.
