data_PCOD9120240
_publ_section_title
;
Structure prediction by ZEFSAII (Michael W. Deem and Ramdas Pophale) SiO2 
 PCOD9120240
Probable space group: C 2
;
_chemical_formula_sum "Si O2"
_cell_formula_units_Z 28
_cell_length_a 20.146639
_cell_length_b 17.640502
_cell_length_c 8.604448
_cell_angle_alpha 90.000000
_cell_angle_beta 29.238048
_cell_angle_gamma 90.000000
_cell_volume 1493.643983
_symmetry_space_group_name_H-M "C 2"
_symmetry_group_IT_number 5
_symmetry_cell_setting 'monoclinic'
loop_
_space_group_symop_operation_xyz
x,y,z
-x,y,-z
1/2+x,1/2+y,z
1/2-x,1/2+y,-z
loop_
_atom_site_type_symbol
_atom_site_label
_atom_site_fract_x
_atom_site_fract_y
_atom_site_fract_z
Si Si1 0.373826 0.976130 0.875624
Si Si2 0.648654 0.682159 0.779010
Si Si3 0.391691 0.811260 0.938886
Si Si4 0.301491 0.775366 0.775152
Si Si5 0.969663 0.071199 0.744742
Si Si6 0.362986 0.419331 0.868055
Si Si7 0.239130 0.619498 0.746356
O O1 0.500000 0.975922 0.500000
O O2 0.388242 0.901821 0.953434
O O3 0.240451 0.959140 0.042968
O O4 0.363575 0.054984 0.987875
O O5 0.757722 0.649023 0.436571
O O6 0.500000 0.682311 0.000000
O O7 0.675692 0.766906 0.782104
O O8 0.629848 0.630922 0.971007
O O9 0.322512 0.786773 0.917063
O O10 0.548183 0.783739 0.605039
O O11 0.241162 0.694655 0.849568
O O12 0.210671 0.846827 0.910205
O O13 0.000000 0.086189 0.500000
O O14 0.114307 0.079595 0.530793
O O15 0.909085 0.987453 0.884651
O O16 0.500000 0.394386 0.500000
#
# Coordination Sequence:
#
# PCOD9120240 Si02
#       7
#     4   4   4   4   4   4   4
#     4  11  21  36  60  92 123 151 195 251 303 347
#     4  10  20  32  56  88 118 150 202 242 284 350
#     4  10  18  35  57  86 114 157 201 243 283 358
#     4  10  19  33  59  83 113 151 203 239 291 345
#     4  10  17  32  60  85 108 144 200 240 278 336
#     4  10  19  34  58  90 113 145 201 247 289 348
#     4  11  21  35  56  91 119 153 196 246 295 355
#
# _framework density 18.746100999999999
#
# number of rings (size 3 to 8) (size 9 to 14) (size 15 to 20)
#    0.000    1.714    8.571    0.857    0.000    0.571 
#    2.571    0.000    0.000    0.000    0.000    0.000 
#    0.000    0.000    0.000    0.000    0.000    0.000 
#
# Total GULP energy -78047.299128 kJ/mol
# GULP energy per Si atom -5574.807081 kJ/mol
# Density = 1.870343 g / cm^3
# Si number density = 18.746101 Si / 1000 Ang^3
#
#
#
# Elastic Constant Matrix: (Units=GPa)
#
#
# Indices 1 2 3 4 5 6 
#
# 1 30.2296 35.2088 23.4932 0.0000 11.4181 0.0000
# 2 35.2088 184.1829 44.7876 0.0000 22.4155 0.0000
# 3 23.4932 44.7876 57.0102 0.0000 7.2245 0.0000
# 4 0.0000 0.0000 0.0000 24.7837 0.0000 -4.7757
# 5 11.4181 22.4155 7.2245 0.0000 14.0441 0.0000
# 6 0.0000 0.0000 0.0000 -4.7757 0.0000 28.3367
#
#
#
# Elastic Compliance Matrix: (Units=1/GPa)
#
#
# Indices 1 2 3 4 5 6 
#
# 1 0.067384 -0.003162 -0.020305 0.000000 -0.039293 0.000000
# 2 -0.003162 0.007982 -0.003936 0.000000 -0.008145 0.000000
# 3 -0.020305 -0.003936 0.027933 0.000000 0.008421 0.000000
# 4 0.000000 0.000000 0.000000 0.041704 0.000000 0.007028
# 5 -0.039293 -0.008145 0.008421 0.000000 0.111819 0.000000
# 6 0.000000 0.000000 0.000000 0.007028 0.000000 0.036474
#
#
# Mechanical properties :
#
#
# Convention : Reuss Voigt Hill
#
# Bulk Modulus (GPa) = 20.62087 53.15575 36.88831
# Shear Modulus (GPa) = 13.72623 24.62842 19.17732
#
# Velocity S-wave (km/s) = 2.70889 3.62855 3.20191
# Velocity P-wave (km/s) = 4.56159 6.78030 5.77843
#
# Compressibility (1/GPa) = 0.04849457
#
# Stress axis : x y z
#
# Youngs Moduli (GPa) = 14.84022 125.28035 35.79996
#
# Poissons Ratio (x) = 0.39610 0.72692
# Poissons Ratio (y) = 0.04692 0.14090
# Poissons Ratio (z) = 0.30133 0.49307
#
# Static dielectric constant tensor:
#      x y z
#    x 1.672030 0.000000 0.008830 
#    y 0.000000 1.689880 0.000000 
#    z 0.008830 0.000000 1.657130 
# 
# From -- ./inp_files/29998.got.cif
#   From: 2010.05.17/outbox.cif.g08.bks.cpg/sg5_15_cif.got.tgz:29998.got - 2010.06.03 18:56:24.
