data_PCOD9120297
_publ_section_title
;
Structure prediction by ZEFSAII (Michael W. Deem and Ramdas Pophale) SiO2 
 PCOD9120297
Probable space group: C 2
;
_chemical_formula_sum "Si O2"
_cell_formula_units_Z 26
_cell_length_a 12.105709
_cell_length_b 18.118743
_cell_length_c 8.623912
_cell_angle_alpha 90.000000
_cell_angle_beta 38.605617
_cell_angle_gamma 90.000000
_cell_volume 1180.257375
_symmetry_space_group_name_H-M "C 2"
_symmetry_group_IT_number 5
_symmetry_cell_setting 'monoclinic'
loop_
_space_group_symop_operation_xyz
x,y,z
-x,y,-z
1/2+x,1/2+y,z
1/2-x,1/2+y,-z
loop_
_atom_site_type_symbol
_atom_site_label
_atom_site_fract_x
_atom_site_fract_y
_atom_site_fract_z
Si Si1 0.334799 0.708620 0.467172
Si Si2 0.294990 0.079106 0.966640
Si Si3 0.500000 0.171132 0.000000
Si Si4 0.792081 0.871814 0.740580
Si Si5 0.555459 0.872291 0.694930
Si Si6 0.293852 0.197031 0.734656
Si Si7 0.000000 0.083346 0.500000
Si Si8 0.500000 0.977819 0.500000
O O1 0.146928 0.721877 0.758451
O O2 0.440944 0.785429 0.352816
O O3 0.298972 0.687399 0.328511
O O4 0.402700 0.639015 0.489393
O O5 0.428138 0.117884 0.942062
O O6 0.213071 0.147288 0.958088
O O7 0.384569 0.027914 0.741179
O O8 0.145716 0.042026 0.238198
O O9 0.694206 0.882927 0.682721
O O10 0.793720 0.783461 0.768673
O O11 0.000000 0.893426 0.500000
O O12 0.640830 0.896017 0.030116
O O13 0.607879 0.923359 0.493969
O O14 0.500000 0.175134 0.500000
#
# Coordination Sequence:
#
# PCOD9120297 Si02
#       8
#     4   4   2   4   4   4   2   2
#     4  10  19  37  62 100 135 158 210 272 328 392
#     4  11  22  41  65  96 127 174 212 263 327 387
#     4  10  20  36  68  98 128 164 210 274 338 376
#     4   9  20  40  70  95 126 163 215 273 333 386
#     4  10  22  40  62  96 130 177 210 262 326 383
#     4  10  17  34  66 100 122 158 203 263 331 379
#     4  10  23  36  62  98 127 166 210 276 330 372
#     4  12  25  44  64  86 133 176 228 260 306 392
#
# _framework density 22.029094000000001
#
# number of rings (size 3 to 8) (size 9 to 14) (size 15 to 20)
#    0.000    1.846    2.308    1.385    0.000    4.308 
#    1.385    0.000   10.154    0.000    0.000    0.000 
#    0.000    0.000    0.000    0.000    0.000    0.000 
#
# Total GULP energy -72564.752637 kJ/mol
# GULP energy per Si atom -5581.904049 kJ/mol
# Density = 2.197895 g / cm^3
# Si number density = 22.029094 Si / 1000 Ang^3
#
#
#
# Elastic Constant Matrix: (Units=GPa)
#
#
# Indices 1 2 3 4 5 6 
#
# 1 78.1395 52.8952 46.6181 0.0000 12.3333 0.0000
# 2 52.8952 79.8524 50.0755 0.0000 13.8354 0.0000
# 3 46.6181 50.0755 177.1637 0.0000 3.2419 0.0000
# 4 0.0000 0.0000 0.0000 59.7146 0.0000 -22.6593
# 5 12.3333 13.8354 3.2419 0.0000 37.5210 0.0000
# 6 0.0000 0.0000 0.0000 -22.6593 0.0000 50.6787
#
#
#
# Elastic Compliance Matrix: (Units=1/GPa)
#
#
# Indices 1 2 3 4 5 6 
#
# 1 0.024111 -0.014078 -0.002319 0.000000 -0.002534 0.000000
# 2 -0.014078 0.024548 -0.003158 0.000000 -0.004152 0.000000
# 3 -0.002319 -0.003158 0.007123 0.000000 0.001311 0.000000
# 4 0.000000 0.000000 0.000000 0.020168 0.000000 0.009017
# 5 -0.002534 -0.004152 0.001311 0.000000 0.028902 0.000000
# 6 0.000000 0.000000 0.000000 0.009017 0.000000 0.023764
#
#
# Mechanical properties :
#
#
# Convention : Reuss Voigt Hill
#
# Bulk Modulus (GPa) = 59.97996 70.48148 65.23072
# Shear Modulus (GPa) = 28.85418 41.95399 35.40408
#
# Velocity S-wave (km/s) = 3.62307 4.36877 4.01328
# Velocity P-wave (km/s) = 6.69245 7.58369 7.15197
#
# Compressibility (1/GPa) = 0.01667223
#
# Stress axis : x y z
#
# Youngs Moduli (GPa) = 41.47483 40.73569 140.38335
#
# Poissons Ratio (x) = 0.57349 0.32553
# Poissons Ratio (y) = 0.58389 0.44336
# Poissons Ratio (z) = 0.09617 0.12865
#
# Static dielectric constant tensor:
#      x y z
#    x 1.740820 0.000000 -0.035830 
#    y 0.000000 1.800270 0.000000 
#    z -0.035830 0.000000 1.882700 
# 
# From -- ./inp_files/21916.got.cif
#   From: 2010.05.17/outbox.cif.g08.bks.cpg/sg5_11_cif.got.tgz:21916.got - 2010.06.03 18:56:24.
