data_PCOD9120382
_publ_section_title
;
Structure prediction by ZEFSAII (Michael W. Deem and Ramdas Pophale) SiO2 
 PCOD9120382
Probable space group: C 2
;
_chemical_formula_sum "Si O2"
_cell_formula_units_Z 28
_cell_length_a 16.110189
_cell_length_b 8.432031
_cell_length_c 13.640369
_cell_angle_alpha 90.000000
_cell_angle_beta 132.932488
_cell_angle_gamma 90.000000
_cell_volume 1356.635094
_symmetry_space_group_name_H-M "C 2"
_symmetry_group_IT_number 5
_symmetry_cell_setting 'monoclinic'
loop_
_space_group_symop_operation_xyz
x,y,z
-x,y,-z
1/2+x,1/2+y,z
1/2-x,1/2+y,-z
loop_
_atom_site_type_symbol
_atom_site_label
_atom_site_fract_x
_atom_site_fract_y
_atom_site_fract_z
Si Si1 0.418821 0.654330 0.842546
Si Si2 0.560159 0.450642 0.806004
Si Si3 0.062779 0.605639 0.818911
Si Si4 0.338559 0.002874 0.724441
Si Si5 0.309733 0.158167 0.270573
Si Si6 0.285856 0.983419 0.896943
Si Si7 0.091546 0.907252 0.502187
O O1 0.491054 0.552707 0.825928
O O2 0.380311 0.820081 0.763556
O O3 0.301047 0.567889 0.779521
O O4 0.500000 0.686858 0.000000
O O5 0.600214 0.282852 0.882451
O O6 0.666861 0.543734 0.845900
O O7 0.476275 0.392987 0.652219
O O8 0.109625 0.580577 0.746192
O O9 0.928864 0.590418 0.729605
O O10 0.122944 0.489069 0.944258
O O11 0.332069 0.059249 0.833192
O O12 0.208929 0.999958 0.584172
O O13 0.250406 0.306928 0.166275
O O14 0.375262 0.244749 0.412945
O O15 0.000000 0.989947 0.500000
#
# Coordination Sequence:
#
# PCOD9120382 Si02
#       7
#     4   4   4   4   4   4   4
#     4  10  20  37  55  85 121 154 189 228 293 341
#     4  11  22  36  62  87 110 157 192 242 279 335
#     4  11  20  34  57  90 111 148 198 230 289 332
#     4  10  21  35  61  84 116 156 186 240 278 347
#     4   9  20  36  60  81 116 158 185 240 280 348
#     4   9  18  34  53  80 114 150 188 224 278 340
#     4  10  17  40  61  79 109 150 204 221 279 351
#
# _framework density 20.639299999999999
#
# number of rings (size 3 to 8) (size 9 to 14) (size 15 to 20)
#    0.000    2.286    4.286    3.000    0.000    4.571 
#    0.000    1.429    0.000    0.000    0.000    0.000 
#    0.000    0.000    0.000    0.000    0.000    0.000 
#
# Total GULP energy -77998.805654 kJ/mol
# GULP energy per Si atom -5571.343261 kJ/mol
# Density = 2.059232 g / cm^3
# Si number density = 20.639300 Si / 1000 Ang^3
#
#
#
# Elastic Constant Matrix: (Units=GPa)
#
#
# Indices 1 2 3 4 5 6 
#
# 1 164.8075 15.3016 1.7629 0.0000 26.6772 0.0000
# 2 15.3016 18.0692 -7.0069 0.0000 -3.2857 0.0000
# 3 1.7629 -7.0069 72.5397 0.0000 17.2904 0.0000
# 4 0.0000 0.0000 0.0000 8.0482 0.0000 5.9055
# 5 26.6772 -3.2857 17.2904 0.0000 34.4363 0.0000
# 6 0.0000 0.0000 0.0000 5.9055 0.0000 36.1769
#
#
#
# Elastic Compliance Matrix: (Units=1/GPa)
#
#
# Indices 1 2 3 4 5 6 
#
# 1 0.007963 -0.007763 0.000799 0.000000 -0.007311 0.000000
# 2 -0.007763 0.065350 0.004068 0.000000 0.010207 0.000000
# 3 0.000799 0.004068 0.016147 0.000000 -0.008338 0.000000
# 4 0.000000 0.000000 0.000000 0.141160 0.000000 -0.023043
# 5 -0.007311 0.010207 -0.008338 0.000000 0.039863 0.000000
# 6 0.000000 0.000000 0.000000 -0.023043 0.000000 0.031403
#
#
# Mechanical properties :
#
#
# Convention : Reuss Voigt Hill
#
# Bulk Modulus (GPa) = 11.95184 30.61463 21.28324
# Shear Modulus (GPa) = 14.90013 32.08955 23.49484
#
# Velocity S-wave (km/s) = 2.68979 3.94735 3.37761
# Velocity P-wave (km/s) = 3.93065 5.96999 5.05425
#
# Compressibility (1/GPa) = 0.08366909
#
# Stress axis : x y z
#
# Youngs Moduli (GPa) = 125.57548 15.30214 61.93263
#
# Poissons Ratio (x) = 0.11879 -0.04950
# Poissons Ratio (y) = 0.97486 -0.25196
# Poissons Ratio (z) = -0.10037 -0.06225
#
# Static dielectric constant tensor:
#      x y z
#    x 1.838000 0.000000 0.028900 
#    y 0.000000 1.767160 0.000000 
#    z 0.028900 0.000000 1.753630 
# 
# From -- ./inp_files/55766.got.cif
#   From: 2010.05.17/outbox.cif.g08.bks.cpg/sg5_28_cif.got.tgz:55766.got - 2010.06.03 18:56:24.
