data_PCOD9120163
_publ_section_title
;
Structure prediction by ZEFSAII (Michael W. Deem and Ramdas Pophale) SiO2 
 PCOD9120163
Probable space group: C 2
;
_chemical_formula_sum "Si O2"
_cell_formula_units_Z 22
_cell_length_a 26.499434
_cell_length_b 6.986593
_cell_length_c 4.984118
_cell_angle_alpha 90.000000
_cell_angle_beta 100.695837
_cell_angle_gamma 90.000000
_cell_volume 906.731566
_symmetry_space_group_name_H-M "C 2"
_symmetry_group_IT_number 5
_symmetry_cell_setting 'monoclinic'
loop_
_space_group_symop_operation_xyz
x,y,z
-x,y,-z
1/2+x,1/2+y,z
1/2-x,1/2+y,-z
loop_
_atom_site_type_symbol
_atom_site_label
_atom_site_fract_x
_atom_site_fract_y
_atom_site_fract_z
Si Si1 0.758106 0.920890 0.588438
Si Si2 0.468654 0.142808 0.718360
Si Si3 0.371255 0.340931 0.618940
Si Si4 0.500000 0.528143 0.000000
Si Si5 0.201818 0.297247 0.063265
Si Si6 0.396892 0.595344 0.140553
O O1 0.810221 0.823574 0.525216
O O2 0.720855 0.952175 0.296912
O O3 0.779156 0.109459 0.757939
O O4 0.727845 0.818817 0.800291
O O5 0.500000 0.068961 0.500000
O O6 0.407193 0.152218 0.623953
O O7 0.478968 0.372763 0.763979
O O8 0.500000 0.060957 0.000000
O O9 0.388058 0.507751 0.425606
O O10 0.380780 0.419103 0.928640
O O11 0.545498 0.637952 0.897657
O O12 0.141562 0.268773 0.955017
#
# Coordination Sequence:
#
# PCOD9120163 Si02
#       6
#     4   4   4   2   4   4
#     4  11  22  37  56  78 116 150 190 231 278 325
#     4   9  14  23  39  66  99 132 162 206 273 336
#     4  10  17  30  46  72 105 148 170 220 276 332
#     4   8  16  24  44  68 106 132 164 216 290 322
#     4  11  22  37  55  82 112 151 191 232 274 332
#     4  10  18  29  49  74 110 140 178 225 283 329
#
# _framework density 24.262972000000001
#
# number of rings (size 3 to 8) (size 9 to 14) (size 15 to 20)
#    0.545    1.455    1.818    5.455    0.000    0.000 
#    0.000    0.000    0.000    0.000    0.000    0.000 
#   27.273    0.000    0.000    0.000    0.000    0.000 
#
# Total GULP energy -61331.199329 kJ/mol
# GULP energy per Si atom -5575.563575 kJ/mol
# Density = 2.420775 g / cm^3
# Si number density = 24.262972 Si / 1000 Ang^3
#
#
#
# Elastic Constant Matrix: (Units=GPa)
#
#
# Indices 1 2 3 4 5 6 
#
# 1 139.1646 18.7045 15.3056 0.0000 -17.7239 0.0000
# 2 18.7045 35.0637 -5.0186 0.0000 -6.4271 0.0000
# 3 15.3056 -5.0186 126.7699 0.0000 -13.8900 0.0000
# 4 0.0000 0.0000 0.0000 17.7264 0.0000 0.7472
# 5 -17.7239 -6.4271 -13.8900 0.0000 36.2709 0.0000
# 6 0.0000 0.0000 0.0000 0.7472 0.0000 18.5163
#
#
#
# Elastic Compliance Matrix: (Units=1/GPa)
#
#
# Indices 1 2 3 4 5 6 
#
# 1 0.008185 -0.003935 -0.000816 0.000000 0.002990 0.000000
# 2 -0.003935 0.031775 0.002233 0.000000 0.004562 0.000000
# 3 -0.000816 0.002233 0.008429 0.000000 0.003224 0.000000
# 4 0.000000 0.000000 0.000000 0.056509 0.000000 -0.002280
# 5 0.002990 0.004562 0.003224 0.000000 0.031075 0.000000
# 6 0.000000 0.000000 0.000000 -0.002280 0.000000 0.054098
#
#
# Mechanical properties :
#
#
# Convention : Reuss Voigt Hill
#
# Bulk Modulus (GPa) = 23.06755 39.88681 31.47718
# Shear Modulus (GPa) = 23.85972 32.63650 28.24811
#
# Velocity S-wave (km/s) = 3.13929 3.67156 3.41581
# Velocity P-wave (km/s) = 4.76111 5.86932 5.34402
#
# Compressibility (1/GPa) = 0.04335094
#
# Stress axis : x y z
#
# Youngs Moduli (GPa) = 122.17145 31.47170 118.64397
#
# Poissons Ratio (x) = 0.12385 0.09687
# Poissons Ratio (y) = 0.48077 -0.26492
# Poissons Ratio (z) = 0.09975 -0.07027
#
# Static dielectric constant tensor:
#      x y z
#    x 2.021420 0.000000 0.067050 
#    y 0.000000 2.027350 0.000000 
#    z 0.067050 0.000000 1.908210 
# 
# From -- ./inp_files/10671.got.cif
#   From: 2010.05.17/outbox.cif.g08.bks.cpg/sg5_6_cif.got.tgz:10671.got - 2010.06.03 18:56:24.
