data_PCOD9120304
_publ_section_title
;
Structure prediction by ZEFSAII (Michael W. Deem and Ramdas Pophale) SiO2 
 PCOD9120304
Probable space group: C 2
;
_chemical_formula_sum "Si O2"
_cell_formula_units_Z 30
_cell_length_a 12.152745
_cell_length_b 11.619690
_cell_length_c 18.116971
_cell_angle_alpha 90.000000
_cell_angle_beta 34.928417
_cell_angle_gamma 90.000000
_cell_volume 1464.771521
_symmetry_space_group_name_H-M "C 2"
_symmetry_group_IT_number 5
_symmetry_cell_setting 'monoclinic'
loop_
_space_group_symop_operation_xyz
x,y,z
-x,y,-z
1/2+x,1/2+y,z
1/2-x,1/2+y,-z
loop_
_atom_site_type_symbol
_atom_site_label
_atom_site_fract_x
_atom_site_fract_y
_atom_site_fract_z
Si Si1 0.422708 0.236470 0.249501
Si Si2 0.053178 0.708826 0.343839
Si Si3 0.177500 0.910308 0.439699
Si Si4 0.961248 0.987429 0.768537
Si Si5 0.000000 0.284251 0.500000
Si Si6 0.672524 0.888270 0.802136
Si Si7 0.860512 0.494100 0.483512
Si Si8 0.098522 0.588839 0.021377
O O1 0.467370 0.202043 0.309150
O O2 0.491422 0.370441 0.212142
O O3 0.530336 0.161911 0.128761
O O4 0.192879 0.223856 0.365542
O O5 0.268571 0.756718 0.215146
O O6 0.926510 0.800610 0.462354
O O7 0.028117 0.586621 0.395569
O O8 0.308157 0.890300 0.296836
O O9 0.292428 0.975858 0.437905
O O10 0.000000 0.977113 0.500000
O O11 0.838147 0.952158 0.761832
O O12 0.167718 0.034449 0.631005
O O13 0.825342 0.075689 0.885704
O O14 0.924142 0.371182 0.478814
O O15 0.481664 0.957206 0.926728
O O16 0.000000 0.634316 0.000000
#
# Coordination Sequence:
#
# PCOD9120304 Si02
#       8
#     4   4   4   4   2   4   4   4
#     4  10  20  41  58  83 117 153 197 247 297 352
#     4  10  20  34  58  86 120 146 189 246 307 352
#     4  10  17  35  56  87 113 149 191 246 295 349
#     4   9  19  39  57  82 119 152 195 246 288 345
#     4  10  22  38  56  82 124 158 182 248 306 358
#     4   9  18  35  57  85 115 142 195 245 287 347
#     4  11  20  36  56  87 123 153 184 241 313 353
#     4  10  21  38  59  81 112 164 202 242 284 341
#
# _framework density 20.481010999999999
#
# number of rings (size 3 to 8) (size 9 to 14) (size 15 to 20)
#    0.000    2.133    5.333    0.800    2.800    2.133 
#    7.200    1.333    0.000    0.000    0.000    0.000 
#    0.000    0.000    0.000    0.000    0.000    0.000 
#
# Total GULP energy -83547.379455 kJ/mol
# GULP energy per Si atom -5569.825297 kJ/mol
# Density = 2.043440 g / cm^3
# Si number density = 20.481011 Si / 1000 Ang^3
#
#
#
# Elastic Constant Matrix: (Units=GPa)
#
#
# Indices 1 2 3 4 5 6 
#
# 1 91.2613 10.5330 47.3304 -0.0001 11.1163 0.0000
# 2 10.5330 44.6300 18.0373 -0.0006 11.7007 0.0000
# 3 47.3304 18.0373 87.6950 -0.0017 21.4744 0.0001
# 4 -0.0001 -0.0006 -0.0017 36.1819 0.0004 -7.3574
# 5 11.1163 11.7007 21.4744 0.0004 28.7486 0.0000
# 6 0.0000 0.0000 0.0001 -7.3574 0.0000 -9.0458
#
#
#
# Elastic Compliance Matrix: (Units=1/GPa)
#
#
# Indices 1 2 3 4 5 6 
#
# 1 0.015224 -0.000372 -0.008244 0.000000 0.000422 0.000000
# 2 -0.000372 0.025875 -0.003155 0.000000 -0.008031 0.000000
# 3 -0.008244 -0.003155 0.018855 0.000001 -0.009613 0.000000
# 4 0.000000 0.000000 0.000001 0.023716 -0.000001 -0.019289
# 5 0.000422 -0.008031 -0.009613 -0.000001 0.045070 0.000000
# 6 0.000000 0.000000 0.000000 -0.019289 0.000000 -0.094860
#
#
# Mechanical properties :
#
#
# Convention : Reuss Voigt Hill
#
# Bulk Modulus (GPa) = 27.46243 41.70974 34.58609
# Shear Modulus (GPa) = 71.88156 21.02266 46.45211
#
# Velocity S-wave (km/s) = 5.93067 3.20730 4.76758
# Velocity P-wave (km/s) = 7.76756 5.84166 6.87241
#
# Compressibility (1/GPa) = 0.03641338
#
# Stress axis : x y z
#
# Youngs Moduli (GPa) = 65.68369 38.64790 53.03558
#
# Poissons Ratio (x) = 0.01438 0.43722
# Poissons Ratio (y) = 0.02444 0.16731
# Poissons Ratio (z) = 0.54148 0.12192
#
# Static dielectric constant tensor:
#      x y z
#    x 1.750570 0.000000 -0.003010 
#    y 0.000000 1.795290 0.000000 
#    z -0.003010 0.000000 1.743540 
# 
# From -- ./inp_files/60477.got.cif
#   From: 2010.05.17/outbox.cif.g08.bks.cpg/sg5_31_cif.got.tgz:60477.got - 2010.06.03 18:56:24.
