data_PCOD9120854
_publ_section_title
;
Structure prediction by ZEFSAII (Michael W. Deem and Ramdas Pophale) SiO2 
 PCOD9120854
Probable space group: C 2
;
_chemical_formula_sum "Si O2"
_cell_formula_units_Z 28
_cell_length_a 17.405523
_cell_length_b 8.874753
_cell_length_c 14.576724
_cell_angle_alpha 90.000000
_cell_angle_beta 32.306065
_cell_angle_gamma 90.000000
_cell_volume 1203.382573
_symmetry_space_group_name_H-M "C 2"
_symmetry_group_IT_number 5
_symmetry_cell_setting 'monoclinic'
loop_
_space_group_symop_operation_xyz
x,y,z
-x,y,-z
1/2+x,1/2+y,z
1/2-x,1/2+y,-z
loop_
_atom_site_type_symbol
_atom_site_label
_atom_site_fract_x
_atom_site_fract_y
_atom_site_fract_z
Si Si1 0.128865 0.161340 0.439822
Si Si2 0.110618 0.545759 0.244853
Si Si3 0.789559 0.461102 0.379093
Si Si4 0.203220 0.494138 0.348005
Si Si5 0.003230 0.022326 0.886590
Si Si6 0.953893 0.759848 0.279340
Si Si7 0.465202 0.765268 0.788341
O O1 0.214787 0.313239 0.329905
O O2 0.053234 0.190904 0.615042
O O3 0.000000 0.144234 0.500000
O O4 0.229135 0.015327 0.342407
O O5 0.204150 0.553915 0.243063
O O6 0.950642 0.521294 0.450685
O O7 0.082485 0.691916 0.211149
O O8 0.132229 0.395244 0.160924
O O9 0.853920 0.619374 0.351755
O O10 0.653361 0.375977 0.561414
O O11 0.924707 0.354865 0.257329
O O12 0.324098 0.554993 0.293966
O O13 0.984249 0.853176 0.868745
O O14 0.916766 0.130425 0.903979
O O15 0.000000 0.032710 0.000000
#
# Coordination Sequence:
#
# PCOD9120854 Si02
#       7
#     4   4   4   4   4   4   4
#     4  11  18  31  57  92 116 138 170 234 305 343
#     4   9  19  35  64  85 113 141 174 247 302 341
#     4  11  18  32  60  87 114 143 178 247 289 341
#     4  10  18  36  57  88 115 144 177 225 305 338
#     4  12  24  39  56  76 114 165 202 227 264 336
#     4  11  19  33  57  85 111 146 194 227 289 335
#     4  10  19  36  54  80 112 150 190 220 287 334
#
# _framework density 23.267745000000001
#
# number of rings (size 3 to 8) (size 9 to 14) (size 15 to 20)
#    0.000    1.429    7.143    2.571    0.000    0.000 
#    5.143    4.286    0.000    0.000    0.000    0.000 
#    0.000    0.000    0.000    0.000    0.000    0.000 
#
# Total GULP energy -78068.071877 kJ/mol
# GULP energy per Si atom -5576.290848 kJ/mol
# Density = 2.321479 g / cm^3
# Si number density = 23.267745 Si / 1000 Ang^3
#
#
#
# Elastic Constant Matrix: (Units=GPa)
#
#
# Indices 1 2 3 4 5 6 
#
# 1 115.7095 51.1811 4.7918 0.0000 10.9014 0.0000
# 2 51.1811 103.7360 13.7767 0.0000 15.4680 0.0000
# 3 4.7918 13.7767 41.2473 0.0000 21.5533 0.0000
# 4 0.0000 0.0000 0.0000 13.3346 0.0000 7.0771
# 5 10.9014 15.4680 21.5533 0.0000 29.1150 0.0000
# 6 0.0000 0.0000 0.0000 7.0771 0.0000 44.4128
#
#
#
# Elastic Compliance Matrix: (Units=1/GPa)
#
#
# Indices 1 2 3 4 5 6 
#
# 1 0.011199 -0.005369 0.001945 0.000000 -0.002781 0.000000
# 2 -0.005369 0.013067 -0.001898 0.000000 -0.003527 0.000000
# 3 0.001945 -0.001898 0.039965 0.000000 -0.029306 0.000000
# 4 0.000000 0.000000 0.000000 0.081921 0.000000 -0.013054
# 5 -0.002781 -0.003527 -0.029306 0.000000 0.058956 0.000000
# 6 0.000000 0.000000 0.000000 -0.013054 0.000000 0.024596
#
#
# Mechanical properties :
#
#
# Convention : Reuss Voigt Hill
#
# Bulk Modulus (GPa) = 18.66088 44.46579 31.56333
# Shear Modulus (GPa) = 19.36421 30.10204 24.73312
#
# Velocity S-wave (km/s) = 2.88798 3.60074 3.26387
# Velocity P-wave (km/s) = 4.37699 6.03648 5.27243
#
# Compressibility (1/GPa) = 0.05358804
#
# Stress axis : x y z
#
# Youngs Moduli (GPa) = 89.29751 76.53078 25.02178
#
# Poissons Ratio (x) = 0.41088 -0.04867
# Poissons Ratio (y) = 0.47942 0.04748
# Poissons Ratio (z) = -0.17371 0.14523
#
# Static dielectric constant tensor:
#      x y z
#    x 1.914420 0.000000 -0.051480 
#    y 0.000000 1.906970 0.000000 
#    z -0.051480 0.000000 2.007530 
# 
# From -- ./inp_files/55723.got.cif
#   From: 2010.05.17/outbox.cif.g08.bks.cpg/sg5_28_cif.got.tgz:55723.got - 2010.06.03 18:56:24.
