data_PCOD9120539
_publ_section_title
;
Structure prediction by ZEFSAII (Michael W. Deem and Ramdas Pophale) SiO2 
 PCOD9120539
Probable space group: C 2
;
_chemical_formula_sum "Si O2"
_cell_formula_units_Z 30
_cell_length_a 17.594509
_cell_length_b 5.636787
_cell_length_c 11.941482
_cell_angle_alpha 90.000000
_cell_angle_beta 94.148737
_cell_angle_gamma 90.000000
_cell_volume 1181.211013
_symmetry_space_group_name_H-M "C 2"
_symmetry_group_IT_number 5
_symmetry_cell_setting 'monoclinic'
loop_
_space_group_symop_operation_xyz
x,y,z
-x,y,-z
1/2+x,1/2+y,z
1/2-x,1/2+y,-z
loop_
_atom_site_type_symbol
_atom_site_label
_atom_site_fract_x
_atom_site_fract_y
_atom_site_fract_z
Si Si1 0.530330 0.147060 0.356289
Si Si2 0.154846 0.426465 0.208427
Si Si3 0.293502 0.919880 0.020746
Si Si4 0.000000 0.768692 0.000000
Si Si5 0.285873 0.534356 0.372933
Si Si6 0.050734 0.034209 0.206326
Si Si7 0.152229 0.535608 0.549976
Si Si8 0.572723 0.935459 0.819190
O O1 0.525286 0.421012 0.322901
O O2 0.591398 0.078860 0.264532
O O3 0.573873 0.070575 0.471340
O O4 0.452418 0.028799 0.305695
O O5 0.147107 0.431988 0.075723
O O6 0.237169 0.511751 0.254071
O O7 0.130841 0.161706 0.241332
O O8 0.249388 0.673206 0.991323
O O9 0.339947 0.900978 0.140970
O O10 0.956833 0.626823 0.093289
O O11 0.058512 0.912865 0.085119
O O12 0.219779 0.534590 0.461106
O O13 0.333429 0.776422 0.392992
O O14 0.331630 0.288123 0.388151
O O15 0.979665 0.206660 0.171354
#
# Coordination Sequence:
#
# PCOD9120539 Si02
#       8
#     4   4   4   2   4   4   4   4
#     4   9  20  32  63  87 122 148 184 246 293 371
#     4  10  22  37  56  87 114 164 200 238 300 343
#     4  12  29  43  59  81 116 162 208 253 287 346
#     4  10  18  32  56  84 114 150 188 256 290 372
#     4   9  19  30  53  76 127 154 180 224 275 372
#     4  10  19  31  61  82 117 154 195 245 297 365
#     4   9  18  31  48  90 118 153 177 216 298 349
#     4  10  21  37  52  85 108 153 193 242 306 345
#
# _framework density 25.397663000000001
#
# number of rings (size 3 to 8) (size 9 to 14) (size 15 to 20)
#    0.000    2.133    0.000    3.600   18.667    0.000 
#    0.000    0.000    0.000    0.000    0.000    5.600 
#    0.000    0.000    0.000    0.000    0.000    0.000 
#
# Total GULP energy -83731.455867 kJ/mol
# GULP energy per Si atom -5582.097058 kJ/mol
# Density = 2.533986 g / cm^3
# Si number density = 25.397663 Si / 1000 Ang^3
#
#
#
# Elastic Constant Matrix: (Units=GPa)
#
#
# Indices 1 2 3 4 5 6 
#
# 1 97.6974 55.1247 33.9531 0.0000 42.6147 0.0000
# 2 55.1247 133.3917 49.7572 0.0000 38.1565 0.0000
# 3 33.9531 49.7572 155.5596 0.0000 48.0418 0.0000
# 4 0.0000 0.0000 0.0000 25.9220 0.0000 -11.0760
# 5 42.6147 38.1565 48.0418 0.0000 52.0570 0.0000
# 6 0.0000 0.0000 0.0000 -11.0760 0.0000 19.9109
#
#
#
# Elastic Compliance Matrix: (Units=1/GPa)
#
#
# Indices 1 2 3 4 5 6 
#
# 1 0.017633 -0.004189 0.001400 0.000000 -0.012656 0.000000
# 2 -0.004189 0.010655 -0.001596 0.000000 -0.002908 0.000000
# 3 0.001400 -0.001596 0.009267 0.000000 -0.008529 0.000000
# 4 0.000000 0.000000 0.000000 0.050606 0.000000 0.028151
# 5 -0.012656 -0.002908 -0.008529 0.000000 0.039573 0.000000
# 6 0.000000 0.000000 0.000000 0.028151 0.000000 0.065884
#
#
# Mechanical properties :
#
#
# Convention : Reuss Voigt Hill
#
# Bulk Modulus (GPa) = 34.73905 73.81320 54.27612
# Shear Modulus (GPa) = 23.58687 36.09888 29.84288
#
# Velocity S-wave (km/s) = 3.05077 3.77417 3.43158
# Velocity P-wave (km/s) = 5.11051 6.93675 6.09245
#
# Compressibility (1/GPa) = 0.02878605
#
# Stress axis : x y z
#
# Youngs Moduli (GPa) = 56.71069 93.85401 107.90720
#
# Poissons Ratio (x) = 0.39314 -0.15105
# Poissons Ratio (y) = 0.23755 0.17218
# Poissons Ratio (z) = -0.07939 0.14976
#
# Static dielectric constant tensor:
#      x y z
#    x 2.089840 0.000000 -0.031990 
#    y 0.000000 2.260710 0.000000 
#    z -0.031990 0.000000 1.992120 
# 
# From -- ./inp_files/55473.got.cif
#   From: 2010.05.17/outbox.cif.g08.bks.cpg/sg5_28_cif.got.tgz:55473.got - 2010.06.03 18:56:24.
