data_PCOD9120161
_publ_section_title
;
Structure prediction by ZEFSAII (Michael W. Deem and Ramdas Pophale) SiO2 
 PCOD9120161
Probable space group: C 2
;
_chemical_formula_sum "Si O2"
_cell_formula_units_Z 30
_cell_length_a 20.936534
_cell_length_b 12.205287
_cell_length_c 15.409726
_cell_angle_alpha 90.000000
_cell_angle_beta 151.531674
_cell_angle_gamma 90.000000
_cell_volume 1877.016663
_symmetry_space_group_name_H-M "C 2"
_symmetry_group_IT_number 5
_symmetry_cell_setting 'monoclinic'
loop_
_space_group_symop_operation_xyz
x,y,z
-x,y,-z
1/2+x,1/2+y,z
1/2-x,1/2+y,-z
loop_
_atom_site_type_symbol
_atom_site_label
_atom_site_fract_x
_atom_site_fract_y
_atom_site_fract_z
Si Si1 0.115194 0.889850 0.068195
Si Si2 0.838587 0.720029 0.028889
Si Si3 0.000000 0.949895 0.500000
Si Si4 0.084274 0.369131 0.512226
Si Si5 0.103818 0.495432 0.838421
Si Si6 0.344443 0.585849 0.004484
Si Si7 0.226424 0.817365 0.864004
Si Si8 0.968650 0.139808 0.327734
O O1 0.117545 0.796810 0.996594
O O2 0.261223 0.890183 0.286226
O O3 0.101391 0.006176 0.003616
O O4 0.000000 0.871087 0.000000
O O5 0.683450 0.680344 0.829169
O O6 0.921050 0.608823 0.141560
O O7 0.840821 0.784707 0.123329
O O8 0.875907 0.873153 0.324645
O O9 0.013015 0.034282 0.435054
O O10 0.000000 0.387339 0.500000
O O11 0.018611 0.445515 0.360713
O O12 0.060773 0.243196 0.457183
O O13 0.221969 0.524831 0.909619
O O14 0.162403 0.405431 0.974238
O O15 0.288270 0.702801 0.905687
O O16 0.453398 0.610897 0.208794
#
# Coordination Sequence:
#
# PCOD9120161 Si02
#       8
#     4   4   2   4   4   4   4   4
#     4  12  24  38  56  82 116 147 191 236 274 338
#     4  10  18  36  52  81 117 144 176 229 289 321
#     4  12  16  24  46  94 116 132 168 240 294 304
#     4  12  18  33  58  88 107 144 197 224 268 333
#     4  10  17  32  57  82 109 138 178 239 276 317
#     4  10  19  35  51  79 115 147 174 227 292 322
#     4  10  18  28  52  85 113 135 175 237 274 323
#     4  10  17  29  58  84 114 143 180 231 272 339
#
# _framework density 15.982810000000001
#
# number of rings (size 3 to 8) (size 9 to 14) (size 15 to 20)
#    0.000    1.600   10.000    0.000    0.000    2.133 
#    0.000    1.333    0.000    0.800    0.000    0.000 
#    0.000    0.000    0.000    0.000    0.000    0.000 
#
# Total GULP energy -83620.671656 kJ/mol
# GULP energy per Si atom -5574.711444 kJ/mol
# Density = 1.594643 g / cm^3
# Si number density = 15.982810 Si / 1000 Ang^3
#
#
#
# Elastic Constant Matrix: (Units=GPa)
#
#
# Indices 1 2 3 4 5 6 
#
# 1 60.6332 36.9142 37.9068 0.0000 -2.4454 0.0000
# 2 36.9142 129.1034 51.8476 0.0000 -17.5347 0.0000
# 3 37.9068 51.8476 108.9350 0.0000 -17.5874 0.0000
# 4 0.0000 0.0000 0.0000 36.3910 0.0000 -14.5711
# 5 -2.4454 -17.5347 -17.5874 0.0000 17.1353 0.0000
# 6 0.0000 0.0000 0.0000 -14.5711 0.0000 19.9817
#
#
#
# Elastic Compliance Matrix: (Units=1/GPa)
#
#
# Indices 1 2 3 4 5 6 
#
# 1 0.023852 -0.005138 -0.007376 0.000000 -0.009424 0.000000
# 2 -0.005138 0.011254 -0.002190 0.000000 0.008534 0.000000
# 3 -0.007376 -0.002190 0.014692 0.000000 0.011785 0.000000
# 4 0.000000 0.000000 0.000000 0.038812 0.000000 0.028302
# 5 -0.009424 0.008534 0.011785 0.000000 0.077843 0.000000
# 6 0.000000 0.000000 0.000000 0.028302 0.000000 0.070685
#
#
# Mechanical properties :
#
#
# Convention : Reuss Voigt Hill
#
# Bulk Modulus (GPa) = 49.04701 61.33432 55.19066
# Shear Modulus (GPa) = 18.29215 26.16846 22.23030
#
# Velocity S-wave (km/s) = 3.38670 4.05073 3.73351
# Velocity P-wave (km/s) = 6.78579 7.76765 7.29326
#
# Compressibility (1/GPa) = 0.02038860
#
# Stress axis : x y z
#
# Youngs Moduli (GPa) = 41.92553 88.86084 68.06534
#
# Poissons Ratio (x) = 0.45654 0.50206
# Poissons Ratio (y) = 0.21540 0.14910
# Poissons Ratio (z) = 0.30925 0.19465
#
# Static dielectric constant tensor:
#      x y z
#    x 1.516630 0.000000 -0.019460 
#    y 0.000000 1.566410 0.000000 
#    z -0.019460 0.000000 1.540630 
# 
# From -- ./inp_files/57021.got.cif
#   From: 2010.05.17/outbox.cif.g08.bks.cpg/sg5_29_cif.got.tgz:57021.got - 2010.06.03 18:56:24.
