data_PCOD9120071
_publ_section_title
;
Structure prediction by ZEFSAII (Michael W. Deem and Ramdas Pophale) SiO2 
 PCOD9120071
Probable space group: C 2
;
_chemical_formula_sum "Si O2"
_cell_formula_units_Z 24
_cell_length_a 15.783594
_cell_length_b 17.300439
_cell_length_c 9.446869
_cell_angle_alpha 90.000000
_cell_angle_beta 33.119215
_cell_angle_gamma 90.000000
_cell_volume 1409.444548
_symmetry_space_group_name_H-M "C 2"
_symmetry_group_IT_number 5
_symmetry_cell_setting 'monoclinic'
loop_
_space_group_symop_operation_xyz
x,y,z
-x,y,-z
1/2+x,1/2+y,z
1/2-x,1/2+y,-z
loop_
_atom_site_type_symbol
_atom_site_label
_atom_site_fract_x
_atom_site_fract_y
_atom_site_fract_z
Si Si1 0.000000 0.629850 0.500000
Si Si2 0.230779 0.747631 0.016491
Si Si3 0.271691 0.596769 0.302548
Si Si4 0.520653 0.368323 0.641649
Si Si5 0.500000 0.653473 0.500000
Si Si6 0.830534 0.277667 0.185476
Si Si7 0.459058 0.543472 0.287472
O O1 0.113426 0.684718 0.249773
O O2 0.105592 0.583946 0.462876
O O3 0.323447 0.778471 0.024362
O O4 0.121442 0.814716 0.106762
O O5 0.351934 0.706375 0.744607
O O6 0.298813 0.689130 0.277590
O O7 0.308128 0.557924 0.401288
O O8 0.398305 0.567794 0.012545
O O9 0.500000 0.369346 0.500000
O O10 0.685942 0.328345 0.440027
O O11 0.521324 0.454862 0.696999
O O12 0.463351 0.598777 0.417477
O O13 0.000000 0.301438 0.000000
#
# Coordination Sequence:
#
# PCOD9120071 Si02
#       7
#     2   4   4   4   2   4   4
#     4  10  16  37  65  84 102 162 206 232 270 369
#     4  10  19  35  60  87 114 157 199 236 291 353
#     4  10  19  37  62  82 112 160 205 224 294 356
#     4  10  20  36  59  84 121 157 190 237 306 347
#     4  12  20  35  63  94 118 146 204 254 284 331
#     4  10  16  34  62  82 105 159 208 227 269 372
#     4  11  21  36  58  91 120 153 190 249 297 346
#
# _framework density 17.027985000000001
#
# number of rings (size 3 to 8) (size 9 to 14) (size 15 to 20)
#    0.000    1.667   10.000    0.000    0.000    0.000 
#    0.000   13.333    0.000    0.000    0.000    0.000 
#    0.000    0.000    0.000    0.000    0.000    0.000 
#
# Total GULP energy -66897.853687 kJ/mol
# GULP energy per Si atom -5574.821141 kJ/mol
# Density = 1.698923 g / cm^3
# Si number density = 17.027985 Si / 1000 Ang^3
#
#
#
# Elastic Constant Matrix: (Units=GPa)
#
#
# Indices 1 2 3 4 5 6 
#
# 1 140.4773 47.1541 47.8236 -0.0001 -27.2590 0.0000
# 2 47.1541 121.1112 59.2110 -0.0001 -8.3556 0.0000
# 3 47.8236 59.2110 98.6634 -0.0002 -9.6193 0.0000
# 4 -0.0001 -0.0001 -0.0002 8.5636 0.0001 -6.6830
# 5 -27.2590 -8.3556 -9.6193 0.0001 30.4029 0.0000
# 6 0.0000 0.0000 0.0000 -6.6830 0.0000 24.4118
#
#
#
# Elastic Compliance Matrix: (Units=1/GPa)
#
#
# Indices 1 2 3 4 5 6 
#
# 1 0.010332 -0.001994 -0.003056 0.000000 0.007749 0.000000
# 2 -0.001994 0.012101 -0.006341 0.000000 -0.000469 0.000000
# 3 -0.003056 -0.006341 0.015462 0.000000 0.000410 0.000000
# 4 0.000000 0.000000 0.000000 0.148499 -0.000001 0.040653
# 5 0.007749 -0.000469 0.000410 -0.000001 0.039840 0.000000
# 6 0.000000 0.000000 0.000000 0.040653 0.000000 0.052093
#
#
# Mechanical properties :
#
#
# Convention : Reuss Voigt Hill
#
# Bulk Modulus (GPa) = 66.16962 74.29216 70.23089
# Shear Modulus (GPa) = 16.33199 26.41320 21.37259
#
# Velocity S-wave (km/s) = 3.10034 3.94275 3.54665
# Velocity P-wave (km/s) = 7.19443 8.02815 7.62270
#
# Compressibility (1/GPa) = 0.01511267
#
# Stress axis : x y z
#
# Youngs Moduli (GPa) = 96.78819 82.63592 64.67329
#
# Poissons Ratio (x) = 0.16478 0.19763
# Poissons Ratio (y) = 0.19300 0.41012
# Poissons Ratio (z) = 0.29577 0.52403
#
# Static dielectric constant tensor:
#      x y z
#    x 1.613030 0.000000 -0.014480 
#    y 0.000000 1.566330 0.000000 
#    z -0.014480 0.000000 1.563580 
# 
# From -- ./inp_files/24518.got.cif
#   From: 2010.05.17/outbox.cif.g08.bks.cpg/sg5_13_cif.got.tgz:24518.got - 2010.06.03 18:56:24.
