data_PCOD9120400
_publ_section_title
;
Structure prediction by ZEFSAII (Michael W. Deem and Ramdas Pophale) SiO2 
 PCOD9120400
Probable space group: C 2
;
_chemical_formula_sum "Si O2"
_cell_formula_units_Z 26
_cell_length_a 11.077232
_cell_length_b 21.039463
_cell_length_c 7.020043
_cell_angle_alpha 90.000000
_cell_angle_beta 138.204161
_cell_angle_gamma 90.000000
_cell_volume 1090.414726
_symmetry_space_group_name_H-M "C 2"
_symmetry_group_IT_number 5
_symmetry_cell_setting 'monoclinic'
loop_
_space_group_symop_operation_xyz
x,y,z
-x,y,-z
1/2+x,1/2+y,z
1/2-x,1/2+y,-z
loop_
_atom_site_type_symbol
_atom_site_label
_atom_site_fract_x
_atom_site_fract_y
_atom_site_fract_z
Si Si1 0.755999 0.539730 0.609408
Si Si2 0.685336 0.661390 0.007708
Si Si3 0.724338 0.680177 0.491621
Si Si4 0.147574 0.023283 0.927078
Si Si5 0.000000 0.431944 0.000000
Si Si6 0.962895 0.758114 0.225345
Si Si7 0.830742 0.890405 0.152516
O O1 0.816544 0.611881 0.644833
O O2 0.697395 0.531299 0.760914
O O3 0.565760 0.530200 0.280309
O O4 0.895952 0.482667 0.739540
O O5 0.695267 0.687774 0.230968
O O6 0.824374 0.699541 0.042431
O O7 0.483433 0.670987 0.687382
O O8 0.735411 0.587766 0.103293
O O9 0.857419 0.739614 0.680574
O O10 0.193667 0.950491 0.015939
O O11 0.149617 0.390152 0.068208
O O12 0.874250 0.826501 0.090949
O O13 0.000000 0.760688 0.500000
O O14 0.000000 0.902550 0.500000
#
# Coordination Sequence:
#
# PCOD9120400 Si02
#       7
#     4   4   4   4   2   4   4
#     4   9  17  29  49  77  98 124 167 202 247 289
#     4   9  18  32  49  73 100 128 163 202 252 290
#     4   9  18  32  48  73  98 128 162 200 247 297
#     4   9  16  32  50  75 101 126 163 212 247 283
#     4  10  18  28  48  76  98 128 164 204 254 284
#     4   9  19  30  46  70 102 132 161 199 246 300
#     4  10  18  31  46  73 103 132 162 208 246 294
#
# _framework density 23.844138000000001
#
# number of rings (size 3 to 8) (size 9 to 14) (size 15 to 20)
#    0.000    2.769    3.077    0.000    4.308    3.692 
#    0.000    0.000    0.000    0.000   16.000    2.154 
#    0.000    0.000    0.000    0.000    0.000    0.000 
#
# Total GULP energy -72466.472186 kJ/mol
# GULP energy per Si atom -5574.344014 kJ/mol
# Density = 2.378987 g / cm^3
# Si number density = 23.844138 Si / 1000 Ang^3
#
#
#
# Elastic Constant Matrix: (Units=GPa)
#
#
# Indices 1 2 3 4 5 6 
#
# 1 67.7250 36.5036 27.0113 0.0000 9.6277 0.0000
# 2 36.5036 183.3354 37.4034 0.0000 30.5499 0.0000
# 3 27.0113 37.4034 57.1018 0.0000 14.8061 0.0000
# 4 0.0000 0.0000 0.0000 26.0338 0.0000 7.5247
# 5 9.6277 30.5499 14.8061 0.0000 25.9001 0.0000
# 6 0.0000 0.0000 0.0000 7.5247 0.0000 36.8932
#
#
#
# Elastic Compliance Matrix: (Units=1/GPa)
#
#
# Indices 1 2 3 4 5 6 
#
# 1 0.018969 -0.002226 -0.007475 0.000000 -0.000152 0.000000
# 2 -0.002226 0.007449 -0.002069 0.000000 -0.006776 0.000000
# 3 -0.007475 -0.002069 0.024714 0.000000 -0.008909 0.000000
# 4 0.000000 0.000000 0.000000 0.040818 0.000000 -0.008325
# 5 -0.000152 -0.006776 -0.008909 0.000000 0.051751 0.000000
# 6 0.000000 0.000000 0.000000 -0.008325 0.000000 0.028803
#
#
# Mechanical properties :
#
#
# Convention : Reuss Voigt Hill
#
# Bulk Modulus (GPa) = 36.24508 56.66653 46.45581
# Shear Modulus (GPa) = 24.36144 31.58168 27.97156
#
# Velocity S-wave (km/s) = 3.19986 3.64332 3.42877
# Velocity P-wave (km/s) = 5.37457 6.44324 5.93302
#
# Compressibility (1/GPa) = 0.02758995
#
# Stress axis : x y z
#
# Youngs Moduli (GPa) = 52.71873 134.24568 40.46300
#
# Poissons Ratio (x) = 0.29890 0.30247
# Poissons Ratio (y) = 0.11738 0.08373
# Poissons Ratio (z) = 0.39408 0.27778
#
# Static dielectric constant tensor:
#      x y z
#    x 1.958560 0.000000 -0.037530 
#    y 0.000000 1.942980 0.000000 
#    z -0.037530 0.000000 2.043850 
# 
# From -- ./inp_files/43411.got.cif
#   From: 2010.05.17/outbox.cif.g08.bks.cpg/sg5_22_cif.got.tgz:43411.got - 2010.06.03 18:56:24.
