data_PCOD9120377
_publ_section_title
;
Structure prediction by ZEFSAII (Michael W. Deem and Ramdas Pophale) SiO2 
 PCOD9120377
Probable space group: C 2
;
_chemical_formula_sum "Si O2"
_cell_formula_units_Z 20
_cell_length_a 26.153254
_cell_length_b 7.537203
_cell_length_c 9.418155
_cell_angle_alpha 90.000000
_cell_angle_beta 149.924386
_cell_angle_gamma 90.000000
_cell_volume 930.385614
_symmetry_space_group_name_H-M "C 2"
_symmetry_group_IT_number 5
_symmetry_cell_setting 'monoclinic'
loop_
_space_group_symop_operation_xyz
x,y,z
-x,y,-z
1/2+x,1/2+y,z
1/2-x,1/2+y,-z
loop_
_atom_site_type_symbol
_atom_site_label
_atom_site_fract_x
_atom_site_fract_y
_atom_site_fract_z
Si Si1 0.467530 0.726770 0.766998
Si Si2 0.432807 0.471521 0.197603
Si Si3 0.931054 0.834831 0.698920
Si Si4 0.248248 0.140139 0.137697
Si Si5 0.104128 0.439930 0.669961
O O1 0.558191 0.635740 0.892520
O O2 0.401959 0.545457 0.632187
O O3 0.420450 0.868936 0.548166
O O4 0.500000 0.792325 0.000000
O O5 0.500000 0.502618 0.500000
O O6 0.492711 0.319908 0.254137
O O7 0.315542 0.470323 0.960991
O O8 0.830022 0.721277 0.441724
O O9 0.000000 0.796424 0.000000
O O10 0.314419 0.094249 0.157906
O O11 0.163143 0.283151 0.891939
O O12 0.000000 0.483807 0.500000
#
# Coordination Sequence:
#
# PCOD9120377 Si02
#       5
#     4   4   4   4   4
#     4   9  18  40  63  82 129 159 185 257 304 340
#     4  10  17  39  64  83 122 155 198 247 291 358
#     4   9  21  41  60  86 127 157 198 255 296 354
#     4  12  22  37  68  86 117 165 199 247 309 349
#     4  12  23  41  62  93 121 155 210 253 292 365
#
# _framework density 21.496461
#
# number of rings (size 3 to 8) (size 9 to 14) (size 15 to 20)
#    1.200    0.400    4.000    2.400    0.000    3.200 
#    3.600    2.000    0.000    0.000    0.000    0.000 
#    0.000    0.000    0.000    0.000    0.000    0.000 
#
# Total GULP energy -55703.676071 kJ/mol
# GULP energy per Si atom -5570.367607 kJ/mol
# Density = 2.144753 g / cm^3
# Si number density = 21.496461 Si / 1000 Ang^3
#
#
#
# Elastic Constant Matrix: (Units=GPa)
#
#
# Indices 1 2 3 4 5 6 
#
# 1 123.2661 15.0977 79.3479 0.0000 5.0158 0.0000
# 2 15.0977 25.8718 18.8504 0.0000 2.7505 0.0000
# 3 79.3479 18.8504 115.4934 0.0000 -6.0285 0.0000
# 4 0.0000 0.0000 0.0000 18.4329 0.0000 -3.2718
# 5 5.0158 2.7505 -6.0285 0.0000 50.9494 0.0000
# 6 0.0000 0.0000 0.0000 -3.2718 0.0000 26.5012
#
#
#
# Elastic Compliance Matrix: (Units=1/GPa)
#
#
# Indices 1 2 3 4 5 6 
#
# 1 0.014926 -0.000975 -0.010232 0.000000 -0.002627 0.000000
# 2 -0.000975 0.044469 -0.006750 0.000000 -0.003103 0.000000
# 3 -0.010232 -0.006750 0.016967 0.000000 0.003379 0.000000
# 4 0.000000 0.000000 0.000000 0.055466 0.000000 0.006848
# 5 -0.002627 -0.003103 0.003379 0.000000 0.020453 0.000000
# 6 0.000000 0.000000 0.000000 0.006848 0.000000 0.038580
#
#
# Mechanical properties :
#
#
# Convention : Reuss Voigt Hill
#
# Bulk Modulus (GPa) = 24.72424 54.58036 39.65230
# Shear Modulus (GPa) = 20.81096 29.26571 25.03834
#
# Velocity S-wave (km/s) = 3.11482 3.69375 3.41657
# Velocity P-wave (km/s) = 4.94598 6.60585 5.83523
#
# Compressibility (1/GPa) = 0.04044614
#
# Stress axis : x y z
#
# Youngs Moduli (GPa) = 66.99908 22.48742 58.93939
#
# Poissons Ratio (x) = 0.02193 0.60309
# Poissons Ratio (y) = 0.06534 0.39784
# Poissons Ratio (z) = 0.68556 0.15179
#
# Static dielectric constant tensor:
#      x y z
#    x 1.823190 0.000000 0.006840 
#    y 0.000000 1.896750 0.000000 
#    z 0.006840 0.000000 1.742130 
# 
# From -- ./inp_files/31593.got.cif
#   From: 2010.05.17/outbox.cif.g08.bks.cpg/sg5_16_cif.got.tgz:31593.got - 2010.06.03 18:56:24.
