data_PCOD9120277
_publ_section_title
;
Structure prediction by ZEFSAII (Michael W. Deem and Ramdas Pophale) SiO2 
 PCOD9120277
Probable space group: C 2
;
_chemical_formula_sum "Si O2"
_cell_formula_units_Z 30
_cell_length_a 14.069823
_cell_length_b 11.778466
_cell_length_c 6.823127
_cell_angle_alpha 90.000000
_cell_angle_beta 114.667947
_cell_angle_gamma 90.000000
_cell_volume 1027.546130
_symmetry_space_group_name_H-M "C 2"
_symmetry_group_IT_number 5
_symmetry_cell_setting 'monoclinic'
loop_
_space_group_symop_operation_xyz
x,y,z
-x,y,-z
1/2+x,1/2+y,z
1/2-x,1/2+y,-z
loop_
_atom_site_type_symbol
_atom_site_label
_atom_site_fract_x
_atom_site_fract_y
_atom_site_fract_z
Si Si1 0.380291 0.537670 0.976991
Si Si2 0.394014 0.285028 0.030064
Si Si3 0.397278 0.040095 0.127335
Si Si4 0.388764 0.789440 0.436863
Si Si5 0.852172 0.049388 0.423439
Si Si6 0.000000 0.863034 0.500000
Si Si7 0.360885 0.007757 0.560230
Si Si8 0.120097 0.290937 0.023961
O O1 0.343067 0.404648 0.913810
O O2 0.364812 0.540083 0.199860
O O3 0.339919 0.664196 0.875714
O O4 0.500000 0.536501 0.000000
O O5 0.353841 0.155853 0.995088
O O6 0.428513 0.296765 0.287265
O O7 0.500000 0.278865 0.000000
O O8 0.361402 0.031342 0.324879
O O9 0.525296 0.041248 0.255286
O O10 0.361275 0.929562 0.970100
O O11 0.500000 0.848606 0.500000
O O12 0.407637 0.665508 0.532047
O O13 0.338398 0.870791 0.551193
O O14 0.351883 0.777361 0.184917
O O15 0.740007 0.059083 0.425299
O O16 0.919485 0.942159 0.550516
O O17 0.000000 0.289365 0.000000
#
# Coordination Sequence:
#
# PCOD9120277 Si02
#       8
#     4   4   4   4   4   2   4   4
#     4   8  17  33  54  78 107 146 193 240 290 343
#     4  10  20  34  58  84 116 154 191 238 308 365
#     4  10  19  34  54  80 120 153 189 241 300 353
#     4  10  17  34  55  81 113 145 191 248 286 338
#     4  10  20  32  59  86 111 152 204 245 296 360
#     4  10  20  36  58  84 110 152 202 240 302 358
#     4  10  20  33  54  87 116 150 197 247 293 355
#     4   9  16  30  56  81  99 147 198 228 281 350
#
# _framework density 29.195772000000002
#
# number of rings (size 3 to 8) (size 9 to 14) (size 15 to 20)
#    0.000    2.400    3.333    1.200    0.000    3.200 
#    0.000    0.000    0.000   33.600    0.000    0.000 
#    0.000    0.000    0.000    0.000    0.000    0.000 
#
# Total GULP energy -83674.288025 kJ/mol
# GULP energy per Si atom -5578.285868 kJ/mol
# Density = 2.912932 g / cm^3
# Si number density = 29.195772 Si / 1000 Ang^3
#
#
#
# Elastic Constant Matrix: (Units=GPa)
#
#
# Indices 1 2 3 4 5 6 
#
# 1 185.8821 41.5842 44.0593 0.0000 -24.7536 0.0000
# 2 41.5842 278.8157 49.2429 0.0000 8.8133 0.0000
# 3 44.0593 49.2429 128.4271 0.0000 -29.4340 0.0000
# 4 0.0000 0.0000 0.0000 10.7760 0.0000 -11.7925
# 5 -24.7536 8.8133 -29.4340 0.0000 35.6722 0.0000
# 6 0.0000 0.0000 0.0000 -11.7925 0.0000 20.5644
#
#
#
# Elastic Compliance Matrix: (Units=1/GPa)
#
#
# Indices 1 2 3 4 5 6 
#
# 1 0.006313 -0.000895 -0.000947 0.000000 0.003821 0.000000
# 2 -0.000895 0.004192 -0.002072 0.000000 -0.003367 0.000000
# 3 -0.000947 -0.002072 0.010942 0.000000 0.008883 0.000000
# 4 0.000000 0.000000 0.000000 0.249145 0.000000 0.142870
# 5 0.003821 -0.003367 0.008883 0.000000 0.038846 0.000000
# 6 0.000000 0.000000 0.000000 0.142870 0.000000 0.130555
#
#
# Mechanical properties :
#
#
# Convention : Reuss Voigt Hill
#
# Bulk Modulus (GPa) = 73.42580 95.87753 84.65166
# Shear Modulus (GPa) = 11.05310 43.95176 27.50243
#
# Velocity S-wave (km/s) = 1.94784 3.88418 3.07253
# Velocity P-wave (km/s) = 5.50117 7.28194 6.45327
#
# Compressibility (1/GPa) = 0.01361919
#
# Stress axis : x y z
#
# Youngs Moduli (GPa) = 158.39684 238.52295 91.39274
#
# Poissons Ratio (x) = 0.21350 0.08655
# Poissons Ratio (y) = 0.14178 0.18937
# Poissons Ratio (z) = 0.15001 0.49423
#
# Static dielectric constant tensor:
#      x y z
#    x 2.275700 0.000000 0.112950 
#    y 0.000000 2.279740 0.000000 
#    z 0.112950 0.000000 2.503730 
# 
# From -- ./inp_files/23636.got.cif
#   From: 2010.05.17/outbox.cif.g08.bks.cpg/sg5_12_cif.got.tgz:23636.got - 2010.06.03 18:56:24.
