data_PCOD9120486
_publ_section_title
;
Structure prediction by ZEFSAII (Michael W. Deem and Ramdas Pophale) SiO2 
 PCOD9120486
Probable space group: C 2
;
_chemical_formula_sum "Si O2"
_cell_formula_units_Z 26
_cell_length_a 14.341885
_cell_length_b 5.667224
_cell_length_c 17.034026
_cell_angle_alpha 90.000000
_cell_angle_beta 133.662741
_cell_angle_gamma 90.000000
_cell_volume 1001.572038
_symmetry_space_group_name_H-M "C 2"
_symmetry_group_IT_number 5
_symmetry_cell_setting 'monoclinic'
loop_
_space_group_symop_operation_xyz
x,y,z
-x,y,-z
1/2+x,1/2+y,z
1/2-x,1/2+y,-z
loop_
_atom_site_type_symbol
_atom_site_label
_atom_site_fract_x
_atom_site_fract_y
_atom_site_fract_z
Si Si1 0.500000 0.547590 0.000000
Si Si2 0.600203 0.308110 0.485477
Si Si3 0.301680 0.908199 0.950379
Si Si4 0.651579 0.800378 0.568340
Si Si5 0.223596 0.816575 0.189171
Si Si6 0.500422 0.401032 0.745737
Si Si7 0.549351 0.918767 0.800845
O O1 0.382741 0.688052 0.968616
O O2 0.418901 0.428737 0.884023
O O3 0.500000 0.299092 0.500000
O O4 0.679361 0.551430 0.542238
O O5 0.521610 0.360486 0.359997
O O6 0.670069 0.050202 0.532646
O O7 0.320543 0.105780 0.894677
O O8 0.149195 0.889715 0.859942
O O9 0.359126 0.939651 0.069761
O O10 0.500000 0.796112 0.500000
O O11 0.721325 0.795729 0.692430
O O12 0.349140 0.916999 0.213700
O O13 0.470741 0.672577 0.749613
O O14 0.456377 0.144114 0.749925
#
# Coordination Sequence:
#
# PCOD9120486 Si02
#       7
#     2   4   4   4   4   4   4
#     4  12  26  40  62  90 136 172 204 260 318 394
#     4  10  18  31  54  90 124 151 199 265 329 346
#     4  11  24  39  60  91 132 170 212 255 320 383
#     4  10  20  33  58  89 128 156 206 265 325 353
#     4  11  24  40  61  94 136 165 214 264 318 383
#     4  11  20  36  61  94 131 157 207 270 314 370
#     4  11  22  37  64  90 131 168 212 260 313 380
#
# _framework density 25.95919
#
# number of rings (size 3 to 8) (size 9 to 14) (size 15 to 20)
#    0.000    1.231    1.538    8.769    4.308    0.000 
#    0.000    0.000    0.000    0.000    0.000    6.462 
#    0.000    0.000    0.000    0.000    0.000    0.000 
#
# Total GULP energy -72516.987817 kJ/mol
# GULP energy per Si atom -5578.229832 kJ/mol
# Density = 2.590011 g / cm^3
# Si number density = 25.959190 Si / 1000 Ang^3
#
#
#
# Elastic Constant Matrix: (Units=GPa)
#
#
# Indices 1 2 3 4 5 6 
#
# 1 62.1730 45.1328 46.1464 0.0000 29.5327 0.0000
# 2 45.1328 174.7206 5.1602 0.0000 -58.8369 0.0000
# 3 46.1464 5.1602 142.5601 0.0000 -68.4474 0.0000
# 4 0.0000 0.0000 0.0000 32.6248 0.0000 4.7233
# 5 29.5327 -58.8369 -68.4474 0.0000 7.1061 0.0000
# 6 0.0000 0.0000 0.0000 4.7233 0.0000 16.3270
#
#
#
# Elastic Compliance Matrix: (Units=1/GPa)
#
#
# Indices 1 2 3 4 5 6 
#
# 1 0.007425 0.001736 0.002864 0.000000 0.011102 0.000000
# 2 0.001736 0.003763 -0.002979 0.000000 -0.004751 0.000000
# 3 0.002864 -0.002979 0.003135 0.000000 -0.006375 0.000000
# 4 0.000000 0.000000 0.000000 0.031991 0.000000 -0.009255
# 5 0.011102 -0.004751 -0.006375 0.000000 -0.006151 0.000000
# 6 0.000000 0.000000 0.000000 -0.009255 0.000000 0.063926
#
#
# Mechanical properties :
#
#
# Convention : Reuss Voigt Hill
#
# Bulk Modulus (GPa) = 56.93308 63.59251 60.26279
# Shear Modulus (GPa) = 46.85926 30.07920 38.46923
#
# Velocity S-wave (km/s) = 4.25327 3.40768 3.85374
# Velocity P-wave (km/s) = 6.78968 6.32719 6.56251
#
# Compressibility (1/GPa) = 0.01756448
#
# Stress axis : x y z
#
# Youngs Moduli (GPa) = 134.68173 265.72944 319.01322
#
# Poissons Ratio (x) = -0.46128 -0.91365
# Poissons Ratio (y) = -0.23380 0.95036
# Poissons Ratio (z) = -0.38572 0.79162
#
# Static dielectric constant tensor:
#      x y z
#    x 2.048900 0.000000 -0.073270 
#    y 0.000000 2.405330 0.000000 
#    z -0.073270 0.000000 2.020250 
# 
# From -- ./inp_files/62644.got.cif
#   From: 2010.05.17/outbox.cif.g08.bks.cpg/sg5_32_cif.got.tgz:62644.got - 2010.06.03 18:56:24.
