data_PCOD9120731
_publ_section_title
;
Structure prediction by ZEFSAII (Michael W. Deem and Ramdas Pophale) SiO2 
 PCOD9120731
Probable space group: C 2
;
_chemical_formula_sum "Si O2"
_cell_formula_units_Z 28
_cell_length_a 20.670299
_cell_length_b 13.743412
_cell_length_c 10.655625
_cell_angle_alpha 90.000000
_cell_angle_beta 147.693199
_cell_angle_gamma 90.000000
_cell_volume 1617.817432
_symmetry_space_group_name_H-M "C 2"
_symmetry_group_IT_number 5
_symmetry_cell_setting 'monoclinic'
loop_
_space_group_symop_operation_xyz
x,y,z
-x,y,-z
1/2+x,1/2+y,z
1/2-x,1/2+y,-z
loop_
_atom_site_type_symbol
_atom_site_label
_atom_site_fract_x
_atom_site_fract_y
_atom_site_fract_z
Si Si1 0.724389 0.534620 0.813020
Si Si2 0.344190 0.722288 0.142094
Si Si3 0.939567 0.698165 0.704291
Si Si4 0.504011 0.011881 0.654885
Si Si5 0.375579 0.320120 0.369191
Si Si6 0.595566 0.802210 0.491655
Si Si7 0.306641 0.185330 0.746318
O O1 0.673347 0.614355 0.828709
O O2 0.649594 0.435656 0.678727
O O3 0.747693 0.592239 0.720359
O O4 0.856971 0.504923 0.077077
O O5 0.472871 0.737752 0.284643
O O6 0.355639 0.789124 0.285749
O O7 0.233154 0.760400 0.876546
O O8 0.891144 0.784501 0.537712
O O9 0.858611 0.674163 0.692608
O O10 0.946256 0.603981 0.627388
O O11 0.076972 0.715714 0.978394
O O12 0.500000 0.023884 0.500000
O O13 0.438867 0.912816 0.585939
O O14 0.500000 0.297952 0.500000
O O15 0.701280 0.764689 0.576752
#
# Coordination Sequence:
#
# PCOD9120731 Si02
#       7
#     4   4   4   4   4   4   4
#     4  10  21  34  57  84 115 146 186 227 280 340
#     4  10  20  36  54  87 116 144 178 228 290 329
#     4  10  22  38  56  78 115 146 190 233 272 331
#     4  11  18  34  58  87 108 144 185 232 276 333
#     4  12  22  34  56  91 114 140 184 238 283 322
#     4  10  18  34  62  78 110 148 189 221 274 342
#     4   9  21  40  57  76 107 160 186 223 281 331
#
# _framework density 17.307269000000002
#
# number of rings (size 3 to 8) (size 9 to 14) (size 15 to 20)
#    0.000    1.714    2.857    3.857    4.000    1.143 
#    0.000    0.714    0.000    0.000    0.000    0.000 
#    0.000    0.000    0.000    0.000    0.000    0.000 
#
# Total GULP energy -78111.283735 kJ/mol
# GULP energy per Si atom -5579.377410 kJ/mol
# Density = 1.726788 g / cm^3
# Si number density = 17.307269 Si / 1000 Ang^3
#
#
#
# Elastic Constant Matrix: (Units=GPa)
#
#
# Indices 1 2 3 4 5 6 
#
# 1 102.2605 46.3090 41.1045 0.0000 14.9731 0.0000
# 2 46.3090 127.2663 47.6908 0.0000 4.3001 0.0000
# 3 41.1045 47.6908 74.9391 0.0000 4.3814 0.0000
# 4 0.0000 0.0000 0.0000 29.9958 0.0000 11.4565
# 5 14.9731 4.3001 4.3814 0.0000 22.6868 0.0000
# 6 0.0000 0.0000 0.0000 11.4565 0.0000 17.3333
#
#
#
# Elastic Compliance Matrix: (Units=1/GPa)
#
#
# Indices 1 2 3 4 5 6 
#
# 1 0.014530 -0.002897 -0.005662 0.000000 -0.007947 0.000000
# 2 -0.002897 0.010907 -0.005404 0.000000 0.000888 0.000000
# 3 -0.005662 -0.005404 0.019834 0.000000 0.000930 0.000000
# 4 0.000000 0.000000 0.000000 0.044596 0.000000 -0.029476
# 5 -0.007947 0.000888 0.000930 0.000000 0.048976 0.000000
# 6 0.000000 0.000000 0.000000 -0.029476 0.000000 0.077174
#
#
# Mechanical properties :
#
#
# Convention : Reuss Voigt Hill
#
# Bulk Modulus (GPa) = 57.64985 63.85273 60.75129
# Shear Modulus (GPa) = 20.02210 25.29396 22.65803
#
# Velocity S-wave (km/s) = 3.40496 3.82706 3.62216
# Velocity P-wave (km/s) = 6.98858 7.51679 7.25749
#
# Compressibility (1/GPa) = 0.01734610
#
# Stress axis : x y z
#
# Youngs Moduli (GPa) = 68.82173 91.68684 50.41815
#
# Poissons Ratio (x) = 0.26563 0.28545
# Poissons Ratio (y) = 0.19938 0.27245
# Poissons Ratio (z) = 0.38964 0.49546
#
# Static dielectric constant tensor:
#      x y z
#    x 1.581940 0.000000 0.007160 
#    y 0.000000 1.606410 0.000000 
#    z 0.007160 0.000000 1.590730 
# 
# From -- ./inp_files/27728.got.cif
#   From: 2010.05.17/outbox.cif.g08.bks.cpg/sg5_14_cif.got.tgz:27728.got - 2010.06.03 18:56:24.
