data_PCOD9120809
_publ_section_title
;
Structure prediction by ZEFSAII (Michael W. Deem and Ramdas Pophale) SiO2 
 PCOD9120809
Probable space group: C 2
;
_chemical_formula_sum "Si O2"
_cell_formula_units_Z 26
_cell_length_a 32.430555
_cell_length_b 5.001791
_cell_length_c 8.128267
_cell_angle_alpha 90.000000
_cell_angle_beta 116.714161
_cell_angle_gamma 90.000000
_cell_volume 1177.757612
_symmetry_space_group_name_H-M "C 2"
_symmetry_group_IT_number 5
_symmetry_cell_setting 'monoclinic'
loop_
_space_group_symop_operation_xyz
x,y,z
-x,y,-z
1/2+x,1/2+y,z
1/2-x,1/2+y,-z
loop_
_atom_site_type_symbol
_atom_site_label
_atom_site_fract_x
_atom_site_fract_y
_atom_site_fract_z
Si Si1 0.868626 0.105730 0.820705
Si Si2 0.086015 0.502534 0.585387
Si Si3 0.068880 0.009320 0.360276
Si Si4 0.919877 0.604074 0.046914
Si Si5 0.500000 0.810711 0.000000
Si Si6 0.710808 0.467206 0.101947
Si Si7 0.690855 0.967566 0.843152
O O1 0.884404 0.065728 0.661378
O O2 0.880587 0.400063 0.908638
O O3 0.817346 0.025572 0.783188
O O4 0.903020 0.900679 0.976265
O O5 0.071089 0.202243 0.520804
O O6 0.073084 0.577570 0.746850
O O7 0.141488 0.519953 0.676338
O O8 0.065890 0.706130 0.414460
O O9 0.027878 0.119581 0.174090
O O10 0.964471 0.500345 0.031588
O O11 0.699277 0.179817 0.004547
O O12 0.692732 0.678799 0.932939
O O13 0.766034 0.494759 0.203196
#
# Coordination Sequence:
#
# PCOD9120809 Si02
#       7
#     4   4   4   4   2   4   4
#     4  11  20  41  62  94 119 180 200 253 298 395
#     4  12  22  42  62 101 119 167 194 278 306 369
#     4  11  26  40  66  85 133 156 215 251 332 358
#     4  11  23  40  71  85 128 153 222 252 320 359
#     4  10  26  50  60  94 114 178 208 266 302 410
#     4  10  18  35  61  94 124 169 208 247 290 376
#     4  10  20  33  62  95 129 156 211 255 299 360
#
# _framework density 22.075849000000002
#
# number of rings (size 3 to 8) (size 9 to 14) (size 15 to 20)
#    0.000    1.231    3.077    3.692    0.000    6.154 
#    0.000    4.615    0.000    0.000    0.000    0.000 
#    0.000    0.000    0.000    0.000    0.000    0.000 
#
# Total GULP energy -72748.567929 kJ/mol
# GULP energy per Si atom -5596.043687 kJ/mol
# Density = 2.202560 g / cm^3
# Si number density = 22.075849 Si / 1000 Ang^3
#
#
#
# Elastic Constant Matrix: (Units=GPa)
#
#
# Indices 1 2 3 4 5 6 
#
# 1 92.8731 7.0994 10.1626 0.0000 5.8652 0.0000
# 2 7.0994 63.4003 1.9289 0.0000 -2.3968 0.0000
# 3 10.1626 1.9289 49.7904 0.0000 -4.5837 0.0000
# 4 0.0000 0.0000 0.0000 31.9123 0.0000 0.3668
# 5 5.8652 -2.3968 -4.5837 0.0000 33.8976 0.0000
# 6 0.0000 0.0000 0.0000 0.3668 0.0000 23.4160
#
#
#
# Elastic Compliance Matrix: (Units=1/GPa)
#
#
# Indices 1 2 3 4 5 6 
#
# 1 0.011286 -0.001278 -0.002473 0.000000 -0.002378 0.000000
# 2 -0.001278 0.015973 -0.000236 0.000000 0.001319 0.000000
# 3 -0.002473 -0.000236 0.020896 0.000000 0.003237 0.000000
# 4 0.000000 0.000000 0.000000 0.031341 0.000000 -0.000491
# 5 -0.002378 0.001319 0.003237 0.000000 0.030443 0.000000
# 6 0.000000 0.000000 0.000000 -0.000491 0.000000 0.042713
#
#
# Mechanical properties :
#
#
# Convention : Reuss Voigt Hill
#
# Bulk Modulus (GPa) = 24.88837 27.16062 26.02450
# Shear Modulus (GPa) = 28.73210 30.30339 29.51775
#
# Velocity S-wave (km/s) = 3.61157 3.70901 3.66061
# Velocity P-wave (km/s) = 5.35628 5.53826 5.44803
#
# Compressibility (1/GPa) = 0.04017940
#
# Stress axis : x y z
#
# Youngs Moduli (GPa) = 88.60658 62.60569 47.85590
#
# Poissons Ratio (x) = 0.08004 0.11834
# Poissons Ratio (y) = 0.11328 0.01132
# Poissons Ratio (z) = 0.21911 0.01480
#
# Static dielectric constant tensor:
#      x y z
#    x 1.843760 0.000000 -0.002920 
#    y 0.000000 1.769190 0.000000 
#    z -0.002920 0.000000 1.770030 
# 
# From -- ./inp_files/32079.got.cif
#   From: 2010.05.17/outbox.cif.g08.bks.cpg/sg5_17_cif.got.tgz:32079.got - 2010.06.03 18:56:24.
