data_PCOD9120807
_publ_section_title
;
Structure prediction by ZEFSAII (Michael W. Deem and Ramdas Pophale) SiO2 
 PCOD9120807
Probable space group: C 2
;
_chemical_formula_sum "Si O2"
_cell_formula_units_Z 26
_cell_length_a 18.111103
_cell_length_b 13.363615
_cell_length_c 12.746780
_cell_angle_alpha 90.000000
_cell_angle_beta 159.340900
_cell_angle_gamma 90.000000
_cell_volume 1088.445117
_symmetry_space_group_name_H-M "C 2"
_symmetry_group_IT_number 5
_symmetry_cell_setting 'monoclinic'
loop_
_space_group_symop_operation_xyz
x,y,z
-x,y,-z
1/2+x,1/2+y,z
1/2-x,1/2+y,-z
loop_
_atom_site_type_symbol
_atom_site_label
_atom_site_fract_x
_atom_site_fract_y
_atom_site_fract_z
Si Si1 0.088566 0.190990 0.414904
Si Si2 0.151062 0.716293 0.932747
Si Si3 0.000000 0.559658 0.000000
Si Si4 0.097792 0.912312 0.744359
Si Si5 0.209430 0.360311 0.708959
Si Si6 0.974356 0.503925 0.741165
Si Si7 0.989095 0.018695 0.816850
O O1 0.160345 0.304746 0.533991
O O2 0.889532 0.180246 0.227950
O O3 0.008036 0.138619 0.200469
O O4 0.295890 0.127767 0.714323
O O5 0.151137 0.780683 0.039671
O O6 0.088931 0.794561 0.759995
O O7 0.011164 0.619211 0.756921
O O8 0.966892 0.494772 0.058498
O O9 0.000000 0.933998 0.500000
O O10 0.997760 0.970468 0.710540
O O11 0.342557 0.943974 0.073152
O O12 0.000000 0.368635 0.500000
O O13 0.323397 0.466389 0.871324
O O14 0.726911 0.489267 0.415681
#
# Coordination Sequence:
#
# PCOD9120807 Si02
#       7
#     4   4   2   4   4   4   4
#     4  10  18  35  61  89 131 171 212 276 333 396
#     4  10  21  37  62  97 128 178 220 278 338 407
#     4  10  20  30  62 102 120 170 220 270 346 406
#     4  11  23  40  64  94 130 172 227 276 334 412
#     4   9  19  36  62  97 134 168 222 280 333 410
#     4  11  21  38  64  96 135 168 219 280 341 401
#     4  10  22  38  65 103 130 172 222 283 338 407
#
# _framework density 23.887284999999999
#
# number of rings (size 3 to 8) (size 9 to 14) (size 15 to 20)
#    0.000    1.846    3.077    1.846    0.000    1.231 
#    2.769    0.769    0.000    0.000   12.000    0.000 
#    0.000    0.000    0.000    0.000    0.000    0.000 
#
# Total GULP energy -72566.902098 kJ/mol
# GULP energy per Si atom -5582.069392 kJ/mol
# Density = 2.383292 g / cm^3
# Si number density = 23.887285 Si / 1000 Ang^3
#
#
#
# Elastic Constant Matrix: (Units=GPa)
#
#
# Indices 1 2 3 4 5 6 
#
# 1 116.4090 50.1826 44.4461 0.0000 2.0195 0.0000
# 2 50.1826 94.0859 48.4943 0.0000 -9.9696 0.0000
# 3 44.4461 48.4943 73.5304 0.0000 26.8869 0.0000
# 4 0.0000 0.0000 0.0000 35.0481 0.0000 -9.1051
# 5 2.0195 -9.9696 26.8869 0.0000 41.1113 0.0000
# 6 0.0000 0.0000 0.0000 -9.1051 0.0000 37.3990
#
#
#
# Elastic Compliance Matrix: (Units=1/GPa)
#
#
# Indices 1 2 3 4 5 6 
#
# 1 0.012308 -0.002708 -0.006825 0.000000 0.003202 0.000000
# 2 -0.002708 0.027213 -0.024672 0.000000 0.022868 0.000000
# 3 -0.006825 -0.024672 0.047396 0.000000 -0.036645 0.000000
# 4 0.000000 0.000000 0.000000 0.030459 0.000000 0.007415
# 5 0.003202 0.022868 -0.036645 0.000000 0.053678 0.000000
# 6 0.000000 0.000000 0.000000 0.007415 0.000000 0.028544
#
#
# Mechanical properties :
#
#
# Convention : Reuss Voigt Hill
#
# Bulk Modulus (GPa) = 54.03208 63.36350 58.69779
# Shear Modulus (GPa) = 18.23645 32.10516 25.17081
#
# Velocity S-wave (km/s) = 2.76604 3.67007 3.24965
# Velocity P-wave (km/s) = 5.73323 6.67405 6.22145
#
# Compressibility (1/GPa) = 0.01850752
#
# Stress axis : x y z
#
# Youngs Moduli (GPa) = 81.24901 36.74765 21.09873
#
# Poissons Ratio (x) = 0.09950 0.14399
# Poissons Ratio (y) = 0.22000 0.52055
# Poissons Ratio (z) = 0.55450 0.90664
#
# Static dielectric constant tensor:
#      x y z
#    x 1.917270 0.000000 -0.060030 
#    y 0.000000 1.970790 0.000000 
#    z -0.060030 0.000000 1.960060 
# 
# From -- ./inp_files/57101.got.cif
#   From: 2010.05.17/outbox.cif.g08.bks.cpg/sg5_29_cif.got.tgz:57101.got - 2010.06.03 18:56:24.
