data_PCOD9120685
_publ_section_title
;
Structure prediction by ZEFSAII (Michael W. Deem and Ramdas Pophale) SiO2 
 PCOD9120685
Probable space group: C 2
;
_chemical_formula_sum "Si O2"
_cell_formula_units_Z 22
_cell_length_a 8.842380
_cell_length_b 19.458155
_cell_length_c 6.205330
_cell_angle_alpha 90.000000
_cell_angle_beta 99.410343
_cell_angle_gamma 90.000000
_cell_volume 1053.298792
_symmetry_space_group_name_H-M "C 2"
_symmetry_group_IT_number 5
_symmetry_cell_setting 'monoclinic'
loop_
_space_group_symop_operation_xyz
x,y,z
-x,y,-z
1/2+x,1/2+y,z
1/2-x,1/2+y,-z
loop_
_atom_site_type_symbol
_atom_site_label
_atom_site_fract_x
_atom_site_fract_y
_atom_site_fract_z
Si Si1 0.820620 0.458230 0.416794
Si Si2 0.333047 0.806092 0.343620
Si Si3 0.500000 0.736463 0.000000
Si Si4 0.746732 0.187381 0.622227
Si Si5 0.656613 0.082278 0.908343
Si Si6 0.164992 0.062658 0.647360
O O1 0.766801 0.383089 0.331947
O O2 0.807858 0.518752 0.240049
O O3 0.741904 0.489535 0.610515
O O4 0.000000 0.451886 0.500000
O O5 0.500000 0.807181 0.500000
O O6 0.232808 0.755001 0.471018
O O7 0.375275 0.779681 0.112619
O O8 0.404719 0.696323 0.795128
O O9 0.636056 0.154638 0.777236
O O10 0.754842 0.125297 0.457084
O O11 0.500000 0.068572 0.000000
O O12 0.802967 0.082161 0.100293
O O13 0.000000 0.059730 0.500000
#
# Coordination Sequence:
#
# PCOD9120685 Si02
#       6
#     4   4   2   4   4   4
#     4  10  21  37  59  90 121 158 205 253 299 362
#     4   9  19  33  57  88 120 157 200 256 300 355
#     4  10  18  34  58  86 118 158 204 250 302 366
#     4  10  20  34  57  88 122 151 207 250 305 349
#     4  11  22  36  63  91 121 163 204 245 307 366
#     4  11  22  38  61  88 123 157 201 252 307 357
#
# _framework density 20.886759999999999
#
# number of rings (size 3 to 8) (size 9 to 14) (size 15 to 20)
#    0.000    1.818    1.818    3.818    1.273    3.636 
#    0.000    0.000    8.000    0.000    0.000    0.000 
#    0.000    0.000    0.000    0.000    0.000    0.000 
#
# Total GULP energy -61264.322586 kJ/mol
# GULP energy per Si atom -5569.483871 kJ/mol
# Density = 2.083922 g / cm^3
# Si number density = 20.886760 Si / 1000 Ang^3
#
#
#
# Elastic Constant Matrix: (Units=GPa)
#
#
# Indices 1 2 3 4 5 6 
#
# 1 28.8105 12.9552 9.3042 0.0000 -1.5292 0.0000
# 2 12.9552 133.9336 50.1385 0.0000 -21.9099 0.0000
# 3 9.3042 50.1385 98.9144 0.0000 -7.6793 0.0000
# 4 0.0000 0.0000 0.0000 18.8812 0.0000 -3.3078
# 5 -1.5292 -21.9099 -7.6793 0.0000 25.7357 0.0000
# 6 0.0000 0.0000 0.0000 -3.3078 0.0000 32.0254
#
#
#
# Elastic Compliance Matrix: (Units=1/GPa)
#
#
# Indices 1 2 3 4 5 6 
#
# 1 0.036636 -0.002936 -0.002030 0.000000 -0.000928 0.000000
# 2 -0.002936 0.010695 -0.004557 0.000000 0.007571 0.000000
# 3 -0.002030 -0.004557 0.012592 0.000000 -0.000243 0.000000
# 4 0.000000 0.000000 0.000000 0.053939 0.000000 0.005571
# 5 -0.000928 0.007571 -0.000243 0.000000 0.045174 0.000000
# 6 0.000000 0.000000 0.000000 0.005571 0.000000 0.031801
#
#
# Mechanical properties :
#
#
# Convention : Reuss Voigt Hill
#
# Bulk Modulus (GPa) = 24.46375 45.16158 34.81266
# Shear Modulus (GPa) = 22.37060 27.94582 25.15821
#
# Velocity S-wave (km/s) = 3.27623 3.66179 3.47436
# Velocity P-wave (km/s) = 5.10388 6.28867 5.72699
#
# Compressibility (1/GPa) = 0.04087681
#
# Stress axis : x y z
#
# Youngs Moduli (GPa) = 27.29555 93.50326 79.41660
#
# Poissons Ratio (x) = 0.27449 0.16123
# Poissons Ratio (y) = 0.08013 0.36192
# Poissons Ratio (z) = 0.05541 0.42611
#
# Static dielectric constant tensor:
#      x y z
#    x 1.777780 0.000000 -0.011780 
#    y 0.000000 1.780080 0.000000 
#    z -0.011780 0.000000 1.770050 
# 
# From -- ./inp_files/2966.got.cif
#   From: 2010.05.17/outbox.cif.g08.bks.cpg/sg5_2_cif.got.tgz:2966.got - 2010.06.03 18:56:24.
