data_PCOD9120149
_publ_section_title
;
Structure prediction by ZEFSAII (Michael W. Deem and Ramdas Pophale) SiO2 
 PCOD9120149
Probable space group: C 2
;
_chemical_formula_sum "Si O2"
_cell_formula_units_Z 24
_cell_length_a 14.188678
_cell_length_b 14.089754
_cell_length_c 5.538192
_cell_angle_alpha 90.000000
_cell_angle_beta 86.046305
_cell_angle_gamma 90.000000
_cell_volume 1104.532609
_symmetry_space_group_name_H-M "C 2"
_symmetry_group_IT_number 5
_symmetry_cell_setting 'monoclinic'
loop_
_space_group_symop_operation_xyz
x,y,z
-x,y,-z
1/2+x,1/2+y,z
1/2-x,1/2+y,-z
loop_
_atom_site_type_symbol
_atom_site_label
_atom_site_fract_x
_atom_site_fract_y
_atom_site_fract_z
Si Si1 0.000000 0.382990 0.000000
Si Si2 0.713946 0.686060 0.417463
Si Si3 0.000000 0.261976 0.500000
Si Si4 0.000000 0.961580 0.500000
Si Si5 0.293049 0.908063 0.075933
Si Si6 0.296285 0.396397 0.408036
Si Si7 0.801742 0.174767 0.081597
Si Si8 0.500000 0.576382 0.000000
O O1 0.099177 0.437651 0.989683
O O2 0.004025 0.324028 0.745619
O O3 0.599770 0.705528 0.454660
O O4 0.762866 0.787972 0.405104
O O5 0.741496 0.638509 0.662430
O O6 0.739763 0.638925 0.161643
O O7 0.905725 0.904601 0.453912
O O8 0.016099 0.019005 0.246477
O O9 0.257321 0.936942 0.346946
O O10 0.296915 0.790325 0.079849
O O11 0.228268 0.934126 0.856523
O O12 0.909085 0.140669 0.057906
#
# Coordination Sequence:
#
# PCOD9120149 Si02
#       8
#     2   4   2   2   4   4   4   2
#     4  12  15  24  42  78 106 118 145 194 296 344
#     4  10  17  28  50  77 105 131 160 226 285 312
#     4  12  14  23  40  76 106 123 144 188 290 346
#     4  12  26  39  50  68 112 173 194 198 232 316
#     4  10  18  31  53  80 105 131 162 233 291 314
#     4  10  20  35  49  67 102 144 195 216 242 309
#     4  10  17  29  47  73 100 127 165 214 266 317
#     4  12  23  36  50  76 112 154 183 202 262 342
#
# _framework density 21.728649999999998
#
# number of rings (size 3 to 8) (size 9 to 14) (size 15 to 20)
#    0.000    1.333    6.667    3.500    0.000    0.000 
#    0.000    0.000    0.000    0.000    0.000    0.000 
#    0.000  138.667    0.000    0.000    0.000    0.000 
#
# Total GULP energy -66970.823085 kJ/mol
# GULP energy per Si atom -5580.901924 kJ/mol
# Density = 2.167919 g / cm^3
# Si number density = 21.728650 Si / 1000 Ang^3
#
#
#
# Elastic Constant Matrix: (Units=GPa)
#
#
# Indices 1 2 3 4 5 6 
#
# 1 102.1891 2.9017 37.2449 0.0000 15.3111 0.0000
# 2 2.9017 41.7373 16.3635 0.0000 12.5057 0.0000
# 3 37.2449 16.3635 245.8869 0.0000 30.4543 0.0000
# 4 0.0000 0.0000 0.0000 18.8465 0.0000 -4.5400
# 5 15.3111 12.5057 30.4543 0.0000 35.1710 0.0000
# 6 0.0000 0.0000 0.0000 -4.5400 0.0000 -10.4337
#
#
#
# Elastic Compliance Matrix: (Units=1/GPa)
#
#
# Indices 1 2 3 4 5 6 
#
# 1 0.010795 0.000915 -0.001203 0.000000 -0.003983 0.000000
# 2 0.000915 0.026995 -0.000781 0.000000 -0.009321 0.000000
# 3 -0.001203 -0.000781 0.004707 0.000000 -0.003274 0.000000
# 4 0.000000 0.000000 0.000000 0.048026 0.000000 -0.020898
# 5 -0.003983 -0.009321 -0.003274 0.000000 0.036316 0.000000
# 6 0.000000 0.000000 0.000000 -0.020898 0.000000 -0.086750
#
#
# Mechanical properties :
#
#
# Convention : Reuss Voigt Hill
#
# Bulk Modulus (GPa) = 24.77786 55.87039 40.32412
# Shear Modulus (GPa) = 89.80191 30.93698 60.36944
#
# Velocity S-wave (km/s) = 6.43572 3.77740 5.27671
# Velocity P-wave (km/s) = 8.16411 6.69281 7.46480
#
# Compressibility (1/GPa) = 0.04035861
#
# Stress axis : x y z
#
# Youngs Moduli (GPa) = 92.63590 37.04450 212.46945
#
# Poissons Ratio (x) = -0.03388 0.25553
# Poissons Ratio (y) = -0.08472 0.16585
# Poissons Ratio (z) = 0.11141 0.02892
#
# Static dielectric constant tensor:
#      x y z
#    x 1.752440 0.000000 0.029270 
#    y 0.000000 1.816550 0.000000 
#    z 0.029270 0.000000 1.911500 
# 
# From -- ./inp_files/6872.got.cif
#   From: 2010.05.17/outbox.cif.g08.bks.cpg/sg5_4_cif.got.tgz:6872.got - 2010.06.03 18:56:24.
