data_PCOD9120343
_publ_section_title
;
Structure prediction by ZEFSAII (Michael W. Deem and Ramdas Pophale) SiO2 
 PCOD9120343
Probable space group: C 2
;
_chemical_formula_sum "Si O2"
_cell_formula_units_Z 24
_cell_length_a 16.556416
_cell_length_b 8.559028
_cell_length_c 23.411601
_cell_angle_alpha 90.000000
_cell_angle_beta 18.724617
_cell_angle_gamma 90.000000
_cell_volume 1065.010486
_symmetry_space_group_name_H-M "C 2"
_symmetry_group_IT_number 5
_symmetry_cell_setting 'monoclinic'
loop_
_space_group_symop_operation_xyz
x,y,z
-x,y,-z
1/2+x,1/2+y,z
1/2-x,1/2+y,-z
loop_
_atom_site_type_symbol
_atom_site_label
_atom_site_fract_x
_atom_site_fract_y
_atom_site_fract_z
Si Si1 0.528911 0.176670 0.821806
Si Si2 0.971453 0.511204 0.293172
Si Si3 0.465084 0.548410 0.204103
Si Si4 0.949503 0.033317 0.092992
Si Si5 0.784312 0.175080 0.442094
Si Si6 0.235679 0.689985 0.802834
O O1 0.616103 0.094318 0.705694
O O2 0.530803 0.361596 0.807220
O O3 0.696066 0.135406 0.764748
O O4 0.243439 0.120714 0.026262
O O5 0.812309 0.357438 0.411361
O O6 0.947591 0.623336 0.363978
O O7 0.264682 0.471321 0.085725
O O8 0.369788 0.611461 0.205844
O O9 0.308532 0.589408 0.365322
O O10 0.783749 0.879855 0.190847
O O11 0.000000 0.124239 0.000000
O O12 0.019307 0.140620 0.327035
O O13 0.000000 0.644240 0.000000
#
# Coordination Sequence:
#
# PCOD9120343 Si02
#       6
#     4   4   4   4   4   4
#     4  10  20  36  62  88 118 158 209 242 295 357
#     4  11  23  37  62  89 124 153 199 256 307 348
#     4  10  19  34  63  91 116 156 206 250 293 355
#     4   9  17  37  64  87 106 155 216 237 267 365
#     4  12  22  39  63  87 125 155 202 250 309 349
#     4  10  17  36  66  87 108 164 213 231 271 388
#
# _framework density 22.534991000000002
#
# number of rings (size 3 to 8) (size 9 to 14) (size 15 to 20)
#    0.000    1.667    5.000    3.000    0.000    0.667 
#    0.000    0.833   36.667    0.000    0.000    0.000 
#    0.000    0.000    0.000    0.000    0.000    0.000 
#
# Total GULP energy -66986.991674 kJ/mol
# GULP energy per Si atom -5582.249306 kJ/mol
# Density = 2.248370 g / cm^3
# Si number density = 22.534991 Si / 1000 Ang^3
#
#
#
# Elastic Constant Matrix: (Units=GPa)
#
#
# Indices 1 2 3 4 5 6 
#
# 1 173.9796 23.0601 32.1955 0.0198 52.2997 0.0123
# 2 23.0601 59.0679 14.2721 -0.0376 13.6939 -0.0160
# 3 32.1955 14.2721 74.1956 -0.1329 21.3069 -0.0182
# 4 0.0198 -0.0376 -0.1329 29.9872 0.0010 11.4703
# 5 52.2997 13.6939 21.3069 0.0010 48.0266 -0.0016
# 6 0.0123 -0.0160 -0.0182 11.4703 -0.0016 36.3152
#
#
#
# Elastic Compliance Matrix: (Units=1/GPa)
#
#
# Indices 1 2 3 4 5 6 
#
# 1 0.008706 -0.001127 -0.001066 -0.000011 -0.008685 -0.000001
# 2 -0.001127 0.018622 -0.002201 0.000013 -0.003105 0.000003
# 3 -0.001066 -0.002201 0.015873 0.000075 -0.005253 -0.000016
# 4 -0.000011 0.000013 0.000075 0.037931 -0.000026 -0.011981
# 5 -0.008685 -0.003105 -0.005253 -0.000026 0.033496 0.000009
# 6 -0.000001 0.000003 -0.000016 -0.011981 0.000009 0.031321
#
#
# Mechanical properties :
#
#
# Convention : Reuss Voigt Hill
#
# Bulk Modulus (GPa) = 29.06125 49.58872 39.32499
# Shear Modulus (GPa) = 30.08300 38.71348 34.39824
#
# Velocity S-wave (km/s) = 3.65766 4.14929 3.91120
# Velocity P-wave (km/s) = 5.54635 6.70883 6.15509
#
# Compressibility (1/GPa) = 0.03441008
#
# Stress axis : x y z
#
# Youngs Moduli (GPa) = 114.86976 53.70125 63.00136
#
# Poissons Ratio (x) = 0.06054 0.06719
# Poissons Ratio (y) = 0.12950 0.13866
# Poissons Ratio (z) = 0.12251 0.11819
#
# Static dielectric constant tensor:
#      x y z
#    x 1.924330 0.000010 -0.006450 
#    y 0.000010 1.832570 0.000000 
#    z -0.006450 0.000000 1.854380 
# 
# From -- ./inp_files/69115.got.cif
#   From: 2010.05.17/outbox.cif.g08.bks.cpg/sg5_35_cif.got.tgz:69115.got - 2010.06.03 18:56:24.
