data_PCOD9120800
_publ_section_title
;
Structure prediction by ZEFSAII (Michael W. Deem and Ramdas Pophale) SiO2 
 PCOD9120800
Probable space group: C 2
;
_chemical_formula_sum "Si O2"
_cell_formula_units_Z 24
_cell_length_a 8.610336
_cell_length_b 16.646943
_cell_length_c 15.852032
_cell_angle_alpha 90.000000
_cell_angle_beta 145.721311
_cell_angle_gamma 90.000000
_cell_volume 1279.724937
_symmetry_space_group_name_H-M "C 2"
_symmetry_group_IT_number 5
_symmetry_cell_setting 'monoclinic'
loop_
_space_group_symop_operation_xyz
x,y,z
-x,y,-z
1/2+x,1/2+y,z
1/2-x,1/2+y,-z
loop_
_atom_site_type_symbol
_atom_site_label
_atom_site_fract_x
_atom_site_fract_y
_atom_site_fract_z
Si Si1 0.500000 0.741040 0.500000
Si Si2 0.841028 0.470400 0.845982
Si Si3 0.500000 0.366551 0.500000
Si Si4 0.419504 0.131510 0.792941
Si Si5 0.000000 0.186990 0.000000
Si Si6 0.243460 0.901629 0.440389
Si Si7 0.971399 0.307101 0.828867
Si Si8 0.500000 0.229236 0.000000
O O1 0.695678 0.684076 0.642581
O O2 0.302699 0.805528 0.459639
O O3 0.824004 0.541642 0.770833
O O4 0.538159 0.433575 0.727852
O O5 0.008328 0.395106 0.884711
O O6 0.000000 0.499407 0.000000
O O7 0.686607 0.415361 0.515036
O O8 0.704600 0.314757 0.649861
O O9 0.460757 0.175420 0.900555
O O10 0.721204 0.135978 0.885914
O O11 0.046200 0.244268 0.102078
O O12 0.500000 0.935811 0.500000
O O13 0.231147 0.282710 0.890610
#
# Coordination Sequence:
#
# PCOD9120800 Si02
#       8
#     2   4   2   4   2   4   4   2
#     4  10  22  41  66  91 124 174 210 262 316 381
#     4  11  22  39  63  90 129 168 202 266 322 370
#     4  10  18  35  60  95 116 152 208 272 290 357
#     4  11  22  40  61  92 130 163 203 264 327 370
#     4  10  22  40  62  92 126 174 212 254 318 388
#     4   9  22  40  67  92 125 168 219 254 315 381
#     4  10  21  36  63  88 120 166 217 251 307 381
#     4  10  22  36  60  90 122 160 210 256 300 384
#
# _framework density 18.754028999999999
#
# number of rings (size 3 to 8) (size 9 to 14) (size 15 to 20)
#    0.500    1.333    1.667    3.000    2.333    3.333 
#    0.000    3.333   11.000    0.000    0.000    0.000 
#    0.000    0.000    0.000    0.000    0.000    0.000 
#
# Total GULP energy -66827.941557 kJ/mol
# GULP energy per Si atom -5568.995130 kJ/mol
# Density = 1.871134 g / cm^3
# Si number density = 18.754029 Si / 1000 Ang^3
#
#
#
# Elastic Constant Matrix: (Units=GPa)
#
#
# Indices 1 2 3 4 5 6 
#
# 1 130.3243 31.3998 33.1684 0.0009 16.1450 -0.0004
# 2 31.3998 74.7461 11.6366 0.0004 16.2948 0.0008
# 3 33.1684 11.6366 106.8036 0.0020 3.6779 0.0016
# 4 0.0009 0.0004 0.0020 7.0393 0.0007 14.0489
# 5 16.1450 16.2948 3.6779 0.0007 28.9517 0.0005
# 6 -0.0004 0.0008 0.0016 14.0489 0.0005 -10.9813
#
#
#
# Elastic Compliance Matrix: (Units=1/GPa)
#
#
# Indices 1 2 3 4 5 6 
#
# 1 0.009405 -0.002836 -0.002497 0.000001 -0.003331 0.000000
# 2 -0.002836 0.016308 -0.000637 0.000000 -0.007516 0.000000
# 3 -0.002497 -0.000637 0.010192 -0.000002 0.000456 0.000000
# 4 0.000001 0.000000 -0.000002 0.039980 -0.000002 0.051148
# 5 -0.003331 -0.007516 0.000456 -0.000002 0.040570 -0.000001
# 6 0.000000 0.000000 0.000000 0.051148 -0.000001 -0.025628
#
#
# Mechanical properties :
#
#
# Convention : Reuss Voigt Hill
#
# Bulk Modulus (GPa) = 41.72875 51.58705 46.65790
# Shear Modulus (GPa) = 45.14490 20.71321 32.92906
#
# Velocity S-wave (km/s) = 4.91166 3.32696 4.19482
# Velocity P-wave (km/s) = 7.38002 6.50577 6.95664
#
# Compressibility (1/GPa) = 0.02396429
#
# Stress axis : x y z
#
# Youngs Moduli (GPa) = 106.33111 61.32102 98.11481
#
# Poissons Ratio (x) = 0.17389 0.24499
# Poissons Ratio (y) = 0.30153 0.06253
# Poissons Ratio (z) = 0.26550 0.03908
#
# Static dielectric constant tensor:
#      x y z
#    x 1.699150 0.000000 -0.027450 
#    y 0.000000 1.631300 0.000000 
#    z -0.027450 0.000000 1.690180 
# 
# From -- ./inp_files/15872.got.cif
#   From: 2010.05.17/outbox.cif.g08.bks.cpg/sg5_8_cif.got.tgz:15872.got - 2010.06.03 18:56:24.
