data_PCOD9120144
_publ_section_title
;
Structure prediction by ZEFSAII (Michael W. Deem and Ramdas Pophale) SiO2 
 PCOD9120144
Probable space group: C 2
;
_chemical_formula_sum "Si O2"
_cell_formula_units_Z 30
_cell_length_a 14.839492
_cell_length_b 5.655837
_cell_length_c 15.703698
_cell_angle_alpha 90.000000
_cell_angle_beta 102.222951
_cell_angle_gamma 90.000000
_cell_volume 1288.129722
_symmetry_space_group_name_H-M "C 2"
_symmetry_group_IT_number 5
_symmetry_cell_setting 'monoclinic'
loop_
_space_group_symop_operation_xyz
x,y,z
-x,y,-z
1/2+x,1/2+y,z
1/2-x,1/2+y,-z
loop_
_atom_site_type_symbol
_atom_site_label
_atom_site_fract_x
_atom_site_fract_y
_atom_site_fract_z
Si Si1 0.106475 0.494880 0.375664
Si Si2 0.807039 0.982571 0.333180
Si Si3 0.656779 0.799153 0.007845
Si Si4 0.000000 0.671082 0.000000
Si Si5 0.287900 0.575606 0.141317
Si Si6 0.614361 0.412232 0.140457
Si Si7 0.901590 0.000757 0.667331
Si Si8 0.313037 0.986100 0.418805
O O1 0.195783 0.484286 0.330269
O O2 0.057104 0.744193 0.347200
O O3 0.146851 0.492468 0.478712
O O4 0.053685 0.247210 0.352420
O O5 0.827271 0.978887 0.236662
O O6 0.838072 0.235076 0.379440
O O7 0.840392 0.734777 0.380178
O O8 0.653007 0.740265 0.908008
O O9 0.629285 0.594439 0.066940
O O10 0.588403 0.012095 0.008008
O O11 0.754719 0.881843 0.065437
O O12 0.017155 0.804594 0.091896
O O13 0.199336 0.729503 0.153852
O O14 0.610984 0.514284 0.233695
O O15 0.799312 0.991450 0.603699
#
# Coordination Sequence:
#
# PCOD9120144 Si02
#       8
#     4   4   4   2   4   4   4   4
#     4  10  17  28  44  75 111 160 182 229 299 371
#     4  10  18  28  44  75 108 154 185 235 281 368
#     4  11  22  39  59  83 116 158 205 263 302 368
#     4  10  26  40  58  80 118 168 206 258 310 358
#     4  11  21  33  58  85 113 155 209 245 310 359
#     4  11  21  39  54  84 113 162 202 251 307 357
#     4  10  18  28  49  72 109 149 196 232 287 362
#     4  10  17  28  45  71 117 158 183 224 304 369
#
# _framework density 23.289579
#
# number of rings (size 3 to 8) (size 9 to 14) (size 15 to 20)
#    0.000    1.600    4.000    6.000    1.867    0.000 
#    0.000    0.000    0.000    0.000    0.000    0.000 
#    0.000    1.067    2.667    0.667    0.000    0.000 
#
# Total GULP energy -83749.748189 kJ/mol
# GULP energy per Si atom -5583.316546 kJ/mol
# Density = 2.323657 g / cm^3
# Si number density = 23.289579 Si / 1000 Ang^3
#
#
#
# Elastic Constant Matrix: (Units=GPa)
#
#
# Indices 1 2 3 4 5 6 
#
# 1 21.6877 11.2071 13.2258 0.0000 -3.0945 0.0000
# 2 11.2071 175.2466 46.9550 0.0000 -4.9675 0.0000
# 3 13.2258 46.9550 36.8537 0.0000 18.6201 0.0000
# 4 0.0000 0.0000 0.0000 34.7751 0.0000 -5.2435
# 5 -3.0945 -4.9675 18.6201 0.0000 -5.3652 0.0000
# 6 0.0000 0.0000 0.0000 -5.2435 0.0000 5.9786
#
#
#
# Elastic Compliance Matrix: (Units=1/GPa)
#
#
# Indices 1 2 3 4 5 6 
#
# 1 0.044700 -0.003485 -0.000075 0.000000 -0.022814 0.000000
# 2 -0.003485 0.006115 -0.001705 0.000000 -0.009569 0.000000
# 3 -0.000075 -0.001705 0.010356 0.000000 0.037562 0.000000
# 4 0.000000 0.000000 0.000000 0.033138 0.000000 0.029064
# 5 -0.022814 -0.009569 0.037562 0.000000 -0.034008 0.000000
# 6 0.000000 0.000000 0.000000 0.029064 0.000000 0.192753
#
#
# Mechanical properties :
#
#
# Convention : Reuss Voigt Hill
#
# Bulk Modulus (GPa) = 19.74698 41.84043 30.79371
# Shear Modulus (GPa) = 17.82760 17.90438 17.86599
#
# Velocity S-wave (km/s) = 2.76972 2.77568 2.77270
# Velocity P-wave (km/s) = 4.32733 5.31760 4.84782
#
# Compressibility (1/GPa) = 0.05064065
#
# Stress axis : x y z
#
# Youngs Moduli (GPa) = 22.37123 163.53840 96.56461
#
# Poissons Ratio (x) = 0.56998 0.00720
# Poissons Ratio (y) = 0.07797 0.16466
# Poissons Ratio (z) = 0.00167 0.27887
#
# Static dielectric constant tensor:
#      x y z
#    x 1.832660 0.000000 -0.038680 
#    y 0.000000 2.089320 0.000000 
#    z -0.038680 0.000000 1.807270 
# 
# From -- ./inp_files/55446.got.cif
#   From: 2010.05.17/outbox.cif.g08.bks.cpg/sg5_28_cif.got.tgz:55446.got - 2010.06.03 18:56:24.
