data_PCOD9120242
_publ_section_title
;
Structure prediction by ZEFSAII (Michael W. Deem and Ramdas Pophale) SiO2 
 PCOD9120242
Probable space group: C 2
;
_chemical_formula_sum "Si O2"
_cell_formula_units_Z 28
_cell_length_a 22.142102
_cell_length_b 7.684801
_cell_length_c 12.060230
_cell_angle_alpha 90.000000
_cell_angle_beta 148.084983
_cell_angle_gamma 90.000000
_cell_volume 1084.886227
_symmetry_space_group_name_H-M "C 2"
_symmetry_group_IT_number 5
_symmetry_cell_setting 'monoclinic'
loop_
_space_group_symop_operation_xyz
x,y,z
-x,y,-z
1/2+x,1/2+y,z
1/2-x,1/2+y,-z
loop_
_atom_site_type_symbol
_atom_site_label
_atom_site_fract_x
_atom_site_fract_y
_atom_site_fract_z
Si Si1 0.123753 0.343430 0.547027
Si Si2 0.477589 0.437450 0.199817
Si Si3 0.120611 0.800214 0.754932
Si Si4 0.096674 0.158701 0.221773
Si Si5 0.138806 0.399273 0.832277
Si Si6 0.342461 0.178371 0.556614
Si Si7 0.847163 0.772649 0.793667
O O1 0.157156 0.359446 0.729053
O O2 0.147548 0.516782 0.510285
O O3 0.220135 0.223937 0.638282
O O4 0.986963 0.325429 0.336518
O O5 0.399639 0.449390 0.184688
O O6 0.524696 0.610230 0.217629
O O7 0.589547 0.326792 0.401170
O O8 0.413916 0.314595 0.010831
O O9 0.126105 0.608464 0.817062
O O10 0.000000 0.802291 0.500000
O O11 0.252324 0.837167 0.924699
O O12 0.130495 0.963891 0.229294
O O13 0.216488 0.248467 0.391071
O O14 0.000000 0.248902 0.000000
O O15 0.383961 0.148335 0.749144
#
# Coordination Sequence:
#
# PCOD9120242 Si02
#       7
#     4   4   4   4   4   4   4
#     4  10  19  40  66  90 134 186 215 282 358 405
#     4  10  18  37  57  80 125 167 209 277 331 401
#     4  12  24  46  68 100 135 182 240 287 347 408
#     4   8  17  31  52  82 114 156 205 250 326 399
#     4  11  23  44  71  97 137 187 229 287 353 404
#     4  10  17  32  60  89 116 163 220 264 333 410
#     4   9  18  33  59  88 118 168 219 259 335 411
#
# _framework density 25.809158
#
# number of rings (size 3 to 8) (size 9 to 14) (size 15 to 20)
#    0.000    2.000    4.286    1.286    0.000    0.000 
#    7.714    0.000    0.000   12.000    0.000    0.000 
#    0.000    0.000    0.000    0.000    0.000    0.000 
#
# Total GULP energy -77953.815738 kJ/mol
# GULP energy per Si atom -5568.129696 kJ/mol
# Density = 2.575042 g / cm^3
# Si number density = 25.809158 Si / 1000 Ang^3
#
#
#
# Elastic Constant Matrix: (Units=GPa)
#
#
# Indices 1 2 3 4 5 6 
#
# 1 124.7807 16.9381 17.2401 0.0000 19.2447 0.0000
# 2 16.9381 23.2354 21.0483 0.0000 -3.8855 0.0000
# 3 17.2401 21.0483 155.8955 0.0000 40.0019 0.0000
# 4 0.0000 0.0000 0.0000 19.6542 0.0000 11.0527
# 5 19.2447 -3.8855 40.0019 0.0000 45.8983 0.0000
# 6 0.0000 0.0000 0.0000 11.0527 0.0000 27.8827
#
#
#
# Elastic Compliance Matrix: (Units=1/GPa)
#
#
# Indices 1 2 3 4 5 6 
#
# 1 0.010233 -0.010517 0.002084 0.000000 -0.006997 0.000000
# 2 -0.010517 0.066447 -0.013374 0.000000 0.021691 0.000000
# 3 0.002084 -0.013374 0.010954 0.000000 -0.011553 0.000000
# 4 0.000000 0.000000 0.000000 0.065475 0.000000 -0.025954
# 5 -0.006997 0.021691 -0.011553 0.000000 0.036626 0.000000
# 6 0.000000 0.000000 0.000000 -0.025954 0.000000 0.046153
#
#
# Mechanical properties :
#
#
# Convention : Reuss Voigt Hill
#
# Bulk Modulus (GPa) = 22.71738 46.04051 34.37895
# Shear Modulus (GPa) = 16.99661 35.26604 26.13132
#
# Velocity S-wave (km/s) = 2.56901 3.70052 3.18541
# Velocity P-wave (km/s) = 4.19772 6.01132 5.18444
#
# Compressibility (1/GPa) = 0.04401915
#
# Stress axis : x y z
#
# Youngs Moduli (GPa) = 97.72381 15.04958 91.28912
#
# Poissons Ratio (x) = 0.15828 -0.19022
# Poissons Ratio (y) = 1.02778 1.22090
# Poissons Ratio (z) = -0.20363 0.20127
#
# Static dielectric constant tensor:
#      x y z
#    x 2.091800 0.000000 -0.090300 
#    y 0.000000 2.033920 0.000000 
#    z -0.090300 0.000000 2.285350 
# 
# From -- ./inp_files/47463.got.cif
#   From: 2010.05.17/outbox.cif.g08.bks.cpg/sg5_24_cif.got.tgz:47463.got - 2010.06.03 18:56:24.
