data_PCOD9120316
_publ_section_title
;
Structure prediction by ZEFSAII (Michael W. Deem and Ramdas Pophale) SiO2 
 PCOD9120316
Probable space group: C 2
;
_chemical_formula_sum "Si O2"
_cell_formula_units_Z 26
_cell_length_a 9.001963
_cell_length_b 17.965671
_cell_length_c 7.585268
_cell_angle_alpha 90.000000
_cell_angle_beta 57.252196
_cell_angle_gamma 90.000000
_cell_volume 1031.759422
_symmetry_space_group_name_H-M "C 2"
_symmetry_group_IT_number 5
_symmetry_cell_setting 'monoclinic'
loop_
_space_group_symop_operation_xyz
x,y,z
-x,y,-z
1/2+x,1/2+y,z
1/2-x,1/2+y,-z
loop_
_atom_site_type_symbol
_atom_site_label
_atom_site_fract_x
_atom_site_fract_y
_atom_site_fract_z
Si Si1 0.212865 0.387770 0.613888
Si Si2 0.500000 0.780136 0.000000
Si Si3 0.198223 0.149527 0.337353
Si Si4 0.979720 0.535503 0.230650
Si Si5 0.149360 0.073103 0.010853
Si Si6 0.051873 0.912785 0.195272
Si Si7 0.199888 0.775304 0.917123
O O1 0.098024 0.459655 0.644796
O O2 0.363532 0.377193 0.369316
O O3 0.329944 0.411735 0.706732
O O4 0.087252 0.324588 0.776700
O O5 0.681117 0.753011 0.986021
O O6 0.346374 0.104619 0.347289
O O7 0.222980 0.120216 0.124072
O O8 0.204196 0.238444 0.313214
O O9 0.000000 0.124889 0.500000
O O10 0.000000 0.523245 0.000000
O O11 0.169759 0.549203 0.195031
O O12 0.049022 0.998660 0.141691
O O13 0.000000 0.116353 0.000000
O O14 0.158744 0.861436 0.989113
O O15 0.000000 0.745039 0.000000
#
# Coordination Sequence:
#
# PCOD9120316 Si02
#       7
#     4   2   4   4   4   4   4
#     4  10  17  35  63  95 126 168 219 264 320 393
#     4  10  22  40  64  94 128 172 218 274 332 382
#     4  11  24  43  67  91 124 175 222 263 327 403
#     4  10  17  35  64  90 124 168 208 258 322 389
#     4  11  22  38  64  96 130 168 209 274 332 381
#     4  10  20  35  63  96 129 166 218 270 323 390
#     4  11  24  43  63  88 131 171 217 269 333 390
#
# _framework density 25.199673000000001
#
# number of rings (size 3 to 8) (size 9 to 14) (size 15 to 20)
#    0.000    1.538    3.846    3.692    1.077    1.231 
#    0.000    4.615    0.000    0.000    0.000    0.000 
#    0.000    0.000    0.000    0.000    0.000    0.000 
#
# Total GULP energy -72401.552497 kJ/mol
# GULP energy per Si atom -5569.350192 kJ/mol
# Density = 2.514232 g / cm^3
# Si number density = 25.199673 Si / 1000 Ang^3
#
#
#
# Elastic Constant Matrix: (Units=GPa)
#
#
# Indices 1 2 3 4 5 6 
#
# 1 166.2623 14.4473 28.3074 0.0000 -26.3069 0.0000
# 2 14.4473 54.1053 12.6105 0.0000 -1.8791 0.0000
# 3 28.3074 12.6105 80.1776 0.0000 -20.4416 0.0000
# 4 0.0000 0.0000 0.0000 14.4371 0.0000 -33.3476
# 5 -26.3069 -1.8791 -20.4416 0.0000 47.8029 0.0000
# 6 0.0000 0.0000 0.0000 -33.3476 0.0000 -31.3798
#
#
#
# Elastic Compliance Matrix: (Units=1/GPa)
#
#
# Indices 1 2 3 4 5 6 
#
# 1 0.006870 -0.001397 -0.001410 0.000000 0.003123 0.000000
# 2 -0.001397 0.019486 -0.002887 0.000000 -0.001238 0.000000
# 3 -0.001410 -0.002887 0.014812 0.000000 0.005445 0.000000
# 4 0.000000 0.000000 0.000000 0.020050 0.000000 -0.021307
# 5 0.003123 -0.001238 0.005445 0.000000 0.024918 0.000000
# 6 0.000000 0.000000 0.000000 -0.021307 0.000000 -0.009224
#
#
# Mechanical properties :
#
#
# Convention : Reuss Voigt Hill
#
# Bulk Modulus (GPa) = 33.57943 45.69727 39.63835
# Shear Modulus (GPa) = 50.90340 22.51737 36.71039
#
# Velocity S-wave (km/s) = 4.49932 2.99249 3.82092
# Velocity P-wave (km/s) = 6.35186 5.48757 5.93547
#
# Compressibility (1/GPa) = 0.02978014
#
# Stress axis : x y z
#
# Youngs Moduli (GPa) = 145.55691 51.32020 67.51192
#
# Poissons Ratio (x) = 0.07172 0.09516
# Poissons Ratio (y) = 0.20342 0.19490
# Poissons Ratio (z) = 0.20517 0.14815
#
# Static dielectric constant tensor:
#      x y z
#    x 3.766480 0.000000 -2.997330 
#    y 0.000000 2.024840 0.000000 
#    z -2.997330 0.000000 7.157610 
# 
# From -- ./inp_files/16995.got.cif
#   From: 2010.05.17/outbox.cif.g08.bks.cpg/sg5_9_cif.got.tgz:16995.got - 2010.06.03 18:56:24.
