data_PCOD9120493
_publ_section_title
;
Structure prediction by ZEFSAII (Michael W. Deem and Ramdas Pophale) SiO2 
 PCOD9120493
Probable space group: C 2
;
_chemical_formula_sum "Si O2"
_cell_formula_units_Z 24
_cell_length_a 14.907999
_cell_length_b 10.495070
_cell_length_c 7.228677
_cell_angle_alpha 90.000000
_cell_angle_beta 87.363535
_cell_angle_gamma 90.000000
_cell_volume 1129.805198
_symmetry_space_group_name_H-M "C 2"
_symmetry_group_IT_number 5
_symmetry_cell_setting 'monoclinic'
loop_
_space_group_symop_operation_xyz
x,y,z
-x,y,-z
1/2+x,1/2+y,z
1/2-x,1/2+y,-z
loop_
_atom_site_type_symbol
_atom_site_label
_atom_site_fract_x
_atom_site_fract_y
_atom_site_fract_z
Si Si1 0.821405 0.110650 0.779340
Si Si2 0.572281 0.106406 0.277136
Si Si3 0.336854 0.350273 0.622010
Si Si4 0.295222 0.877356 0.685319
Si Si5 0.613208 0.047503 0.850354
Si Si6 0.185068 0.294526 0.921655
O O1 0.838949 0.236496 0.654224
O O2 0.713759 0.082582 0.777195
O O3 0.867535 0.981411 0.714017
O O4 0.841096 0.160799 0.985235
O O5 0.592963 0.237999 0.374974
O O6 0.466428 0.082173 0.278762
O O7 0.634126 0.990810 0.346599
O O8 0.598764 0.110216 0.053966
O O9 0.291784 0.386562 0.432515
O O10 0.254765 0.290975 0.750703
O O11 0.269902 0.866953 0.905127
O O12 0.608290 0.894052 0.875503
#
# Coordination Sequence:
#
# PCOD9120493 Si02
#       6
#     4   4   4   4   4   4
#     4   9  18  34  52  77 104 136 179 209 258 315
#     4  10  18  31  57  82 106 138 175 222 263 305
#     4  11  18  32  55  78 106 136 177 217 256 310
#     4   9  19  33  51  79 105 142 173 208 259 322
#     4   9  17  33  56  78 107 135 178 219 264 306
#     4   8  18  33  51  73 106 140 173 211 255 320
#
# _framework density 21.242601000000001
#
# number of rings (size 3 to 8) (size 9 to 14) (size 15 to 20)
#    1.000    1.667    1.667    1.000    0.000    0.000 
#    0.000    7.500    7.333    0.000    0.000    9.333 
#    0.000    0.000    0.000    0.000    0.000    0.000 
#
# Total GULP energy -66858.730208 kJ/mol
# GULP energy per Si atom -5571.560851 kJ/mol
# Density = 2.119425 g / cm^3
# Si number density = 21.242601 Si / 1000 Ang^3
#
#
#
# Elastic Constant Matrix: (Units=GPa)
#
#
# Indices 1 2 3 4 5 6 
#
# 1 58.0930 41.2244 32.3452 0.0000 17.0215 0.0000
# 2 41.2244 160.2031 27.3093 0.0000 30.1107 0.0000
# 3 32.3452 27.3093 68.9667 0.0000 15.0503 0.0000
# 4 0.0000 0.0000 0.0000 24.6454 0.0000 6.3601
# 5 17.0215 30.1107 15.0503 0.0000 30.3489 0.0000
# 6 0.0000 0.0000 0.0000 6.3601 0.0000 13.9602
#
#
#
# Elastic Compliance Matrix: (Units=1/GPa)
#
#
# Indices 1 2 3 4 5 6 
#
# 1 0.027569 -0.004211 -0.009868 0.000000 -0.006391 0.000000
# 2 -0.004211 0.008466 -0.000067 0.000000 -0.006004 0.000000
# 3 -0.009868 -0.000067 0.020108 0.000000 -0.004371 0.000000
# 4 0.000000 0.000000 0.000000 0.045982 0.000000 -0.020949
# 5 -0.006391 -0.006004 -0.004371 0.000000 0.044659 0.000000
# 6 0.000000 0.000000 0.000000 -0.020949 0.000000 0.081176
#
#
# Mechanical properties :
#
#
# Convention : Reuss Voigt Hill
#
# Bulk Modulus (GPa) = 35.90490 54.33561 45.12025
# Shear Modulus (GPa) = 18.82999 26.21650 22.52324
#
# Velocity S-wave (km/s) = 2.98052 3.51685 3.25974
# Velocity P-wave (km/s) = 5.36504 6.49039 5.95436
#
# Compressibility (1/GPa) = 0.02785135
#
# Stress axis : x y z
#
# Youngs Moduli (GPa) = 36.27320 118.12566 49.73149
#
# Poissons Ratio (x) = 0.49741 0.49073
# Poissons Ratio (y) = 0.15274 0.00333
# Poissons Ratio (z) = 0.35793 0.00792
#
# Static dielectric constant tensor:
#      x y z
#    x 1.748680 0.000000 -0.018680 
#    y 0.000000 1.832970 0.000000 
#    z -0.018680 0.000000 1.830250 
# 
# From -- ./inp_files/23451.got.cif
#   From: 2010.05.17/outbox.cif.g08.bks.cpg/sg5_12_cif.got.tgz:23451.got - 2010.06.03 18:56:24.
