data_PCOD9120345
_publ_section_title
;
Structure prediction by ZEFSAII (Michael W. Deem and Ramdas Pophale) SiO2 
 PCOD9120345
Probable space group: C 2
;
_chemical_formula_sum "Si O2"
_cell_formula_units_Z 32
_cell_length_a 28.574223
_cell_length_b 11.857702
_cell_length_c 8.813875
_cell_angle_alpha 90.000000
_cell_angle_beta 148.760961
_cell_angle_gamma 90.000000
_cell_volume 1548.754151
_symmetry_space_group_name_H-M "C 2"
_symmetry_group_IT_number 5
_symmetry_cell_setting 'monoclinic'
loop_
_space_group_symop_operation_xyz
x,y,z
-x,y,-z
1/2+x,1/2+y,z
1/2-x,1/2+y,-z
loop_
_atom_site_type_symbol
_atom_site_label
_atom_site_fract_x
_atom_site_fract_y
_atom_site_fract_z
Si Si1 0.004167 0.768440 0.829172
Si Si2 0.694983 0.272153 0.762412
Si Si3 0.207136 0.204124 0.673342
Si Si4 0.438431 0.878778 0.679174
Si Si5 0.266730 0.967742 0.796902
Si Si6 0.432282 0.039992 0.100604
Si Si7 0.802979 0.872290 0.709372
Si Si8 0.194421 0.555433 0.551386
O O1 0.008975 0.652024 0.747999
O O2 0.906782 0.818875 0.522402
O O3 0.093609 0.837590 0.032487
O O4 0.000000 0.746376 0.000000
O O5 0.758494 0.378716 0.907173
O O6 0.705096 0.175567 0.661072
O O7 0.721282 0.218513 0.993741
O O8 0.115635 0.262683 0.477941
O O9 0.247751 0.273269 0.642663
O O10 0.198628 0.072565 0.615982
O O11 0.507062 0.928800 0.747158
O O12 0.363661 0.975141 0.500306
O O13 0.500000 0.872813 0.000000
O O14 0.242579 0.897463 0.578709
O O15 0.364679 0.022837 0.050689
O O16 0.366130 0.059540 0.769950
O O17 0.784130 0.985859 0.754978
#
# Coordination Sequence:
#
# PCOD9120345 Si02
#       8
#     4   4   4   4   4   4   4   4
#     4  12  19  38  65  99 126 170 229 270 315 386
#     4  12  25  40  67  96 141 172 210 280 339 393
#     4  11  26  43  64 101 138 168 220 271 348 390
#     4   9  18  39  66  91 120 169 218 272 313 382
#     4  11  24  41  66 100 129 174 220 268 336 393
#     4  10  17  36  68  95 115 160 237 272 296 373
#     4  10  22  41  66  91 132 170 222 278 309 394
#     4   9  18  35  65  94 123 167 215 266 328 369
#
# _framework density 20.661769
#
# number of rings (size 3 to 8) (size 9 to 14) (size 15 to 20)
#    0.000    1.500    5.000    1.125    5.250    0.500 
#    2.250    1.875    0.000    0.000    0.000    0.000 
#    0.000    0.000    0.000    0.000    0.000    0.000 
#
# Total GULP energy -89312.640193 kJ/mol
# GULP energy per Si atom -5582.040012 kJ/mol
# Density = 2.061474 g / cm^3
# Si number density = 20.661769 Si / 1000 Ang^3
#
#
#
# Elastic Constant Matrix: (Units=GPa)
#
#
# Indices 1 2 3 4 5 6 
#
# 1 73.8518 48.6344 30.7622 0.0000 20.3272 0.0000
# 2 48.6344 97.9721 11.3774 0.0000 4.0701 0.0000
# 3 30.7622 11.3774 49.1320 0.0000 1.7279 0.0000
# 4 0.0000 0.0000 0.0000 27.0423 0.0000 11.5278
# 5 20.3272 4.0701 1.7279 0.0000 32.3087 0.0000
# 6 0.0000 0.0000 0.0000 11.5278 0.0000 38.9626
#
#
#
# Elastic Compliance Matrix: (Units=1/GPa)
#
#
# Indices 1 2 3 4 5 6 
#
# 1 0.037290 -0.015447 -0.019050 0.000000 -0.020496 0.000000
# 2 -0.015447 0.016934 0.005494 0.000000 0.007292 0.000000
# 3 -0.019050 0.005494 0.030669 0.000000 0.009653 0.000000
# 4 0.000000 0.000000 0.000000 0.042316 0.000000 -0.012520
# 5 -0.020496 0.007292 0.009653 0.000000 0.042412 0.000000
# 6 0.000000 0.000000 0.000000 -0.012520 0.000000 0.029370
#
#
# Mechanical properties :
#
#
# Convention : Reuss Voigt Hill
#
# Bulk Modulus (GPa) = 37.19306 44.72266 40.95786
# Shear Modulus (GPa) = 18.79985 28.34150 23.57067
#
# Velocity S-wave (km/s) = 3.01970 3.70765 3.38122
# Velocity P-wave (km/s) = 5.49528 6.32622 5.92533
#
# Compressibility (1/GPa) = 0.02688673
#
# Stress axis : x y z
#
# Youngs Moduli (GPa) = 26.81701 59.05176 32.60629
#
# Poissons Ratio (x) = 0.91219 0.62114
# Poissons Ratio (y) = 0.41425 -0.17914
# Poissons Ratio (z) = 0.51086 -0.32442
#
# Static dielectric constant tensor:
#      x y z
#    x 1.768380 0.000000 -0.000340 
#    y 0.000000 1.741550 0.000000 
#    z -0.000340 0.000000 1.741040 
# 
# From -- ./inp_files/32643.got.cif
#   From: 2010.05.17/outbox.cif.g08.bks.cpg/sg5_17_cif.got.tgz:32643.got - 2010.06.03 18:56:24.
