data_PCOD9120957
_publ_section_title
;
Structure prediction by ZEFSAII (Michael W. Deem and Ramdas Pophale) SiO2 
 PCOD9120957
Probable space group: C 2
;
_chemical_formula_sum "Si O2"
_cell_formula_units_Z 30
_cell_length_a 26.764789
_cell_length_b 6.341641
_cell_length_c 9.799020
_cell_angle_alpha 90.000000
_cell_angle_beta 125.335411
_cell_angle_gamma 90.000000
_cell_volume 1356.817175
_symmetry_space_group_name_H-M "C 2"
_symmetry_group_IT_number 5
_symmetry_cell_setting 'monoclinic'
loop_
_space_group_symop_operation_xyz
x,y,z
-x,y,-z
1/2+x,1/2+y,z
1/2-x,1/2+y,-z
loop_
_atom_site_type_symbol
_atom_site_label
_atom_site_fract_x
_atom_site_fract_y
_atom_site_fract_z
Si Si1 0.544361 0.630160 0.782337
Si Si2 0.270871 0.719904 0.867849
Si Si3 0.000000 0.820484 0.500000
Si Si4 0.866126 0.842254 0.980933
Si Si5 0.063662 0.450487 0.439274
Si Si6 0.690399 0.975494 0.568199
Si Si7 0.859932 0.446525 0.164091
Si Si8 0.276782 0.103834 0.671400
O O1 0.544895 0.482470 0.647699
O O2 0.568327 0.457643 0.929091
O O3 0.481271 0.761830 0.676000
O O4 0.595518 0.810502 0.864806
O O5 0.205223 0.621658 0.723911
O O6 0.280180 0.892776 0.764787
O O7 0.315810 0.522119 0.928505
O O8 0.292401 0.844255 0.037074
O O9 0.972467 0.661212 0.570539
O O10 0.862680 0.677924 0.102115
O O11 0.839175 0.726465 0.806841
O O12 0.118778 0.481786 0.421488
O O13 0.103987 0.403557 0.638880
O O14 0.718845 0.742774 0.629664
O O15 0.726508 0.061785 0.493778
#
# Coordination Sequence:
#
# PCOD9120957 Si02
#       8
#     4   4   2   4   4   4   4   4
#     4  11  19  37  61  89 126 169 201 253 321 379
#     4   9  20  38  60  87 121 167 208 264 318 373
#     4  12  20  38  60  86 130 162 198 258 318 392
#     4   9  19  35  68  86 119 176 204 260 324 373
#     4  12  23  36  61 100 126 167 210 262 317 401
#     4  11  23  40  64  93 123 167 218 268 320 376
#     4  10  18  37  58  91 128 162 206 251 322 384
#     4  10  20  42  65  88 122 166 221 271 318 375
#
# _framework density 22.110569999999999
#
# number of rings (size 3 to 8) (size 9 to 14) (size 15 to 20)
#    0.000    1.600    5.333    0.000    0.000    1.067 
#    7.200    0.000    0.000   19.200    0.000    0.000 
#    0.000    0.000    0.000    0.000    0.000    0.000 
#
# Total GULP energy -83502.065555 kJ/mol
# GULP energy per Si atom -5566.804370 kJ/mol
# Density = 2.206025 g / cm^3
# Si number density = 22.110570 Si / 1000 Ang^3
#
#
#
# Elastic Constant Matrix: (Units=GPa)
#
#
# Indices 1 2 3 4 5 6 
#
# 1 50.4252 32.6505 11.3539 0.0000 20.9459 0.0000
# 2 32.6505 136.3975 45.0878 0.0000 19.9947 0.0000
# 3 11.3539 45.0878 75.6194 0.0000 21.4037 0.0000
# 4 0.0000 0.0000 0.0000 70.1914 0.0000 12.8087
# 5 20.9459 19.9947 21.4037 0.0000 35.8874 0.0000
# 6 0.0000 0.0000 0.0000 12.8087 0.0000 17.8520
#
#
#
# Elastic Compliance Matrix: (Units=1/GPa)
#
#
# Indices 1 2 3 4 5 6 
#
# 1 0.029536 -0.005915 0.003656 0.000000 -0.016124 0.000000
# 2 -0.005915 0.010464 -0.005628 0.000000 0.000979 0.000000
# 3 0.003656 -0.005628 0.018946 0.000000 -0.010297 0.000000
# 4 0.000000 0.000000 0.000000 0.016393 0.000000 -0.011762
# 5 -0.016124 0.000979 -0.010297 0.000000 0.042872 0.000000
# 6 0.000000 0.000000 0.000000 -0.011762 0.000000 0.064455
#
#
# Mechanical properties :
#
#
# Convention : Reuss Voigt Hill
#
# Bulk Modulus (GPa) = 23.16380 48.95851 36.06116
# Shear Modulus (GPa) = 23.49277 36.34282 29.91780
#
# Velocity S-wave (km/s) = 3.26316 4.05864 3.68244
# Velocity P-wave (km/s) = 4.96958 6.64485 5.86731
#
# Compressibility (1/GPa) = 0.04317080
#
# Stress axis : x y z
#
# Youngs Moduli (GPa) = 33.85727 95.56126 52.78224
#
# Poissons Ratio (x) = 0.56526 -0.19297
# Poissons Ratio (y) = 0.20027 0.29708
# Poissons Ratio (z) = -0.12378 0.53786
#
# Static dielectric constant tensor:
#      x y z
#    x 1.890800 0.000000 0.021890 
#    y 0.000000 1.862210 0.000000 
#    z 0.021890 0.000000 1.880100 
# 
# From -- ./inp_files/46969.got.cif
#   From: 2010.05.17/outbox.cif.g08.bks.cpg/sg5_24_cif.got.tgz:46969.got - 2010.06.03 18:56:24.
