data_PCOD9120929
_publ_section_title
;
Structure prediction by ZEFSAII (Michael W. Deem and Ramdas Pophale) SiO2 
 PCOD9120929
Probable space group: C 2
;
_chemical_formula_sum "Si O2"
_cell_formula_units_Z 30
_cell_length_a 16.312797
_cell_length_b 9.928363
_cell_length_c 27.739577
_cell_angle_alpha 90.000000
_cell_angle_beta 20.730223
_cell_angle_gamma 90.000000
_cell_volume 1590.267564
_symmetry_space_group_name_H-M "C 2"
_symmetry_group_IT_number 5
_symmetry_cell_setting 'monoclinic'
loop_
_space_group_symop_operation_xyz
x,y,z
-x,y,-z
1/2+x,1/2+y,z
1/2-x,1/2+y,-z
loop_
_atom_site_type_symbol
_atom_site_label
_atom_site_fract_x
_atom_site_fract_y
_atom_site_fract_z
Si Si1 0.554794 0.984670 0.875156
Si Si2 0.298432 0.761945 0.281504
Si Si3 0.540434 0.474636 0.660830
Si Si4 0.688215 0.237596 0.739433
Si Si5 0.362904 0.753500 0.442105
Si Si6 0.000000 0.094927 0.500000
Si Si7 0.968444 0.992343 0.813218
Si Si8 0.296791 0.356359 0.561335
O O1 0.591824 0.856992 0.819345
O O2 0.772899 0.981848 0.791317
O O3 0.565968 0.118182 0.835717
O O4 0.308989 0.989567 0.036257
O O5 0.423861 0.620591 0.218557
O O6 0.313131 0.829060 0.326443
O O7 0.017664 0.758508 0.429302
O O8 0.654682 0.599127 0.567523
O O9 0.651595 0.331383 0.584357
O O10 0.562432 0.492636 0.706359
O O11 0.787019 0.180158 0.635013
O O12 0.540346 0.364768 0.805832
O O13 0.915029 0.271078 0.646323
O O14 0.385027 0.837576 0.380357
O O15 0.919770 0.000539 0.499931
#
# Coordination Sequence:
#
# PCOD9120929 Si02
#       8
#     4   4   4   4   4   2   4   4
#     4  11  22  44  61  80 125 176 199 225 301 378
#     4  10  20  38  64  86 115 163 204 233 303 360
#     4  11  24  41  62  92 119 159 196 249 312 351
#     4  11  23  37  60  94 119 153 199 258 305 331
#     4  11  22  38  62  89 123 145 194 257 306 352
#     4  10  18  38  60  84 120 154 194 246 308 370
#     4  12  25  38  60  93 125 153 208 254 277 355
#     4  10  18  36  65  85 113 158 195 243 299 371
#
# _framework density 18.864750000000001
#
# number of rings (size 3 to 8) (size 9 to 14) (size 15 to 20)
#    0.000    1.333    5.333    2.800    1.867    1.067 
#    0.000    0.000    0.000    0.000    0.000    1.867 
#    0.000    0.000    0.000    0.000    0.000    0.000 
#
# Total GULP energy -83645.691296 kJ/mol
# GULP energy per Si atom -5576.379420 kJ/mol
# Density = 1.882181 g / cm^3
# Si number density = 18.864750 Si / 1000 Ang^3
#
#
#
# Elastic Constant Matrix: (Units=GPa)
#
#
# Indices 1 2 3 4 5 6 
#
# 1 92.3967 41.1695 10.9917 -0.0146 -3.3956 -0.0061
# 2 41.1695 93.9541 31.3464 -0.0063 -8.1836 0.0005
# 3 10.9917 31.3464 59.5492 -0.1062 -3.5942 0.0051
# 4 -0.0146 -0.0063 -0.1062 -14.0908 0.0141 -8.2076
# 5 -3.3956 -8.1836 -3.5942 0.0141 24.3900 0.0004
# 6 -0.0061 0.0005 0.0051 -8.2076 0.0004 21.4876
#
#
#
# Elastic Compliance Matrix: (Units=1/GPa)
#
#
# Indices 1 2 3 4 5 6 
#
# 1 0.013477 -0.006163 0.000752 -0.000016 -0.000081 -0.000002
# 2 -0.006163 0.016008 -0.007080 0.000046 0.003470 0.000017
# 3 0.000752 -0.007080 0.020425 -0.000121 0.000739 -0.000051
# 4 -0.000016 0.000046 -0.000121 -0.058052 0.000029 -0.022174
# 5 -0.000081 0.003470 0.000739 0.000029 0.042262 0.000010
# 6 -0.000002 0.000017 -0.000051 -0.022174 0.000010 0.038069
#
#
# Mechanical properties :
#
#
# Convention : Reuss Voigt Hill
#
# Bulk Modulus (GPa) = 40.11518 45.87946 42.99732
# Shear Modulus (GPa) = 47.40198 17.18353 32.29276
#
# Velocity S-wave (km/s) = 5.01815 3.02135 4.14188
# Velocity P-wave (km/s) = 7.40855 6.04520 6.76132
#
# Compressibility (1/GPa) = 0.02492822
#
# Stress axis : x y z
#
# Youngs Moduli (GPa) = 74.20263 62.46742 48.95928
#
# Poissons Ratio (x) = 0.38500 -0.03681
# Poissons Ratio (y) = 0.45732 0.34661
# Poissons Ratio (z) = -0.05579 0.44224
#
# Static dielectric constant tensor:
#      x y z
#    x 1.689600 -0.000010 -0.002010 
#    y -0.000010 1.693030 0.000020 
#    z -0.002010 0.000020 1.648070 
# 
# From -- ./inp_files/72101.got.cif
#   From: 2010.05.17/outbox.cif.g08.bks.cpg/sg5_37_cif.got.tgz:72101.got - 2010.06.03 18:56:24.
