data_PCOD9120870
_publ_section_title
;
Structure prediction by ZEFSAII (Michael W. Deem and Ramdas Pophale) SiO2 
 PCOD9120870
Probable space group: C 2
;
_chemical_formula_sum "Si O2"
_cell_formula_units_Z 24
_cell_length_a 11.714454
_cell_length_b 8.223639
_cell_length_c 18.385051
_cell_angle_alpha 90.000000
_cell_angle_beta 32.241132
_cell_angle_gamma 90.000000
_cell_volume 944.869891
_symmetry_space_group_name_H-M "C 2"
_symmetry_group_IT_number 5
_symmetry_cell_setting 'monoclinic'
loop_
_space_group_symop_operation_xyz
x,y,z
-x,y,-z
1/2+x,1/2+y,z
1/2-x,1/2+y,-z
loop_
_atom_site_type_symbol
_atom_site_label
_atom_site_fract_x
_atom_site_fract_y
_atom_site_fract_z
Si Si1 0.879854 0.300240 0.830573
Si Si2 0.749155 0.762089 0.855651
Si Si3 0.674647 0.066653 0.641026
Si Si4 0.736932 0.904003 0.353640
Si Si5 0.388759 0.480916 0.918536
Si Si6 0.032548 0.040794 0.325594
O O1 0.107194 0.392966 0.708797
O O2 0.874796 0.210464 0.755352
O O3 0.842339 0.153415 0.907239
O O4 0.715287 0.433891 0.949655
O O5 0.807123 0.852379 0.901266
O O6 0.947917 0.638962 0.732468
O O7 0.500000 0.716451 0.000000
O O8 0.780794 0.905443 0.777989
O O9 0.742574 0.208561 0.659581
O O10 0.871859 0.052762 0.479512
O O11 0.500000 0.950995 0.500000
O O12 0.854782 0.971550 0.219731
O O13 0.871255 0.975789 0.349055
#
# Coordination Sequence:
#
# PCOD9120870 Si02
#       6
#     4   4   4   4   4   4
#     4  10  18  36  60  82 110 156 196 232 302 332
#     4   9  19  37  56  81 117 154 191 242 296 352
#     4  10  19  37  59  82 117 156 196 241 298 357
#     4   9  19  37  56  81 117 154 191 242 296 352
#     4   9  19  35  59  80 120 152 188 246 292 346
#     4   9  20  38  60  80 117 158 192 245 296 359
#
# _framework density 25.400321000000002
#
# number of rings (size 3 to 8) (size 9 to 14) (size 15 to 20)
#    0.000    3.333    0.000    4.000    0.000    0.000 
#   18.000    6.667    0.000    0.000    0.000    0.000 
#    0.000    0.000    0.000    0.000    0.000    0.000 
#
# Total GULP energy -66916.975916 kJ/mol
# GULP energy per Si atom -5576.414660 kJ/mol
# Density = 2.534251 g / cm^3
# Si number density = 25.400321 Si / 1000 Ang^3
#
#
#
# Elastic Constant Matrix: (Units=GPa)
#
#
# Indices 1 2 3 4 5 6 
#
# 1 60.2986 24.3098 33.9108 -0.0002 -3.2194 0.0001
# 2 24.3098 40.8873 30.9636 -0.0005 13.5754 0.0000
# 3 33.9108 30.9636 235.0111 -0.0020 19.9565 0.0004
# 4 -0.0002 -0.0005 -0.0020 53.9206 0.0005 6.6696
# 5 -3.2194 13.5754 19.9565 0.0005 40.0642 -0.0001
# 6 0.0001 0.0000 0.0004 6.6696 -0.0001 23.9768
#
#
#
# Elastic Compliance Matrix: (Units=1/GPa)
#
#
# Indices 1 2 3 4 5 6 
#
# 1 0.024625 -0.015777 -0.002189 0.000000 0.008415 0.000000
# 2 -0.015777 0.039795 -0.001790 0.000000 -0.013861 0.000000
# 3 -0.002189 -0.001790 0.004981 0.000000 -0.002051 0.000000
# 4 0.000000 0.000000 0.000000 0.019207 0.000000 -0.005343
# 5 0.008415 -0.013861 -0.002051 0.000000 0.031354 0.000000
# 6 0.000000 0.000000 0.000000 -0.005343 0.000000 0.043193
#
#
# Mechanical properties :
#
#
# Convention : Reuss Voigt Hill
#
# Bulk Modulus (GPa) = 33.45680 57.17395 45.31537
# Shear Modulus (GPa) = 23.51491 40.05983 31.78737
#
# Velocity S-wave (km/s) = 3.04595 3.97563 3.54143
# Velocity P-wave (km/s) = 5.05676 6.60547 5.88230
#
# Compressibility (1/GPa) = 0.02988929
#
# Stress axis : x y z
#
# Youngs Moduli (GPa) = 40.60851 25.12859 200.76610
#
# Poissons Ratio (x) = 0.39646 0.43951
# Poissons Ratio (y) = 0.64070 0.35929
# Poissons Ratio (z) = 0.08890 0.04497
#
# Static dielectric constant tensor:
#      x y z
#    x 2.082670 0.000000 -0.006910 
#    y 0.000000 2.096200 0.000000 
#    z -0.006910 0.000000 2.019490 
# 
# From -- ./inp_files/44098.got.cif
#   From: 2010.05.17/outbox.cif.g08.bks.cpg/sg5_23_cif.got.tgz:44098.got - 2010.06.03 18:56:24.
