data_PCOD9120337
_publ_section_title
;
Structure prediction by ZEFSAII (Michael W. Deem and Ramdas Pophale) SiO2 
 PCOD9120337
Probable space group: C 2
;
_chemical_formula_sum "Si O2"
_cell_formula_units_Z 32
_cell_length_a 13.031124
_cell_length_b 11.326155
_cell_length_c 12.157792
_cell_angle_alpha 90.000000
_cell_angle_beta 71.411829
_cell_angle_gamma 90.000000
_cell_volume 1700.793082
_symmetry_space_group_name_H-M "C 2"
_symmetry_group_IT_number 5
_symmetry_cell_setting 'monoclinic'
loop_
_space_group_symop_operation_xyz
x,y,z
-x,y,-z
1/2+x,1/2+y,z
1/2-x,1/2+y,-z
loop_
_atom_site_type_symbol
_atom_site_label
_atom_site_fract_x
_atom_site_fract_y
_atom_site_fract_z
Si Si1 0.875042 0.490690 0.053576
Si Si2 0.505949 0.260205 0.676616
Si Si3 0.402786 0.262234 0.110536
Si Si4 0.210998 0.110392 0.678683
Si Si5 0.564355 0.010920 0.381693
Si Si6 0.891527 0.971108 0.480196
Si Si7 0.233042 0.864913 0.288139
Si Si8 0.279014 0.951688 0.846847
O O1 0.882465 0.626239 0.088782
O O2 0.803364 0.421229 0.167159
O O3 0.817869 0.486008 0.954147
O O4 0.000000 0.447397 0.000000
O O5 0.556634 0.272234 0.779004
O O6 0.498881 0.123064 0.646400
O O7 0.578257 0.338511 0.570242
O O8 0.383766 0.314143 0.714343
O O9 0.296213 0.338220 0.126947
O O10 0.500000 0.306232 0.000000
O O11 0.330808 0.071828 0.598680
O O12 0.204534 0.250368 0.687053
O O13 0.133972 0.046931 0.618714
O O14 0.212926 0.053148 0.801149
O O15 0.500000 0.947875 0.500000
O O16 0.614507 0.935375 0.266058
O O17 0.798082 0.955525 0.603358
O O18 0.000000 0.018665 0.500000
#
# Coordination Sequence:
#
# PCOD9120337 Si02
#       8
#     4   4   4   4   4   4   4   4
#     4  11  25  41  60  88 121 165 208 252 304 366
#     4  10  17  36  63  92 114 154 205 252 298 360
#     4  11  22  38  64  88 116 158 211 256 300 367
#     4   9  20  38  61  90 125 157 198 252 305 362
#     4   9  17  31  59  91 117 152 193 244 300 360
#     4  10  20  37  62  95 122 157 208 249 302 372
#     4  10  22  38  66  87 127 159 198 259 313 354
#     4  10  22  39  59  93 120 152 207 255 301 365
#
# _framework density 18.814751999999999
#
# number of rings (size 3 to 8) (size 9 to 14) (size 15 to 20)
#    0.750    1.250    1.250    4.125    1.750    3.000 
#    0.000    3.125    0.000    2.250    0.000    0.000 
#    0.000    0.000    0.000    0.000    0.000    0.000 
#
# Total GULP energy -89174.727502 kJ/mol
# GULP energy per Si atom -5573.420469 kJ/mol
# Density = 1.877193 g / cm^3
# Si number density = 18.814752 Si / 1000 Ang^3
#
#
#
# Elastic Constant Matrix: (Units=GPa)
#
#
# Indices 1 2 3 4 5 6 
#
# 1 72.3055 30.3877 59.3699 0.0000 24.5224 0.0000
# 2 30.3877 47.6283 39.0004 0.0000 -3.5293 0.0000
# 3 59.3699 39.0004 145.4146 0.0000 -4.1538 0.0000
# 4 0.0000 0.0000 0.0000 20.7952 0.0000 -4.0983
# 5 24.5224 -3.5293 -4.1538 0.0000 44.5893 0.0000
# 6 0.0000 0.0000 0.0000 -4.0983 0.0000 24.7433
#
#
#
# Elastic Compliance Matrix: (Units=1/GPa)
#
#
# Indices 1 2 3 4 5 6 
#
# 1 0.038771 -0.016632 -0.012047 0.000000 -0.023761 0.000000
# 2 -0.016632 0.034135 -0.002031 0.000000 0.011660 0.000000
# 3 -0.012047 -0.002031 0.012558 0.000000 0.007635 0.000000
# 4 0.000000 0.000000 0.000000 0.049711 0.000000 0.008234
# 5 -0.023761 0.011660 0.007635 0.000000 0.037129 0.000000
# 6 0.000000 0.000000 0.000000 0.008234 0.000000 0.041779
#
#
# Mechanical properties :
#
#
# Convention : Reuss Voigt Hill
#
# Bulk Modulus (GPa) = 41.59321 58.09604 49.84463
# Shear Modulus (GPa) = 17.63553 27.13159 22.38356
#
# Velocity S-wave (km/s) = 3.06490 3.80154 3.45292
# Velocity P-wave (km/s) = 5.88893 7.08617 6.51511
#
# Compressibility (1/GPa) = 0.02404239
#
# Stress axis : x y z
#
# Youngs Moduli (GPa) = 25.79259 29.29551 79.62758
#
# Poissons Ratio (x) = 0.48725 0.95930
# Poissons Ratio (y) = 0.42899 0.16175
# Poissons Ratio (z) = 0.31073 0.05951
#
# Static dielectric constant tensor:
#      x y z
#    x 1.674980 0.000000 -0.000470 
#    y 0.000000 1.650750 0.000000 
#    z -0.000470 0.000000 1.683420 
# 
# From -- ./inp_files/39412.got.cif
#   From: 2010.05.17/outbox.cif.g08.bks.cpg/sg5_20_cif.got.tgz:39412.got - 2010.06.03 18:56:24.
