data_PCOD9120388
_publ_section_title
;
Structure prediction by ZEFSAII (Michael W. Deem and Ramdas Pophale) SiO2 
 PCOD9120388
Probable space group: C 2
;
_chemical_formula_sum "Si O2"
_cell_formula_units_Z 26
_cell_length_a 16.086003
_cell_length_b 10.789539
_cell_length_c 7.825266
_cell_angle_alpha 90.000000
_cell_angle_beta 54.746038
_cell_angle_gamma 90.000000
_cell_volume 1109.073666
_symmetry_space_group_name_H-M "C 2"
_symmetry_group_IT_number 5
_symmetry_cell_setting 'monoclinic'
loop_
_space_group_symop_operation_xyz
x,y,z
-x,y,-z
1/2+x,1/2+y,z
1/2-x,1/2+y,-z
loop_
_atom_site_type_symbol
_atom_site_label
_atom_site_fract_x
_atom_site_fract_y
_atom_site_fract_z
Si Si1 0.500000 0.558290 0.000000
Si Si2 0.973942 0.616199 0.231217
Si Si3 0.138378 0.835864 0.736904
Si Si4 0.185118 0.526270 0.059173
Si Si5 0.932863 0.126020 0.435264
Si Si6 0.283288 0.760453 0.828009
Si Si7 0.221121 0.483938 0.627330
O O1 0.592820 0.459672 0.874548
O O2 0.507500 0.636256 0.814909
O O3 0.946348 0.762262 0.269480
O O4 0.867502 0.543719 0.381747
O O5 0.069875 0.573084 0.227066
O O6 0.000000 0.593597 0.000000
O O7 0.181689 0.747902 0.832588
O O8 0.237812 0.859138 0.504991
O O9 0.215882 0.403146 0.121689
O O10 0.262298 0.644218 0.980184
O O11 0.187397 0.474596 0.861716
O O12 0.887629 0.238455 0.600600
O O13 0.827048 0.059270 0.514278
O O14 0.000000 0.055676 0.500000
#
# Coordination Sequence:
#
# PCOD9120388 Si02
#       7
#     2   4   4   4   4   4   4
#     4  10  22  38  72 102 132 198 246 292 376 434
#     4  10  17  41  69  95 133 184 246 297 359 436
#     4  11  19  39  72  96 133 191 250 295 354 451
#     4  10  22  43  70 103 142 193 232 311 375 436
#     4  10  22  42  64 102 146 180 240 310 361 430
#     4  11  23  43  70 106 148 182 242 309 370 438
#     4   9  21  39  65  98 137 183 244 296 353 432
#
# _framework density 23.442986999999999
#
# number of rings (size 3 to 8) (size 9 to 14) (size 15 to 20)
#    0.000    1.846    5.385    0.000    4.308    1.231 
#    5.538    0.000    0.000    0.000    0.000    0.000 
#    0.000    0.000    0.000    0.000    0.000    0.000 
#
# Total GULP energy -72402.105856 kJ/mol
# GULP energy per Si atom -5569.392758 kJ/mol
# Density = 2.338963 g / cm^3
# Si number density = 23.442987 Si / 1000 Ang^3
#
#
#
# Elastic Constant Matrix: (Units=GPa)
#
#
# Indices 1 2 3 4 5 6 
#
# 1 98.5046 39.4986 42.9521 0.0000 -27.8659 0.0000
# 2 39.4986 110.1303 35.4063 0.0000 -6.3574 0.0000
# 3 42.9521 35.4063 98.5295 0.0000 -13.7887 0.0000
# 4 0.0000 0.0000 0.0000 34.4647 0.0000 -3.9931
# 5 -27.8659 -6.3574 -13.7887 0.0000 27.0003 0.0000
# 6 0.0000 0.0000 0.0000 -3.9931 0.0000 32.0534
#
#
#
# Elastic Compliance Matrix: (Units=1/GPa)
#
#
# Indices 1 2 3 4 5 6 
#
# 1 0.018061 -0.004239 -0.004180 0.000000 0.015507 0.000000
# 2 -0.004239 0.011269 -0.002631 0.000000 -0.003065 0.000000
# 3 -0.004180 -0.002631 0.013167 0.000000 0.001791 0.000000
# 4 0.000000 0.000000 0.000000 0.029440 0.000000 0.003668
# 5 0.015507 -0.003065 0.001791 0.000000 0.053234 0.000000
# 6 0.000000 0.000000 0.000000 0.003668 0.000000 0.031655
#
#
# Mechanical properties :
#
#
# Convention : Reuss Voigt Hill
#
# Bulk Modulus (GPa) = 49.02224 60.31982 54.67103
# Shear Modulus (GPa) = 26.92157 31.32417 29.12287
#
# Velocity S-wave (km/s) = 3.39246 3.65935 3.52843
# Velocity P-wave (km/s) = 6.02509 6.60612 6.32228
#
# Compressibility (1/GPa) = 0.02039891
#
# Stress axis : x y z
#
# Youngs Moduli (GPa) = 55.36822 88.73757 75.94499
#
# Poissons Ratio (x) = 0.37612 0.31745
# Poissons Ratio (y) = 0.23468 0.19979
# Poissons Ratio (z) = 0.23144 0.23344
#
# Static dielectric constant tensor:
#      x y z
#    x 1.933290 0.000000 0.011220 
#    y 0.000000 1.961780 0.000000 
#    z 0.011220 0.000000 2.004890 
# 
# From -- ./inp_files/27223.got.cif
#   From: 2010.05.17/outbox.cif.g08.bks.cpg/sg5_14_cif.got.tgz:27223.got - 2010.06.03 18:56:24.
