data_PCOD9120058
_publ_section_title
;
Structure prediction by ZEFSAII (Michael W. Deem and Ramdas Pophale) SiO2 
 PCOD9120058
Probable space group: C 2
;
_chemical_formula_sum "Si O2"
_cell_formula_units_Z 26
_cell_length_a 20.044026
_cell_length_b 6.275298
_cell_length_c 16.055386
_cell_angle_alpha 90.000000
_cell_angle_beta 147.310255
_cell_angle_gamma 90.000000
_cell_volume 1090.701610
_symmetry_space_group_name_H-M "C 2"
_symmetry_group_IT_number 5
_symmetry_cell_setting 'monoclinic'
loop_
_space_group_symop_operation_xyz
x,y,z
-x,y,-z
1/2+x,1/2+y,z
1/2-x,1/2+y,-z
loop_
_atom_site_type_symbol
_atom_site_label
_atom_site_fract_x
_atom_site_fract_y
_atom_site_fract_z
Si Si1 0.888076 0.000000 0.937546
Si Si2 0.500000 0.532841 0.500000
Si Si3 0.462580 0.074125 0.867872
Si Si4 0.709258 0.792945 0.620909
Si Si5 0.025280 0.365068 0.294208
Si Si6 0.220248 0.448687 0.895723
Si Si7 0.875972 0.005935 0.213333
O O1 0.957329 0.793880 0.052602
O O2 0.806524 0.089630 0.927550
O O3 0.782173 0.951204 0.758204
O O4 0.000000 0.089874 0.000000
O O5 0.597115 0.681250 0.552450
O O6 0.431202 0.404892 0.354485
O O7 0.317248 0.126239 0.713623
O O8 0.481970 0.921641 0.809965
O O9 0.500000 0.004592 0.000000
O O10 0.652675 0.893981 0.477527
O O11 0.982431 0.122640 0.269761
O O12 0.920036 0.508028 0.229169
O O13 0.287781 0.400045 0.053740
O O14 0.199905 0.214641 0.833408
#
# Coordination Sequence:
#
# PCOD9120058 Si02
#       7
#     4   2   4   4   4   4   4
#     4   9  17  31  54  79 101 140 182 214 261 319
#     4  10  16  34  52  80  96 146 184 218 246 340
#     4   9  19  33  56  74 107 143 180 219 261 319
#     4   9  16  31  52  78  99 138 178 219 257 318
#     4   9  19  32  52  81 104 135 179 221 269 303
#     4  10  18  33  55  82 103 140 178 228 255 328
#     4   9  20  30  60  74 110 133 186 214 273 302
#
# _framework density 23.837866000000002
#
# number of rings (size 3 to 8) (size 9 to 14) (size 15 to 20)
#    0.923    2.154    1.538    0.923    2.154    0.000 
#   11.077    0.769    0.000    4.615    0.000    0.000 
#    0.000    0.000    0.000    0.000    0.000    0.000 
#
# Total GULP energy -72371.103431 kJ/mol
# GULP energy per Si atom -5567.007956 kJ/mol
# Density = 2.378361 g / cm^3
# Si number density = 23.837866 Si / 1000 Ang^3
#
#
#
# Elastic Constant Matrix: (Units=GPa)
#
#
# Indices 1 2 3 4 5 6 
#
# 1 171.8139 20.0806 72.1709 0.0000 -6.4357 0.0000
# 2 20.0806 26.5607 25.9319 0.0000 -6.3445 0.0000
# 3 72.1709 25.9319 199.8569 0.0000 -18.1905 0.0000
# 4 0.0000 0.0000 0.0000 -116.7212 0.0000 -62.5322
# 5 -6.4357 -6.3445 -18.1905 0.0000 54.7008 0.0000
# 6 0.0000 0.0000 0.0000 -62.5322 0.0000 -4.8845
#
#
#
# Elastic Compliance Matrix: (Units=1/GPa)
#
#
# Indices 1 2 3 4 5 6 
#
# 1 0.007106 -0.003329 -0.002159 0.000000 -0.000268 0.000000
# 2 -0.003329 0.045234 -0.004357 0.000000 0.003406 0.000000
# 3 -0.002159 -0.004357 0.006475 0.000000 0.001394 0.000000
# 4 0.000000 0.000000 0.000000 0.001462 0.000000 -0.018721
# 5 -0.000268 0.003406 0.001394 0.000000 0.019108 0.000000
# 6 0.000000 0.000000 0.000000 -0.018721 0.000000 0.034945
#
#
# Mechanical properties :
#
#
# Convention : Reuss Voigt Hill
#
# Bulk Modulus (GPa) = 25.55837 70.51092 48.03465
# Shear Modulus (GPa) = 33.99932 5.28890 19.64411
#
# Velocity S-wave (km/s) = 3.78070 1.49115 2.87378
# Velocity P-wave (km/s) = 5.45924 5.71037 5.58621
#
# Compressibility (1/GPa) = 0.03912612
#
# Stress axis : x y z
#
# Youngs Moduli (GPa) = 140.72690 22.10732 154.43381
#
# Poissons Ratio (x) = 0.07359 0.33335
# Poissons Ratio (y) = 0.46846 0.67289
# Poissons Ratio (z) = 0.30376 0.09632
#
# Static dielectric constant tensor:
#      x y z
#    x 1.924960 0.000000 0.009300 
#    y 0.000000 2.038720 0.000000 
#    z 0.009300 0.000000 1.916940 
# 
# From -- ./inp_files/56993.got.cif
#   From: 2010.05.17/outbox.cif.g08.bks.cpg/sg5_29_cif.got.tgz:56993.got - 2010.06.03 18:56:24.
