data_PCOD9120700
_publ_section_title
;
Structure prediction by ZEFSAII (Michael W. Deem and Ramdas Pophale) SiO2 
 PCOD9120700
Probable space group: C 2
;
_chemical_formula_sum "Si O2"
_cell_formula_units_Z 20
_cell_length_a 11.524935
_cell_length_b 7.778015
_cell_length_c 21.272839
_cell_angle_alpha 90.000000
_cell_angle_beta 23.548453
_cell_angle_gamma 90.000000
_cell_volume 761.861589
_symmetry_space_group_name_H-M "C 2"
_symmetry_group_IT_number 5
_symmetry_cell_setting 'monoclinic'
loop_
_space_group_symop_operation_xyz
x,y,z
-x,y,-z
1/2+x,1/2+y,z
1/2-x,1/2+y,-z
loop_
_atom_site_type_symbol
_atom_site_label
_atom_site_fract_x
_atom_site_fract_y
_atom_site_fract_z
Si Si1 0.446448 0.875000 0.330666
Si Si2 0.147768 0.375594 0.486088
Si Si3 0.407566 0.287322 0.954095
Si Si4 0.400437 0.592192 0.266017
Si Si5 0.695694 0.140304 0.124461
O O1 0.311112 0.774467 0.340041
O O2 0.286777 0.832630 0.475062
O O3 0.503244 0.070565 0.278742
O O4 0.767289 0.791136 0.181228
O O5 0.418169 0.467615 0.318151
O O6 0.000000 0.273745 0.500000
O O7 0.879562 0.514064 0.630091
O O8 0.194212 0.137577 0.084380
O O9 0.274817 0.463584 0.047545
O O10 0.423930 0.263671 0.870584
O O11 0.000000 0.208500 0.000000
#
# Coordination Sequence:
#
# PCOD9120700 Si02
#       5
#     4   4   4   4   4
#     4  10  18  36  55  79 108 150 183 232 281 324
#     4   8  19  36  54  72 113 145 185 218 276 335
#     4  10  18  34  59  83 114 143 189 232 284 325
#     4   8  17  33  54  74 105 148 175 224 276 325
#     4   9  19  33  55  78 116 146 178 230 282 328
#
# _framework density 26.251488999999999
#
# number of rings (size 3 to 8) (size 9 to 14) (size 15 to 20)
#    1.200    1.600    0.000    4.200    0.000    0.000 
#    3.600   15.000    0.000    0.000    0.000    0.000 
#    0.000    0.000    0.000    0.000    0.000    0.000 
#
# Total GULP energy -55728.329437 kJ/mol
# GULP energy per Si atom -5572.832944 kJ/mol
# Density = 2.619174 g / cm^3
# Si number density = 26.251489 Si / 1000 Ang^3
#
#
#
# Elastic Constant Matrix: (Units=GPa)
#
#
# Indices 1 2 3 4 5 6 
#
# 1 122.5799 24.3351 39.4901 -0.0073 15.0908 0.0024
# 2 24.3351 35.4997 17.4920 -0.0094 -12.3075 0.0012
# 3 39.4901 17.4920 142.7591 -0.0372 24.1539 0.0118
# 4 -0.0073 -0.0094 -0.0372 42.8489 0.0086 2.1225
# 5 15.0908 -12.3075 24.1539 0.0086 57.3260 -0.0039
# 6 0.0024 0.0012 0.0118 2.1225 -0.0039 51.9724
#
#
#
# Elastic Compliance Matrix: (Units=1/GPa)
#
#
# Indices 1 2 3 4 5 6 
#
# 1 0.010665 -0.008063 -0.001286 0.000000 -0.003997 0.000000
# 2 -0.008063 0.040604 -0.004930 0.000001 0.012917 0.000002
# 3 -0.001286 -0.004930 0.008707 0.000007 -0.004389 -0.000002
# 4 0.000000 0.000001 0.000007 0.023385 -0.000006 -0.000955
# 5 -0.003997 0.012917 -0.004389 -0.000006 0.023119 0.000003
# 6 0.000000 0.000002 -0.000002 -0.000955 0.000003 0.019280
#
#
# Mechanical properties :
#
#
# Convention : Reuss Voigt Hill
#
# Bulk Modulus (GPa) = 31.82903 51.49702 41.66302
# Shear Modulus (GPa) = 30.34156 45.06424 37.70290
#
# Velocity S-wave (km/s) = 3.40340 4.14772 3.79386
# Velocity P-wave (km/s) = 5.25311 6.52668 5.92422
#
# Compressibility (1/GPa) = 0.03141786
#
# Stress axis : x y z
#
# Youngs Moduli (GPa) = 93.76531 24.62816 114.84766
#
# Poissons Ratio (x) = 0.19857 0.14770
# Poissons Ratio (y) = 0.75601 0.56623
# Poissons Ratio (z) = 0.12058 0.12142
#
# Static dielectric constant tensor:
#      x y z
#    x 2.036430 0.000000 0.091530 
#    y 0.000000 2.218830 0.000000 
#    z 0.091530 0.000000 2.123970 
# 
# From -- ./inp_files/59404.got.cif
#   From: 2010.05.17/outbox.cif.g08.bks.cpg/sg5_30_cif.got.tgz:59404.got - 2010.06.03 18:56:24.
