data_PCOD9120834
_publ_section_title
;
Structure prediction by ZEFSAII (Michael W. Deem and Ramdas Pophale) SiO2 
 PCOD9120834
Probable space group: C 2
;
_chemical_formula_sum "Si O2"
_cell_formula_units_Z 30
_cell_length_a 8.943373
_cell_length_b 18.344111
_cell_length_c 11.638039
_cell_angle_alpha 90.000000
_cell_angle_beta 54.962275
_cell_angle_gamma 90.000000
_cell_volume 1563.298735
_symmetry_space_group_name_H-M "C 2"
_symmetry_group_IT_number 5
_symmetry_cell_setting 'monoclinic'
loop_
_space_group_symop_operation_xyz
x,y,z
-x,y,-z
1/2+x,1/2+y,z
1/2-x,1/2+y,-z
loop_
_atom_site_type_symbol
_atom_site_label
_atom_site_fract_x
_atom_site_fract_y
_atom_site_fract_z
Si Si1 0.452761 0.030540 0.782433
Si Si2 0.801305 0.299075 0.088436
Si Si3 0.220068 0.890171 0.903001
Si Si4 0.998462 0.687183 0.138212
Si Si5 0.655865 0.414696 0.589355
Si Si6 0.266052 0.424029 0.713556
Si Si7 0.193338 0.286555 0.348046
Si Si8 0.500000 0.009221 0.500000
O O1 0.441661 0.106898 0.851032
O O2 0.497018 0.046166 0.627366
O O3 0.285365 0.973267 0.858268
O O4 0.610841 0.984805 0.778695
O O5 0.643035 0.242593 0.130498
O O6 0.784565 0.346374 0.210863
O O7 0.789645 0.359382 0.992971
O O8 0.000000 0.262854 0.000000
O O9 0.308726 0.837641 0.765737
O O10 0.000000 0.883970 0.000000
O O11 0.797043 0.712032 0.270472
O O12 0.000000 0.695448 0.000000
O O13 0.453661 0.446291 0.694657
O O14 0.693388 0.413447 0.438245
O O15 0.673359 0.333543 0.629220
O O16 0.818138 0.459921 0.575216
O O17 0.000000 0.279760 0.500000
#
# Coordination Sequence:
#
# PCOD9120834 Si02
#       8
#     4   4   4   4   4   4   4   2
#     4  11  25  43  66  98 134 180 219 282 339 403
#     4  12  23  40  67  99 130 171 220 284 324 401
#     4  12  22  42  74 100 127 179 236 276 332 407
#     4  12  27  48  64  95 146 176 221 283 349 400
#     4  10  18  35  68  96 124 161 223 279 314 384
#     4  10  21  37  62  99 126 166 221 271 325 388
#     4  12  21  41  72  96 127 181 225 270 334 408
#     4  10  20  42  64  94 136 168 224 272 326 402
#
# _framework density 19.190190000000001
#
# number of rings (size 3 to 8) (size 9 to 14) (size 15 to 20)
#    0.000    0.800    7.333    0.800    1.867    0.533 
#    7.200    1.333    0.000    0.000    0.000    0.000 
#    0.000    0.000    0.000    0.000    0.000    0.000 
#
# Total GULP energy -83665.104175 kJ/mol
# GULP energy per Si atom -5577.673612 kJ/mol
# Density = 1.914651 g / cm^3
# Si number density = 19.190190 Si / 1000 Ang^3
#
#
#
# Elastic Constant Matrix: (Units=GPa)
#
#
# Indices 1 2 3 4 5 6 
#
# 1 111.3885 22.8712 35.4653 0.0000 -16.1954 0.0000
# 2 22.8712 88.5111 33.3439 0.0000 -0.4045 0.0000
# 3 35.4653 33.3439 73.8804 0.0000 -19.7991 0.0000
# 4 0.0000 0.0000 0.0000 20.3567 0.0000 3.7349
# 5 -16.1954 -0.4045 -19.7991 0.0000 21.0085 0.0000
# 6 0.0000 0.0000 0.0000 3.7349 0.0000 28.7391
#
#
#
# Elastic Compliance Matrix: (Units=1/GPa)
#
#
# Indices 1 2 3 4 5 6 
#
# 1 0.011122 -0.001697 -0.003056 0.000000 0.005661 0.000000
# 2 -0.001697 0.014788 -0.008207 0.000000 -0.008757 0.000000
# 3 -0.003056 -0.008207 0.024126 0.000000 0.020223 0.000000
# 4 0.000000 0.000000 0.000000 0.050324 0.000000 -0.006540
# 5 0.005661 -0.008757 0.020223 0.000000 0.070854 0.000000
# 6 0.000000 0.000000 0.000000 -0.006540 0.000000 0.035646
#
#
# Mechanical properties :
#
#
# Convention : Reuss Voigt Hill
#
# Bulk Modulus (GPa) = 41.46448 50.79344 46.12896
# Shear Modulus (GPa) = 20.76263 26.16085 23.46174
#
# Velocity S-wave (km/s) = 3.29285 3.69621 3.50035
# Velocity P-wave (km/s) = 6.00926 6.68894 6.35819
#
# Compressibility (1/GPa) = 0.02411703
#
# Stress axis : x y z
#
# Youngs Moduli (GPa) = 89.91078 67.62237 41.44949
#
# Poissons Ratio (x) = 0.11474 0.12667
# Poissons Ratio (y) = 0.15256 0.34016
# Poissons Ratio (z) = 0.27478 0.55495
#
# Static dielectric constant tensor:
#      x y z
#    x 1.711480 0.000000 -0.021440 
#    y 0.000000 1.636830 0.000000 
#    z -0.021440 0.000000 1.725170 
# 
# From -- ./inp_files/36980.got.cif
#   From: 2010.05.17/outbox.cif.g08.bks.cpg/sg5_19_cif.got.tgz:36980.got - 2010.06.03 18:56:24.
