data_PCOD9120119
_publ_section_title
;
Structure prediction by ZEFSAII (Michael W. Deem and Ramdas Pophale) SiO2 
 PCOD9120119
Probable space group: C 2
;
_chemical_formula_sum "Si O2"
_cell_formula_units_Z 28
_cell_length_a 19.438444
_cell_length_b 9.113402
_cell_length_c 14.454034
_cell_angle_alpha 90.000000
_cell_angle_beta 33.447173
_cell_angle_gamma 90.000000
_cell_volume 1411.285947
_symmetry_space_group_name_H-M "C 2"
_symmetry_group_IT_number 5
_symmetry_cell_setting 'monoclinic'
loop_
_space_group_symop_operation_xyz
x,y,z
-x,y,-z
1/2+x,1/2+y,z
1/2-x,1/2+y,-z
loop_
_atom_site_type_symbol
_atom_site_label
_atom_site_fract_x
_atom_site_fract_y
_atom_site_fract_z
Si Si1 0.000000 0.719861 0.000000
Si Si2 0.709094 0.698492 0.843708
Si Si3 0.547592 0.445474 0.106000
Si Si4 0.772912 0.885063 0.482254
Si Si5 0.659616 0.105823 0.496106
Si Si6 0.000000 0.006892 0.500000
Si Si7 0.767216 0.511430 0.269589
Si Si8 0.411753 0.287117 0.758041
O O1 0.879874 0.622391 0.155404
O O2 0.046666 0.822232 0.029473
O O3 0.776889 0.629614 0.675994
O O4 0.800711 0.709237 0.828651
O O5 0.687087 0.868985 0.841137
O O6 0.597235 0.595005 0.004163
O O7 0.404149 0.447262 0.298359
O O8 0.619665 0.378851 0.114345
O O9 0.775936 0.712000 0.499327
O O10 0.673255 0.942837 0.520343
O O11 0.757984 0.948770 0.600983
O O12 0.519499 0.167281 0.653581
O O13 0.970196 0.902764 0.620313
O O14 0.863428 0.074041 0.627225
#
# Coordination Sequence:
#
# PCOD9120119 Si02
#       8
#     2   4   4   4   4   2   4   4
#     4  12  26  40  60  98 136 162 200 276 324 352
#     4  10  21  37  64  90 123 165 212 254 319 374
#     4  11  23  40  59  91 133 162 200 270 323 362
#     4  10  20  36  60  84 116 164 208 245 310 371
#     4  10  18  35  60  87 116 161 209 255 301 376
#     4  10  16  40  68  84 116 164 214 256 298 378
#     4  10  21  40  66  89 121 169 218 250 309 385
#     4  10  18  38  63  86 116 168 208 255 312 375
#
# _framework density 19.840062
#
# number of rings (size 3 to 8) (size 9 to 14) (size 15 to 20)
#    0.000    1.714    5.714    2.571    0.000    5.143 
#    0.000    1.429    6.286    0.000    0.000    0.000 
#    0.000    0.000    0.000    0.000    0.000    0.000 
#
# Total GULP energy -78022.227782 kJ/mol
# GULP energy per Si atom -5573.016270 kJ/mol
# Density = 1.979491 g / cm^3
# Si number density = 19.840062 Si / 1000 Ang^3
#
#
#
# Elastic Constant Matrix: (Units=GPa)
#
#
# Indices 1 2 3 4 5 6 
#
# 1 -983.2583 -692.7009 -763.7178 0.0001 275.2393 -0.0001
# 2 -692.7009 -434.3820 -488.3041 0.0001 182.5897 -0.0001
# 3 -763.7178 -488.3041 -484.0534 0.0001 199.2330 -0.0001
# 4 0.0001 0.0001 0.0001 24.1864 0.0000 -2.9083
# 5 275.2393 182.5897 199.2330 0.0000 -34.2483 0.0000
# 6 -0.0001 -0.0001 -0.0001 -2.9083 0.0000 36.4516
#
#
#
# Elastic Compliance Matrix: (Units=1/GPa)
#
#
# Indices 1 2 3 4 5 6 
#
# 1 0.008859 -0.010858 -0.001760 0.000000 0.003072 0.000000
# 2 -0.010858 0.032868 -0.014474 0.000000 0.003769 0.000000
# 3 -0.001760 -0.014474 0.015971 0.000000 0.001604 0.000000
# 4 0.000000 0.000000 0.000000 0.041746 0.000000 0.003331
# 5 0.003072 0.003769 0.001604 0.000000 0.024907 0.000000
# 6 0.000000 0.000000 0.000000 0.003331 0.000000 0.027699
#
#
# Mechanical properties :
#
#
# Convention : Reuss Voigt Hill
#
# Bulk Modulus (GPa) = 284.50253 -643.45993 -179.47870
# Shear Modulus (GPa) = 24.10745 8.14655 16.12700
#
# Velocity S-wave (km/s) = 3.48959 2.02855 2.85415
# Velocity P-wave (km/s) = 12.64696 17.87571 8.93295
#
# Compressibility (1/GPa) = 0.00351491
#
# Stress axis : x y z
#
# Youngs Moduli (GPa) = 112.88101 30.42503 62.61246
#
# Poissons Ratio (x) = 0.33035 0.11017
# Poissons Ratio (y) = 1.22566 0.90625
# Poissons Ratio (z) = 0.19862 0.44037
#
# Static dielectric constant tensor:
#      x y z
#    x 1.738880 0.000000 -0.017080 
#    y 0.000000 1.823600 0.000000 
#    z -0.017080 0.000000 1.727560 
# 
# From -- ./inp_files/41853.got.cif
#   From: 2010.05.17/outbox.cif.g08.bks.cpg/sg5_21_cif.got.tgz:41853.got - 2010.06.03 18:56:24.
