data_PCOD9120140
_publ_section_title
;
Structure prediction by ZEFSAII (Michael W. Deem and Ramdas Pophale) SiO2 
 PCOD9120140
Probable space group: C 2
;
_chemical_formula_sum "Si O2"
_cell_formula_units_Z 24
_cell_length_a 18.402020
_cell_length_b 5.248373
_cell_length_c 25.607731
_cell_angle_alpha 90.000000
_cell_angle_beta 149.584808
_cell_angle_gamma 90.000000
_cell_volume 1252.094189
_symmetry_space_group_name_H-M "C 2"
_symmetry_group_IT_number 5
_symmetry_cell_setting 'monoclinic'
loop_
_space_group_symop_operation_xyz
x,y,z
-x,y,-z
1/2+x,1/2+y,z
1/2-x,1/2+y,-z
loop_
_atom_site_type_symbol
_atom_site_label
_atom_site_fract_x
_atom_site_fract_y
_atom_site_fract_z
Si Si1 0.398567 0.834800 0.885789
Si Si2 0.073761 0.784154 0.718647
Si Si3 0.515789 0.785309 0.272889
Si Si4 0.784640 0.194323 0.051847
Si Si5 0.707797 0.196590 0.504514
Si Si6 0.014594 0.834375 0.946871
O O1 0.238608 0.769289 0.804150
O O2 0.467987 0.606412 0.896114
O O3 0.410605 0.106595 0.865614
O O4 0.500000 0.868192 0.000000
O O5 0.032966 0.556829 0.733493
O O6 0.961917 0.746733 0.601478
O O7 0.043856 0.056885 0.727030
O O8 0.441795 0.743301 0.171668
O O9 0.688017 0.755999 0.382573
O O10 0.742479 0.405942 0.982884
O O11 0.673875 0.256974 0.030053
O O12 0.764637 0.406686 0.497267
O O13 0.000000 0.868278 0.000000
#
# Coordination Sequence:
#
# PCOD9120140 Si02
#       6
#     4   4   4   4   4   4
#     4  10  17  27  46  72  99 128 158 202 253 302
#     4  10  17  29  50  78 104 131 169 217 265 304
#     4  10  18  32  48  70 106 140 168 213 260 307
#     4  12  24  37  53  78 108 143 176 209 258 315
#     4   8  16  27  45  71 100 131 167 210 262 305
#     4  10  20  34  51  73 100 133 171 211 254 301
#
# _framework density 19.167885999999999
#
# number of rings (size 3 to 8) (size 9 to 14) (size 15 to 20)
#    0.000    2.000    0.000    7.000    0.000    0.000 
#    0.000    0.000    0.000    0.000    0.000    7.000 
#    0.000    0.000    0.000    0.000    0.000    0.000 
#
# Total GULP energy -66874.782953 kJ/mol
# GULP energy per Si atom -5572.898579 kJ/mol
# Density = 1.912426 g / cm^3
# Si number density = 19.167886 Si / 1000 Ang^3
#
#
#
# Elastic Constant Matrix: (Units=GPa)
#
#
# Indices 1 2 3 4 5 6 
#
# 1 30.7215 -6.7055 9.9841 -0.0019 4.5199 0.0042
# 2 -6.7055 115.0498 -8.9062 -0.0047 -2.0335 0.0101
# 3 9.9841 -8.9062 138.7091 -0.0021 17.0384 0.0045
# 4 -0.0019 -0.0047 -0.0021 25.8212 0.0000 3.1040
# 5 4.5199 -2.0335 17.0384 0.0000 18.0086 -0.0014
# 6 0.0042 0.0101 0.0045 3.1040 -0.0014 22.3980
#
#
#
# Elastic Compliance Matrix: (Units=1/GPa)
#
#
# Indices 1 2 3 4 5 6 
#
# 1 0.034459 0.001768 -0.001504 0.000004 -0.007026 -0.000008
# 2 0.001768 0.008830 0.000421 0.000002 0.000155 -0.000005
# 3 -0.001504 0.000421 0.008251 0.000001 -0.007382 -0.000002
# 4 0.000004 0.000002 0.000001 0.039384 -0.000002 -0.005458
# 5 -0.007026 0.000155 -0.007382 -0.000002 0.064294 0.000007
# 6 -0.000008 -0.000005 -0.000002 -0.005458 0.000007 0.045403
#
#
# Mechanical properties :
#
#
# Convention : Reuss Voigt Hill
#
# Bulk Modulus (GPa) = 18.90012 30.35837 24.62924
# Shear Modulus (GPa) = 23.05327 32.58609 27.81968
#
# Velocity S-wave (km/s) = 3.47176 4.12762 3.81382
# Velocity P-wave (km/s) = 5.09437 6.21199 5.68073
#
# Compressibility (1/GPa) = 0.05290973
#
# Stress axis : x y z
#
# Youngs Moduli (GPa) = 29.02018 113.24733 121.19249
#
# Poissons Ratio (x) = -0.20020 0.18224
# Poissons Ratio (y) = -0.05130 -0.05098
# Poissons Ratio (z) = 0.04364 -0.04764
#
# Static dielectric constant tensor:
#      x y z
#    x 1.590910 0.000000 0.050060 
#    y 0.000000 1.754780 0.000000 
#    z 0.050060 0.000000 1.683110 
# 
# From -- ./inp_files/43749.got.cif
#   From: 2010.05.17/outbox.cif.g08.bks.cpg/sg5_22_cif.got.tgz:43749.got - 2010.06.03 18:56:24.
