data_PCOD9120713
_publ_section_title
;
Structure prediction by ZEFSAII (Michael W. Deem and Ramdas Pophale) SiO2 
 PCOD9120713
Probable space group: C 2
;
_chemical_formula_sum "Si O2"
_cell_formula_units_Z 18
_cell_length_a 22.908862
_cell_length_b 6.801273
_cell_length_c 8.673501
_cell_angle_alpha 90.000000
_cell_angle_beta 146.653179
_cell_angle_gamma 90.000000
_cell_volume 742.879458
_symmetry_space_group_name_H-M "C 2"
_symmetry_group_IT_number 5
_symmetry_cell_setting 'monoclinic'
loop_
_space_group_symop_operation_xyz
x,y,z
-x,y,-z
1/2+x,1/2+y,z
1/2-x,1/2+y,-z
loop_
_atom_site_type_symbol
_atom_site_label
_atom_site_fract_x
_atom_site_fract_y
_atom_site_fract_z
Si Si1 0.259298 0.062790 0.790760
Si Si2 0.142735 0.773078 0.701240
Si Si3 0.500000 0.628500 0.500000
Si Si4 0.957474 0.727818 0.072562
Si Si5 0.981487 0.180924 0.789746
O O1 0.145842 0.155953 0.498284
O O2 0.227639 0.838753 0.759220
O O3 0.306056 0.147410 0.053008
O O4 0.346903 0.122805 0.860872
O O5 0.043910 0.678115 0.394621
O O6 0.095797 0.974112 0.675269
O O7 0.513445 0.750704 0.687542
O O8 0.958778 0.967186 0.077099
O O9 0.000000 0.678106 0.000000
O O10 0.000000 0.268294 0.000000
#
# Coordination Sequence:
#
# PCOD9120713 Si02
#       5
#     4   4   2   4   4
#     4  10  18  34  60  89 106 156 192 225 298 335
#     4  10  18  34  61  83 112 149 194 231 283 349
#     4   8  14  32  56  76 112 148 176 234 286 318
#     4   9  17  34  57  83 117 148 185 242 284 340
#     4   9  18  32  58  85 113 150 194 236 283 346
#
# _framework density 24.230039000000001
#
# number of rings (size 3 to 8) (size 9 to 14) (size 15 to 20)
#    0.000    3.111    4.444    0.000    0.000    0.000 
#    8.000    0.000   19.556    1.333    0.000    0.000 
#    0.000    0.000    0.000    0.000    0.000    0.000 
#
# Total GULP energy -50221.284492 kJ/mol
# GULP energy per Si atom -5580.142721 kJ/mol
# Density = 2.417489 g / cm^3
# Si number density = 24.230039 Si / 1000 Ang^3
#
#
#
# Elastic Constant Matrix: (Units=GPa)
#
#
# Indices 1 2 3 4 5 6 
#
# 1 210.1527 18.9235 60.9283 0.0000 -1.8926 0.0000
# 2 18.9235 74.6341 -8.7099 0.0000 4.5714 0.0000
# 3 60.9283 -8.7099 83.2059 0.0000 -16.3324 0.0000
# 4 0.0000 0.0000 0.0000 6.4001 0.0000 25.9072
# 5 -1.8926 4.5714 -16.3324 0.0000 64.5524 0.0000
# 6 0.0000 0.0000 0.0000 25.9072 0.0000 0.9867
#
#
#
# Elastic Compliance Matrix: (Units=1/GPa)
#
#
# Indices 1 2 3 4 5 6 
#
# 1 0.006431 -0.002170 -0.005123 0.000000 -0.000954 0.000000
# 2 -0.002170 0.014321 0.003027 0.000000 -0.000312 0.000000
# 3 -0.005123 0.003027 0.016852 0.000000 0.003899 0.000000
# 4 0.000000 0.000000 0.000000 -0.001484 0.000000 0.038966
# 5 -0.000954 -0.000312 0.003899 0.000000 0.016472 0.000000
# 6 0.000000 0.000000 0.000000 0.038966 0.000000 -0.009626
#
#
# Mechanical properties :
#
#
# Convention : Reuss Voigt Hill
#
# Bulk Modulus (GPa) = 34.39824 56.69740 45.54782
# Shear Modulus (GPa) = 81.71410 34.17790 57.94600
#
# Velocity S-wave (km/s) = 5.81356 3.75982 4.89560
# Velocity P-wave (km/s) = 7.70004 6.50375 7.12704
#
# Compressibility (1/GPa) = 0.02907125
#
# Stress axis : x y z
#
# Youngs Moduli (GPa) = 155.50613 69.82642 59.33946
#
# Poissons Ratio (x) = 0.15152 0.30401
# Poissons Ratio (y) = 0.33744 -0.17961
# Poissons Ratio (z) = 0.79670 -0.21135
#
# Static dielectric constant tensor:
#      x y z
#    x 2.001340 0.000000 0.008820 
#    y 0.000000 1.999770 0.000000 
#    z 0.008820 0.000000 1.922920 
# 
# From -- ./inp_files/18069.got.cif
#   From: 2010.05.17/outbox.cif.g08.bks.cpg/sg5_10_cif.got.tgz:18069.got - 2010.06.03 18:56:24.
