data_PCOD9120631
_publ_section_title
;
Structure prediction by ZEFSAII (Michael W. Deem and Ramdas Pophale) SiO2 
 PCOD9120631
Probable space group: C 2
;
_chemical_formula_sum "Si O2"
_cell_formula_units_Z 26
_cell_length_a 16.334334
_cell_length_b 13.404965
_cell_length_c 9.199217
_cell_angle_alpha 90.000000
_cell_angle_beta 149.217033
_cell_angle_gamma 90.000000
_cell_volume 1030.878886
_symmetry_space_group_name_H-M "C 2"
_symmetry_group_IT_number 5
_symmetry_cell_setting 'monoclinic'
loop_
_space_group_symop_operation_xyz
x,y,z
-x,y,-z
1/2+x,1/2+y,z
1/2-x,1/2+y,-z
loop_
_atom_site_type_symbol
_atom_site_label
_atom_site_fract_x
_atom_site_fract_y
_atom_site_fract_z
Si Si1 0.778891 0.871710 0.584116
Si Si2 0.100426 0.068830 0.342060
Si Si3 0.471370 0.912581 0.288980
Si Si4 0.302919 0.189817 0.443415
Si Si5 0.500000 0.099982 0.500000
Si Si6 0.872935 0.202466 0.172156
Si Si7 0.649826 0.188000 0.090286
O O1 0.623156 0.924827 0.414827
O O2 0.749581 0.800951 0.401591
O O3 0.820664 0.791899 0.775822
O O4 0.900527 0.953759 0.706348
O O5 0.163530 0.122377 0.293523
O O6 0.243439 0.100236 0.674168
O O7 0.942629 0.116496 0.171866
O O8 0.500000 0.880682 0.500000
O O9 0.387971 0.809835 0.113157
O O10 0.418914 0.024478 0.255059
O O11 0.367588 0.162600 0.383888
O O12 0.461732 0.171058 0.785573
O O13 0.713158 0.206531 0.023953
O O14 0.000000 0.189872 0.500000
#
# Coordination Sequence:
#
# PCOD9120631 Si02
#       7
#     4   4   4   4   2   4   4
#     4  11  18  33  60  86 112 152 195 235 291 350
#     4  10  18  33  61  85 111 151 199 231 284 358
#     4   9  14  30  59  84  98 150 202 219 264 371
#     4  11  22  36  59  86 120 146 201 252 282 340
#     4  10  20  36  56  84 114 162 194 230 298 346
#     4   9  15  32  57  82 111 152 194 226 285 356
#     4  10  20  37  58  89 115 151 196 246 285 339
#
# _framework density 25.221198000000001
#
# number of rings (size 3 to 8) (size 9 to 14) (size 15 to 20)
#    0.462    1.538    7.692    1.846    0.000    0.000 
#    4.154    4.615    0.000    0.000    0.000    0.000 
#    0.000    0.000    0.000    0.000    0.000    0.000 
#
# Total GULP energy -72400.571038 kJ/mol
# GULP energy per Si atom -5569.274695 kJ/mol
# Density = 2.516379 g / cm^3
# Si number density = 25.221198 Si / 1000 Ang^3
#
#
#
# Elastic Constant Matrix: (Units=GPa)
#
#
# Indices 1 2 3 4 5 6 
#
# 1 216.8953 77.5407 31.2795 0.0000 3.5258 0.0000
# 2 77.5407 168.0517 -7.8364 0.0000 -2.8555 0.0000
# 3 31.2795 -7.8364 80.7473 0.0000 -3.4629 0.0000
# 4 0.0000 0.0000 0.0000 -0.6053 0.0000 8.4820
# 5 3.5258 -2.8555 -3.4629 0.0000 53.1554 0.0000
# 6 0.0000 0.0000 0.0000 8.4820 0.0000 59.0569
#
#
#
# Elastic Compliance Matrix: (Units=1/GPa)
#
#
# Indices 1 2 3 4 5 6 
#
# 1 0.006053 -0.002930 -0.002661 0.000000 -0.000732 0.000000
# 2 -0.002930 0.007402 0.001884 0.000000 0.000715 0.000000
# 3 -0.002661 0.001884 0.013648 0.000000 0.001167 0.000000
# 4 0.000000 0.000000 0.000000 -0.548408 0.000000 0.078764
# 5 -0.000732 0.000715 0.001167 0.000000 0.018976 0.000000
# 6 0.000000 0.000000 0.000000 0.078764 0.000000 0.005620
#
#
# Mechanical properties :
#
#
# Convention : Reuss Voigt Hill
#
# Bulk Modulus (GPa) = 50.78517 74.18467 62.48492
# Shear Modulus (GPa) = -10.35771 46.63546 18.13887
#
# Velocity S-wave (km/s) = -2.02871 4.30473 2.68468
# Velocity P-wave (km/s) = 3.83302 7.36105 5.86844
#
# Compressibility (1/GPa) = 0.01969079
#
# Stress axis : x y z
#
# Youngs Moduli (GPa) = 165.19391 135.09292 73.27156
#
# Poissons Ratio (x) = 0.39578 0.19495
# Poissons Ratio (y) = 0.48396 -0.13804
# Poissons Ratio (z) = 0.43953 -0.25450
#
# Static dielectric constant tensor:
#      x y z
#    x 2.174660 0.000000 -0.171480 
#    y 0.000000 2.053740 0.000000 
#    z -0.171480 0.000000 2.214800 
# 
# From -- ./inp_files/44624.got.cif
#   From: 2010.05.17/outbox.cif.g08.bks.cpg/sg5_23_cif.got.tgz:44624.got - 2010.06.03 18:56:24.
