data_PCOD9120804
_publ_section_title
;
Structure prediction by ZEFSAII (Michael W. Deem and Ramdas Pophale) SiO2 
 PCOD9120804
Probable space group: C 2
;
_chemical_formula_sum "Si O2"
_cell_formula_units_Z 24
_cell_length_a 18.899813
_cell_length_b 7.257099
_cell_length_c 13.172340
_cell_angle_alpha 90.000000
_cell_angle_beta 149.305145
_cell_angle_gamma 90.000000
_cell_volume 922.252955
_symmetry_space_group_name_H-M "C 2"
_symmetry_group_IT_number 5
_symmetry_cell_setting 'monoclinic'
loop_
_space_group_symop_operation_xyz
x,y,z
-x,y,-z
1/2+x,1/2+y,z
1/2-x,1/2+y,-z
loop_
_atom_site_type_symbol
_atom_site_label
_atom_site_fract_x
_atom_site_fract_y
_atom_site_fract_z
Si Si1 0.367861 0.703100 0.771893
Si Si2 0.903125 0.414032 0.282767
Si Si3 0.584563 0.143406 0.203308
Si Si4 0.851318 0.853627 0.364452
Si Si5 0.821212 0.610096 0.997642
Si Si6 0.883519 0.172499 0.568265
O O1 0.380049 0.924029 0.761144
O O2 0.229080 0.697405 0.669380
O O3 0.387647 0.605587 0.688831
O O4 0.500000 0.652674 0.000000
O O5 0.826254 0.573668 0.124512
O O6 0.000000 0.438743 0.500000
O O7 0.999645 0.316809 0.316783
O O8 0.782407 0.271719 0.160218
O O9 0.477456 0.163857 0.161590
O O10 0.727726 0.250450 0.374512
O O11 0.500000 0.191703 0.000000
O O12 0.000000 0.806737 0.500000
O O13 0.890240 0.014313 0.492460
O O14 0.740998 0.939933 0.146806
#
# Coordination Sequence:
#
# PCOD9120804 Si02
#       6
#     4   4   4   4   4   4
#     4  10  19  35  59  90 121 167 219 279 337 407
#     4  12  24  44  68  99 141 181 231 293 349 412
#     4  10  18  35  61  86 114 164 225 262 340 403
#     4  11  20  38  66  93 126 180 230 275 349 413
#     4  12  22  42  68  97 134 187 229 289 350 419
#     4  11  19  36  67  89 129 175 225 284 338 408
#
# _framework density 26.023230999999999
#
# number of rings (size 3 to 8) (size 9 to 14) (size 15 to 20)
#    0.000    1.000   10.000    0.000    0.000    1.333 
#    0.000    5.000    0.000    0.000    0.000    0.000 
#    0.000    0.000    0.000    0.000    0.000    0.000 
#
# Total GULP energy -67187.019408 kJ/mol
# GULP energy per Si atom -5598.918284 kJ/mol
# Density = 2.596400 g / cm^3
# Si number density = 26.023231 Si / 1000 Ang^3
#
#
#
# Elastic Constant Matrix: (Units=GPa)
#
#
# Indices 1 2 3 4 5 6 
#
# 1 155.2321 24.8404 42.1182 0.0000 20.3073 0.0000
# 2 24.8404 59.2254 2.7974 0.0000 3.4845 0.0000
# 3 42.1182 2.7974 113.9474 0.0000 -8.6954 0.0000
# 4 0.0000 0.0000 0.0000 9.9873 0.0000 -0.1756
# 5 20.3073 3.4845 -8.6954 0.0000 69.5810 0.0000
# 6 0.0000 0.0000 0.0000 -0.1756 0.0000 0.9499
#
#
#
# Elastic Compliance Matrix: (Units=1/GPa)
#
#
# Indices 1 2 3 4 5 6 
#
# 1 0.008129 -0.003108 -0.003127 0.000000 -0.002608 0.000000
# 2 -0.003108 0.018150 0.000710 0.000000 0.000087 0.000000
# 3 -0.003127 0.000710 0.010078 0.000000 0.002137 0.000000
# 4 0.000000 0.000000 0.000000 0.100454 0.000000 0.018570
# 5 -0.002608 0.000087 0.002137 0.000000 0.015395 0.000000
# 6 0.000000 0.000000 0.000000 0.018570 0.000000 1.056187
#
#
# Mechanical properties :
#
#
# Convention : Reuss Voigt Hill
#
# Bulk Modulus (GPa) = 39.51818 51.99076 45.75447
# Shear Modulus (GPa) = 4.07206 33.34690 18.70948
#
# Velocity S-wave (km/s) = 1.25227 3.58359 2.68424
# Velocity P-wave (km/s) = 4.16048 6.09465 5.21797
#
# Compressibility (1/GPa) = 0.02530481
#
# Stress axis : x y z
#
# Youngs Moduli (GPa) = 123.01575 55.09728 99.23025
#
# Poissons Ratio (x) = 0.17126 0.31033
# Poissons Ratio (y) = 0.38238 -0.07045
# Poissons Ratio (z) = 0.38472 -0.03912
#
# Static dielectric constant tensor:
#      x y z
#    x 2.181600 0.000000 0.274800 
#    y 0.000000 2.109460 0.000000 
#    z 0.274800 0.000000 2.801240 
# 
# From -- ./inp_files/44728.got.cif
#   From: 2010.05.17/outbox.cif.g08.bks.cpg/sg5_23_cif.got.tgz:44728.got - 2010.06.03 18:56:24.
