data_PCOD9120155
_publ_section_title
;
Structure prediction by ZEFSAII (Michael W. Deem and Ramdas Pophale) SiO2 
 PCOD9120155
Probable space group: C 2
;
_chemical_formula_sum "Si O2"
_cell_formula_units_Z 32
_cell_length_a 11.447617
_cell_length_b 15.596035
_cell_length_c 10.169005
_cell_angle_alpha 90.000000
_cell_angle_beta 74.868980
_cell_angle_gamma 90.000000
_cell_volume 1752.605658
_symmetry_space_group_name_H-M "C 2"
_symmetry_group_IT_number 5
_symmetry_cell_setting 'monoclinic'
loop_
_space_group_symop_operation_xyz
x,y,z
-x,y,-z
1/2+x,1/2+y,z
1/2-x,1/2+y,-z
loop_
_atom_site_type_symbol
_atom_site_label
_atom_site_fract_x
_atom_site_fract_y
_atom_site_fract_z
Si Si1 0.950244 0.809990 0.865895
Si Si2 0.060776 0.664352 0.347776
Si Si3 0.486858 0.000736 0.792655
Si Si4 0.507563 0.811444 0.160643
Si Si5 0.974857 0.003051 0.851022
Si Si6 0.232673 0.223995 0.021155
Si Si7 0.193763 0.551821 0.930415
Si Si8 0.155903 0.155625 0.773400
O O1 0.972143 0.731869 0.758749
O O2 0.988839 0.903590 0.803163
O O3 0.805373 0.800612 0.931102
O O4 0.000000 0.800339 0.000000
O O5 0.206539 0.654990 0.316420
O O6 0.000000 0.692913 0.500000
O O7 0.014552 0.570248 0.320930
O O8 0.605249 0.016771 0.845908
O O9 0.490386 0.900467 0.765379
O O10 0.366254 0.019006 0.915969
O O11 0.633694 0.763222 0.143001
O O12 0.407190 0.745815 0.240493
O O13 0.500000 0.824547 0.000000
O O14 0.834033 0.027701 0.869989
O O15 0.069555 0.074348 0.768914
O O16 0.000000 0.001136 0.000000
O O17 0.317439 0.154967 0.065031
O O18 0.168165 0.166127 0.928524
#
# Coordination Sequence:
#
# PCOD9120155 Si02
#       8
#     4   4   4   4   4   4   4   4
#     4  10  21  33  58  91 119 141 191 238 288 332
#     4  11  24  43  61  79 112 156 194 239 290 345
#     4  11  21  32  54  83 116 151 189 232 281 337
#     4  10  18  30  51  87 115 149 182 230 283 342
#     4  11  18  32  54  91 120 153 181 238 286 342
#     4  10  17  29  50  81 124 146 178 228 289 333
#     4  11  18  30  54  86 126 142 181 234 291 323
#     4  10  19  34  55  79 115 154 195 223 282 348
#
# _framework density 18.258527999999998
#
# number of rings (size 3 to 8) (size 9 to 14) (size 15 to 20)
#    0.000    1.500    6.250    1.875    3.500    1.000 
#    0.000    1.250    0.000    0.000    0.000    0.000 
#    0.000    0.000    0.000    0.000    0.000    0.000 
#
# Total GULP energy -89113.313602 kJ/mol
# GULP energy per Si atom -5569.582100 kJ/mol
# Density = 1.821697 g / cm^3
# Si number density = 18.258528 Si / 1000 Ang^3
#
#
#
# Elastic Constant Matrix: (Units=GPa)
#
#
# Indices 1 2 3 4 5 6 
#
# 1 76.0695 51.5349 23.1575 0.0000 -11.7331 0.0000
# 2 51.5349 142.5162 24.1234 0.0000 -12.7956 0.0000
# 3 23.1575 24.1234 47.9051 0.0000 -4.5963 0.0000
# 4 0.0000 0.0000 0.0000 4.9342 0.0000 2.7614
# 5 -11.7331 -12.7956 -4.5963 0.0000 7.3822 0.0000
# 6 0.0000 0.0000 0.0000 2.7614 0.0000 23.4269
#
#
#
# Elastic Compliance Matrix: (Units=1/GPa)
#
#
# Indices 1 2 3 4 5 6 
#
# 1 0.021664 -0.004825 -0.005894 0.000000 0.022399 0.000000
# 2 -0.004825 0.009805 -0.001819 0.000000 0.008194 0.000000
# 3 -0.005894 -0.001819 0.024927 0.000000 0.003000 0.000000
# 4 0.000000 0.000000 0.000000 0.216982 0.000000 -0.025577
# 5 0.022399 0.008194 0.003000 0.000000 0.187134 0.000000
# 6 0.000000 0.000000 0.000000 -0.025577 0.000000 0.045701
#
#
# Mechanical properties :
#
#
# Convention : Reuss Voigt Hill
#
# Bulk Modulus (GPa) = 31.92720 51.56918 41.74819
# Shear Modulus (GPa) = 9.22972 18.32696 13.77834
#
# Velocity S-wave (km/s) = 2.25078 3.17164 2.75002
# Velocity P-wave (km/s) = 4.92735 6.45891 5.74440
#
# Compressibility (1/GPa) = 0.03132125
#
# Stress axis : x y z
#
# Youngs Moduli (GPa) = 46.15997 101.98765 40.11656
#
# Poissons Ratio (x) = 0.49210 0.23643
# Poissons Ratio (y) = 0.22273 0.07297
# Poissons Ratio (z) = 0.27204 0.18550
#
# Static dielectric constant tensor:
#      x y z
#    x 1.697100 0.000000 0.012610 
#    y 0.000000 1.685890 0.000000 
#    z 0.012610 0.000000 1.591940 
# 
# From -- ./inp_files/39868.got.cif
#   From: 2010.05.17/outbox.cif.g08.bks.cpg/sg5_20_cif.got.tgz:39868.got - 2010.06.03 18:56:24.
