data_PCOD9120112
_publ_section_title
;
Structure prediction by ZEFSAII (Michael W. Deem and Ramdas Pophale) SiO2 
 PCOD9120112
Probable space group: C 2
;
_chemical_formula_sum "Si O2"
_cell_formula_units_Z 26
_cell_length_a 24.416330
_cell_length_b 12.442038
_cell_length_c 13.628393
_cell_angle_alpha 90.000000
_cell_angle_beta 164.694070
_cell_angle_gamma 90.000000
_cell_volume 1092.888525
_symmetry_space_group_name_H-M "C 2"
_symmetry_group_IT_number 5
_symmetry_cell_setting 'monoclinic'
loop_
_space_group_symop_operation_xyz
x,y,z
-x,y,-z
1/2+x,1/2+y,z
1/2-x,1/2+y,-z
loop_
_atom_site_type_symbol
_atom_site_label
_atom_site_fract_x
_atom_site_fract_y
_atom_site_fract_z
Si Si1 0.825081 0.721760 0.315168
Si Si2 0.500000 0.476994 0.000000
Si Si3 0.771334 0.902365 0.790998
Si Si4 0.614785 0.686400 0.517336
Si Si5 0.527328 0.682242 0.149802
Si Si6 0.592831 0.017439 0.763416
Si Si7 0.517343 0.464921 0.404601
O O1 0.706234 0.685541 0.209528
O O2 0.015236 0.640342 0.632072
O O3 0.888915 0.845931 0.424410
O O4 0.636294 0.703205 0.910378
O O5 0.373889 0.411246 0.861725
O O6 0.616054 0.567322 0.266582
O O7 0.742460 0.783045 0.783272
O O8 0.541665 0.953177 0.389406
O O9 0.907687 0.965978 0.106127
O O10 0.663087 0.570268 0.644772
O O11 0.650988 0.704716 0.462980
O O12 0.500000 0.746570 0.000000
O O13 0.500000 0.974079 0.500000
O O14 0.831184 0.988314 0.159785
#
# Coordination Sequence:
#
# PCOD9120112 Si02
#       7
#     4   2   4   4   4   4   4
#     4  10  20  38  63  85 114 164 191 242 300 341
#     4  10  16  38  62  84 112 164 190 240 300 348
#     4  11  21  38  64  86 118 156 198 243 298 348
#     4  10  21  40  58  89 121 151 200 244 290 358
#     4   8  15  36  59  82 112 152 196 235 284 347
#     4  10  18  38  62  85 116 158 193 241 291 350
#     4  11  22  39  62  86 123 154 196 246 298 347
#
# _framework density 23.790168000000001
#
# number of rings (size 3 to 8) (size 9 to 14) (size 15 to 20)
#    1.385    0.615    6.154    0.000    2.154    1.231 
#    2.769    0.000    1.692    0.000    0.000    0.000 
#    0.000    0.000    0.000    0.000    0.000    0.000 
#
# Total GULP energy -72377.840885 kJ/mol
# GULP energy per Si atom -5567.526222 kJ/mol
# Density = 2.373602 g / cm^3
# Si number density = 23.790168 Si / 1000 Ang^3
#
#
#
# Elastic Constant Matrix: (Units=GPa)
#
#
# Indices 1 2 3 4 5 6 
#
# 1 125.4471 28.4236 8.8698 0.0000 24.9817 0.0000
# 2 28.4236 157.1608 22.5303 0.0000 13.9152 0.0000
# 3 8.8698 22.5303 53.3361 0.0000 7.5232 0.0000
# 4 0.0000 0.0000 0.0000 38.2262 0.0000 4.2823
# 5 24.9817 13.9152 7.5232 0.0000 21.8972 0.0000
# 6 0.0000 0.0000 0.0000 4.2823 0.0000 27.3141
#
#
#
# Elastic Compliance Matrix: (Units=1/GPa)
#
#
# Indices 1 2 3 4 5 6 
#
# 1 0.010432 -0.000914 0.000261 0.000000 -0.011411 0.000000
# 2 -0.000914 0.007117 -0.002484 0.000000 -0.002627 0.000000
# 3 0.000261 -0.002484 0.020571 0.000000 -0.005787 0.000000
# 4 0.000000 0.000000 0.000000 0.026628 0.000000 -0.004175
# 5 -0.011411 -0.002627 -0.005787 0.000000 0.062344 0.000000
# 6 0.000000 0.000000 0.000000 -0.004175 0.000000 0.037266
#
#
# Mechanical properties :
#
#
# Convention : Reuss Voigt Hill
#
# Bulk Modulus (GPa) = 31.40069 50.62126 41.01097
# Shear Modulus (GPa) = 27.58667 35.89550 31.74108
#
# Velocity S-wave (km/s) = 3.40896 3.88859 3.65665
# Velocity P-wave (km/s) = 5.35932 6.44096 5.92487
#
# Compressibility (1/GPa) = 0.03184644
#
# Stress axis : x y z
#
# Youngs Moduli (GPa) = 95.85435 140.51198 48.61180
#
# Poissons Ratio (x) = 0.12840 -0.01267
# Poissons Ratio (y) = 0.08759 0.12074
# Poissons Ratio (z) = -0.02498 0.34901
#
# Static dielectric constant tensor:
#      x y z
#    x 1.986450 0.000000 -0.068630 
#    y 0.000000 1.913330 0.000000 
#    z -0.068630 0.000000 2.007150 
# 
# From -- ./inp_files/58141.got.cif
#   From: 2010.05.17/outbox.cif.g08.bks.cpg/sg5_30_cif.got.tgz:58141.got - 2010.06.03 18:56:24.
