data_PCOD9120180
_publ_section_title
;
Structure prediction by ZEFSAII (Michael W. Deem and Ramdas Pophale) SiO2 
 PCOD9120180
Probable space group: C 2
;
_chemical_formula_sum "Si O2"
_cell_formula_units_Z 30
_cell_length_a 11.662064
_cell_length_b 18.867943
_cell_length_c 15.310089
_cell_angle_alpha 90.000000
_cell_angle_beta 149.050027
_cell_angle_gamma 90.000000
_cell_volume 1732.548142
_symmetry_space_group_name_H-M "C 2"
_symmetry_group_IT_number 5
_symmetry_cell_setting 'monoclinic'
loop_
_space_group_symop_operation_xyz
x,y,z
-x,y,-z
1/2+x,1/2+y,z
1/2-x,1/2+y,-z
loop_
_atom_site_type_symbol
_atom_site_label
_atom_site_fract_x
_atom_site_fract_y
_atom_site_fract_z
Si Si1 0.224668 0.155820 0.181547
Si Si2 0.888276 0.318087 0.586887
Si Si3 0.366466 0.330937 0.826831
Si Si4 0.750134 0.289454 0.687297
Si Si5 0.947140 0.759992 0.204619
Si Si6 0.681577 0.445003 0.361054
Si Si7 0.000000 0.564840 0.500000
Si Si8 0.250440 0.395919 0.162056
O O1 0.154711 0.225964 0.191790
O O2 0.355223 0.187916 0.183865
O O3 0.380328 0.110022 0.346097
O O4 0.000000 0.119414 0.000000
O O5 0.884560 0.303240 0.687085
O O6 0.679439 0.276698 0.407475
O O7 0.830779 0.399541 0.526219
O O8 0.123351 0.303813 0.695711
O O9 0.498476 0.269702 0.860993
O O10 0.340198 0.395153 0.739866
O O11 0.500000 0.353252 0.000000
O O12 0.500000 0.265595 0.500000
O O13 0.714739 0.360891 0.720167
O O14 0.782081 0.825423 0.122054
O O15 0.809030 0.515346 0.417701
O O16 0.439856 0.448103 0.249534
O O17 0.000000 0.423737 0.000000
#
# Coordination Sequence:
#
# PCOD9120180 Si02
#       8
#     4   4   4   4   4   4   2   4
#     4  11  23  37  58  84 107 143 193 238 271 320
#     4  10  17  30  53  83 116 145 168 220 289 354
#     4  10  20  29  50  88 117 143 171 223 296 345
#     4  11  16  31  56  90 111 136 178 220 291 339
#     4   9  17  34  50  79 117 138 176 228 279 340
#     4  10  20  36  51  75 118 148 187 223 272 337
#     4  12  22  42  56  78 110 158 196 234 266 316
#     4   9  18  30  51  84 115 140 168 232 287 334
#
# _framework density 17.315536000000002
#
# number of rings (size 3 to 8) (size 9 to 14) (size 15 to 20)
#    0.000    2.133    6.000    2.800    5.600    0.533 
#    0.000    0.000    0.000    0.000   24.267    0.000 
#    0.000    0.000    0.000    0.000    0.000    0.000 
#
# Total GULP energy -83550.831769 kJ/mol
# GULP energy per Si atom -5570.055451 kJ/mol
# Density = 1.727613 g / cm^3
# Si number density = 17.315536 Si / 1000 Ang^3
#
#
#
# Elastic Constant Matrix: (Units=GPa)
#
#
# Indices 1 2 3 4 5 6 
#
# 1 133.6879 31.7662 40.3797 -0.0006 6.3051 -0.0007
# 2 31.7662 53.7450 29.2593 0.0007 6.0420 0.0004
# 3 40.3797 29.2593 77.7235 0.0009 6.7715 0.0007
# 4 -0.0006 0.0007 0.0009 14.4537 0.0001 1.5678
# 5 6.3051 6.0420 6.7715 0.0001 33.4102 -0.0001
# 6 -0.0007 0.0004 0.0007 1.5678 -0.0001 17.6485
#
#
#
# Elastic Compliance Matrix: (Units=1/GPa)
#
#
# Indices 1 2 3 4 5 6 
#
# 1 0.009414 -0.003616 -0.003494 0.000001 -0.000415 0.000001
# 2 -0.003616 0.024997 -0.007327 -0.000001 -0.002353 0.000000
# 3 -0.003494 -0.007327 0.017577 -0.000001 -0.001578 -0.000001
# 4 0.000001 -0.000001 -0.000001 0.069860 0.000000 -0.006206
# 5 -0.000415 -0.002353 -0.001578 0.000000 0.030755 0.000000
# 6 0.000001 0.000000 -0.000001 -0.006206 0.000000 0.057213
#
#
# Mechanical properties :
#
#
# Convention : Reuss Voigt Hill
#
# Bulk Modulus (GPa) = 43.26066 51.99633 47.62849
# Shear Modulus (GPa) = 20.29286 24.01923 22.15604
#
# Velocity S-wave (km/s) = 3.42708 3.72849 3.58096
# Velocity P-wave (km/s) = 6.37948 6.97348 6.68308
#
# Compressibility (1/GPa) = 0.02311569
#
# Stress axis : x y z
#
# Youngs Moduli (GPa) = 106.22461 40.00536 56.89314
#
# Poissons Ratio (x) = 0.14464 0.19876
# Poissons Ratio (y) = 0.38407 0.41684
# Poissons Ratio (z) = 0.37111 0.29311
#
# Static dielectric constant tensor:
#      x y z
#    x 1.611710 0.000000 0.004360 
#    y 0.000000 1.572300 0.000000 
#    z 0.004360 0.000000 1.651470 
# 
# From -- ./inp_files/27963.got.cif
#   From: 2010.05.17/outbox.cif.g08.bks.cpg/sg5_14_cif.got.tgz:27963.got - 2010.06.03 18:56:24.
