data_PCOD9120387
_publ_section_title
;
Structure prediction by ZEFSAII (Michael W. Deem and Ramdas Pophale) SiO2 
 PCOD9120387
Probable space group: C 2
;
_chemical_formula_sum "Si O2"
_cell_formula_units_Z 20
_cell_length_a 11.892291
_cell_length_b 8.675472
_cell_length_c 16.708399
_cell_angle_alpha 90.000000
_cell_angle_beta 25.559643
_cell_angle_gamma 90.000000
_cell_volume 743.745547
_symmetry_space_group_name_H-M "C 2"
_symmetry_group_IT_number 5
_symmetry_cell_setting 'monoclinic'
loop_
_space_group_symop_operation_xyz
x,y,z
-x,y,-z
1/2+x,1/2+y,z
1/2-x,1/2+y,-z
loop_
_atom_site_type_symbol
_atom_site_label
_atom_site_fract_x
_atom_site_fract_y
_atom_site_fract_z
Si Si1 0.000000 0.105220 0.000000
Si Si2 0.556001 0.048631 0.782193
Si Si3 0.754508 0.400323 0.102743
Si Si4 0.730393 0.858580 0.526262
Si Si5 0.307971 0.314554 0.196040
Si Si6 0.500000 0.322306 0.500000
O O1 0.812750 0.216914 0.069253
O O2 0.148352 0.997933 0.840575
O O3 0.612702 0.219463 0.776868
O O4 0.782866 0.937508 0.675138
O O5 0.600708 0.995629 0.662769
O O6 0.300671 0.979195 0.987956
O O7 0.467912 0.420024 0.321411
O O8 0.000000 0.455188 0.000000
O O9 0.493066 0.784075 0.631090
O O10 0.857407 0.750404 0.515156
O O11 0.500000 0.265457 0.000000
#
# Coordination Sequence:
#
# PCOD9120387 Si02
#       6
#     2   4   4   4   4   2
#     4   8  22  38  62  98 152 174 230 294 370 416
#     4  10  20  41  72  96 134 182 246 288 352 435
#     4  10  17  41  67  95 133 192 225 291 365 423
#     4  10  21  40  71  97 138 177 242 291 348 438
#     4  10  23  43  63 107 142 179 239 305 352 428
#     4   8  18  36  66 102 122 180 240 276 348 442
#
# _framework density 26.890915
#
# number of rings (size 3 to 8) (size 9 to 14) (size 15 to 20)
#    2.400    0.000    2.000    0.600    0.000    1.600 
#    3.600    2.000    4.400    0.000    0.000    0.000 
#    0.000    0.000    0.000    0.000    0.000    0.000 
#
# Total GULP energy -55818.781818 kJ/mol
# GULP energy per Si atom -5581.878182 kJ/mol
# Density = 2.682971 g / cm^3
# Si number density = 26.890915 Si / 1000 Ang^3
#
#
#
# Elastic Constant Matrix: (Units=GPa)
#
#
# Indices 1 2 3 4 5 6 
#
# 1 146.1481 50.5288 70.0078 -0.0072 -15.3089 0.0069
# 2 50.5288 132.4057 37.6323 -0.0038 8.4677 -0.0163
# 3 70.0078 37.6323 226.6244 -0.0307 10.2710 0.0211
# 4 -0.0072 -0.0038 -0.0307 9.7375 0.0087 27.8396
# 5 -15.3089 8.4677 10.2710 0.0087 41.2920 -0.0060
# 6 0.0069 -0.0163 0.0211 27.8396 -0.0060 -7.1102
#
#
#
# Elastic Compliance Matrix: (Units=1/GPa)
#
#
# Indices 1 2 3 4 5 6 
#
# 1 0.009797 -0.003288 -0.002706 -0.000002 0.004980 -0.000002
# 2 -0.003288 0.009101 -0.000360 0.000006 -0.002996 -0.000001
# 3 -0.002706 -0.000360 0.005411 -0.000002 -0.002276 0.000007
# 4 -0.000002 0.000006 -0.000002 0.008422 0.000002 0.032974
# 5 0.004980 -0.002996 -0.002276 0.000002 0.027244 -0.000011
# 6 -0.000002 -0.000001 0.000007 0.032974 -0.000011 -0.011533
#
#
# Mechanical properties :
#
#
# Convention : Reuss Voigt Hill
#
# Bulk Modulus (GPa) = 86.19447 91.27956 88.73702
# Shear Modulus (GPa) = 76.90228 31.91781 54.41005
#
# Velocity S-wave (km/s) = 5.35350 3.44893 4.50306
# Velocity P-wave (km/s) = 8.38667 7.06245 7.75289
#
# Compressibility (1/GPa) = 0.01160167
#
# Stress axis : x y z
#
# Youngs Moduli (GPa) = 102.07090 109.87546 184.79385
#
# Poissons Ratio (x) = 0.36128 0.50008
# Poissons Ratio (y) = 0.33562 0.06649
# Poissons Ratio (z) = 0.27622 0.03953
#
# Static dielectric constant tensor:
#      x y z
#    x 2.465190 -0.000010 0.277800 
#    y -0.000010 2.190760 0.000000 
#    z 0.277800 0.000000 2.398600 
# 
# From -- ./inp_files/52692.got.cif
#   From: 2010.05.17/outbox.cif.g08.bks.cpg/sg5_27_cif.got.tgz:52692.got - 2010.06.03 18:56:24.
