data_PCOD9120184
_publ_section_title
;
Structure prediction by ZEFSAII (Michael W. Deem and Ramdas Pophale) SiO2 
 PCOD9120184
Probable space group: C 2
;
_chemical_formula_sum "Si O2"
_cell_formula_units_Z 28
_cell_length_a 7.305607
_cell_length_b 21.337268
_cell_length_c 9.272171
_cell_angle_alpha 90.000000
_cell_angle_beta 68.898903
_cell_angle_gamma 90.000000
_cell_volume 1348.445370
_symmetry_space_group_name_H-M "C 2"
_symmetry_group_IT_number 5
_symmetry_cell_setting 'monoclinic'
loop_
_space_group_symop_operation_xyz
x,y,z
-x,y,-z
1/2+x,1/2+y,z
1/2-x,1/2+y,-z
loop_
_atom_site_type_symbol
_atom_site_label
_atom_site_fract_x
_atom_site_fract_y
_atom_site_fract_z
Si Si1 0.718414 0.411480 0.865007
Si Si2 0.725322 0.178213 0.667794
Si Si3 0.790940 0.655043 0.909119
Si Si4 0.769911 0.773770 0.106188
Si Si5 0.867000 0.122274 0.353844
Si Si6 0.297934 0.523823 0.964240
Si Si7 0.939650 0.980839 0.356462
O O1 0.678518 0.431272 0.709907
O O2 0.500000 0.408310 0.000000
O O3 0.812772 0.344167 0.871064
O O4 0.819370 0.470552 0.915324
O O5 0.513778 0.163313 0.792310
O O6 0.736499 0.166000 0.494637
O O7 0.712043 0.092604 0.993964
O O8 0.764188 0.246613 0.723756
O O9 0.714957 0.716894 0.013695
O O10 0.670179 0.640345 0.799532
O O11 0.000000 0.779985 0.000000
O O12 0.407469 0.636067 0.669751
O O13 0.828901 0.048433 0.391420
O O14 0.365310 0.497794 0.791554
O O15 0.500000 0.530647 0.000000
O O16 0.000000 0.961387 0.500000
#
# Coordination Sequence:
#
# PCOD9120184 Si02
#       7
#     4   4   4   4   4   4   4
#     4   8  16  33  53  81 114 152 201 237 286 351
#     4  10  22  34  54  87 122 149 190 247 294 342
#     4  11  20  34  58  90 112 156 198 241 293 344
#     4   9  19  34  53  83 113 152 198 240 290 345
#     4  11  20  36  56  87 122 149 192 246 293 350
#     4   9  17  31  56  86 110 152 198 238 290 347
#     4  10  17  30  56  84 113 153 196 230 303 345
#
# _framework density 20.764651000000001
#
# number of rings (size 3 to 8) (size 9 to 14) (size 15 to 20)
#    0.000    2.571    4.286    1.286    0.000    0.000 
#    0.000    5.714    0.000    3.429   40.857    0.000 
#    0.000    0.000    0.000    0.000    0.000    0.000 
#
# Total GULP energy -77969.559697 kJ/mol
# GULP energy per Si atom -5569.254264 kJ/mol
# Density = 2.071739 g / cm^3
# Si number density = 20.764651 Si / 1000 Ang^3
#
#
#
# Elastic Constant Matrix: (Units=GPa)
#
#
# Indices 1 2 3 4 5 6 
#
# 1 42.4478 7.9864 3.6455 0.0000 2.8652 0.0000
# 2 7.9864 152.5781 56.6634 0.0000 1.4165 0.0000
# 3 3.6455 56.6634 150.9400 0.0000 8.9732 0.0000
# 4 0.0000 0.0000 0.0000 18.3454 0.0000 3.6843
# 5 2.8652 1.4165 8.9732 0.0000 26.9073 0.0000
# 6 0.0000 0.0000 0.0000 3.6843 0.0000 15.5374
#
#
#
# Elastic Compliance Matrix: (Units=1/GPa)
#
#
# Indices 1 2 3 4 5 6 
#
# 1 0.023958 -0.001245 0.000037 0.000000 -0.002498 0.000000
# 2 -0.001245 0.007689 -0.002898 0.000000 0.000694 0.000000
# 3 0.000037 -0.002898 0.007859 0.000000 -0.002472 0.000000
# 4 0.000000 0.000000 0.000000 0.057235 0.000000 -0.013572
# 5 -0.002498 0.000694 -0.002472 0.000000 0.038219 0.000000
# 6 0.000000 0.000000 0.000000 -0.013572 0.000000 0.067579
#
#
# Mechanical properties :
#
#
# Convention : Reuss Voigt Hill
#
# Bulk Modulus (GPa) = 31.95349 53.61741 42.78545
# Shear Modulus (GPa) = 22.60596 30.66940 26.63768
#
# Velocity S-wave (km/s) = 3.30309 3.84735 3.58556
# Velocity P-wave (km/s) = 5.47439 6.75379 6.14746
#
# Compressibility (1/GPa) = 0.03129549
#
# Stress axis : x y z
#
# Youngs Moduli (GPa) = 41.73983 130.05900 127.24265
#
# Poissons Ratio (x) = 0.16187 -0.00472
# Poissons Ratio (y) = 0.05195 0.36870
# Poissons Ratio (z) = -0.00155 0.37686
#
# Static dielectric constant tensor:
#      x y z
#    x 1.793500 0.000000 0.004760 
#    y 0.000000 1.825930 0.000000 
#    z 0.004760 0.000000 1.810610 
# 
# From -- ./inp_files/21000.got.cif
#   From: 2010.05.17/outbox.cif.g08.bks.cpg/sg5_11_cif.got.tgz:21000.got - 2010.06.03 18:56:24.
