data_PCOD9120236
_publ_section_title
;
Structure prediction by ZEFSAII (Michael W. Deem and Ramdas Pophale) SiO2 
 PCOD9120236
Probable space group: C 2
;
_chemical_formula_sum "Si O2"
_cell_formula_units_Z 28
_cell_length_a 22.900402
_cell_length_b 6.700199
_cell_length_c 17.398893
_cell_angle_alpha 90.000000
_cell_angle_beta 23.280417
_cell_angle_gamma 90.000000
_cell_volume 1055.125327
_symmetry_space_group_name_H-M "C 2"
_symmetry_group_IT_number 5
_symmetry_cell_setting 'monoclinic'
loop_
_space_group_symop_operation_xyz
x,y,z
-x,y,-z
1/2+x,1/2+y,z
1/2-x,1/2+y,-z
loop_
_atom_site_type_symbol
_atom_site_label
_atom_site_fract_x
_atom_site_fract_y
_atom_site_fract_z
Si Si1 0.561746 0.026810 0.673748
Si Si2 0.345938 0.595147 0.955610
Si Si3 0.451461 0.552535 0.983077
Si Si4 0.509546 0.124673 0.401063
Si Si5 0.801845 0.716689 0.339973
Si Si6 0.180305 0.258650 0.335691
Si Si7 0.750924 0.139508 0.911543
O O1 0.634482 0.104243 0.664039
O O2 0.573418 0.162318 0.580778
O O3 0.656355 0.833636 0.540978
O O4 0.386803 0.996430 0.900095
O O5 0.447321 0.653321 0.905289
O O6 0.368825 0.621727 0.837235
O O7 0.178898 0.664783 0.174991
O O8 0.329929 0.354164 0.984632
O O9 0.570692 0.376161 0.833798
O O10 0.500000 0.674181 0.000000
O O11 0.292683 0.447954 0.187561
O O12 0.500000 0.208950 0.500000
O O13 0.465293 0.888566 0.466612
O O14 0.749014 0.629024 0.322065
O O15 0.188799 0.129904 0.247721
#
# Coordination Sequence:
#
# PCOD9120236 Si02
#       7
#     4   4   4   4   4   4   4
#     4  10  21  34  56  83 114 145 190 235 284 322
#     4  10  19  33  58  84 115 140 187 238 280 326
#     4   9  16  30  54  78 101 145 188 217 263 338
#     4  10  17  32  57  88 104 142 195 231 261 337
#     4  10  19  36  56  83 110 148 185 238 277 328
#     4   9  17  32  59  81 108 141 196 221 270 341
#     4  10  19  35  55  86 111 148 190 229 283 331
#
# _framework density 26.537132
#
# number of rings (size 3 to 8) (size 9 to 14) (size 15 to 20)
#    0.000    2.286    5.714    0.000    0.000    0.000 
#    7.714    0.000    6.286    0.000    0.000    0.000 
#    0.000    0.000    0.000    0.000    0.000    0.000 
#
# Total GULP energy -78102.488976 kJ/mol
# GULP energy per Si atom -5578.749213 kJ/mol
# Density = 2.647673 g / cm^3
# Si number density = 26.537132 Si / 1000 Ang^3
#
#
#
# Elastic Constant Matrix: (Units=GPa)
#
#
# Indices 1 2 3 4 5 6 
#
# 1 307.3112 32.4777 36.4722 -0.0004 59.6759 0.0000
# 2 32.4777 18.9527 20.1141 -0.0028 9.8586 0.0009
# 3 36.4722 20.1141 108.8795 0.0013 7.7655 -0.0011
# 4 -0.0004 -0.0028 0.0013 35.0451 -0.0014 2.1482
# 5 59.6759 9.8586 7.7655 -0.0014 54.4065 0.0011
# 6 0.0000 0.0009 -0.0011 2.1482 0.0011 38.5959
#
#
#
# Elastic Compliance Matrix: (Units=1/GPa)
#
#
# Indices 1 2 3 4 5 6 
#
# 1 0.004666 -0.005636 -0.000232 -0.000001 -0.004064 0.000000
# 2 -0.005636 0.078651 -0.012190 0.000006 -0.006330 -0.000002
# 3 -0.000232 -0.012190 0.011455 -0.000001 0.000828 0.000001
# 4 -0.000001 0.000006 -0.000001 0.028632 0.000000 -0.001594
# 5 -0.004064 -0.006330 0.000828 0.000000 0.023866 -0.000001
# 6 0.000000 -0.000002 0.000001 -0.001594 -0.000001 0.025998
#
#
# Mechanical properties :
#
#
# Convention : Reuss Voigt Hill
#
# Bulk Modulus (GPa) = 17.04872 68.14125 42.59499
# Shear Modulus (GPa) = 21.83993 48.68147 35.26070
#
# Velocity S-wave (km/s) = 2.87190 4.28771 3.64913
# Velocity P-wave (km/s) = 4.17559 7.08845 5.81728
#
# Compressibility (1/GPa) = 0.05865544
#
# Stress axis : x y z
#
# Youngs Moduli (GPa) = 214.29855 12.71438 87.29717
#
# Poissons Ratio (x) = 0.07166 0.02026
# Poissons Ratio (y) = 1.20783 1.06418
# Poissons Ratio (z) = 0.04973 0.15499
#
# Static dielectric constant tensor:
#      x y z
#    x 2.178080 0.000000 0.011610 
#    y 0.000000 2.214320 0.000000 
#    z 0.011610 0.000000 2.139080 
# 
# From -- ./inp_files/56887.got.cif
#   From: 2010.05.17/outbox.cif.g08.bks.cpg/sg5_29_cif.got.tgz:56887.got - 2010.06.03 18:56:24.
