data_PCOD9120107
_publ_section_title
;
Structure prediction by ZEFSAII (Michael W. Deem and Ramdas Pophale) SiO2 
 PCOD9120107
Probable space group: C 2
;
_chemical_formula_sum "Si O2"
_cell_formula_units_Z 32
_cell_length_a 21.893320
_cell_length_b 11.093641
_cell_length_c 9.163458
_cell_angle_alpha 90.000000
_cell_angle_beta 50.756658
_cell_angle_gamma 90.000000
_cell_volume 1723.644006
_symmetry_space_group_name_H-M "C 2"
_symmetry_group_IT_number 5
_symmetry_cell_setting 'monoclinic'
loop_
_space_group_symop_operation_xyz
x,y,z
-x,y,-z
1/2+x,1/2+y,z
1/2-x,1/2+y,-z
loop_
_atom_site_type_symbol
_atom_site_label
_atom_site_fract_x
_atom_site_fract_y
_atom_site_fract_z
Si Si1 0.079205 0.372450 0.967190
Si Si2 0.322813 0.694292 0.011475
Si Si3 0.216001 0.364161 0.523908
Si Si4 0.736882 0.972060 0.201254
Si Si5 0.150889 0.568183 0.043640
Si Si6 0.835009 0.817786 0.858927
Si Si7 0.093742 0.053475 0.377791
Si Si8 0.219097 0.093666 0.414672
O O1 0.146667 0.372543 0.743821
O O2 0.104176 0.261768 0.030077
O O3 0.085842 0.489719 0.059858
O O4 0.000000 0.361586 0.000000
O O5 0.356436 0.629332 0.817161
O O6 0.282114 0.594132 0.173684
O O7 0.248101 0.780290 0.091007
O O8 0.191071 0.413090 0.402505
O O9 0.237089 0.222116 0.467581
O O10 0.273469 0.470247 0.501060
O O11 0.686663 0.000898 0.131921
O O12 0.806271 0.882612 0.049169
O O13 0.123985 0.695376 0.151202
O O14 0.219675 0.584829 0.816570
O O15 0.882977 0.913605 0.691148
O O16 0.131995 0.092770 0.473652
O O17 0.000000 0.070260 0.500000
#
# Coordination Sequence:
#
# PCOD9120107 Si02
#       8
#     4   4   4   4   4   4   4   4
#     4  11  24  39  53  86 133 164 194 259 325 382
#     4  10  19  37  63  88 117 171 211 252 311 392
#     4  11  23  37  62  93 123 159 219 267 313 380
#     4  10  17  34  64  90 104 153 217 262 299 364
#     4  10  19  37  65  84 117 161 221 247 305 383
#     4  10  16  37  65  87 111 161 218 253 297 379
#     4  11  23  37  65  97 131 158 210 276 327 370
#     4  11  21  40  61  93 124 164 208 271 319 382
#
# _framework density 18.565318999999999
#
# number of rings (size 3 to 8) (size 9 to 14) (size 15 to 20)
#    0.000    1.500    6.250    1.500    1.750    1.000 
#    0.000    5.625    0.000    0.000    0.000    0.000 
#    0.000    0.000    0.000    0.000    0.000    0.000 
#
# Total GULP energy -89068.877540 kJ/mol
# GULP energy per Si atom -5566.804846 kJ/mol
# Density = 1.852306 g / cm^3
# Si number density = 18.565319 Si / 1000 Ang^3
#
#
#
# Elastic Constant Matrix: (Units=GPa)
#
#
# Indices 1 2 3 4 5 6 
#
# 1 115.3602 54.6054 10.9020 0.0000 -0.1894 0.0000
# 2 54.6054 115.0237 13.3306 0.0000 14.8380 0.0000
# 3 10.9020 13.3306 32.9597 0.0000 15.0067 0.0000
# 4 0.0000 0.0000 0.0000 -14.1778 0.0000 21.9580
# 5 -0.1894 14.8380 15.0067 0.0000 25.0256 0.0000
# 6 0.0000 0.0000 0.0000 21.9580 0.0000 18.7256
#
#
#
# Elastic Compliance Matrix: (Units=1/GPa)
#
#
# Indices 1 2 3 4 5 6 
#
# 1 0.011910 -0.005952 -0.004374 0.000000 0.006242 0.000000
# 2 -0.005952 0.012462 0.000431 0.000000 -0.007692 0.000000
# 3 -0.004374 0.000431 0.043666 0.000000 -0.026473 0.000000
# 4 0.000000 0.000000 0.000000 -0.025046 0.000000 0.029370
# 5 0.006242 -0.007692 -0.026473 0.000000 0.060442 0.000000
# 6 0.000000 0.000000 0.000000 0.029370 0.000000 0.018963
#
#
# Mechanical properties :
#
#
# Convention : Reuss Voigt Hill
#
# Bulk Modulus (GPa) = 20.72685 46.77995 33.75340
# Shear Modulus (GPa) = 31.59181 18.21505 24.90343
#
# Velocity S-wave (km/s) = 4.12959 3.13570 3.66648
# Velocity P-wave (km/s) = 5.82465 6.19374 6.01203
#
# Compressibility (1/GPa) = 0.04824661
#
# Stress axis : x y z
#
# Youngs Moduli (GPa) = 83.96624 80.24464 22.90122
#
# Poissons Ratio (x) = 0.47763 0.10017
# Poissons Ratio (y) = 0.49978 -0.00987
# Poissons Ratio (z) = 0.36727 -0.03457
#
# Static dielectric constant tensor:
#      x y z
#    x 1.860050 0.000000 0.071570 
#    y 0.000000 1.762140 0.000000 
#    z 0.071570 0.000000 1.634040 
# 
# From -- ./inp_files/29612.got.cif
#   From: 2010.05.17/outbox.cif.g08.bks.cpg/sg5_15_cif.got.tgz:29612.got - 2010.06.03 18:56:24.
