data_PCOD9120205
_publ_section_title
;
Structure prediction by ZEFSAII (Michael W. Deem and Ramdas Pophale) SiO2 
 PCOD9120205
Probable space group: C 2
;
_chemical_formula_sum "Si O2"
_cell_formula_units_Z 30
_cell_length_a 13.357932
_cell_length_b 11.628889
_cell_length_c 9.197439
_cell_angle_alpha 90.000000
_cell_angle_beta 71.182661
_cell_angle_gamma 90.000000
_cell_volume 1352.348755
_symmetry_space_group_name_H-M "C 2"
_symmetry_group_IT_number 5
_symmetry_cell_setting 'monoclinic'
loop_
_space_group_symop_operation_xyz
x,y,z
-x,y,-z
1/2+x,1/2+y,z
1/2-x,1/2+y,-z
loop_
_atom_site_type_symbol
_atom_site_label
_atom_site_fract_x
_atom_site_fract_y
_atom_site_fract_z
Si Si1 0.377367 0.368730 0.523324
Si Si2 0.768831 0.613173 0.085575
Si Si3 0.867696 0.745567 0.799903
Si Si4 0.500000 0.994991 0.000000
Si Si5 0.079176 0.116373 0.575952
Si Si6 0.482866 0.026605 0.340123
Si Si7 0.282889 0.188630 0.396534
Si Si8 0.942893 0.980170 0.875192
O O1 0.500000 0.341998 0.500000
O O2 0.319860 0.310017 0.684196
O O3 0.369808 0.503989 0.526412
O O4 0.340372 0.309682 0.394494
O O5 0.887554 0.561314 0.046474
O O6 0.745585 0.673133 0.249551
O O7 0.677552 0.524520 0.083530
O O8 0.779784 0.705597 0.953185
O O9 0.934218 0.633369 0.719539
O O10 0.939126 0.844579 0.840288
O O11 0.494056 0.954462 0.179565
O O12 0.182285 0.189762 0.550646
O O13 0.000000 0.174226 0.500000
O O14 0.011894 0.057922 0.733193
O O15 0.500000 0.980660 0.500000
O O16 0.367777 0.088930 0.393165
O O17 0.000000 0.995701 0.000000
#
# Coordination Sequence:
#
# PCOD9120205 Si02
#       8
#     4   4   4   2   4   4   4   4
#     4  11  19  36  61  91 118 151 209 251 300 363
#     4  10  23  38  57  93 122 157 204 261 316 367
#     4  11  20  36  60  86 123 153 206 262 297 365
#     4   8  20  32  58  82 124 148 202 250 312 358
#     4  11  22  40  58  87 125 158 204 252 297 368
#     4  10  17  31  56  92 115 148 198 249 300 355
#     4  11  19  34  62  85 119 162 193 250 313 362
#     4  12  26  39  61  92 126 165 210 258 311 370
#
# _framework density 22.183626
#
# number of rings (size 3 to 8) (size 9 to 14) (size 15 to 20)
#    0.000    1.333    6.667    0.000    9.333    0.000 
#    0.000    0.000    1.467    4.800    0.000    0.000 
#    0.000    0.000    0.000    0.000    0.000    0.000 
#
# Total GULP energy -83525.095697 kJ/mol
# GULP energy per Si atom -5568.339713 kJ/mol
# Density = 2.213314 g / cm^3
# Si number density = 22.183626 Si / 1000 Ang^3
#
#
#
# Elastic Constant Matrix: (Units=GPa)
#
#
# Indices 1 2 3 4 5 6 
#
# 1 84.7038 28.7749 35.9811 0.0000 3.7529 0.0000
# 2 28.7749 24.5475 22.4902 0.0000 1.3670 0.0000
# 3 35.9811 22.4902 127.1693 0.0000 15.6823 0.0000
# 4 0.0000 0.0000 0.0000 12.5218 0.0000 -0.2071
# 5 3.7529 1.3670 15.6823 0.0000 45.8381 0.0000
# 6 0.0000 0.0000 0.0000 -0.2071 0.0000 14.5701
#
#
#
# Elastic Compliance Matrix: (Units=1/GPa)
#
#
# Indices 1 2 3 4 5 6 
#
# 1 0.019964 -0.021778 -0.001750 0.000000 -0.000387 0.000000
# 2 -0.021778 0.072478 -0.006900 0.000000 0.001982 0.000000
# 3 -0.001750 -0.006900 0.009956 0.000000 -0.003057 0.000000
# 4 0.000000 0.000000 0.000000 0.079880 0.000000 0.001136
# 5 -0.000387 0.001982 -0.003057 0.000000 0.022834 0.000000
# 6 0.000000 0.000000 0.000000 0.001136 0.000000 0.068650
#
#
# Mechanical properties :
#
#
# Convention : Reuss Voigt Hill
#
# Bulk Modulus (GPa) = 24.07214 45.65699 34.86457
# Shear Modulus (GPa) = 14.34863 24.53096 19.43979
#
# Velocity S-wave (km/s) = 2.54601 3.32899 2.96347
# Velocity P-wave (km/s) = 4.41789 5.94998 5.24023
#
# Compressibility (1/GPa) = 0.04154180
#
# Stress axis : x y z
#
# Youngs Moduli (GPa) = 50.08902 13.79736 100.44295
#
# Poissons Ratio (x) = 0.30048 0.17573
# Poissons Ratio (y) = 1.09085 0.69310
# Poissons Ratio (z) = 0.08763 0.09521
#
# Static dielectric constant tensor:
#      x y z
#    x 1.817850 0.000000 0.005980 
#    y 0.000000 1.831440 0.000000 
#    z 0.005980 0.000000 1.953480 
# 
# From -- ./inp_files/20622.got.cif
#   From: 2010.05.17/outbox.cif.g08.bks.cpg/sg5_11_cif.got.tgz:20622.got - 2010.06.03 18:56:24.
