data_PCOD9120295
_publ_section_title
;
Structure prediction by ZEFSAII (Michael W. Deem and Ramdas Pophale) SiO2 
 PCOD9120295
Probable space group: C 2
;
_chemical_formula_sum "Si O2"
_cell_formula_units_Z 26
_cell_length_a 12.210783
_cell_length_b 19.575914
_cell_length_c 9.588836
_cell_angle_alpha 90.000000
_cell_angle_beta 36.427253
_cell_angle_gamma 90.000000
_cell_volume 1361.046202
_symmetry_space_group_name_H-M "C 2"
_symmetry_group_IT_number 5
_symmetry_cell_setting 'monoclinic'
loop_
_space_group_symop_operation_xyz
x,y,z
-x,y,-z
1/2+x,1/2+y,z
1/2-x,1/2+y,-z
loop_
_atom_site_type_symbol
_atom_site_label
_atom_site_fract_x
_atom_site_fract_y
_atom_site_fract_z
Si Si1 0.144480 0.288830 0.227110
Si Si2 0.362961 0.387960 0.363899
Si Si3 0.833441 0.572633 0.772892
Si Si4 0.000000 0.811834 0.500000
Si Si5 0.000000 0.992172 0.000000
Si Si6 0.161488 0.213935 0.945428
Si Si7 0.500000 0.282992 0.000000
Si Si8 0.961469 0.434550 0.705797
O O1 0.173013 0.368646 0.154294
O O2 0.000000 0.287322 0.500000
O O3 0.068656 0.252192 0.169729
O O4 0.335787 0.252709 0.075902
O O5 0.440335 0.359520 0.430096
O O6 0.469852 0.447882 0.170892
O O7 0.149861 0.412167 0.588139
O O8 0.382570 0.327544 0.230374
O O9 0.749060 0.643302 0.910599
O O10 0.892839 0.510454 0.815007
O O11 0.000000 0.591380 0.500000
O O12 0.677439 0.537821 0.838612
O O13 0.174147 0.763189 0.280508
O O14 0.000000 0.200950 0.000000
O O15 0.000000 0.441752 0.500000
#
# Coordination Sequence:
#
# PCOD9120295 Si02
#       8
#     4   4   4   2   2   4   2   4
#     4  11  22  39  64  95 123 160 217 269 311 372
#     4  11  20  36  63  96 123 161 208 266 321 368
#     4  11  21  39  63  94 120 162 220 271 304 372
#     4  12  26  40  58 100 144 164 198 264 340 380
#     4  11  20  38  70  88 116 165 226 260 307 368
#     4  12  26  41  62  95 134 174 204 261 332 387
#     4  11  18  34  62  90 118 165 206 256 303 370
#     4  10  17  34  64  94 116 149 217 277 294 354
#
# _framework density 19.102951999999998
#
# number of rings (size 3 to 8) (size 9 to 14) (size 15 to 20)
#    0.000    0.923    9.231    1.846    0.000    0.000 
#    0.000    0.000    1.692    0.000    0.000    0.000 
#    0.000    0.000    0.000    0.000    0.000    0.000 
#
# Total GULP energy -72422.906541 kJ/mol
# GULP energy per Si atom -5570.992811 kJ/mol
# Density = 1.905947 g / cm^3
# Si number density = 19.102952 Si / 1000 Ang^3
#
#
#
# Elastic Constant Matrix: (Units=GPa)
#
#
# Indices 1 2 3 4 5 6 
#
# 1 104.8260 43.0183 29.1565 0.0000 -9.7431 0.0000
# 2 43.0183 108.7035 36.4285 0.0000 7.9181 0.0000
# 3 29.1565 36.4285 63.5863 -0.0001 -8.9761 0.0001
# 4 0.0000 0.0000 -0.0001 16.2619 0.0000 2.9967
# 5 -9.7431 7.9181 -8.9761 0.0000 36.2781 -0.0001
# 6 0.0000 0.0000 0.0001 2.9967 -0.0001 15.0068
#
#
#
# Elastic Compliance Matrix: (Units=1/GPa)
#
#
# Indices 1 2 3 4 5 6 
#
# 1 0.012373 -0.004238 -0.002742 0.000000 0.003570 0.000000
# 2 -0.004238 0.013505 -0.006601 0.000000 -0.005719 0.000000
# 3 -0.002742 -0.006601 0.021620 0.000000 0.006054 0.000000
# 4 0.000000 0.000000 0.000000 0.063843 0.000000 -0.012749
# 5 0.003570 -0.005719 0.006054 0.000000 0.031270 0.000000
# 6 0.000000 0.000000 0.000000 -0.012749 0.000000 0.069182
#
#
# Mechanical properties :
#
#
# Convention : Reuss Voigt Hill
#
# Bulk Modulus (GPa) = 49.17158 54.92473 52.04815
# Shear Modulus (GPa) = 20.34725 24.74353 22.54539
#
# Velocity S-wave (km/s) = 3.26718 3.60289 3.43914
# Velocity P-wave (km/s) = 6.32683 6.79133 6.56319
#
# Compressibility (1/GPa) = 0.02033695
#
# Stress axis : x y z
#
# Youngs Moduli (GPa) = 80.82072 74.04578 46.25274
#
# Poissons Ratio (x) = 0.31378 0.12682
# Poissons Ratio (y) = 0.34249 0.30533
# Poissons Ratio (z) = 0.22160 0.48880
#
# Static dielectric constant tensor:
#      x y z
#    x 1.709630 0.000000 -0.055070 
#    y 0.000000 1.692520 0.000000 
#    z -0.055070 0.000000 1.689620 
# 
# From -- ./inp_files/21740.got.cif
#   From: 2010.05.17/outbox.cif.g08.bks.cpg/sg5_11_cif.got.tgz:21740.got - 2010.06.03 18:56:24.
