data_PCOD9120063
_publ_section_title
;
Structure prediction by ZEFSAII (Michael W. Deem and Ramdas Pophale) SiO2 
 PCOD9120063
Probable space group: C 2
;
_chemical_formula_sum "Si O2"
_cell_formula_units_Z 28
_cell_length_a 15.151441
_cell_length_b 16.529529
_cell_length_c 10.525671
_cell_angle_alpha 90.000000
_cell_angle_beta 153.272056
_cell_angle_gamma 90.000000
_cell_volume 1185.604603
_symmetry_space_group_name_H-M "C 2"
_symmetry_group_IT_number 5
_symmetry_cell_setting 'monoclinic'
loop_
_space_group_symop_operation_xyz
x,y,z
-x,y,-z
1/2+x,1/2+y,z
1/2-x,1/2+y,-z
loop_
_atom_site_type_symbol
_atom_site_label
_atom_site_fract_x
_atom_site_fract_y
_atom_site_fract_z
Si Si1 0.642247 0.897840 0.001849
Si Si2 0.277276 0.738687 0.773384
Si Si3 0.733680 0.826467 0.625184
Si Si4 0.394846 0.622133 0.123575
Si Si5 0.500000 0.699343 0.500000
Si Si6 0.337755 0.175163 0.623606
Si Si7 0.728384 0.952319 0.832150
Si Si8 0.500000 0.035473 0.000000
O O1 0.422208 0.864971 0.677130
O O2 0.731432 0.912853 0.976690
O O3 0.754472 0.829967 0.226132
O O4 0.629324 0.973249 0.081553
O O5 0.146529 0.692649 0.503809
O O6 0.500000 0.737267 0.000000
O O7 0.269226 0.688548 0.890883
O O8 0.621359 0.761796 0.570532
O O9 0.872280 0.764555 0.727105
O O10 0.802369 0.895769 0.811600
O O11 0.379477 0.640061 0.252989
O O12 0.616720 0.645444 0.371390
O O13 0.341908 0.535587 0.999311
O O14 0.449885 0.100453 0.826080
O O15 0.500000 0.967139 0.500000
#
# Coordination Sequence:
#
# PCOD9120063 Si02
#       8
#     4   4   4   4   2   4   4   2
#     4  11  19  38  61  91 118 159 202 241 305 375
#     4  10  17  38  63  86 110 163 209 234 296 379
#     4  10  17  38  59  87 114 161 195 235 306 366
#     4  10  21  36  62  91 118 154 205 249 300 358
#     4  10  16  34  60  82 116 160 194 232 300 374
#     4  10  23  39  64  86 119 165 202 249 302 366
#     4  10  22  35  62  96 121 153 201 259 302 350
#     4  12  26  38  60  94 124 150 208 262 302 350
#
# _framework density 23.616643
#
# number of rings (size 3 to 8) (size 9 to 14) (size 15 to 20)
#    0.000    1.714    7.143    0.000    8.000    0.000 
#    0.000    2.857    0.000    1.714    0.000    0.000 
#    0.000    0.000    0.000    0.000    0.000    0.000 
#
# Total GULP energy -78087.381019 kJ/mol
# GULP energy per Si atom -5577.670073 kJ/mol
# Density = 2.356289 g / cm^3
# Si number density = 23.616643 Si / 1000 Ang^3
#
#
#
# Elastic Constant Matrix: (Units=GPa)
#
#
# Indices 1 2 3 4 5 6 
#
# 1 62.3282 27.4941 40.8285 0.0000 -14.7968 0.0000
# 2 27.4941 194.9680 67.5962 0.0000 -20.1487 0.0000
# 3 40.8285 67.5962 83.3667 0.0000 -32.8187 0.0000
# 4 0.0000 0.0000 0.0000 68.7668 0.0000 -27.7504
# 5 -14.7968 -20.1487 -32.8187 0.0000 32.5672 0.0000
# 6 0.0000 0.0000 0.0000 -27.7504 0.0000 29.0115
#
#
#
# Elastic Compliance Matrix: (Units=1/GPa)
#
#
# Indices 1 2 3 4 5 6 
#
# 1 0.023817 0.001041 -0.013252 0.000000 -0.001889 0.000000
# 2 0.001041 0.007290 -0.007391 0.000000 -0.002465 0.000000
# 3 -0.013252 -0.007391 0.033661 0.000000 0.023328 0.000000
# 4 0.000000 0.000000 0.000000 0.023684 0.000000 0.022655
# 5 -0.001889 -0.002465 0.023328 0.000000 0.051830 0.000000
# 6 0.000000 0.000000 0.000000 0.022655 0.000000 0.056139
#
#
# Mechanical properties :
#
#
# Convention : Reuss Voigt Hill
#
# Bulk Modulus (GPa) = 39.11714 68.05564 53.58639
# Shear Modulus (GPa) = 20.47937 39.71869 30.09903
#
# Velocity S-wave (km/s) = 2.94795 4.10544 3.57386
# Velocity P-wave (km/s) = 5.30910 7.16604 6.30630
#
# Compressibility (1/GPa) = 0.02556424
#
# Stress axis : x y z
#
# Youngs Moduli (GPa) = 41.98625 137.17313 29.70754
#
# Poissons Ratio (x) = -0.14274 0.39368
# Poissons Ratio (y) = -0.04369 0.21957
# Poissons Ratio (z) = 0.55639 1.01385
#
# Static dielectric constant tensor:
#      x y z
#    x 1.927810 0.000000 0.023700 
#    y 0.000000 1.860510 0.000000 
#    z 0.023700 0.000000 2.031600 
# 
# From -- ./inp_files/46535.got.cif
#   From: 2010.05.17/outbox.cif.g08.bks.cpg/sg5_24_cif.got.tgz:46535.got - 2010.06.03 18:56:24.
