data_PCOD9120553
_publ_section_title
;
Structure prediction by ZEFSAII (Michael W. Deem and Ramdas Pophale) SiO2 
 PCOD9120553
Probable space group: C 2
;
_chemical_formula_sum "Si O2"
_cell_formula_units_Z 32
_cell_length_a 11.422461
_cell_length_b 13.559559
_cell_length_c 13.114868
_cell_angle_alpha 90.000000
_cell_angle_beta 38.248106
_cell_angle_gamma 90.000000
_cell_volume 1257.498631
_symmetry_space_group_name_H-M "C 2"
_symmetry_group_IT_number 5
_symmetry_cell_setting 'monoclinic'
loop_
_space_group_symop_operation_xyz
x,y,z
-x,y,-z
1/2+x,1/2+y,z
1/2-x,1/2+y,-z
loop_
_atom_site_type_symbol
_atom_site_label
_atom_site_fract_x
_atom_site_fract_y
_atom_site_fract_z
Si Si1 0.810179 0.811290 0.061960
Si Si2 0.533816 0.487797 0.142092
Si Si3 0.221126 0.784520 0.490020
Si Si4 0.721226 0.295528 0.248254
Si Si5 0.752666 0.581847 0.819087
Si Si6 0.046366 0.139938 0.302525
Si Si7 0.343206 0.014048 0.187044
Si Si8 0.041036 0.457701 0.663604
O O1 0.693074 0.710322 0.139143
O O2 0.639853 0.882931 0.217636
O O3 0.898665 0.874217 0.907574
O O4 0.000000 0.799935 0.000000
O O5 0.363199 0.517040 0.183121
O O6 0.500428 0.543686 0.268408
O O7 0.701743 0.544710 0.966715
O O8 0.269223 0.784057 0.335937
O O9 0.353561 0.701251 0.450224
O O10 0.290030 0.888684 0.489620
O O11 0.997247 0.784120 0.633997
O O12 0.801156 0.195259 0.147921
O O13 0.785095 0.406413 0.181763
O O14 0.972336 0.554650 0.651586
O O15 0.173380 0.093181 0.305225
O O16 0.410223 0.991497 0.255169
O O17 0.500000 0.051152 0.000000
#
# Coordination Sequence:
#
# PCOD9120553 Si02
#       8
#     4   4   4   4   4   4   4   4
#     4  10  18  33  53  78 114 147 183 225 286 347
#     4  10  19  33  53  88 112 142 189 232 292 338
#     4   9  20  38  57  83 111 157 196 236 286 344
#     4  10  21  36  59  83 114 150 199 243 286 337
#     4  10  18  32  58  81 106 147 188 235 281 340
#     4  11  22  36  59  85 120 153 191 241 289 350
#     4  11  23  37  54  89 121 151 186 242 299 347
#     4   9  19  36  57  81 114 150 192 232 289 347
#
# _framework density 25.447341999999999
#
# number of rings (size 3 to 8) (size 9 to 14) (size 15 to 20)
#    0.000    2.000    3.750    1.875    1.750    2.000 
#    0.000    0.000    0.000    0.000    0.000    0.000 
#    0.000    0.000    0.000    0.000    0.000    0.000 
#
# Total GULP energy -89244.702404 kJ/mol
# GULP energy per Si atom -5577.793900 kJ/mol
# Density = 2.538942 g / cm^3
# Si number density = 25.447342 Si / 1000 Ang^3
#
#
#
# Elastic Constant Matrix: (Units=GPa)
#
#
# Indices 1 2 3 4 5 6 
#
# 1 104.8665 46.0277 31.7252 -0.0004 -42.4887 0.0001
# 2 46.0277 143.0252 26.9436 -0.0002 -24.8845 0.0002
# 3 31.7252 26.9436 33.5200 -0.0006 -26.6859 0.0007
# 4 -0.0004 -0.0002 -0.0006 33.3343 0.0005 -15.9173
# 5 -42.4887 -24.8845 -26.6859 0.0005 42.4417 -0.0003
# 6 0.0001 0.0002 0.0007 -15.9173 -0.0003 34.5167
#
#
#
# Elastic Compliance Matrix: (Units=1/GPa)
#
#
# Indices 1 2 3 4 5 6 
#
# 1 0.017174 -0.002521 -0.003438 0.000000 0.013553 0.000000
# 2 -0.002521 0.008647 -0.005081 0.000000 -0.000648 0.000000
# 3 -0.003438 -0.005081 0.064192 0.000000 0.033941 -0.000001
# 4 0.000000 0.000000 0.000000 0.038470 0.000000 0.017741
# 5 0.013553 -0.000648 0.033941 0.000000 0.058090 0.000000
# 6 0.000000 0.000000 -0.000001 0.017741 0.000000 0.037152
#
#
# Mechanical properties :
#
#
# Convention : Reuss Voigt Hill
#
# Bulk Modulus (GPa) = 14.72039 54.53385 34.62712
# Shear Modulus (GPa) = 18.62536 33.83956 26.23246
#
# Velocity S-wave (km/s) = 2.70833 3.65058 3.21417
# Velocity P-wave (km/s) = 3.94681 6.26463 5.23559
#
# Compressibility (1/GPa) = 0.06793298
#
# Stress axis : x y z
#
# Youngs Moduli (GPa) = 58.22798 115.64092 15.57826
#
# Poissons Ratio (x) = 0.29154 0.05356
# Poissons Ratio (y) = 0.14680 0.07915
# Poissons Ratio (z) = 0.20019 0.58758
#
# Static dielectric constant tensor:
#      x y z
#    x 2.021640 0.000000 -0.035990 
#    y 0.000000 2.061790 0.000000 
#    z -0.035990 0.000000 2.125270 
# 
# From -- ./inp_files/53176.got.cif
#   From: 2010.05.17/outbox.cif.g08.bks.cpg/sg5_27_cif.got.tgz:53176.got - 2010.06.03 18:56:24.
