data_PCOD9120036
_publ_section_title
;
Structure prediction by ZEFSAII (Michael W. Deem and Ramdas Pophale) SiO2 
 PCOD9120036
Probable space group: C 2
;
_chemical_formula_sum "Si O2"
_cell_formula_units_Z 24
_cell_length_a 9.421451
_cell_length_b 17.179721
_cell_length_c 15.911981
_cell_angle_alpha 90.000000
_cell_angle_beta 32.927637
_cell_angle_gamma 90.000000
_cell_volume 1399.977733
_symmetry_space_group_name_H-M "C 2"
_symmetry_group_IT_number 5
_symmetry_cell_setting 'monoclinic'
loop_
_space_group_symop_operation_xyz
x,y,z
-x,y,-z
1/2+x,1/2+y,z
1/2-x,1/2+y,-z
loop_
_atom_site_type_symbol
_atom_site_label
_atom_site_fract_x
_atom_site_fract_y
_atom_site_fract_z
Si Si1 0.851124 0.910790 0.664343
Si Si2 0.500000 0.159924 0.500000
Si Si3 0.214532 0.583768 0.743798
Si Si4 0.500000 0.188585 0.000000
Si Si5 0.477708 0.781185 0.253024
Si Si6 0.808253 0.318903 0.518827
Si Si7 0.311847 0.138033 0.421214
O O1 0.627532 0.847311 0.757006
O O2 0.000000 0.922334 0.500000
O O3 0.068174 0.876482 0.619521
O O4 0.733875 0.992353 0.751314
O O5 0.466788 0.116163 0.428565
O O6 0.752224 0.215282 0.365903
O O7 0.512578 0.614032 0.587056
O O8 0.095256 0.598498 0.710612
O O9 0.078661 0.634003 0.882897
O O10 0.253774 0.242274 0.098609
O O11 0.471968 0.814609 0.350747
O O12 0.692612 0.231557 0.588896
O O13 0.000000 0.338023 0.500000
#
# Coordination Sequence:
#
# PCOD9120036 Si02
#       7
#     4   2   4   2   4   4   4
#     4  10  19  36  60  84 114 154 197 244 291 337
#     4  10  16  34  62  92 104 146 210 248 262 346
#     4  11  21  36  58  87 120 157 186 245 302 346
#     4  12  22  38  60  88 120 158 194 238 302 352
#     4  10  19  35  61  83 116 155 195 239 293 351
#     4  10  16  32  60  92 108 144 207 246 268 347
#     4  10  17  34  62  86 108 152 205 234 275 346
#
# _framework density 17.143128999999998
#
# number of rings (size 3 to 8) (size 9 to 14) (size 15 to 20)
#    0.000    1.667   10.833    0.000    0.000    0.000 
#    1.500    4.167    3.667    0.000    0.000    0.000 
#    0.000    0.000    0.000    0.000    0.000    0.000 
#
# Total GULP energy -66894.832370 kJ/mol
# GULP energy per Si atom -5574.569364 kJ/mol
# Density = 1.710411 g / cm^3
# Si number density = 17.143129 Si / 1000 Ang^3
#
#
#
# Elastic Constant Matrix: (Units=GPa)
#
#
# Indices 1 2 3 4 5 6 
#
# 1 160.4262 43.3094 36.4428 0.0069 -7.6029 -0.0040
# 2 43.3094 93.4673 38.0897 -0.0072 -4.7675 -0.0171
# 3 36.4428 38.0897 84.5658 -0.0229 -5.7117 -0.0331
# 4 0.0069 -0.0072 -0.0229 14.7015 -0.0084 -4.5990
# 5 -7.6029 -4.7675 -5.7117 -0.0084 22.0273 0.0023
# 6 -0.0040 -0.0171 -0.0331 -4.5990 0.0023 19.6317
#
#
#
# Elastic Compliance Matrix: (Units=1/GPa)
#
#
# Indices 1 2 3 4 5 6 
#
# 1 0.007443 -0.002580 -0.001944 -0.000009 0.001507 -0.000006
# 2 -0.002580 0.014037 -0.005156 0.000002 0.000811 0.000003
# 3 -0.001944 -0.005156 0.015129 0.000032 0.002136 0.000028
# 4 -0.000009 0.000002 0.000032 0.073399 0.000032 0.017195
# 5 0.001507 0.000811 0.002136 0.000032 0.046648 0.000007
# 6 -0.000006 0.000003 0.000028 0.017195 0.000007 0.054966
#
#
# Mechanical properties :
#
#
# Convention : Reuss Voigt Hill
#
# Bulk Modulus (GPa) = 57.97040 63.79369 60.88205
# Shear Modulus (GPa) = 21.12103 25.97992 23.55048
#
# Velocity S-wave (km/s) = 3.51385 3.89713 3.71044
# Velocity P-wave (km/s) = 7.09590 7.58573 7.34490
#
# Compressibility (1/GPa) = 0.01725018
#
# Stress axis : x y z
#
# Youngs Moduli (GPa) = 134.35847 71.24140 66.09686
#
# Poissons Ratio (x) = 0.18379 0.12847
# Poissons Ratio (y) = 0.34662 0.34079
# Poissons Ratio (z) = 0.26115 0.36731
#
# Static dielectric constant tensor:
#      x y z
#    x 1.629180 0.000000 0.007530 
#    y 0.000000 1.594140 0.000000 
#    z 0.007530 0.000000 1.553480 
# 
# From -- ./inp_files/59810.got.cif
#   From: 2010.05.17/outbox.cif.g08.bks.cpg/sg5_30_cif.got.tgz:59810.got - 2010.06.03 18:56:24.
