data_PCOD9120721
_publ_section_title
;
Structure prediction by ZEFSAII (Michael W. Deem and Ramdas Pophale) SiO2 
 PCOD9120721
Probable space group: C 2
;
_chemical_formula_sum "Si O2"
_cell_formula_units_Z 26
_cell_length_a 8.301178
_cell_length_b 14.346078
_cell_length_c 14.870157
_cell_angle_alpha 90.000000
_cell_angle_beta 42.330490
_cell_angle_gamma 90.000000
_cell_volume 1192.519415
_symmetry_space_group_name_H-M "C 2"
_symmetry_group_IT_number 5
_symmetry_cell_setting 'monoclinic'
loop_
_space_group_symop_operation_xyz
x,y,z
-x,y,-z
1/2+x,1/2+y,z
1/2-x,1/2+y,-z
loop_
_atom_site_type_symbol
_atom_site_label
_atom_site_fract_x
_atom_site_fract_y
_atom_site_fract_z
Si Si1 0.251111 0.300110 0.622024
Si Si2 0.500000 0.528130 0.000000
Si Si3 0.493478 0.063228 0.175496
Si Si4 0.116166 0.973123 0.762549
Si Si5 0.019774 0.126200 0.303962
Si Si6 0.341287 0.995513 0.431112
Si Si7 0.675532 0.874087 0.849363
O O1 0.500000 0.249511 0.500000
O O2 0.058718 0.231623 0.661073
O O3 0.257193 0.396993 0.564848
O O4 0.215528 0.314493 0.742926
O O5 0.578878 0.463913 0.884205
O O6 0.729720 0.586701 0.934788
O O7 0.298403 0.126732 0.210326
O O8 0.408867 0.050854 0.312887
O O9 0.457616 0.966232 0.135838
O O10 0.401675 0.972321 0.628976
O O11 0.933602 0.905788 0.784033
O O12 0.030357 0.077018 0.770528
O O13 0.858653 0.056319 0.433852
O O14 0.500000 0.837361 0.000000
#
# Coordination Sequence:
#
# PCOD9120721 Si02
#       7
#     4   2   4   4   4   4   4
#     4  11  23  40  64  95 133 175 221 277 334 392
#     4  10  18  34  60  94 120 170 226 258 320 394
#     4   9  19  35  64  92 125 167 219 268 319 391
#     4  10  20  35  64  89 124 169 221 266 320 392
#     4  11  22  39  62  94 134 171 217 275 330 390
#     4  10  20  39  64  97 124 168 220 268 328 396
#     4  10  19  38  66  94 129 173 220 271 329 392
#
# _framework density 21.802581
#
# number of rings (size 3 to 8) (size 9 to 14) (size 15 to 20)
#    0.000    1.846    1.538    4.615    0.000    0.000 
#    1.385    9.231    3.385    0.000    0.000    0.000 
#    0.000    0.000    0.000    0.000    0.000    0.000 
#
# Total GULP energy -72517.771675 kJ/mol
# GULP energy per Si atom -5578.290129 kJ/mol
# Density = 2.175296 g / cm^3
# Si number density = 21.802581 Si / 1000 Ang^3
#
#
#
# Elastic Constant Matrix: (Units=GPa)
#
#
# Indices 1 2 3 4 5 6 
#
# 1 138.7719 18.0379 50.5627 0.0000 -36.8302 0.0000
# 2 18.0379 46.0205 19.1984 0.0005 1.6961 0.0001
# 3 50.5627 19.1984 120.5857 0.0012 9.0567 0.0007
# 4 0.0000 0.0005 0.0012 2.0688 -0.0007 -6.8379
# 5 -36.8302 1.6961 9.0567 -0.0007 54.0178 -0.0001
# 6 0.0000 0.0001 0.0007 -6.8379 -0.0001 6.3006
#
#
#
# Elastic Compliance Matrix: (Units=1/GPa)
#
#
# Indices 1 2 3 4 5 6 
#
# 1 0.011875 -0.002814 -0.005212 -0.000004 0.009059 -0.000003
# 2 -0.002814 0.023943 -0.002462 0.000002 -0.002258 0.000002
# 3 -0.005212 -0.002462 0.011273 0.000005 -0.005366 0.000004
# 4 -0.000004 0.000002 0.000005 -0.186840 -0.000006 -0.202772
# 5 0.009059 -0.002258 -0.005366 -0.000006 0.025659 -0.000005
# 6 -0.000003 0.000002 0.000004 -0.202772 -0.000005 -0.061349
#
#
# Mechanical properties :
#
#
# Convention : Reuss Voigt Hill
#
# Bulk Modulus (GPa) = 38.29246 53.44179 45.86712
# Shear Modulus (GPa) = -34.30344 26.98273 -3.66035
#
# Velocity S-wave (km/s) = -3.97087 3.52176 -1.29711
# Velocity P-wave (km/s) = 1.84996 6.41108 4.34048
#
# Compressibility (1/GPa) = 0.02611480
#
# Stress axis : x y z
#
# Youngs Moduli (GPa) = 84.21115 41.76600 88.70610
#
# Poissons Ratio (x) = 0.11754 0.46230
# Poissons Ratio (y) = 0.23698 0.21843
# Poissons Ratio (z) = 0.43887 0.10284
#
# Static dielectric constant tensor:
#      x y z
#    x 1.843020 0.000000 0.004600 
#    y 0.000000 1.774520 0.000000 
#    z 0.004600 0.000000 1.837750 
# 
# From -- ./inp_files/51092.got.cif
#   From: 2010.05.17/outbox.cif.g08.bks.cpg/sg5_26_cif.got.tgz:51092.got - 2010.06.03 18:56:24.
