data_PCOD9120309
_publ_section_title
;
Structure prediction by ZEFSAII (Michael W. Deem and Ramdas Pophale) SiO2 
 PCOD9120309
Probable space group: C 2
;
_chemical_formula_sum "Si O2"
_cell_formula_units_Z 32
_cell_length_a 8.921300
_cell_length_b 19.127933
_cell_length_c 14.245437
_cell_angle_alpha 90.000000
_cell_angle_beta 135.243933
_cell_angle_gamma 90.000000
_cell_volume 1711.591377
_symmetry_space_group_name_H-M "C 2"
_symmetry_group_IT_number 5
_symmetry_cell_setting 'monoclinic'
loop_
_space_group_symop_operation_xyz
x,y,z
-x,y,-z
1/2+x,1/2+y,z
1/2-x,1/2+y,-z
loop_
_atom_site_type_symbol
_atom_site_label
_atom_site_fract_x
_atom_site_fract_y
_atom_site_fract_z
Si Si1 0.141042 0.050040 0.863643
Si Si2 0.262748 0.577897 0.429746
Si Si3 0.246722 0.979861 0.397772
Si Si4 0.027152 0.191472 0.124928
Si Si5 0.953100 0.347831 0.869679
Si Si6 0.983583 0.698433 0.598059
Si Si7 0.971051 0.855967 0.592665
Si Si8 0.472758 0.004769 0.842624
O O1 0.288070 0.026954 0.837974
O O2 0.076098 0.131019 0.855747
O O3 0.302774 0.033135 0.020222
O O4 0.920197 0.005839 0.756749
O O5 0.500000 0.582388 0.500000
O O6 0.278259 0.538540 0.534551
O O7 0.165813 0.653309 0.403592
O O8 0.111802 0.536309 0.291339
O O9 0.500000 0.974092 0.500000
O O10 0.163538 0.907280 0.403763
O O11 0.953558 0.271626 0.115621
O O12 0.279038 0.193485 0.256361
O O13 0.000000 0.179660 0.000000
O O14 0.701326 0.346471 0.740712
O O15 0.010762 0.421599 0.848821
O O16 0.000000 0.357045 0.000000
O O17 0.890955 0.776711 0.547526
O O18 0.000000 0.669096 0.500000
O O19 0.000000 0.885563 0.500000
#
# Coordination Sequence:
#
# PCOD9120309 Si02
#       8
#     4   4   4   4   4   4   4   4
#     4  11  21  37  57  91 119 154 201 246 303 345
#     4  12  22  36  58  86 118 155 204 245 295 363
#     4  12  23  37  60  86 123 153 197 251 306 353
#     4  10  21  35  58  86 118 151 199 249 298 362
#     4  10  17  35  59  85 107 153 201 243 284 355
#     4  10  22  38  59  85 117 156 195 251 303 354
#     4  10  20  38  60  84 114 152 205 243 296 365
#     4  11  21  36  63  87 118 157 204 252 284 362
#
# _framework density 18.696051000000001
#
# number of rings (size 3 to 8) (size 9 to 14) (size 15 to 20)
#    0.000    1.250    3.750    3.750    0.000    0.500 
#    0.000    0.000    2.750    0.000    9.750    0.000 
#    0.000    0.000    0.000    0.000    0.000    0.000 
#
# Total GULP energy -89151.575135 kJ/mol
# GULP energy per Si atom -5571.973446 kJ/mol
# Density = 1.865350 g / cm^3
# Si number density = 18.696051 Si / 1000 Ang^3
#
#
#
# Elastic Constant Matrix: (Units=GPa)
#
#
# Indices 1 2 3 4 5 6 
#
# 1 37.2157 43.3125 25.0305 0.0000 14.5667 0.0000
# 2 43.3125 132.8486 13.6763 0.0000 14.3070 0.0000
# 3 25.0305 13.6763 124.4976 -0.0001 9.7608 0.0001
# 4 0.0000 0.0000 -0.0001 30.8478 0.0000 -8.3105
# 5 14.5667 14.3070 9.7608 0.0000 25.9493 0.0000
# 6 0.0000 0.0000 0.0001 -8.3105 0.0000 12.8754
#
#
#
# Elastic Compliance Matrix: (Units=1/GPa)
#
#
# Indices 1 2 3 4 5 6 
#
# 1 0.060187 -0.016421 -0.008612 0.000000 -0.021493 0.000000
# 2 -0.016421 0.012520 0.001798 0.000000 0.001639 0.000000
# 3 -0.008612 0.001798 0.009546 0.000000 0.000252 0.000000
# 4 0.000000 0.000000 0.000000 0.039241 0.000000 0.025328
# 5 -0.021493 0.001639 0.000252 0.000000 0.049603 0.000000
# 6 0.000000 0.000000 0.000000 0.025328 0.000000 0.094016
#
#
# Mechanical properties :
#
#
# Convention : Reuss Voigt Hill
#
# Bulk Modulus (GPa) = 27.94702 50.95559 39.45131
# Shear Modulus (GPa) = 15.45548 28.10401 21.77975
#
# Velocity S-wave (km/s) = 2.87831 3.88133 3.41682
# Velocity P-wave (km/s) = 5.10164 6.88478 6.05916
#
# Compressibility (1/GPa) = 0.03578199
#
# Stress axis : x y z
#
# Youngs Moduli (GPa) = 16.61502 79.87489 104.75134
#
# Poissons Ratio (x) = 1.31165 0.90208
# Poissons Ratio (y) = 0.27284 -0.18831
# Poissons Ratio (z) = 0.14308 -0.14359
#
# Static dielectric constant tensor:
#      x y z
#    x 1.650030 0.000000 0.001750 
#    y 0.000000 1.712370 0.000000 
#    z 0.001750 0.000000 1.622650 
# 
# From -- ./inp_files/51586.got.cif
#   From: 2010.05.17/outbox.cif.g08.bks.cpg/sg5_26_cif.got.tgz:51586.got - 2010.06.03 18:56:24.
