data_PCOD9120435
_publ_section_title
;
Structure prediction by ZEFSAII (Michael W. Deem and Ramdas Pophale) SiO2 
 PCOD9120435
Probable space group: C 2
;
_chemical_formula_sum "Si O2"
_cell_formula_units_Z 26
_cell_length_a 6.905287
_cell_length_b 20.825712
_cell_length_c 9.813503
_cell_angle_alpha 90.000000
_cell_angle_beta 127.597146
_cell_angle_gamma 90.000000
_cell_volume 1118.166017
_symmetry_space_group_name_H-M "C 2"
_symmetry_group_IT_number 5
_symmetry_cell_setting 'monoclinic'
loop_
_space_group_symop_operation_xyz
x,y,z
-x,y,-z
1/2+x,1/2+y,z
1/2-x,1/2+y,-z
loop_
_atom_site_type_symbol
_atom_site_label
_atom_site_fract_x
_atom_site_fract_y
_atom_site_fract_z
Si Si1 0.483810 0.582250 0.237302
Si Si2 0.814315 0.498970 0.544855
Si Si3 0.859496 0.583182 0.138236
Si Si4 0.584542 0.222916 0.773335
Si Si5 0.207409 0.355522 0.365457
Si Si6 0.373615 0.720536 0.608137
Si Si7 0.000000 0.320638 0.000000
O O1 0.569063 0.529141 0.380299
O O2 0.675567 0.584116 0.190739
O O3 0.488352 0.652200 0.314051
O O4 0.250722 0.561245 0.051225
O O5 0.807889 0.423863 0.570780
O O6 0.000000 0.508585 0.500000
O O7 0.918459 0.541413 0.712415
O O8 0.902945 0.658420 0.136145
O O9 0.722747 0.218110 0.686794
O O10 0.303634 0.223939 0.600262
O O11 0.757774 0.275506 0.922873
O O12 0.500000 0.338357 0.500000
O O13 0.045822 0.295486 0.351504
O O14 0.100010 0.361949 0.167785
#
# Coordination Sequence:
#
# PCOD9120435 Si02
#       7
#     4   4   4   4   4   4   2
#     4   9  16  28  50  72 100 128 166 215 261 294
#     4  10  21  34  50  74 108 137 171 205 252 311
#     4   9  15  26  46  74  99 125 161 212 264 293
#     4   9  13  24  46  74  99 119 160 218 266 286
#     4  11  21  34  51  76 107 140 170 208 259 306
#     4   9  14  27  48  74  98 126 165 218 258 293
#     4  10  18  30  50  78 106 128 168 222 262 300
#
# _framework density 23.252361000000001
#
# number of rings (size 3 to 8) (size 9 to 14) (size 15 to 20)
#    0.000    2.462    4.615    2.769    0.000    1.231 
#    0.000    0.000    0.000    0.923    0.000    0.000 
#    0.000    0.000    0.000    0.000    0.000    0.000 
#
# Total GULP energy -72373.135724 kJ/mol
# GULP energy per Si atom -5567.164286 kJ/mol
# Density = 2.319944 g / cm^3
# Si number density = 23.252361 Si / 1000 Ang^3
#
#
#
# Elastic Constant Matrix: (Units=GPa)
#
#
# Indices 1 2 3 4 5 6 
#
# 1 64.0052 13.1621 31.2777 0.0000 3.4784 0.0000
# 2 13.1621 126.9125 70.6821 0.0000 -17.2268 0.0000
# 3 31.2777 70.6821 216.5587 0.0000 -19.4437 0.0000
# 4 0.0000 0.0000 0.0000 15.4114 0.0000 -5.3743
# 5 3.4784 -17.2268 -19.4437 0.0000 22.5003 0.0000
# 6 0.0000 0.0000 0.0000 -5.3743 0.0000 19.6220
#
#
#
# Elastic Compliance Matrix: (Units=1/GPa)
#
#
# Indices 1 2 3 4 5 6 
#
# 1 0.017487 -0.001114 -0.002690 0.000000 -0.005881 0.000000
# 2 -0.001114 0.010261 -0.002675 0.000000 0.005716 0.000000
# 3 -0.002690 -0.002675 0.006215 0.000000 0.003739 0.000000
# 4 0.000000 0.000000 0.000000 0.071739 0.000000 0.019649
# 5 -0.005881 0.005716 0.003739 0.000000 0.052960 0.000000
# 6 0.000000 0.000000 0.000000 0.019649 0.000000 0.056345
#
#
# Mechanical properties :
#
#
# Convention : Reuss Voigt Hill
#
# Bulk Modulus (GPa) = 47.60702 70.85780 59.23241
# Shear Modulus (GPa) = 21.27973 30.99704 26.13839
#
# Velocity S-wave (km/s) = 3.02845 3.65508 3.35642
# Velocity P-wave (km/s) = 5.72252 6.95359 6.36787
#
# Compressibility (1/GPa) = 0.02100530
#
# Stress axis : x y z
#
# Youngs Moduli (GPa) = 57.18560 97.46044 160.90251
#
# Poissons Ratio (x) = 0.10852 0.43286
# Poissons Ratio (y) = 0.06368 0.43039
# Poissons Ratio (z) = 0.15384 0.26069
#
# Static dielectric constant tensor:
#      x y z
#    x 2.045550 0.000000 0.091910 
#    y 0.000000 1.852590 0.000000 
#    z 0.091910 0.000000 1.906930 
# 
# From -- ./inp_files/53515.got.cif
#   From: 2010.05.17/outbox.cif.g08.bks.cpg/sg5_27_cif.got.tgz:53515.got - 2010.06.03 18:56:24.
