data_PCOD9120754
_publ_section_title
;
Structure prediction by ZEFSAII (Michael W. Deem and Ramdas Pophale) SiO2 
 PCOD9120754
Probable space group: C 2
;
_chemical_formula_sum "Si O2"
_cell_formula_units_Z 28
_cell_length_a 8.395874
_cell_length_b 12.052191
_cell_length_c 14.365617
_cell_angle_alpha 90.000000
_cell_angle_beta 50.196156
_cell_angle_gamma 90.000000
_cell_volume 1116.743526
_symmetry_space_group_name_H-M "C 2"
_symmetry_group_IT_number 5
_symmetry_cell_setting 'monoclinic'
loop_
_space_group_symop_operation_xyz
x,y,z
-x,y,-z
1/2+x,1/2+y,z
1/2-x,1/2+y,-z
loop_
_atom_site_type_symbol
_atom_site_label
_atom_site_fract_x
_atom_site_fract_y
_atom_site_fract_z
Si Si1 0.871883 0.012100 0.373469
Si Si2 0.565786 0.853273 0.201509
Si Si3 0.146333 0.302230 0.369344
Si Si4 0.000000 0.893284 0.500000
Si Si5 0.585308 0.217455 0.168465
Si Si6 0.685524 0.951685 0.859482
Si Si7 0.233746 0.698891 0.303547
Si Si8 0.500000 0.268050 0.000000
O O1 0.748674 0.118979 0.385804
O O2 0.752456 0.910994 0.370534
O O3 0.878665 0.977390 0.477956
O O4 0.106108 0.019532 0.243197
O O5 0.519558 0.840856 0.327252
O O6 0.444626 0.943865 0.188281
O O7 0.465971 0.741554 0.196627
O O8 0.811566 0.847697 0.101316
O O9 0.338787 0.226353 0.273235
O O10 0.000000 0.249025 0.500000
O O11 0.106547 0.807951 0.385734
O O12 0.711688 0.334562 0.140404
O O13 0.656874 0.149829 0.233757
O O14 0.590922 0.201090 0.054856
O O15 0.500000 0.979871 0.000000
#
# Coordination Sequence:
#
# PCOD9120754 Si02
#       8
#     4   4   4   2   4   4   4   2
#     4  11  25  44  69 105 140 192 250 290 376 438
#     4  10  20  36  67  96 136 183 238 292 358 430
#     4  10  20  37  62  99 135 178 233 289 351 431
#     4  12  22  48  74 102 154 188 232 312 364 436
#     4   9  19  36  66  98 136 183 245 292 360 432
#     4  10  18  38  68  95 140 191 235 298 363 425
#     4  11  24  44  68 103 141 196 240 304 365 437
#     4  10  18  34  66 106 132 184 246 288 358 440
#
# _framework density 25.072900000000001
#
# number of rings (size 3 to 8) (size 9 to 14) (size 15 to 20)
#    0.000    1.714    5.714    0.857    1.000    0.000 
#    5.143    2.857    3.143    0.000    0.000    0.000 
#    0.000    0.000    0.000    0.000    0.000    0.000 
#
# Total GULP energy -78076.470281 kJ/mol
# GULP energy per Si atom -5576.890734 kJ/mol
# Density = 2.501583 g / cm^3
# Si number density = 25.072900 Si / 1000 Ang^3
#
#
#
# Elastic Constant Matrix: (Units=GPa)
#
#
# Indices 1 2 3 4 5 6 
#
# 1 179.7285 26.3042 49.5630 0.0000 46.0195 0.0000
# 2 26.3042 51.7988 1.2407 0.0000 8.5450 0.0000
# 3 49.5630 1.2407 127.5164 0.0000 1.9587 0.0000
# 4 0.0000 0.0000 0.0000 5.6744 0.0000 12.5415
# 5 46.0195 8.5450 1.9587 0.0000 66.0236 0.0000
# 6 0.0000 0.0000 0.0000 12.5415 0.0000 33.5521
#
#
#
# Elastic Compliance Matrix: (Units=1/GPa)
#
#
# Indices 1 2 3 4 5 6 
#
# 1 0.008227 -0.003242 -0.003086 0.000000 -0.005223 0.000000
# 2 -0.003242 0.021007 0.001063 0.000000 -0.000491 0.000000
# 3 -0.003086 0.001063 0.009004 0.000000 0.001746 0.000000
# 4 0.000000 0.000000 0.000000 1.013667 0.000000 -0.378901
# 5 -0.005223 -0.000491 0.001746 0.000000 0.018798 0.000000
# 6 0.000000 0.000000 0.000000 -0.378901 0.000000 0.171435
#
#
# Mechanical properties :
#
#
# Convention : Reuss Voigt Hill
#
# Bulk Modulus (GPa) = 36.08918 57.02884 46.55901
# Shear Modulus (GPa) = 3.96227 39.84574 21.90401
#
# Velocity S-wave (km/s) = 1.25846 3.99080 2.95890
# Velocity P-wave (km/s) = 4.06652 6.63550 5.50302
#
# Compressibility (1/GPa) = 0.02770913
#
# Stress axis : x y z
#
# Youngs Moduli (GPa) = 121.55442 47.60245 111.05744
#
# Poissons Ratio (x) = 0.15433 0.34270
# Poissons Ratio (y) = 0.39410 -0.11809
# Poissons Ratio (z) = 0.37509 -0.05061
#
# Static dielectric constant tensor:
#      x y z
#    x 1.994870 0.000000 0.024870 
#    y 0.000000 2.047270 0.000000 
#    z 0.024870 0.000000 2.046460 
# 
# From -- ./inp_files/50904.got.cif
#   From: 2010.05.17/outbox.cif.g08.bks.cpg/sg5_26_cif.got.tgz:50904.got - 2010.06.03 18:56:24.
