data_PCOD9120441
_publ_section_title
;
Structure prediction by ZEFSAII (Michael W. Deem and Ramdas Pophale) SiO2 
 PCOD9120441
Probable space group: C 2
;
_chemical_formula_sum "Si O2"
_cell_formula_units_Z 32
_cell_length_a 21.276979
_cell_length_b 7.196432
_cell_length_c 12.206241
_cell_angle_alpha 90.000000
_cell_angle_beta 123.784889
_cell_angle_gamma 90.000000
_cell_volume 1553.383522
_symmetry_space_group_name_H-M "C 2"
_symmetry_group_IT_number 5
_symmetry_cell_setting 'monoclinic'
loop_
_space_group_symop_operation_xyz
x,y,z
-x,y,-z
1/2+x,1/2+y,z
1/2-x,1/2+y,-z
loop_
_atom_site_type_symbol
_atom_site_label
_atom_site_fract_x
_atom_site_fract_y
_atom_site_fract_z
Si Si1 0.788785 0.755100 0.413023
Si Si2 0.347687 0.778737 0.152211
Si Si3 0.899795 0.686199 0.161437
Si Si4 0.799744 0.712877 0.874359
Si Si5 0.755197 0.275509 0.863660
Si Si6 0.726156 0.694432 0.590177
Si Si7 0.578789 0.699489 0.558210
Si Si8 0.540572 0.294627 0.430068
O O1 0.750009 0.690517 0.262842
O O2 0.745550 0.712555 0.482717
O O3 0.877227 0.706171 0.507226
O O4 0.786685 0.977561 0.401196
O O5 0.267381 0.827570 0.131843
O O6 0.389163 0.663630 0.287816
O O7 0.395759 0.963190 0.174956
O O8 0.318412 0.695978 0.008755
O O9 0.828745 0.757042 0.166301
O O10 0.979841 0.764218 0.276354
O O11 0.876678 0.736735 0.014993
O O12 0.776673 0.495346 0.874992
O O13 0.792927 0.749477 0.738767
O O14 0.648192 0.786400 0.557396
O O15 0.500000 0.804909 0.500000
O O16 0.555793 0.512156 0.471615
O O17 0.500000 0.221916 0.500000
#
# Coordination Sequence:
#
# PCOD9120441 Si02
#       8
#     4   4   4   4   4   4   4   4
#     4  10  19  34  54  75 106 144 180 218 262 320
#     4   9  18  31  51  84 109 130 179 228 261 310
#     4  10  18  30  52  84 109 133 182 231 261 312
#     4   8  17  33  52  76 110 145 175 214 275 319
#     4   9  17  32  55  76 108 146 174 215 268 318
#     4   9  19  35  54  75 105 141 180 215 262 323
#     4   9  19  35  56  77 106 144 172 214 278 323
#     4  10  19  33  54  78 111 144 174 213 280 323
#
# _framework density 20.600190999999999
#
# number of rings (size 3 to 8) (size 9 to 14) (size 15 to 20)
#    0.000    2.750    1.250    0.750    3.500    2.500 
#    2.250    0.625    0.000    0.750    0.000    0.000 
#    0.000    0.000    0.000    0.000    0.000    0.000 
#
# Total GULP energy -89147.837344 kJ/mol
# GULP energy per Si atom -5571.739834 kJ/mol
# Density = 2.055330 g / cm^3
# Si number density = 20.600191 Si / 1000 Ang^3
#
#
#
# Elastic Constant Matrix: (Units=GPa)
#
#
# Indices 1 2 3 4 5 6 
#
# 1 88.3205 -5.1269 72.5382 0.0000 -6.6500 0.0000
# 2 -5.1269 61.7137 22.2777 0.0000 10.6095 0.0000
# 3 72.5382 22.2777 230.9085 0.0000 3.1202 0.0000
# 4 0.0000 0.0000 0.0000 23.7780 0.0000 2.9329
# 5 -6.6500 10.6095 3.1202 0.0000 33.2713 0.0000
# 6 0.0000 0.0000 0.0000 2.9329 0.0000 15.2245
#
#
#
# Elastic Compliance Matrix: (Units=1/GPa)
#
#
# Indices 1 2 3 4 5 6 
#
# 1 0.016105 0.002788 -0.005367 0.000000 0.002833 0.000000
# 2 0.002788 0.018224 -0.002566 0.000000 -0.005013 0.000000
# 3 -0.005367 -0.002566 0.006276 0.000000 -0.000843 0.000000
# 4 0.000000 0.000000 0.000000 0.043079 0.000000 -0.008299
# 5 0.002833 -0.005013 -0.000843 0.000000 0.032300 0.000000
# 6 0.000000 0.000000 0.000000 -0.008299 0.000000 0.067282
#
#
# Mechanical properties :
#
#
# Convention : Reuss Voigt Hill
#
# Bulk Modulus (GPa) = 32.98707 62.25788 47.62247
# Shear Modulus (GPa) = 24.55065 33.87167 29.21116
#
# Velocity S-wave (km/s) = 3.45594 4.05932 3.76972
# Velocity P-wave (km/s) = 5.65442 7.22900 6.48964
#
# Compressibility (1/GPa) = 0.03031491
#
# Stress axis : x y z
#
# Youngs Moduli (GPa) = 62.09177 54.87347 159.34769
#
# Poissons Ratio (x) = -0.15299 0.85516
# Poissons Ratio (y) = -0.17312 0.40894
# Poissons Ratio (z) = 0.33322 0.14082
#
# Static dielectric constant tensor:
#      x y z
#    x 1.740840 0.000000 -0.011970 
#    y 0.000000 1.846960 0.000000 
#    z -0.011970 0.000000 1.803980 
# 
# From -- ./inp_files/46150.got.cif
#   From: 2010.05.17/outbox.cif.g08.bks.cpg/sg5_24_cif.got.tgz:46150.got - 2010.06.03 18:56:24.
