data_PCOD9120306
_publ_section_title
;
Structure prediction by ZEFSAII (Michael W. Deem and Ramdas Pophale) SiO2 
 PCOD9120306
Probable space group: C 2
;
_chemical_formula_sum "Si O2"
_cell_formula_units_Z 32
_cell_length_a 23.195830
_cell_length_b 17.133660
_cell_length_c 10.492913
_cell_angle_alpha 90.000000
_cell_angle_beta 154.533783
_cell_angle_gamma 90.000000
_cell_volume 1793.094642
_symmetry_space_group_name_H-M "C 2"
_symmetry_group_IT_number 5
_symmetry_cell_setting 'monoclinic'
loop_
_space_group_symop_operation_xyz
x,y,z
-x,y,-z
1/2+x,1/2+y,z
1/2-x,1/2+y,-z
loop_
_atom_site_type_symbol
_atom_site_label
_atom_site_fract_x
_atom_site_fract_y
_atom_site_fract_z
Si Si1 0.355851 0.278780 0.578827
Si Si2 0.531642 0.113439 0.429151
Si Si3 0.731843 0.219155 0.120112
Si Si4 0.776012 0.232181 0.929886
Si Si5 0.159877 0.838458 0.183552
Si Si6 0.486825 0.615757 0.620247
Si Si7 0.896298 0.015880 0.912110
Si Si8 0.387206 0.092202 0.673574
O O1 0.271307 0.285896 0.280567
O O2 0.296023 0.319675 0.583965
O O3 0.373378 0.186544 0.641800
O O4 0.504274 0.312754 0.859837
O O5 0.500000 0.072679 0.500000
O O6 0.670037 0.160478 0.720652
O O7 0.555371 0.065455 0.349082
O O8 0.414266 0.177682 0.173683
O O9 0.738103 0.282633 0.243442
O O10 0.838095 0.148876 0.345516
O O11 0.763162 0.261756 0.048215
O O12 0.917870 0.192324 0.187310
O O13 0.155873 0.930291 0.153289
O O14 0.500000 0.584711 0.500000
O O15 0.536017 0.558666 0.830777
O O16 0.762063 0.061478 0.602741
O O17 0.000000 0.010523 0.000000
O O18 0.500000 0.071174 0.000000
#
# Coordination Sequence:
#
# PCOD9120306 Si02
#       8
#     4   4   4   4   4   4   4   4
#     4  10  17  35  58  79 110 149 192 239 274 333
#     4   9  16  30  56  87 107 140 193 243 275 331
#     4  10  19  33  63  87 110 146 204 239 293 350
#     4   9  17  34  58  89 110 144 200 249 281 341
#     4  11  21  38  56  87 117 150 192 251 289 355
#     4  10  22  39  58  91 123 156 197 254 299 360
#     4  12  26  40  56  87 131 159 193 248 314 354
#     4  11  20  37  63  83 110 154 203 241 286 355
#
# _framework density 17.846240000000002
#
# number of rings (size 3 to 8) (size 9 to 14) (size 15 to 20)
#    0.000    1.750    7.500    0.000    3.500    0.000 
#    2.250    1.250    0.000    2.250    0.000    0.000 
#    0.000    0.000    0.000    0.000    0.000    0.000 
#
# Total GULP energy -89118.438443 kJ/mol
# GULP energy per Si atom -5569.902403 kJ/mol
# Density = 1.780562 g / cm^3
# Si number density = 17.846240 Si / 1000 Ang^3
#
#
#
# Elastic Constant Matrix: (Units=GPa)
#
#
# Indices 1 2 3 4 5 6 
#
# 1 121.1529 11.2674 12.9602 0.0000 -17.7534 0.0000
# 2 11.2674 43.8552 5.5759 0.0000 -5.1506 0.0000
# 3 12.9602 5.5759 51.9812 0.0000 -15.0869 0.0000
# 4 0.0000 0.0000 0.0000 18.7963 0.0000 -2.1087
# 5 -17.7534 -5.1506 -15.0869 0.0000 19.9024 0.0000
# 6 0.0000 0.0000 0.0000 -2.1087 0.0000 4.3696
#
#
#
# Elastic Compliance Matrix: (Units=1/GPa)
#
#
# Indices 1 2 3 4 5 6 
#
# 1 0.009592 -0.001512 0.000180 0.000000 0.008301 0.000000
# 2 -0.001512 0.023794 -0.001000 0.000000 0.004051 0.000000
# 3 0.000180 -0.001000 0.024708 0.000000 0.018631 0.000000
# 4 0.000000 0.000000 0.000000 0.056247 0.000000 0.027145
# 5 0.008301 0.004051 0.018631 0.000000 0.072822 0.000000
# 6 0.000000 0.000000 0.000000 0.027145 0.000000 0.241957
#
#
# Mechanical properties :
#
#
# Convention : Reuss Voigt Hill
#
# Bulk Modulus (GPa) = 18.71625 30.73295 24.72460
# Shear Modulus (GPa) = 11.07194 21.09271 16.08233
#
# Velocity S-wave (km/s) = 2.49350 3.44163 3.00519
# Velocity P-wave (km/s) = 4.33593 5.74904 5.09175
#
# Compressibility (1/GPa) = 0.05342950
#
# Stress axis : x y z
#
# Youngs Moduli (GPa) = 104.25508 42.02797 40.47352
#
# Poissons Ratio (x) = 0.06356 -0.00729
# Poissons Ratio (y) = 0.15767 0.04045
# Poissons Ratio (z) = -0.01877 0.04201
#
# Static dielectric constant tensor:
#      x y z
#    x 1.699750 0.000000 -0.033830 
#    y 0.000000 1.566980 0.000000 
#    z -0.033830 0.000000 1.620370 
# 
# From -- ./inp_files/47577.got.cif
#   From: 2010.05.17/outbox.cif.g08.bks.cpg/sg5_24_cif.got.tgz:47577.got - 2010.06.03 18:56:24.
