data_PCOD9120465
_publ_section_title
;
Structure prediction by ZEFSAII (Michael W. Deem and Ramdas Pophale) SiO2 
 PCOD9120465
Probable space group: C 2
;
_chemical_formula_sum "Si O2"
_cell_formula_units_Z 32
_cell_length_a 24.682749
_cell_length_b 14.565827
_cell_length_c 5.332160
_cell_angle_alpha 90.000000
_cell_angle_beta 102.039380
_cell_angle_gamma 90.000000
_cell_volume 1874.876591
_symmetry_space_group_name_H-M "C 2"
_symmetry_group_IT_number 5
_symmetry_cell_setting 'monoclinic'
loop_
_space_group_symop_operation_xyz
x,y,z
-x,y,-z
1/2+x,1/2+y,z
1/2-x,1/2+y,-z
loop_
_atom_site_type_symbol
_atom_site_label
_atom_site_fract_x
_atom_site_fract_y
_atom_site_fract_z
Si Si1 0.436042 0.296380 0.450169
Si Si2 0.834356 0.902983 0.193213
Si Si3 0.778264 0.089610 0.123928
Si Si4 0.348455 0.014322 0.931457
Si Si5 0.318189 0.949404 0.406057
Si Si6 0.434775 0.177193 0.951338
Si Si7 0.751131 0.139671 0.594351
Si Si8 0.283886 0.326544 0.649362
O O1 0.500000 0.324131 0.500000
O O2 0.395549 0.379937 0.347292
O O3 0.424920 0.246394 0.706253
O O4 0.427096 0.225304 0.213467
O O5 0.799398 0.883245 0.413231
O O6 0.817088 0.004506 0.092677
O O7 0.819986 0.841309 0.934811
O O8 0.714344 0.055594 0.103371
O O9 0.794797 0.124731 0.413809
O O10 0.775763 0.160128 0.891750
O O11 0.347528 0.943767 0.701170
O O12 0.392208 0.093071 0.907891
O O13 0.357349 0.966444 0.207344
O O14 0.281969 0.044415 0.394290
O O15 0.276189 0.865544 0.330135
O O16 0.500000 0.150047 0.000000
O O17 0.715138 0.222958 0.451593
#
# Coordination Sequence:
#
# PCOD9120465 Si02
#       8
#     4   4   4   4   4   4   4   4
#     4  10  23  36  49  74 103 138 188 221 247 308
#     4  12  21  34  52  70 105 139 179 213 263 300
#     4  10  19  34  45  72 101 130 172 219 249 312
#     4  10  18  31  49  65 101 135 161 214 263 281
#     4  10  19  33  45  72 105 127 176 216 247 316
#     4  10  21  36  51  74 104 140 186 219 247 310
#     4  10  20  31  47  67 104 130 170 205 252 313
#     4  12  21  33  50  76 100 144 174 205 268 322
#
# _framework density 17.067789000000001
#
# number of rings (size 3 to 8) (size 9 to 14) (size 15 to 20)
#    0.000    1.500    5.000    2.250   10.500    0.000 
#    0.000    0.000    0.000    0.000    0.000    0.000 
#    0.000    4.000    0.000    0.125    0.000    0.000 
#
# Total GULP energy -89093.905949 kJ/mol
# GULP energy per Si atom -5568.369122 kJ/mol
# Density = 1.702894 g / cm^3
# Si number density = 17.067789 Si / 1000 Ang^3
#
#
#
# Elastic Constant Matrix: (Units=GPa)
#
#
# Indices 1 2 3 4 5 6 
#
# 1 54.6256 16.5692 30.0807 0.0000 5.9748 0.0000
# 2 16.5692 22.8286 13.6427 0.0000 7.1443 0.0000
# 3 30.0807 13.6427 140.9734 0.0000 -19.3914 0.0000
# 4 0.0000 0.0000 0.0000 26.0793 0.0000 3.3030
# 5 5.9748 7.1443 -19.3914 0.0000 29.1427 0.0000
# 6 0.0000 0.0000 0.0000 3.3030 0.0000 14.1052
#
#
#
# Elastic Compliance Matrix: (Units=1/GPa)
#
#
# Indices 1 2 3 4 5 6 
#
# 1 0.025849 -0.014320 -0.004817 0.000000 -0.004994 0.000000
# 2 -0.014320 0.062179 -0.005124 0.000000 -0.015717 0.000000
# 3 -0.004817 -0.005124 0.009825 0.000000 0.008781 0.000000
# 4 0.000000 0.000000 0.000000 0.039517 0.000000 -0.009253
# 5 -0.004994 -0.015717 0.008781 0.000000 0.045034 0.000000
# 6 0.000000 0.000000 0.000000 -0.009253 0.000000 0.073063
#
#
# Mechanical properties :
#
#
# Convention : Reuss Voigt Hill
#
# Bulk Modulus (GPa) = 20.27080 37.66810 28.96945
# Shear Modulus (GPa) = 15.60404 24.40774 20.00589
#
# Velocity S-wave (km/s) = 3.02692 3.78570 3.42737
# Velocity P-wave (km/s) = 4.91108 6.42077 5.71599
#
# Compressibility (1/GPa) = 0.04933203
#
# Stress axis : x y z
#
# Youngs Moduli (GPa) = 38.68681 16.08268 101.78085
#
# Poissons Ratio (x) = 0.23030 0.49024
# Poissons Ratio (y) = 0.55399 0.52149
# Poissons Ratio (z) = 0.18634 0.08240
#
# Static dielectric constant tensor:
#      x y z
#    x 1.586580 0.000000 -0.012410 
#    y 0.000000 1.621710 0.000000 
#    z -0.012410 0.000000 1.777430 
# 
# From -- ./inp_files/10447.got.cif
#   From: 2010.05.17/outbox.cif.g08.bks.cpg/sg5_6_cif.got.tgz:10447.got - 2010.06.03 18:56:24.
