data_PCOD9120340
_publ_section_title
;
Structure prediction by ZEFSAII (Michael W. Deem and Ramdas Pophale) SiO2 
 PCOD9120340
Probable space group: C 2
;
_chemical_formula_sum "Si O2"
_cell_formula_units_Z 26
_cell_length_a 7.110343
_cell_length_b 14.532379
_cell_length_c 11.833975
_cell_angle_alpha 90.000000
_cell_angle_beta 119.338498
_cell_angle_gamma 90.000000
_cell_volume 1065.970077
_symmetry_space_group_name_H-M "C 2"
_symmetry_group_IT_number 5
_symmetry_cell_setting 'monoclinic'
loop_
_space_group_symop_operation_xyz
x,y,z
-x,y,-z
1/2+x,1/2+y,z
1/2-x,1/2+y,-z
loop_
_atom_site_type_symbol
_atom_site_label
_atom_site_fract_x
_atom_site_fract_y
_atom_site_fract_z
Si Si1 0.249927 0.854980 0.971796
Si Si2 0.703707 0.560514 0.907328
Si Si3 0.549133 0.255585 0.713982
Si Si4 0.525805 0.918951 0.377326
Si Si5 0.461122 0.745950 0.228066
Si Si6 0.500000 0.381188 0.500000
Si Si7 0.549537 0.069843 0.813982
O O1 0.082873 0.802602 0.843273
O O2 0.157804 0.958334 0.938949
O O3 0.500000 0.857936 0.000000
O O4 0.290050 0.797756 0.096985
O O5 0.572741 0.636986 0.798893
O O6 0.884386 0.541162 0.863653
O O7 0.762535 0.606636 0.046754
O O8 0.435460 0.317832 0.587655
O O9 0.466813 0.153410 0.712648
O O10 0.792815 0.254299 0.739114
O O11 0.500000 0.945020 0.500000
O O12 0.459306 0.812237 0.337359
O O13 0.777028 0.934060 0.412842
O O14 0.398050 0.985738 0.253416
#
# Coordination Sequence:
#
# PCOD9120340 Si02
#       7
#     4   4   4   4   4   2   4
#     4  10  17  36  64  88 129 172 213 279 344 396
#     4  11  20  37  68  97 132 174 220 284 352 405
#     4  10  22  40  64  91 132 175 224 281 337 402
#     4  11  25  48  71  98 140 184 236 279 338 417
#     4  10  21  40  67  97 130 174 225 282 345 406
#     4  10  24  46  66  92 136 196 228 272 342 406
#     4  11  22  39  64 100 133 169 224 285 343 405
#
# _framework density 24.390927999999999
#
# number of rings (size 3 to 8) (size 9 to 14) (size 15 to 20)
#    0.000    1.538    4.615    1.846    3.231    0.000 
#    5.538    0.000    5.077    0.000    0.000    0.000 
#    0.000    0.000    0.000    0.000    0.000    0.000 
#
# Total GULP energy -72443.755484 kJ/mol
# GULP energy per Si atom -5572.596576 kJ/mol
# Density = 2.433541 g / cm^3
# Si number density = 24.390928 Si / 1000 Ang^3
#
#
#
# Elastic Constant Matrix: (Units=GPa)
#
#
# Indices 1 2 3 4 5 6 
#
# 1 68.0801 5.8805 23.7610 0.0000 -16.2999 0.0000
# 2 5.8805 95.4824 12.4918 0.0000 3.5156 0.0000
# 3 23.7610 12.4918 100.5641 0.0000 -12.3198 0.0000
# 4 0.0000 0.0000 0.0000 26.5803 0.0000 -2.0616
# 5 -16.2999 3.5156 -12.3198 0.0000 28.4240 0.0000
# 6 0.0000 0.0000 0.0000 -2.0616 0.0000 12.3088
#
#
#
# Elastic Compliance Matrix: (Units=1/GPa)
#
#
# Indices 1 2 3 4 5 6 
#
# 1 0.018022 -0.001054 -0.003005 0.000000 0.009163 0.000000
# 2 -0.001054 0.010816 -0.001407 0.000000 -0.002552 0.000000
# 3 -0.003005 -0.001407 0.011235 0.000000 0.003321 0.000000
# 4 0.000000 0.000000 0.000000 0.038117 0.000000 0.006384
# 5 0.009163 -0.002552 0.003321 0.000000 0.042191 0.000000
# 6 0.000000 0.000000 0.000000 0.006384 0.000000 0.082312
#
#
# Mechanical properties :
#
#
# Convention : Reuss Voigt Hill
#
# Bulk Modulus (GPa) = 34.31525 38.71037 36.51281
# Shear Modulus (GPa) = 22.38742 28.26218 25.32480
#
# Velocity S-wave (km/s) = 3.03290 3.40769 3.22574
# Velocity P-wave (km/s) = 5.13460 5.60253 5.37366
#
# Compressibility (1/GPa) = 0.02914156
#
# Stress axis : x y z
#
# Youngs Moduli (GPa) = 55.48732 92.45457 89.00396
#
# Poissons Ratio (x) = 0.09747 0.26743
# Poissons Ratio (y) = 0.05849 0.12524
# Poissons Ratio (z) = 0.16673 0.13010
#
# Static dielectric constant tensor:
#      x y z
#    x 2.037150 0.000000 0.036890 
#    y 0.000000 1.985530 0.000000 
#    z 0.036890 0.000000 1.944900 
# 
# From -- ./inp_files/36237.got.cif
#   From: 2010.05.17/outbox.cif.g08.bks.cpg/sg5_19_cif.got.tgz:36237.got - 2010.06.03 18:56:24.
