data_PCOD9120556
_publ_section_title
;
Structure prediction by ZEFSAII (Michael W. Deem and Ramdas Pophale) SiO2 
 PCOD9120556
Probable space group: C 2
;
_chemical_formula_sum "Si O2"
_cell_formula_units_Z 30
_cell_length_a 10.310827
_cell_length_b 19.575308
_cell_length_c 11.053071
_cell_angle_alpha 90.000000
_cell_angle_beta 43.727674
_cell_angle_gamma 90.000000
_cell_volume 1542.086023
_symmetry_space_group_name_H-M "C 2"
_symmetry_group_IT_number 5
_symmetry_cell_setting 'monoclinic'
loop_
_space_group_symop_operation_xyz
x,y,z
-x,y,-z
1/2+x,1/2+y,z
1/2-x,1/2+y,-z
loop_
_atom_site_type_symbol
_atom_site_label
_atom_site_fract_x
_atom_site_fract_y
_atom_site_fract_z
Si Si1 0.604394 0.718660 0.558764
Si Si2 0.000000 0.057787 0.000000
Si Si3 0.758376 0.760570 0.082843
Si Si4 0.734236 0.072683 0.577620
Si Si5 0.291748 0.000849 0.145331
Si Si6 0.909013 0.964314 0.291739
Si Si7 0.665702 0.116917 0.085069
Si Si8 0.101813 0.810720 0.747700
O O1 0.500000 0.727457 0.500000
O O2 0.465113 0.750263 0.753029
O O3 0.634405 0.636929 0.546975
O O4 0.798270 0.760368 0.415041
O O5 0.835111 0.106054 0.062875
O O6 0.939973 0.007257 0.148556
O O7 0.825120 0.784699 0.170597
O O8 0.831994 0.686583 0.991408
O O9 0.874849 0.807926 0.911676
O O10 0.753767 0.040479 0.698916
O O11 0.527390 0.104181 0.715942
O O12 0.770192 0.010088 0.464776
O O13 0.500000 0.966438 0.000000
O O14 0.313745 0.058406 0.028589
O O15 0.107488 0.959618 0.230073
O O16 0.838716 0.888357 0.313650
#
# Coordination Sequence:
#
# PCOD9120556 Si02
#       8
#     4   2   4   4   4   4   4   4
#     4  10  18  32  58  91 115 149 202 262 308 360
#     4  10  22  40  54  88 128 170 208 254 332 378
#     4  10  19  36  60  85 117 161 204 257 309 365
#     4  11  20  36  65  96 122 158 217 271 310 367
#     4   9  19  35  61  92 119 162 210 263 312 368
#     4  11  22  39  58  89 132 169 203 267 319 377
#     4  10  20  36  64  93 125 161 208 268 314 370
#     4  10  21  36  56  90 125 159 207 257 317 373
#
# _framework density 19.454167999999999
#
# number of rings (size 3 to 8) (size 9 to 14) (size 15 to 20)
#    0.000    1.867    1.333    5.200    3.733    0.533 
#   14.400    0.000    1.467    3.200    0.000    0.000 
#    0.000    0.000    0.000    0.000    0.000    0.000 
#
# Total GULP energy -83573.315785 kJ/mol
# GULP energy per Si atom -5571.554386 kJ/mol
# Density = 1.940989 g / cm^3
# Si number density = 19.454168 Si / 1000 Ang^3
#
#
#
# Elastic Constant Matrix: (Units=GPa)
#
#
# Indices 1 2 3 4 5 6 
#
# 1 66.3261 25.3503 18.6518 0.0000 1.9407 0.0000
# 2 25.3503 106.8289 45.6386 0.0000 -7.3387 0.0000
# 3 18.6518 45.6386 129.1026 0.0000 -13.3049 0.0000
# 4 0.0000 0.0000 0.0000 18.9078 0.0000 0.4169
# 5 1.9407 -7.3387 -13.3049 0.0000 4.8970 0.0000
# 6 0.0000 0.0000 0.0000 0.4169 0.0000 16.3974
#
#
#
# Elastic Compliance Matrix: (Units=1/GPa)
#
#
# Indices 1 2 3 4 5 6 
#
# 1 0.018478 -0.004508 -0.003510 0.000000 -0.023613 0.000000
# 2 -0.004508 0.012370 -0.002260 0.000000 0.014184 0.000000
# 3 -0.003510 -0.002260 0.012286 0.000000 0.031385 0.000000
# 4 0.000000 0.000000 0.000000 0.052918 0.000000 -0.001345
# 5 -0.023613 0.014184 0.031385 0.000000 0.320095 0.000000
# 6 0.000000 0.000000 0.000000 -0.001345 0.000000 0.061020
#
#
# Mechanical properties :
#
#
# Convention : Reuss Voigt Hill
#
# Bulk Modulus (GPa) = 44.28703 53.50435 48.89569
# Shear Modulus (GPa) = 9.89615 22.21488 16.05551
#
# Velocity S-wave (km/s) = 2.25786 3.38288 2.87592
# Velocity P-wave (km/s) = 5.44164 6.54377 6.01799
#
# Compressibility (1/GPa) = 0.02257997
#
# Stress axis : x y z
#
# Youngs Moduli (GPa) = 54.11920 80.83888 81.39232
#
# Poissons Ratio (x) = 0.36438 0.28566
# Poissons Ratio (y) = 0.24394 0.18394
# Poissons Ratio (z) = 0.18994 0.18269
#
# Static dielectric constant tensor:
#      x y z
#    x 1.735270 0.000000 -0.055480 
#    y 0.000000 1.652320 0.000000 
#    z -0.055480 0.000000 1.735730 
# 
# From -- ./inp_files/40451.got.cif
#   From: 2010.05.17/outbox.cif.g08.bks.cpg/sg5_21_cif.got.tgz:40451.got - 2010.06.03 18:56:24.
