data_PCOD9120788
_publ_section_title
;
Structure prediction by ZEFSAII (Michael W. Deem and Ramdas Pophale) SiO2 
 PCOD9120788
Probable space group: C 2
;
_chemical_formula_sum "Si O2"
_cell_formula_units_Z 30
_cell_length_a 20.530362
_cell_length_b 15.291836
_cell_length_c 12.827389
_cell_angle_alpha 90.000000
_cell_angle_beta 22.613532
_cell_angle_gamma 90.000000
_cell_volume 1548.481179
_symmetry_space_group_name_H-M "C 2"
_symmetry_group_IT_number 5
_symmetry_cell_setting 'monoclinic'
loop_
_space_group_symop_operation_xyz
x,y,z
-x,y,-z
1/2+x,1/2+y,z
1/2-x,1/2+y,-z
loop_
_atom_site_type_symbol
_atom_site_label
_atom_site_fract_x
_atom_site_fract_y
_atom_site_fract_z
Si Si1 0.817906 0.129270 0.950493
Si Si2 0.000000 0.675461 0.500000
Si Si3 0.648283 0.731544 0.695102
Si Si4 0.600345 0.304216 0.510229
Si Si5 0.642250 0.011526 0.037637
Si Si6 0.889099 0.991848 0.477190
Si Si7 0.595307 0.815374 0.107461
Si Si8 0.135243 0.573553 0.710642
O O1 0.882714 0.230024 0.851471
O O2 0.675965 0.125522 0.251602
O O3 0.716999 0.082467 0.006100
O O4 0.978107 0.068488 0.734227
O O5 0.979850 0.734741 0.632985
O O6 0.802947 0.773422 0.530462
O O7 0.564579 0.793960 0.731336
O O8 0.730740 0.647301 0.519256
O O9 0.500000 0.712097 0.000000
O O10 0.521009 0.398288 0.648255
O O11 0.745845 0.314197 0.207216
O O12 0.474786 0.044415 0.225466
O O13 0.601042 0.914138 0.142563
O O14 0.787390 0.003889 0.734920
O O15 0.744550 0.996046 0.602111
O O16 0.000000 0.602407 0.000000
#
# Coordination Sequence:
#
# PCOD9120788 Si02
#       8
#     4   2   4   4   4   4   4   4
#     4  11  21  35  58  83 118 148 190 240 293 341
#     4  10  22  36  54  86 120 148 182 250 296 332
#     4  10  18  35  59  86 111 154 199 239 288 348
#     4   9  19  32  58  84 109 143 201 237 279 339
#     4  10  21  36  60  84 117 152 194 238 295 344
#     4  10  20  35  59  87 108 147 196 241 279 344
#     4   9  19  35  57  87 115 146 193 251 283 332
#     4  10  20  36  56  87 119 150 189 244 294 344
#
# _framework density 19.373823999999999
#
# number of rings (size 3 to 8) (size 9 to 14) (size 15 to 20)
#    0.000    2.133    1.333    2.000    5.600    3.200 
#    0.000    0.000    5.867    1.600    0.000    0.000 
#    0.000    0.000    0.000    0.000    0.000    0.000 
#
# Total GULP energy -83539.148578 kJ/mol
# GULP energy per Si atom -5569.276572 kJ/mol
# Density = 1.932973 g / cm^3
# Si number density = 19.373824 Si / 1000 Ang^3
#
#
#
# Elastic Constant Matrix: (Units=GPa)
#
#
# Indices 1 2 3 4 5 6 
#
# 1 109.0719 61.1343 12.0707 0.0000 -24.0295 0.0001
# 2 61.1343 126.7770 33.1788 0.0006 -9.3031 0.0005
# 3 12.0707 33.1788 58.2503 0.0005 -16.9597 0.0008
# 4 0.0000 0.0006 0.0005 20.1005 0.0000 0.7702
# 5 -24.0295 -9.3031 -16.9597 0.0000 19.3570 -0.0002
# 6 0.0001 0.0005 0.0008 0.7702 -0.0002 19.2996
#
#
#
# Elastic Compliance Matrix: (Units=1/GPa)
#
#
# Indices 1 2 3 4 5 6 
#
# 1 0.020171 -0.010241 0.010083 0.000000 0.028952 0.000000
# 2 -0.010241 0.014470 -0.010466 0.000000 -0.014929 0.000000
# 3 0.010083 -0.010466 0.031171 0.000000 0.034797 -0.000001
# 4 0.000000 0.000000 0.000000 0.049826 0.000000 -0.001989
# 5 0.028952 -0.014929 0.034797 0.000000 0.110914 0.000000
# 6 0.000000 0.000000 -0.000001 -0.001989 0.000000 0.051894
#
#
# Mechanical properties :
#
#
# Convention : Reuss Voigt Hill
#
# Bulk Modulus (GPa) = 22.44052 56.31851 39.37952
# Shear Modulus (GPa) = 15.89580 24.26577 20.08079
#
# Velocity S-wave (km/s) = 2.86751 3.54291 3.22295
# Velocity P-wave (km/s) = 4.75095 6.77265 5.84980
#
# Compressibility (1/GPa) = 0.04456224
#
# Stress axis : x y z
#
# Youngs Moduli (GPa) = 49.57660 69.10904 32.08158
#
# Poissons Ratio (x) = 0.70774 -0.32347
# Poissons Ratio (y) = 0.50771 0.33578
# Poissons Ratio (z) = -0.49987 0.72332
#
# Static dielectric constant tensor:
#      x y z
#    x 1.707740 0.000000 -0.015510 
#    y 0.000000 1.742970 0.000000 
#    z -0.015510 0.000000 1.691230 
# 
# From -- ./inp_files/57804.got.cif
#   From: 2010.05.17/outbox.cif.g08.bks.cpg/sg5_29_cif.got.tgz:57804.got - 2010.06.03 18:56:24.
