data_PCOD9120215
_publ_section_title
;
Structure prediction by ZEFSAII (Michael W. Deem and Ramdas Pophale) SiO2 
 PCOD9120215
Probable space group: C 2
;
_chemical_formula_sum "Si O2"
_cell_formula_units_Z 32
_cell_length_a 15.626551
_cell_length_b 17.182440
_cell_length_c 15.383297
_cell_angle_alpha 90.000000
_cell_angle_beta 26.401123
_cell_angle_gamma 90.000000
_cell_volume 1836.615997
_symmetry_space_group_name_H-M "C 2"
_symmetry_group_IT_number 5
_symmetry_cell_setting 'monoclinic'
loop_
_space_group_symop_operation_xyz
x,y,z
-x,y,-z
1/2+x,1/2+y,z
1/2-x,1/2+y,-z
loop_
_atom_site_type_symbol
_atom_site_label
_atom_site_fract_x
_atom_site_fract_y
_atom_site_fract_z
Si Si1 0.291491 0.483420 0.379819
Si Si2 0.345349 0.268429 0.372709
Si Si3 0.493948 0.842305 0.402559
Si Si4 0.430758 0.371346 0.963879
Si Si5 0.590783 0.147985 0.547090
Si Si6 0.720756 0.703783 0.794229
Si Si7 0.914099 0.913182 0.437559
Si Si8 0.779064 0.387702 0.200224
O O1 0.485164 0.450666 0.156456
O O2 0.197614 0.565646 0.443973
O O3 0.331718 0.476437 0.446052
O O4 0.135805 0.418992 0.492612
O O5 0.474676 0.299666 0.175359
O O6 0.392098 0.186755 0.374094
O O7 0.386285 0.332988 0.409839
O O8 0.125470 0.276798 0.540733
O O9 0.500000 0.824932 0.500000
O O10 0.702570 0.860249 0.174103
O O11 0.500000 0.370620 0.000000
O O12 0.369438 0.152980 0.716051
O O13 0.703502 0.199521 0.373156
O O14 0.729902 0.794826 0.811182
O O15 0.500000 0.677653 0.000000
O O16 0.805322 0.904623 0.627608
O O17 0.137074 0.925638 0.259113
O O18 0.000000 0.411962 0.000000
#
# Coordination Sequence:
#
# PCOD9120215 Si02
#       8
#     4   4   4   4   4   4   4   4
#     4  10  24  33  57  80 117 156 178 234 288 344
#     4  10  20  33  57  82 113 148 182 243 282 330
#     4  10  19  36  57  82 107 141 196 242 281 324
#     4  10  19  36  58  82 108 143 201 237 276 334
#     4  11  21  39  51  83 126 150 182 226 294 357
#     4  10  21  33  57  84 113 147 180 225 289 342
#     4   9  17  35  49  83 105 139 188 228 273 324
#     4  10  17  31  60  78 105 136 183 235 277 323
#
# _framework density 17.423349000000002
#
# number of rings (size 3 to 8) (size 9 to 14) (size 15 to 20)
#    0.000    2.250    5.000    0.750    1.750    6.500 
#    0.000    0.000    2.750    0.750    0.000    0.000 
#    0.000    0.000    0.000    0.000    0.000    0.000 
#
# Total GULP energy -89116.821351 kJ/mol
# GULP energy per Si atom -5569.801334 kJ/mol
# Density = 1.738369 g / cm^3
# Si number density = 17.423349 Si / 1000 Ang^3
#
#
#
# Elastic Constant Matrix: (Units=GPa)
#
#
# Indices 1 2 3 4 5 6 
#
# 1 117.4906 17.4936 46.1553 -0.0092 -10.4346 0.0057
# 2 17.4936 37.2332 17.2915 -0.0227 -0.3026 0.0155
# 3 46.1553 17.2915 120.7620 -0.0175 -27.8633 0.0098
# 4 -0.0092 -0.0227 -0.0175 3.8867 0.0085 -1.5115
# 5 -10.4346 -0.3026 -27.8633 0.0085 31.1778 -0.0057
# 6 0.0057 0.0155 0.0098 -1.5115 -0.0057 14.4788
#
#
#
# Elastic Compliance Matrix: (Units=1/GPa)
#
#
# Indices 1 2 3 4 5 6 
#
# 1 0.010373 -0.003291 -0.003401 -0.000011 0.000400 0.000001
# 2 -0.003291 0.030277 -0.004112 0.000155 -0.004482 -0.000014
# 3 -0.003401 -0.004112 0.012469 0.000003 0.009965 0.000002
# 4 -0.000011 0.000155 0.000003 0.268177 -0.000067 0.027995
# 5 0.000400 -0.004482 0.009965 -0.000067 0.041070 0.000007
# 6 0.000001 -0.000014 0.000002 0.027995 0.000007 0.071989
#
#
# Mechanical properties :
#
#
# Convention : Reuss Voigt Hill
#
# Bulk Modulus (GPa) = 31.73443 48.59631 40.16537
# Shear Modulus (GPa) = 10.71891 22.87835 16.79863
#
# Velocity S-wave (km/s) = 2.48302 3.62758 3.10844
# Velocity P-wave (km/s) = 5.14527 6.74521 5.99882
#
# Compressibility (1/GPa) = 0.03151152
#
# Stress axis : x y z
#
# Youngs Moduli (GPa) = 96.40501 33.02827 80.20209
#
# Poissons Ratio (x) = 0.10869 0.27276
# Poissons Ratio (y) = 0.31726 0.32976
# Poissons Ratio (z) = 0.32787 0.13580
#
# Static dielectric constant tensor:
#      x y z
#    x 1.603880 0.000000 -0.013170 
#    y 0.000000 1.598780 0.000010 
#    z -0.013170 0.000010 1.619900 
# 
# From -- ./inp_files/54903.got.cif
#   From: 2010.05.17/outbox.cif.g08.bks.cpg/sg5_28_cif.got.tgz:54903.got - 2010.06.03 18:56:24.
