data_PCOD9120580
_publ_section_title
;
Structure prediction by ZEFSAII (Michael W. Deem and Ramdas Pophale) SiO2 
 PCOD9120580
Probable space group: C 2
;
_chemical_formula_sum "Si O2"
_cell_formula_units_Z 24
_cell_length_a 13.292096
_cell_length_b 12.528594
_cell_length_c 14.601959
_cell_angle_alpha 90.000000
_cell_angle_beta 26.887384
_cell_angle_gamma 90.000000
_cell_volume 1099.700193
_symmetry_space_group_name_H-M "C 2"
_symmetry_group_IT_number 5
_symmetry_cell_setting 'monoclinic'
loop_
_space_group_symop_operation_xyz
x,y,z
-x,y,-z
1/2+x,1/2+y,z
1/2-x,1/2+y,-z
loop_
_atom_site_type_symbol
_atom_site_label
_atom_site_fract_x
_atom_site_fract_y
_atom_site_fract_z
Si Si1 0.273025 0.862800 0.735066
Si Si2 0.960585 0.925004 0.244169
Si Si3 0.666312 0.574872 0.935144
Si Si4 0.874306 0.456196 0.013892
Si Si5 0.628833 0.052641 0.633525
Si Si6 0.932719 0.144538 0.660117
O O1 0.500000 0.888122 0.500000
O O2 0.105814 0.848153 0.785457
O O3 0.218755 0.964479 0.839089
O O4 0.312831 0.757761 0.760884
O O5 0.748786 0.958023 0.477581
O O6 0.176964 0.889114 0.125338
O O7 0.035890 0.035411 0.131302
O O8 0.913890 0.608830 0.762488
O O9 0.500000 0.634794 0.000000
O O10 0.735165 0.555765 0.167819
O O11 0.000000 0.408515 0.000000
O O12 0.039544 0.499485 0.800597
O O13 0.830040 0.135218 0.483319
O O14 0.000000 0.125817 0.500000
#
# Coordination Sequence:
#
# PCOD9120580 Si02
#       6
#     4   4   4   4   4   4
#     4  10  18  33  51  81 115 143 180 228 279 325
#     4   9  19  31  50  74 111 144 184 226 276 324
#     4   9  18  31  51  78 110 144 182 229 273 326
#     4  10  19  32  50  74 109 149 183 228 272 328
#     4  10  18  34  49  75 116 146 189 225 271 332
#     4  10  20  32  50  78 116 146 177 227 281 321
#
# _framework density 21.82413
#
# number of rings (size 3 to 8) (size 9 to 14) (size 15 to 20)
#    0.000    2.333    3.333    0.000    0.000    2.000 
#    0.000    0.000    0.000    0.000    0.000    4.667 
#  145.000    0.000    0.000    0.000    0.000    0.000 
#
# Total GULP energy -66882.376205 kJ/mol
# GULP energy per Si atom -5573.531350 kJ/mol
# Density = 2.177446 g / cm^3
# Si number density = 21.824130 Si / 1000 Ang^3
#
#
#
# Elastic Constant Matrix: (Units=GPa)
#
#
# Indices 1 2 3 4 5 6 
#
# 1 179.1147 14.2806 27.0548 -0.0006 -35.2640 0.0002
# 2 14.2806 43.2421 8.1094 -0.0013 -4.4041 0.0015
# 3 27.0548 8.1094 113.1161 -0.0055 -12.8522 0.0033
# 4 -0.0006 -0.0013 -0.0055 16.5146 0.0016 -1.7423
# 5 -35.2640 -4.4041 -12.8522 0.0016 37.7849 -0.0010
# 6 0.0002 0.0015 0.0033 -1.7423 -0.0010 16.7683
#
#
#
# Elastic Compliance Matrix: (Units=1/GPa)
#
#
# Indices 1 2 3 4 5 6 
#
# 1 0.007038 -0.001539 -0.000881 -0.000001 0.006089 0.000001
# 2 -0.001539 0.023962 -0.001244 0.000001 0.000934 -0.000002
# 3 -0.000881 -0.001244 0.009393 0.000003 0.002228 -0.000001
# 4 -0.000001 0.000001 0.000003 0.061223 -0.000002 0.006361
# 5 0.006089 0.000934 0.002228 -0.000002 0.033015 0.000001
# 6 0.000001 -0.000002 -0.000001 0.006361 0.000001 0.060297
#
#
# Mechanical properties :
#
#
# Convention : Reuss Voigt Hill
#
# Bulk Modulus (GPa) = 30.24248 48.26250 39.25249
# Shear Modulus (GPa) = 23.44354 33.28209 28.36282
#
# Velocity S-wave (km/s) = 3.28106 3.90938 3.60892
# Velocity P-wave (km/s) = 5.31425 6.52227 5.94900
#
# Compressibility (1/GPa) = 0.03306607
#
# Stress axis : x y z
#
# Youngs Moduli (GPa) = 142.09425 41.73247 106.45660
#
# Poissons Ratio (x) = 0.06422 0.09380
# Poissons Ratio (y) = 0.21865 0.13240
# Poissons Ratio (z) = 0.12520 0.05190
#
# Static dielectric constant tensor:
#      x y z
#    x 1.950210 0.000000 -0.043000 
#    y 0.000000 1.811700 0.000000 
#    z -0.043000 0.000000 1.802360 
# 
# From -- ./inp_files/40615.got.cif
#   From: 2010.05.17/outbox.cif.g08.bks.cpg/sg5_21_cif.got.tgz:40615.got - 2010.06.03 18:56:24.
