data_PCOD9120281
_publ_section_title
;
Structure prediction by ZEFSAII (Michael W. Deem and Ramdas Pophale) SiO2 
 PCOD9120281
Probable space group: C 2
;
_chemical_formula_sum "Si O2"
_cell_formula_units_Z 32
_cell_length_a 19.494549
_cell_length_b 7.181105
_cell_length_c 9.091756
_cell_angle_alpha 90.000000
_cell_angle_beta 90.578097
_cell_angle_gamma 90.000000
_cell_volume 1272.711988
_symmetry_space_group_name_H-M "C 2"
_symmetry_group_IT_number 5
_symmetry_cell_setting 'monoclinic'
loop_
_space_group_symop_operation_xyz
x,y,z
-x,y,-z
1/2+x,1/2+y,z
1/2-x,1/2+y,-z
loop_
_atom_site_type_symbol
_atom_site_label
_atom_site_fract_x
_atom_site_fract_y
_atom_site_fract_z
Si Si1 0.301452 0.178990 0.491402
Si Si2 0.921491 0.674594 0.304222
Si Si3 0.169084 0.487517 0.953176
Si Si4 0.804351 0.811226 0.820674
Si Si5 0.430484 0.835825 0.840215
Si Si6 0.958501 0.786341 0.852296
Si Si7 0.957919 0.252133 0.354889
Si Si8 0.844236 0.260407 0.547058
O O1 0.363903 0.266190 0.403667
O O2 0.295277 0.265028 0.650890
O O3 0.227863 0.171479 0.415000
O O4 0.324089 0.969446 0.510361
O O5 0.879839 0.606988 0.157168
O O6 0.950564 0.479111 0.366820
O O7 0.985663 0.808816 0.275480
O O8 0.238279 0.421410 0.875986
O O9 0.193654 0.620484 0.085319
O O10 0.121599 0.323892 0.023084
O O11 0.884000 0.880322 0.839336
O O12 0.502876 0.733602 0.801333
O O13 0.389884 0.779995 0.692681
O O14 0.446901 0.059475 0.848707
O O15 0.000000 0.833341 0.000000
O O16 0.881820 0.187058 0.400001
O O17 0.000000 0.189958 0.500000
#
# Coordination Sequence:
#
# PCOD9120281 Si02
#       8
#     4   4   4   4   4   4   4   4
#     4  11  22  37  56  86 118 151 197 243 293 352
#     4  10  20  32  57  86 111 151 196 239 295 347
#     4  11  22  38  58  89 121 156 195 245 304 356
#     4  11  23  38  58  90 122 155 197 253 295 356
#     4   9  17  32  55  81 116 145 192 243 291 338
#     4  10  17  34  57  89 114 150 199 252 287 348
#     4   8  16  29  51  80 108 141 186 243 280 331
#     4  10  19  35  55  86 115 152 190 242 296 346
#
# _framework density 25.143158
#
# number of rings (size 3 to 8) (size 9 to 14) (size 15 to 20)
#    0.000    2.000    5.000    1.500    3.500    0.000 
#    0.000    0.000    0.000    1.500   13.000    0.000 
#    0.000    0.000    0.000    0.000    0.000    0.000 
#
# Total GULP energy -89290.724450 kJ/mol
# GULP energy per Si atom -5580.670278 kJ/mol
# Density = 2.508593 g / cm^3
# Si number density = 25.143158 Si / 1000 Ang^3
#
#
#
# Elastic Constant Matrix: (Units=GPa)
#
#
# Indices 1 2 3 4 5 6 
#
# 1 191.4622 25.5160 62.0502 0.0000 -42.8951 0.0000
# 2 25.5160 68.2132 19.3002 0.0000 -10.0059 0.0000
# 3 62.0502 19.3002 105.2017 0.0000 -26.7347 0.0000
# 4 0.0000 0.0000 0.0000-2711.2995 0.0000 1223.0352
# 5 -42.8951 -10.0059 -26.7347 0.0000 66.8695 0.0000
# 6 0.0000 0.0000 0.0000 1223.0352 0.0000 -525.5899
#
#
#
# Elastic Compliance Matrix: (Units=1/GPa)
#
#
# Indices 1 2 3 4 5 6 
#
# 1 0.007121 -0.001311 -0.003171 0.000000 0.003104 0.000000
# 2 -0.001311 0.015808 -0.001936 0.000000 0.000750 0.000000
# 3 -0.003171 -0.001936 0.012400 0.000000 0.002634 0.000000
# 4 0.000000 0.000000 0.000000 0.007425 0.000000 0.017279
# 5 0.003104 0.000750 0.002634 0.000000 0.018111 0.000000
# 6 0.000000 0.000000 0.000000 0.017279 0.000000 0.038304
#
#
# Mechanical properties :
#
#
# Convention : Reuss Voigt Hill
#
# Bulk Modulus (GPa) = 44.45762 64.29000 54.37381
# Shear Modulus (GPa) = 41.83991 -616.80327 -287.48168
#
# Velocity S-wave (km/s) = 4.08372 -15.67958 -10.70449
# Velocity P-wave (km/s) = 6.32107 17.38314 11.45028
#
# Compressibility (1/GPa) = 0.02249333
#
# Stress axis : x y z
#
# Youngs Moduli (GPa) = 140.43691 63.25815 80.64378
#
# Poissons Ratio (x) = 0.08294 0.25569
# Poissons Ratio (y) = 0.18414 0.15614
# Poissons Ratio (z) = 0.44526 0.12248
#
# Static dielectric constant tensor:
#      x y z
#    x 38.928350 0.000000 -14.230390 
#    y 0.000000 2.111320 0.000000 
#    z -14.230390 0.000000 7.425200 
# 
# From -- ./inp_files/27275.got.cif
#   From: 2010.05.17/outbox.cif.g08.bks.cpg/sg5_14_cif.got.tgz:27275.got - 2010.06.03 18:56:24.
