data_PCOD9120654
_publ_section_title
;
Structure prediction by ZEFSAII (Michael W. Deem and Ramdas Pophale) SiO2 
 PCOD9120654
Probable space group: C 2
;
_chemical_formula_sum "Si O2"
_cell_formula_units_Z 26
_cell_length_a 9.707610
_cell_length_b 21.492843
_cell_length_c 12.206988
_cell_angle_alpha 90.000000
_cell_angle_beta 144.124638
_cell_angle_gamma 90.000000
_cell_volume 1492.554117
_symmetry_space_group_name_H-M "C 2"
_symmetry_group_IT_number 5
_symmetry_cell_setting 'monoclinic'
loop_
_space_group_symop_operation_xyz
x,y,z
-x,y,-z
1/2+x,1/2+y,z
1/2-x,1/2+y,-z
loop_
_atom_site_type_symbol
_atom_site_label
_atom_site_fract_x
_atom_site_fract_y
_atom_site_fract_z
Si Si1 0.913749 0.380230 0.158300
Si Si2 0.937785 0.781091 0.085033
Si Si3 0.500000 0.162130 0.000000
Si Si4 0.726362 0.507568 0.353543
Si Si5 0.500000 0.962237 0.000000
Si Si6 0.899080 0.063104 0.311551
Si Si7 0.720837 0.865761 0.560508
Si Si8 0.500000 0.464135 0.000000
O O1 0.966245 0.420451 0.085562
O O2 0.127040 0.364742 0.376862
O O3 0.808379 0.314140 0.054271
O O4 0.719653 0.421243 0.101807
O O5 0.951207 0.707543 0.073102
O O6 0.106870 0.812484 0.283606
O O7 0.000000 0.802533 0.000000
O O8 0.730153 0.121592 0.175793
O O9 0.621469 0.554070 0.374787
O O10 0.684780 0.435793 0.364237
O O11 0.000000 0.515394 0.500000
O O12 0.579804 0.508552 0.148524
O O13 0.724402 0.005571 0.171604
O O14 0.000000 0.063417 0.500000
O O15 0.500000 0.860981 0.500000
#
# Coordination Sequence:
#
# PCOD9120654 Si02
#       8
#     4   4   2   4   2   4   4   2
#     4  12  19  33  56  87 122 151 183 238 299 359
#     4  10  18  34  55  84 109 145 198 244 281 337
#     4   9  23  38  58  84 116 158 206 252 286 339
#     4  11  21  32  56  88 114 149 193 239 292 352
#     4  11  24  36  55  91 134 155 178 238 314 369
#     4  11  23  39  56  83 123 161 199 240 297 352
#     4  11  16  27  54  87 114 137 183 240 288 346
#     4  12  17  32  55  79 118 153 188 226 276 358
#
# _framework density 17.419803000000002
#
# number of rings (size 3 to 8) (size 9 to 14) (size 15 to 20)
#    0.462    0.615    8.462    0.923    0.000    1.846 
#    0.000    0.000    0.000    2.769    0.000    0.000 
#    0.000    0.000    0.000    0.000    0.000    0.000 
#
# Total GULP energy -72383.001917 kJ/mol
# GULP energy per Si atom -5567.923224 kJ/mol
# Density = 1.738015 g / cm^3
# Si number density = 17.419803 Si / 1000 Ang^3
#
#
#
# Elastic Constant Matrix: (Units=GPa)
#
#
# Indices 1 2 3 4 5 6 
#
# 1 77.0853 48.0330 48.2637 0.0003 -11.2625 0.0001
# 2 48.0330 97.9150 57.5204 0.0000 -8.0393 0.0000
# 3 48.2637 57.5204 155.9865 0.0005 -26.6151 0.0001
# 4 0.0003 0.0000 0.0005 32.3543 0.0003 -0.6269
# 5 -11.2625 -8.0393 -26.6151 0.0003 23.8897 0.0001
# 6 0.0001 0.0000 0.0001 -0.6269 0.0001 22.1659
#
#
#
# Elastic Compliance Matrix: (Units=1/GPa)
#
#
# Indices 1 2 3 4 5 6 
#
# 1 0.020196 -0.008051 -0.002615 0.000000 0.003899 0.000000
# 2 -0.008051 0.016275 -0.003980 0.000000 -0.002753 0.000000
# 3 -0.002615 -0.003980 0.010185 0.000000 0.008774 0.000000
# 4 0.000000 0.000000 0.000000 0.030925 -0.000001 0.000875
# 5 0.003899 -0.002753 0.008774 -0.000001 0.052546 0.000000
# 6 0.000000 0.000000 0.000000 0.000875 0.000000 0.045139
#
#
# Mechanical properties :
#
#
# Convention : Reuss Voigt Hill
#
# Bulk Modulus (GPa) = 57.59175 70.95789 64.27482
# Shear Modulus (GPa) = 23.77047 27.49329 25.63188
#
# Velocity S-wave (km/s) = 3.69801 3.97706 3.84007
# Velocity P-wave (km/s) = 7.16705 7.86841 7.52590
#
# Compressibility (1/GPa) = 0.01736360
#
# Stress axis : x y z
#
# Youngs Moduli (GPa) = 49.51401 61.44582 98.18794
#
# Poissons Ratio (x) = 0.49472 0.25674
# Poissons Ratio (y) = 0.39865 0.39077
# Poissons Ratio (z) = 0.12947 0.24454
#
# Static dielectric constant tensor:
#      x y z
#    x 0.055010 0.000000 1.223160 
#    y 0.000000 1.601940 0.000000 
#    z 1.223160 0.000000 0.677160 
# 
# From -- ./inp_files/37145.got.cif
#   From: 2010.05.17/outbox.cif.g08.bks.cpg/sg5_19_cif.got.tgz:37145.got - 2010.06.03 18:56:24.
