data_PCOD9120802
_publ_section_title
;
Structure prediction by ZEFSAII (Michael W. Deem and Ramdas Pophale) SiO2 
 PCOD9120802
Probable space group: C 2
;
_chemical_formula_sum "Si O2"
_cell_formula_units_Z 18
_cell_length_a 10.935166
_cell_length_b 7.421138
_cell_length_c 9.162024
_cell_angle_alpha 90.000000
_cell_angle_beta 106.543518
_cell_angle_gamma 90.000000
_cell_volume 712.732285
_symmetry_space_group_name_H-M "C 2"
_symmetry_group_IT_number 5
_symmetry_cell_setting 'monoclinic'
loop_
_space_group_symop_operation_xyz
x,y,z
-x,y,-z
1/2+x,1/2+y,z
1/2-x,1/2+y,-z
loop_
_atom_site_type_symbol
_atom_site_label
_atom_site_fract_x
_atom_site_fract_y
_atom_site_fract_z
Si Si1 0.000000 0.623661 0.500000
Si Si2 0.571387 0.959260 0.820075
Si Si3 0.778305 0.815469 0.614507
Si Si4 0.195782 0.535945 0.142462
Si Si5 0.638045 0.713934 0.290715
O O1 0.074078 0.517967 0.654063
O O2 0.106882 0.734501 0.447253
O O3 0.506132 0.760144 0.809476
O O4 0.449422 0.064559 0.847953
O O5 0.687190 0.010072 0.966083
O O6 0.740545 0.693854 0.742193
O O7 0.663948 0.804137 0.457712
O O8 0.831662 0.006604 0.684474
O O9 0.226651 0.337685 0.216382
#
# Coordination Sequence:
#
# PCOD9120802 Si02
#       5
#     2   4   4   4   4
#     4  10  20  34  56  82 116 142 174 238 290 314
#     4   8  17  36  54  78 111 142 180 232 267 321
#     4  11  19  34  61  82 111 146 189 224 281 325
#     4   8  17  35  55  79 108 142 190 225 258 332
#     4  10  18  35  61  81 103 154 191 218 263 346
#
# _framework density 25.254923000000002
#
# number of rings (size 3 to 8) (size 9 to 14) (size 15 to 20)
#    1.333    1.333    2.222    0.000    0.000    0.889 
#   16.000    0.000    9.778    0.000    0.000    0.000 
#    0.000    0.000    0.000    0.000    0.000    0.000 
#
# Total GULP energy -50124.981920 kJ/mol
# GULP energy per Si atom -5569.442436 kJ/mol
# Density = 2.519744 g / cm^3
# Si number density = 25.254923 Si / 1000 Ang^3
#
#
#
# Elastic Constant Matrix: (Units=GPa)
#
#
# Indices 1 2 3 4 5 6 
#
# 1 56.1197 1.8131 13.0561 0.0000 -8.5528 0.0000
# 2 1.8131 170.4551 88.0586 0.0000 -9.9936 0.0000
# 3 13.0561 88.0586 223.5576 0.0000 -12.1860 0.0000
# 4 0.0000 0.0000 0.0000 42.7872 0.0000 -1.1903
# 5 -8.5528 -9.9936 -12.1860 0.0000 31.4210 0.0000
# 6 0.0000 0.0000 0.0000 -1.1903 0.0000 11.9110
#
#
#
# Elastic Compliance Matrix: (Units=1/GPa)
#
#
# Indices 1 2 3 4 5 6 
#
# 1 0.018798 0.000649 -0.001086 0.000000 0.004902 0.000000
# 2 0.000649 0.007436 -0.002889 0.000000 0.001421 0.000000
# 3 -0.001086 -0.002889 0.005730 0.000000 0.001008 0.000000
# 4 0.000000 0.000000 0.000000 0.023437 0.000000 0.002342
# 5 0.004902 0.001421 0.001008 0.000000 0.034003 0.000000
# 6 0.000000 0.000000 0.000000 0.002342 0.000000 0.084190
#
#
# Mechanical properties :
#
#
# Convention : Reuss Voigt Hill
#
# Bulk Modulus (GPa) = 39.51111 72.88754 56.19933
# Shear Modulus (GPa) = 26.49950 40.37081 33.43516
#
# Velocity S-wave (km/s) = 3.24277 4.00250 3.64250
# Velocity P-wave (km/s) = 5.44974 7.09108 6.32389
#
# Compressibility (1/GPa) = 0.02530934
#
# Stress axis : x y z
#
# Youngs Moduli (GPa) = 53.19766 134.48624 174.53342
#
# Poissons Ratio (x) = -0.08722 0.18956
# Poissons Ratio (y) = -0.03450 0.50428
# Poissons Ratio (z) = 0.05778 0.38857
#
# Static dielectric constant tensor:
#      x y z
#    x 2.098040 0.000000 0.007710 
#    y 0.000000 2.066290 0.000000 
#    z 0.007710 0.000000 2.037480 
# 
# From -- ./inp_files/26127.got.cif
#   From: 2010.05.17/outbox.cif.g08.bks.cpg/sg5_14_cif.got.tgz:26127.got - 2010.06.03 18:56:24.
