data_PCOD9120919
_publ_section_title
;
Structure prediction by ZEFSAII (Michael W. Deem and Ramdas Pophale) SiO2 
 PCOD9120919
Probable space group: C 2
;
_chemical_formula_sum "Si O2"
_cell_formula_units_Z 26
_cell_length_a 14.185797
_cell_length_b 8.683851
_cell_length_c 18.583881
_cell_angle_alpha 90.000000
_cell_angle_beta 151.687704
_cell_angle_gamma 90.000000
_cell_volume 1085.762216
_symmetry_space_group_name_H-M "C 2"
_symmetry_group_IT_number 5
_symmetry_cell_setting 'monoclinic'
loop_
_space_group_symop_operation_xyz
x,y,z
-x,y,-z
1/2+x,1/2+y,z
1/2-x,1/2+y,-z
loop_
_atom_site_type_symbol
_atom_site_label
_atom_site_fract_x
_atom_site_fract_y
_atom_site_fract_z
Si Si1 0.284186 0.953670 0.735382
Si Si2 0.225101 0.515589 0.543300
Si Si3 0.097426 0.829594 0.463111
Si Si4 0.500000 0.301840 0.000000
Si Si5 0.207920 0.405724 0.995807
Si Si6 0.618939 0.307906 0.235858
Si Si7 0.867924 0.194471 0.172028
O O1 0.200823 0.862972 0.609411
O O2 0.503817 0.892428 0.903483
O O3 0.111920 0.920708 0.677198
O O4 0.308452 0.133246 0.728094
O O5 0.059245 0.647058 0.428038
O O6 0.258062 0.398924 0.500493
O O7 0.229919 0.415591 0.619245
O O8 0.421216 0.623779 0.670450
O O9 0.444568 0.375353 0.885373
O O10 0.301771 0.203370 0.882403
O O11 0.132777 0.359890 0.866123
O O12 0.416151 0.316364 0.147633
O O13 0.279387 0.579257 0.052817
#
# Coordination Sequence:
#
# PCOD9120919 Si02
#       7
#     4   4   4   2   4   4   4
#     4  11  21  43  65  97 134 180 228 276 328 407
#     4  11  23  43  65 100 130 187 227 273 339 400
#     4  11  25  41  70  92 138 184 232 277 326 399
#     4  10  18  36  64 104 118 174 206 280 344 396
#     4  10  18  36  65  95 129 171 212 276 343 394
#     4  10  22  39  73  94 134 175 225 280 345 399
#     4  10  20  35  67  93 133 166 224 274 342 401
#
# _framework density 23.946311999999999
#
# number of rings (size 3 to 8) (size 9 to 14) (size 15 to 20)
#    0.000    1.538    4.615    1.846    0.000    0.000 
#    0.000    9.231    6.769   11.077    0.000    0.000 
#    0.000    0.000    0.000    0.000    0.000    0.000 
#
# Total GULP energy -72445.364821 kJ/mol
# GULP energy per Si atom -5572.720371 kJ/mol
# Density = 2.389181 g / cm^3
# Si number density = 23.946312 Si / 1000 Ang^3
#
#
#
# Elastic Constant Matrix: (Units=GPa)
#
#
# Indices 1 2 3 4 5 6 
#
# 1 87.3770 47.5000 18.3444 0.0004 -0.1083 0.0000
# 2 47.5000 105.9912 24.3882 0.0010 5.5207 0.0002
# 3 18.3444 24.3882 53.7321 0.0031 17.3932 0.0000
# 4 0.0004 0.0010 0.0031 38.4402 0.0006 1.0491
# 5 -0.1083 5.5207 17.3932 0.0006 44.9657 -0.0001
# 6 0.0000 0.0002 0.0000 1.0491 -0.0001 23.6648
#
#
#
# Elastic Compliance Matrix: (Units=1/GPa)
#
#
# Indices 1 2 3 4 5 6 
#
# 1 0.015554 -0.006369 -0.003069 0.000000 0.002006 0.000000
# 2 -0.006369 0.013159 -0.003738 0.000000 -0.000185 0.000000
# 3 -0.003069 -0.003738 0.024245 -0.000002 -0.008927 0.000000
# 4 0.000000 0.000000 -0.000002 0.026046 0.000000 -0.001155
# 5 0.002006 -0.000185 -0.008927 0.000000 0.025720 0.000000
# 6 0.000000 0.000000 0.000000 -0.001155 0.000000 0.042308
#
#
# Mechanical properties :
#
#
# Convention : Reuss Voigt Hill
#
# Bulk Modulus (GPa) = 37.58656 47.50728 42.54692
# Shear Modulus (GPa) = 27.43463 31.87198 29.65330
#
# Velocity S-wave (km/s) = 3.38845 3.65221 3.52280
# Velocity P-wave (km/s) = 5.57127 6.13735 5.86115
#
# Compressibility (1/GPa) = 0.02660525
#
# Stress axis : x y z
#
# Youngs Moduli (GPa) = 64.29372 75.99529 41.24566
#
# Poissons Ratio (x) = 0.48399 0.12658
# Poissons Ratio (y) = 0.40947 0.15419
# Poissons Ratio (z) = 0.19731 0.28410
#
# Static dielectric constant tensor:
#      x y z
#    x 1.985460 0.000000 0.055310 
#    y 0.000000 1.930660 0.000000 
#    z 0.055310 0.000000 1.976130 
# 
# From -- ./inp_files/65932.got.cif
#   From: 2010.05.17/outbox.cif.g08.bks.cpg/sg5_33_cif.got.tgz:65932.got - 2010.06.03 18:56:24.
