data_PCOD9120355
_publ_section_title
;
Structure prediction by ZEFSAII (Michael W. Deem and Ramdas Pophale) SiO2 
 PCOD9120355
Probable space group: C 2
;
_chemical_formula_sum "Si O2"
_cell_formula_units_Z 30
_cell_length_a 19.890468
_cell_length_b 13.152705
_cell_length_c 11.376210
_cell_angle_alpha 90.000000
_cell_angle_beta 29.548731
_cell_angle_gamma 90.000000
_cell_volume 1467.738632
_symmetry_space_group_name_H-M "C 2"
_symmetry_group_IT_number 5
_symmetry_cell_setting 'monoclinic'
loop_
_space_group_symop_operation_xyz
x,y,z
-x,y,-z
1/2+x,1/2+y,z
1/2-x,1/2+y,-z
loop_
_atom_site_type_symbol
_atom_site_label
_atom_site_fract_x
_atom_site_fract_y
_atom_site_fract_z
Si Si1 0.862699 0.334410 0.133199
Si Si2 0.000000 0.404419 0.500000
Si Si3 0.259860 0.947333 0.711660
Si Si4 0.709287 0.716017 0.381047
Si Si5 0.339582 0.632165 0.282358
Si Si6 0.874162 0.028277 0.850140
Si Si7 0.597336 0.757009 0.187139
Si Si8 0.304078 0.515721 0.697062
O O1 0.789430 0.232912 0.290853
O O2 0.769861 0.432556 0.269276
O O3 0.898878 0.308397 0.944584
O O4 0.000000 0.349396 0.000000
O O5 0.914753 0.459054 0.526938
O O6 0.880519 0.338606 0.745286
O O7 0.233783 0.831031 0.707401
O O8 0.230994 0.029267 0.653538
O O9 0.166152 0.977370 0.965846
O O10 0.683234 0.664528 0.548067
O O11 0.560615 0.731540 0.551770
O O12 0.769369 0.624589 0.212054
O O13 0.500000 0.623461 0.000000
O O14 0.807992 0.989009 0.829444
O O15 0.037255 0.020612 0.583400
O O16 0.832135 0.147951 0.920169
#
# Coordination Sequence:
#
# PCOD9120355 Si02
#       8
#     4   2   4   4   4   4   4   4
#     4  11  21  37  63  87 115 162 204 244 287 363
#     4  10  22  34  62  94 122 154 192 260 302 350
#     4  11  22  39  65  90 123 157 203 249 300 359
#     4  10  21  37  60  93 118 155 202 250 297 347
#     4  11  21  40  63  86 115 166 210 241 291 363
#     4  10  19  39  62  91 118 160 201 244 300 356
#     4  10  17  37  62  86 116 155 212 237 285 366
#     4  10  22  36  64  91 122 155 199 251 298 359
#
# _framework density 20.439606999999999
#
# number of rings (size 3 to 8) (size 9 to 14) (size 15 to 20)
#    0.000    1.600    4.000    4.000    1.867    0.000 
#    0.000    2.000    5.867    0.000    0.000    0.000 
#    0.000    0.000    0.000    0.000    0.000    0.000 
#
# Total GULP energy -83550.270366 kJ/mol
# GULP energy per Si atom -5570.018024 kJ/mol
# Density = 2.039309 g / cm^3
# Si number density = 20.439607 Si / 1000 Ang^3
#
#
#
# Elastic Constant Matrix: (Units=GPa)
#
#
# Indices 1 2 3 4 5 6 
#
# 1 103.5949 56.4040 25.8964 0.0000 17.1309 0.0000
# 2 56.4040 150.0301 26.3635 0.0000 -7.3153 0.0000
# 3 25.8964 26.3635 40.6990 0.0000 17.7651 0.0000
# 4 0.0000 0.0000 0.0000 7.6943 0.0000 3.4012
# 5 17.1309 -7.3153 17.7651 0.0000 28.3354 0.0000
# 6 0.0000 0.0000 0.0000 3.4012 0.0000 39.4061
#
#
#
# Elastic Compliance Matrix: (Units=1/GPa)
#
#
# Indices 1 2 3 4 5 6 
#
# 1 0.014705 -0.005712 -0.001559 0.000000 -0.009388 0.000000
# 2 -0.005712 0.010859 -0.008441 0.000000 0.011549 0.000000
# 3 -0.001559 -0.008441 0.043465 0.000000 -0.028487 0.000000
# 4 0.000000 0.000000 0.000000 0.135122 0.000000 -0.011663
# 5 -0.009388 0.011549 -0.028487 0.000000 0.061809 0.000000
# 6 0.000000 0.000000 0.000000 -0.011663 0.000000 0.026383
#
#
# Mechanical properties :
#
#
# Convention : Reuss Voigt Hill
#
# Bulk Modulus (GPa) = 26.59182 56.85020 41.72101
# Shear Modulus (GPa) = 14.86761 27.46452 21.16606
#
# Velocity S-wave (km/s) = 2.69995 3.66962 3.22147
# Velocity P-wave (km/s) = 4.77051 6.76970 5.85605
#
# Compressibility (1/GPa) = 0.03760555
#
# Stress axis : x y z
#
# Youngs Moduli (GPa) = 68.00320 92.08825 23.00727
#
# Poissons Ratio (x) = 0.52603 0.03586
# Poissons Ratio (y) = 0.38845 0.19419
# Poissons Ratio (z) = 0.10600 0.77728
#
# Static dielectric constant tensor:
#      x y z
#    x 1.768520 0.000000 0.034470 
#    y 0.000000 1.840460 0.000000 
#    z 0.034470 0.000000 1.817220 
# 
# From -- ./inp_files/46459.got.cif
#   From: 2010.05.17/outbox.cif.g08.bks.cpg/sg5_24_cif.got.tgz:46459.got - 2010.06.03 18:56:24.
