data_PCOD9120869
_publ_section_title
;
Structure prediction by ZEFSAII (Michael W. Deem and Ramdas Pophale) SiO2 
 PCOD9120869
Probable space group: C 2
;
_chemical_formula_sum "Si O2"
_cell_formula_units_Z 26
_cell_length_a 11.231563
_cell_length_b 15.737163
_cell_length_c 8.362515
_cell_angle_alpha 90.000000
_cell_angle_beta 105.544374
_cell_angle_gamma 90.000000
_cell_volume 1424.034951
_symmetry_space_group_name_H-M "C 2"
_symmetry_group_IT_number 5
_symmetry_cell_setting 'monoclinic'
loop_
_space_group_symop_operation_xyz
x,y,z
-x,y,-z
1/2+x,1/2+y,z
1/2-x,1/2+y,-z
loop_
_atom_site_type_symbol
_atom_site_label
_atom_site_fract_x
_atom_site_fract_y
_atom_site_fract_z
Si Si1 0.370417 0.260170 0.017914
Si Si2 0.628437 0.699335 0.777239
Si Si3 0.357416 0.857999 0.445174
Si Si4 0.252096 0.855022 0.759876
Si Si5 0.341486 0.444140 0.836892
Si Si6 0.901858 0.009519 0.190811
Si Si7 0.000000 0.301081 0.000000
O O1 0.258785 0.202772 0.916810
O O2 0.362005 0.352139 0.927041
O O3 0.500000 0.224765 0.000000
O O4 0.340014 0.285398 0.191261
O O5 0.641775 0.765610 0.638654
O O6 0.595305 0.602587 0.734107
O O7 0.528736 0.741542 0.859816
O O8 0.500000 0.886062 0.500000
O O9 0.297291 0.843969 0.596333
O O10 0.277654 0.925885 0.314057
O O11 0.182514 0.944195 0.744354
O O12 0.375929 0.853017 0.915259
O O13 0.460803 0.470955 0.777836
O O14 0.344244 0.508608 0.988690
#
# Coordination Sequence:
#
# PCOD9120869 Si02
#       7
#     4   4   4   4   4   4   2
#     4   9  16  36  58  83 113 154 202 239 282 366
#     4  10  21  35  60  87 119 147 204 252 300 336
#     4  11  22  39  56  90 124 162 192 248 298 365
#     4  10  20  34  59  84 115 160 201 237 299 356
#     4   9  18  36  63  83 117 149 204 246 289 353
#     4  10  19  38  59  93 110 152 203 255 290 349
#     4  10  18  36  60  82 108 166 204 234 282 376
#
# _framework density 18.257978999999999
#
# number of rings (size 3 to 8) (size 9 to 14) (size 15 to 20)
#    0.000    2.154    4.615    1.846    0.000    0.615 
#    4.154    0.000    0.000    0.000    0.000    0.000 
#    0.000    0.000    0.000    0.000    0.000    0.000 
#
# Total GULP energy -72409.861476 kJ/mol
# GULP energy per Si atom -5569.989344 kJ/mol
# Density = 1.821642 g / cm^3
# Si number density = 18.257979 Si / 1000 Ang^3
#
#
#
# Elastic Constant Matrix: (Units=GPa)
#
#
# Indices 1 2 3 4 5 6 
#
# 1 130.3589 44.1796 52.6126 0.0000 -14.1486 0.0000
# 2 44.1796 73.9807 22.1468 0.0000 -4.5348 0.0000
# 3 52.6126 22.1468 80.9527 0.0000 -14.0673 0.0000
# 4 0.0000 0.0000 0.0000 12.4057 0.0000 0.8714
# 5 -14.1486 -4.5348 -14.0673 0.0000 39.6192 0.0000
# 6 0.0000 0.0000 0.0000 0.8714 0.0000 15.0423
#
#
#
# Elastic Compliance Matrix: (Units=1/GPa)
#
#
# Indices 1 2 3 4 5 6 
#
# 1 0.012120 -0.005300 -0.006161 0.000000 0.001534 0.000000
# 2 -0.005300 0.017043 -0.001288 0.000000 -0.000399 0.000000
# 3 -0.006161 -0.001288 0.017373 0.000000 0.003821 0.000000
# 4 0.000000 0.000000 0.000000 0.080937 0.000000 -0.004689
# 5 0.001534 -0.000399 0.003821 0.000000 0.027099 0.000000
# 6 0.000000 0.000000 0.000000 -0.004689 0.000000 0.066751
#
#
# Mechanical properties :
#
#
# Convention : Reuss Voigt Hill
#
# Bulk Modulus (GPa) = 47.52756 58.13005 52.82881
# Shear Modulus (GPa) = 19.69802 24.50366 22.10084
#
# Velocity S-wave (km/s) = 3.28818 3.66741 3.48296
# Velocity P-wave (km/s) = 6.36426 7.05978 6.72102
#
# Compressibility (1/GPa) = 0.02104042
#
# Stress axis : x y z
#
# Youngs Moduli (GPa) = 82.50722 58.67571 57.56040
#
# Poissons Ratio (x) = 0.31096 0.35461
# Poissons Ratio (y) = 0.43725 0.07411
# Poissons Ratio (z) = 0.50830 0.07555
#
# Static dielectric constant tensor:
#      x y z
#    x 1.664120 0.000000 -0.004540 
#    y 0.000000 1.600520 0.000000 
#    z -0.004540 0.000000 1.682790 
# 
# From -- ./inp_files/20135.got.cif
#   From: 2010.05.17/outbox.cif.g08.bks.cpg/sg5_11_cif.got.tgz:20135.got - 2010.06.03 18:56:24.
