data_PCOD9120665
_publ_section_title
;
Structure prediction by ZEFSAII (Michael W. Deem and Ramdas Pophale) SiO2 
 PCOD9120665
Probable space group: C 2
;
_chemical_formula_sum "Si O2"
_cell_formula_units_Z 24
_cell_length_a 16.569098
_cell_length_b 8.555039
_cell_length_c 8.909036
_cell_angle_alpha 90.000000
_cell_angle_beta 82.250812
_cell_angle_gamma 90.000000
_cell_volume 1251.316852
_symmetry_space_group_name_H-M "C 2"
_symmetry_group_IT_number 5
_symmetry_cell_setting 'monoclinic'
loop_
_space_group_symop_operation_xyz
x,y,z
-x,y,-z
1/2+x,1/2+y,z
1/2-x,1/2+y,-z
loop_
_atom_site_type_symbol
_atom_site_label
_atom_site_fract_x
_atom_site_fract_y
_atom_site_fract_z
Si Si1 0.827028 0.116300 0.079403
Si Si2 0.722802 0.699491 0.346208
Si Si3 0.317053 0.992028 0.080507
Si Si4 0.065985 0.200203 0.209547
Si Si5 0.500000 0.944346 0.000000
Si Si6 0.500000 0.495172 0.500000
Si Si7 0.155323 0.965856 0.607564
O O1 0.815101 0.303656 0.100137
O O2 0.856204 0.036842 0.224487
O O3 0.896292 0.095718 0.934276
O O4 0.742672 0.041769 0.040887
O O5 0.777464 0.584539 0.229732
O O6 0.648589 0.765971 0.264748
O O7 0.777133 0.835788 0.395599
O O8 0.684581 0.602814 0.491078
O O9 0.413126 0.031332 0.035532
O O10 0.023668 0.103790 0.352030
O O11 0.011823 0.331136 0.142334
O O12 0.575482 0.399548 0.545300
#
# Coordination Sequence:
#
# PCOD9120665 Si02
#       7
#     4   4   4   4   2   2   4
#     4  10  19  35  59  82 110 150 187 224 270 332
#     4  10  22  39  56  80 110 150 188 222 277 339
#     4  10  20  36  57  83 111 143 187 228 273 330
#     4   9  19  34  55  81 111 147 185 218 271 338
#     4  10  18  34  56  84 112 142 182 232 272 316
#     4  10  20  34  54  84 114 142 184 232 272 318
#     4  11  21  37  58  80 111 148 186 230 275 327
#
# _framework density 19.179793
#
# number of rings (size 3 to 8) (size 9 to 14) (size 15 to 20)
#    0.000    2.000    0.000    6.000    0.000    1.333 
#    0.000   10.000    0.000    2.000    0.000    0.000 
#    0.000    0.000    0.000    0.000    0.000    0.000 
#
# Total GULP energy -66926.599082 kJ/mol
# GULP energy per Si atom -5577.216590 kJ/mol
# Density = 1.913614 g / cm^3
# Si number density = 19.179793 Si / 1000 Ang^3
#
#
#
# Elastic Constant Matrix: (Units=GPa)
#
#
# Indices 1 2 3 4 5 6 
#
# 1 111.7393 4.2331 36.4087 0.0000 25.9367 0.0000
# 2 4.2331 23.2330 -2.6587 0.0000 16.0094 0.0000
# 3 36.4087 -2.6587 109.5369 0.0000 16.0838 0.0000
# 4 0.0000 0.0000 0.0000 22.5125 0.0000 12.1797
# 5 25.9367 16.0094 16.0838 0.0000 35.2385 0.0000
# 6 0.0000 0.0000 0.0000 12.1797 0.0000 28.7928
#
#
#
# Elastic Compliance Matrix: (Units=1/GPa)
#
#
# Indices 1 2 3 4 5 6 
#
# 1 0.011769 0.004047 -0.002435 0.000000 -0.009390 0.000000
# 2 0.004047 0.068113 0.005669 0.000000 -0.036511 0.000000
# 3 -0.002435 0.005669 0.010923 0.000000 -0.005769 0.000000
# 4 0.000000 0.000000 0.000000 0.057602 0.000000 -0.024367
# 5 -0.009390 -0.036511 -0.005769 0.000000 0.054510 0.000000
# 6 0.000000 0.000000 0.000000 -0.024367 0.000000 0.045038
#
#
# Mechanical properties :
#
#
# Convention : Reuss Voigt Hill
#
# Bulk Modulus (GPa) = 9.49056 35.60841 22.54949
# Shear Modulus (GPa) = 18.62092 31.07717 24.84904
#
# Velocity S-wave (km/s) = 3.11924 4.02967 3.60333
# Velocity P-wave (km/s) = 4.23460 6.34483 5.39392
#
# Compressibility (1/GPa) = 0.10536782
#
# Stress axis : x y z
#
# Youngs Moduli (GPa) = 84.96912 14.68159 91.54686
#
# Poissons Ratio (x) = -0.05942 0.22291
# Poissons Ratio (y) = -0.34390 -0.51898
# Poissons Ratio (z) = 0.20689 -0.08323
#
# Static dielectric constant tensor:
#      x y z
#    x 1.722670 0.000000 -0.009040 
#    y 0.000000 1.633300 0.000000 
#    z -0.009040 0.000000 1.674440 
# 
# From -- ./inp_files/22823.got.cif
#   From: 2010.05.17/outbox.cif.g08.bks.cpg/sg5_12_cif.got.tgz:22823.got - 2010.06.03 18:56:24.
