data_PCOD9120826
_publ_section_title
;
Structure prediction by ZEFSAII (Michael W. Deem and Ramdas Pophale) SiO2 
 PCOD9120826
Probable space group: C 2
;
_chemical_formula_sum "Si O2"
_cell_formula_units_Z 32
_cell_length_a 19.821434
_cell_length_b 11.865757
_cell_length_c 11.744035
_cell_angle_alpha 90.000000
_cell_angle_beta 140.501353
_cell_angle_gamma 90.000000
_cell_volume 1756.895546
_symmetry_space_group_name_H-M "C 2"
_symmetry_group_IT_number 5
_symmetry_cell_setting 'monoclinic'
loop_
_space_group_symop_operation_xyz
x,y,z
-x,y,-z
1/2+x,1/2+y,z
1/2-x,1/2+y,-z
loop_
_atom_site_type_symbol
_atom_site_label
_atom_site_fract_x
_atom_site_fract_y
_atom_site_fract_z
Si Si1 0.166722 0.704900 0.887034
Si Si2 0.601184 0.109347 0.567630
Si Si3 0.113248 0.492687 0.955467
Si Si4 0.377921 0.807407 0.225755
Si Si5 0.630222 0.963415 0.381423
Si Si6 0.018248 0.856512 0.397017
Si Si7 0.620505 0.761085 0.520305
Si Si8 0.284268 0.513103 0.377120
O O1 0.168685 0.648483 0.764114
O O2 0.117252 0.619438 0.913368
O O3 0.098857 0.822162 0.801753
O O4 0.286885 0.722176 0.074921
O O5 0.500000 0.053329 0.500000
O O6 0.564057 0.229980 0.469704
O O7 0.635087 0.037031 0.504069
O O8 0.133618 0.412902 0.873062
O O9 0.989892 0.469378 0.825262
O O10 0.204263 0.476620 0.169604
O O11 0.492877 0.753547 0.354374
O O12 0.359704 0.828161 0.335810
O O13 0.652151 0.836724 0.453746
O O14 0.713281 0.005249 0.397543
O O15 0.000000 0.903656 0.500000
O O16 0.110890 0.935098 0.469032
O O17 0.675717 0.640178 0.593332
#
# Coordination Sequence:
#
# PCOD9120826 Si02
#       8
#     4   4   4   4   4   4   4   4
#     4  10  18  35  64  92 117 151 209 264 302 358
#     4   9  17  35  61  88 112 153 211 260 287 357
#     4  11  20  38  62  91 120 163 208 258 299 365
#     4  10  21  38  63  94 120 154 207 264 317 365
#     4  11  23  39  62  87 125 172 210 246 307 385
#     4   9  20  35  59  89 118 153 204 254 305 358
#     4  10  24  39  60  90 126 163 201 261 322 365
#     4  12  25  39  61  91 134 164 201 258 322 369
#
# _framework density 18.213946
#
# number of rings (size 3 to 8) (size 9 to 14) (size 15 to 20)
#    0.000    2.000    3.750    2.625    5.250    1.000 
#    0.000    0.000    0.000    1.500    0.000    0.000 
#    0.000    0.000    0.000    0.000    0.000    0.000 
#
# Total GULP energy -89082.643710 kJ/mol
# GULP energy per Si atom -5567.665232 kJ/mol
# Density = 1.817249 g / cm^3
# Si number density = 18.213946 Si / 1000 Ang^3
#
#
#
# Elastic Constant Matrix: (Units=GPa)
#
#
# Indices 1 2 3 4 5 6 
#
# 1 98.9232 39.5023 31.1772 0.0000 -13.5378 0.0000
# 2 39.5023 60.3638 21.6094 0.0000 -4.4280 0.0000
# 3 31.1772 21.6094 101.6436 0.0000 -7.5976 0.0000
# 4 0.0000 0.0000 0.0000 22.3495 0.0000 3.0466
# 5 -13.5378 -4.4280 -7.5976 0.0000 8.5373 0.0000
# 6 0.0000 0.0000 0.0000 3.0466 0.0000 18.0119
#
#
#
# Elastic Compliance Matrix: (Units=1/GPa)
#
#
# Indices 1 2 3 4 5 6 
#
# 1 0.017143 -0.009050 -0.001771 0.000000 0.020914 0.000000
# 2 -0.009050 0.023034 -0.002465 0.000000 -0.004598 0.000000
# 3 -0.001771 -0.002465 0.011355 0.000000 0.006019 0.000000
# 4 0.000000 0.000000 0.000000 0.045800 0.000000 -0.007747
# 5 0.020914 -0.004598 0.006019 0.000000 0.153270 0.000000
# 6 0.000000 0.000000 0.000000 -0.007747 0.000000 0.056829
#
#
# Mechanical properties :
#
#
# Convention : Reuss Voigt Hill
#
# Bulk Modulus (GPa) = 40.06333 49.50092 44.78213
# Shear Modulus (GPa) = 14.60608 21.02251 17.81429
#
# Velocity S-wave (km/s) = 2.83489 3.40104 3.13078
# Velocity P-wave (km/s) = 5.72356 6.53140 6.14078
#
# Compressibility (1/GPa) = 0.02496048
#
# Stress axis : x y z
#
# Youngs Moduli (GPa) = 58.33225 43.41433 88.06397
#
# Poissons Ratio (x) = 0.39292 0.15596
# Poissons Ratio (y) = 0.52793 0.21704
# Poissons Ratio (z) = 0.10330 0.10700
#
# Static dielectric constant tensor:
#      x y z
#    x 1.619540 0.000000 0.012980 
#    y 0.000000 1.654480 0.000000 
#    z 0.012980 0.000000 1.683000 
# 
# From -- ./inp_files/46352.got.cif
#   From: 2010.05.17/outbox.cif.g08.bks.cpg/sg5_24_cif.got.tgz:46352.got - 2010.06.03 18:56:24.
