data_PCOD9120843
_publ_section_title
;
Structure prediction by ZEFSAII (Michael W. Deem and Ramdas Pophale) SiO2 
 PCOD9120843
Probable space group: C 2
;
_chemical_formula_sum "Si O2"
_cell_formula_units_Z 30
_cell_length_a 7.384779
_cell_length_b 13.810956
_cell_length_c 13.086984
_cell_angle_alpha 90.000000
_cell_angle_beta 112.286829
_cell_angle_gamma 90.000000
_cell_volume 1235.042588
_symmetry_space_group_name_H-M "C 2"
_symmetry_group_IT_number 5
_symmetry_cell_setting 'monoclinic'
loop_
_space_group_symop_operation_xyz
x,y,z
-x,y,-z
1/2+x,1/2+y,z
1/2-x,1/2+y,-z
loop_
_atom_site_type_symbol
_atom_site_label
_atom_site_fract_x
_atom_site_fract_y
_atom_site_fract_z
Si Si1 0.914861 0.381790 0.343869
Si Si2 0.609017 0.681130 0.356912
Si Si3 0.404304 0.472542 0.584600
Si Si4 0.732051 0.611682 0.868830
Si Si5 0.758269 0.747396 0.190130
Si Si6 0.673564 0.951193 0.237985
Si Si7 0.000000 0.102719 0.000000
Si Si8 0.399023 0.312429 0.883117
O O1 0.026636 0.280216 0.386786
O O2 0.783673 0.419254 0.408823
O O3 0.764318 0.368257 0.216156
O O4 0.073508 0.453849 0.327570
O O5 0.648762 0.587209 0.433817
O O6 0.430951 0.644113 0.247838
O O7 0.777912 0.707724 0.310763
O O8 0.500000 0.437049 0.500000
O O9 0.590495 0.456233 0.699548
O O10 0.882499 0.541768 0.843650
O O11 0.636484 0.555948 0.943175
O O12 0.811571 0.715883 0.917139
O O13 0.636958 0.847190 0.179099
O O14 0.952603 0.774339 0.171621
O O15 0.639601 0.670313 0.098986
O O16 0.500000 0.365675 0.000000
#
# Coordination Sequence:
#
# PCOD9120843 Si02
#       8
#     4   4   4   4   4   4   2   4
#     4  10  22  43  68  89 132 175 206 268 327 384
#     4   8  20  40  62  87 123 165 201 260 330 377
#     4  11  23  44  68  98 126 159 216 277 328 398
#     4   9  19  35  56  81 120 161 210 259 306 379
#     4  10  19  36  60  84 125 167 208 255 315 372
#     4  10  22  42  62  89 123 164 213 262 325 385
#     4  10  18  36  54  84 126 168 210 264 308 368
#     4  11  20  36  59  90 128 172 216 251 309 380
#
# _framework density 24.290661
#
# number of rings (size 3 to 8) (size 9 to 14) (size 15 to 20)
#    0.000    2.133    2.667    0.800    1.867    0.533 
#    7.200    0.000    0.000    0.000    0.000    0.000 
#    0.000    0.000    0.000    0.000    0.000    0.000 
#
# Total GULP energy -83743.291459 kJ/mol
# GULP energy per Si atom -5582.886097 kJ/mol
# Density = 2.423537 g / cm^3
# Si number density = 24.290661 Si / 1000 Ang^3
#
#
#
# Elastic Constant Matrix: (Units=GPa)
#
#
# Indices 1 2 3 4 5 6 
#
# 1 111.3209 24.9531 22.8786 0.0000 -43.5472 0.0000
# 2 24.9531 87.0347 37.5766 0.0000 -29.7127 0.0000
# 3 22.8786 37.5766 74.2934 0.0000 -35.3886 0.0000
# 4 0.0000 0.0000 0.0000 23.5482 0.0000 -15.3722
# 5 -43.5472 -29.7127 -35.3886 0.0000 54.5264 0.0000
# 6 0.0000 0.0000 0.0000 -15.3722 0.0000 22.7708
#
#
#
# Elastic Compliance Matrix: (Units=1/GPa)
#
#
# Indices 1 2 3 4 5 6 
#
# 1 0.013188 -0.000644 0.001613 0.000000 0.011229 0.000000
# 2 -0.000644 0.015578 -0.005620 0.000000 0.004327 0.000000
# 3 0.001613 -0.005620 0.021655 0.000000 0.012281 0.000000
# 4 0.000000 0.000000 0.000000 0.075926 0.000000 0.051256
# 5 0.011229 0.004327 0.012281 0.000000 0.037636 0.000000
# 6 0.000000 0.000000 0.000000 0.051256 0.000000 0.078518
#
#
# Mechanical properties :
#
#
# Convention : Reuss Voigt Hill
#
# Bulk Modulus (GPa) = 24.31881 49.27398 36.79640
# Shear Modulus (GPa) = 18.83171 32.65181 25.74176
#
# Velocity S-wave (km/s) = 2.78738 3.67033 3.25889
# Velocity P-wave (km/s) = 4.51582 6.18797 5.41681
#
# Compressibility (1/GPa) = 0.04112043
#
# Stress axis : x y z
#
# Youngs Moduli (GPa) = 75.82389 64.19413 46.17765
#
# Poissons Ratio (x) = 0.04136 -0.07449
# Poissons Ratio (y) = 0.04885 0.25950
# Poissons Ratio (z) = -0.12231 0.36074
#
# Static dielectric constant tensor:
#      x y z
#    x 2.012070 0.000000 0.014860 
#    y 0.000000 1.993210 0.000000 
#    z 0.014860 0.000000 1.979400 
# 
# From -- ./inp_files/36166.got.cif
#   From: 2010.05.17/outbox.cif.g08.bks.cpg/sg5_19_cif.got.tgz:36166.got - 2010.06.03 18:56:24.
