data_PCOD9120638
_publ_section_title
;
Structure prediction by ZEFSAII (Michael W. Deem and Ramdas Pophale) SiO2 
 PCOD9120638
Probable space group: C 2
;
_chemical_formula_sum "Si O2"
_cell_formula_units_Z 28
_cell_length_a 23.332221
_cell_length_b 5.257221
_cell_length_c 20.994806
_cell_angle_alpha 90.000000
_cell_angle_beta 154.595682
_cell_angle_gamma 90.000000
_cell_volume 1104.802692
_symmetry_space_group_name_H-M "C 2"
_symmetry_group_IT_number 5
_symmetry_cell_setting 'monoclinic'
loop_
_space_group_symop_operation_xyz
x,y,z
-x,y,-z
1/2+x,1/2+y,z
1/2-x,1/2+y,-z
loop_
_atom_site_type_symbol
_atom_site_label
_atom_site_fract_x
_atom_site_fract_y
_atom_site_fract_z
Si Si1 0.095698 0.261030 0.404226
Si Si2 0.898565 0.197812 0.000923
Si Si3 0.167976 0.290622 0.616179
Si Si4 0.640056 0.264960 0.410210
Si Si5 0.260625 0.967133 0.971128
Si Si6 0.295282 0.789549 0.702410
Si Si7 0.262238 0.667849 0.182063
O O1 0.080153 0.265060 0.464025
O O2 0.255604 0.266479 0.542969
O O3 0.049994 0.520069 0.327476
O O4 0.051153 0.013252 0.322916
O O5 0.055001 0.187363 0.145980
O O6 0.878038 0.321023 0.050046
O O7 0.831379 0.426611 0.892750
O O8 0.823283 0.927563 0.916195
O O9 0.211456 0.584456 0.658595
O O10 0.139086 0.222324 0.660297
O O11 0.280786 0.079721 0.710632
O O12 0.727841 0.275760 0.564018
O O13 0.179631 0.067710 0.826772
O O14 0.287705 0.232837 0.034016
#
# Coordination Sequence:
#
# PCOD9120638 Si02
#       7
#     4   4   4   4   4   4   4
#     4   8  14  25  39  55  77 112 149 172 194 226
#     4  10  20  30  43  64  84 113 143 175 203 260
#     4  10  19  28  41  61  91 122 143 168 199 242
#     4   8  14  25  39  55  77 112 149 172 194 226
#     4  10  18  34  49  58  77 108 140 188 224 238
#     4  10  19  28  41  61  91 122 143 168 199 242
#     4  10  20  30  43  64  84 113 143 175 203 260
#
# _framework density 25.343893000000001
#
# number of rings (size 3 to 8) (size 9 to 14) (size 15 to 20)
#    0.857    1.714    1.429    1.714    0.000    3.429 
#    0.000    0.000    0.000    0.000    0.000    0.000 
#    0.000    1.143    9.714    0.000    0.000    1.429 
#
# Total GULP energy -78009.536293 kJ/mol
# GULP energy per Si atom -5572.109735 kJ/mol
# Density = 2.528621 g / cm^3
# Si number density = 25.343893 Si / 1000 Ang^3
#
#
#
# Elastic Constant Matrix: (Units=GPa)
#
#
# Indices 1 2 3 4 5 6 
#
# 1 96.4183 10.8235 25.7176 0.0000 -35.6255 0.0000
# 2 10.8235 203.1734 24.1813 0.0002 -12.6237 0.0001
# 3 25.7176 24.1813 88.5976 0.0000 -19.4393 0.0000
# 4 0.0000 0.0002 0.0000 17.2964 0.0000 -16.7058
# 5 -35.6255 -12.6237 -19.4393 0.0000 32.5587 0.0000
# 6 0.0000 0.0001 0.0000 -16.7058 0.0000 36.6045
#
#
#
# Elastic Compliance Matrix: (Units=1/GPa)
#
#
# Indices 1 2 3 4 5 6 
#
# 1 0.017513 0.000355 -0.001088 0.000000 0.018651 0.000000
# 2 0.000355 0.005144 -0.001133 0.000000 0.001707 0.000000
# 3 -0.001088 -0.001133 0.013296 0.000000 0.006308 0.000000
# 4 0.000000 0.000000 0.000000 0.103391 0.000000 0.047186
# 5 0.018651 0.001707 0.006308 0.000000 0.055550 0.000000
# 6 0.000000 0.000000 0.000000 0.047186 0.000000 0.048854
#
#
# Mechanical properties :
#
#
# Convention : Reuss Voigt Hill
#
# Bulk Modulus (GPa) = 31.03473 56.62602 43.83038
# Shear Modulus (GPa) = 19.36337 39.12303 29.24320
#
# Velocity S-wave (km/s) = 2.76710 3.93324 3.40053
# Velocity P-wave (km/s) = 4.74143 6.55887 5.72276
#
# Compressibility (1/GPa) = 0.03222196
#
# Stress axis : x y z
#
# Youngs Moduli (GPa) = 57.10013 194.40771 75.20943
#
# Poissons Ratio (x) = -0.06909 0.08186
# Poissons Ratio (y) = -0.02029 0.08518
# Poissons Ratio (z) = 0.06215 0.22017
#
# Static dielectric constant tensor:
#      x y z
#    x 2.009650 0.000000 -0.011600 
#    y 0.000000 2.075010 0.000000 
#    z -0.011600 0.000000 1.990290 
# 
# From -- ./inp_files/67206.got.cif
#   From: 2010.05.17/outbox.cif.g08.bks.cpg/sg5_34_cif.got.tgz:67206.got - 2010.06.03 18:56:24.
