data_PCOD9120195
_publ_section_title
;
Structure prediction by ZEFSAII (Michael W. Deem and Ramdas Pophale) SiO2 
 PCOD9120195
Probable space group: C 2
;
_chemical_formula_sum "Si O2"
_cell_formula_units_Z 32
_cell_length_a 6.771025
_cell_length_b 16.495604
_cell_length_c 11.940293
_cell_angle_alpha 90.000000
_cell_angle_beta 98.922236
_cell_angle_gamma 90.000000
_cell_volume 1317.499621
_symmetry_space_group_name_H-M "C 2"
_symmetry_group_IT_number 5
_symmetry_cell_setting 'monoclinic'
loop_
_space_group_symop_operation_xyz
x,y,z
-x,y,-z
1/2+x,1/2+y,z
1/2-x,1/2+y,-z
loop_
_atom_site_type_symbol
_atom_site_label
_atom_site_fract_x
_atom_site_fract_y
_atom_site_fract_z
Si Si1 0.248728 0.842410 0.901460
Si Si2 0.810556 0.582625 0.546277
Si Si3 0.284918 0.956495 0.710888
Si Si4 0.265587 0.360473 0.841606
Si Si5 0.331730 0.515644 0.699003
Si Si6 0.235744 0.806054 0.545982
Si Si7 0.785734 0.694954 0.253884
Si Si8 0.737302 0.729827 0.671094
O O1 0.346366 0.909219 0.827795
O O2 0.281641 0.751983 0.855275
O O3 0.008431 0.853418 0.866263
O O4 0.295567 0.858919 0.034184
O O5 0.500000 0.122292 0.500000
O O6 0.895923 0.527072 0.653765
O O7 0.717277 0.529089 0.438079
O O8 0.677363 0.648003 0.600051
O O9 0.268002 0.886948 0.616717
O O10 0.067940 0.994882 0.718519
O O11 0.236100 0.439735 0.759787
O O12 0.183255 0.277823 0.778073
O O13 0.285796 0.602232 0.754320
O O14 0.294608 0.734757 0.637257
O O15 0.313108 0.796931 0.427672
O O16 0.000000 0.801944 0.500000
O O17 0.026411 0.707843 0.285704
#
# Coordination Sequence:
#
# PCOD9120195 Si02
#       8
#     4   4   4   4   4   4   4   4
#     4   8  17  36  55  82 107 148 195 233 273 333
#     4  12  21  33  53  83 120 148 181 227 289 345
#     4  10  21  33  57  82 112 144 189 236 281 332
#     4   9  18  32  59  82 107 145 203 234 262 331
#     4  11  19  33  55  87 111 140 187 243 281 326
#     4   9  14  29  51  76 101 144 181 215 270 334
#     4   9  16  29  54  78 107 140 180 234 277 320
#     4  10  17  31  52  78 110 147 185 224 272 338
#
# _framework density 24.288433000000001
#
# number of rings (size 3 to 8) (size 9 to 14) (size 15 to 20)
#    0.000    2.250    2.500    4.500    0.000    0.000 
#    2.250    0.000   11.000    0.750    0.000    0.000 
#    0.000    0.000    0.000    0.000    0.000    0.000 
#
# Total GULP energy -89332.211631 kJ/mol
# GULP energy per Si atom -5583.263227 kJ/mol
# Density = 2.423315 g / cm^3
# Si number density = 24.288433 Si / 1000 Ang^3
#
#
#
# Elastic Constant Matrix: (Units=GPa)
#
#
# Indices 1 2 3 4 5 6 
#
# 1 73.9016 37.9779 30.1851 0.0000 -2.3412 0.0000
# 2 37.9779 189.9121 108.2537 0.0000 -20.2299 0.0000
# 3 30.1851 108.2537 189.1726 0.0000 -10.3902 0.0000
# 4 0.0000 0.0000 0.0000 37.9389 0.0000 -5.7044
# 5 -2.3412 -20.2299 -10.3902 0.0000 41.2592 0.0000
# 6 0.0000 0.0000 0.0000 -5.7044 0.0000 35.0378
#
#
#
# Elastic Compliance Matrix: (Units=1/GPa)
#
#
# Indices 1 2 3 4 5 6 
#
# 1 0.015228 -0.002535 -0.001014 0.000000 -0.000634 0.000000
# 2 -0.002535 0.008555 -0.004329 0.000000 0.002961 0.000000
# 3 -0.001014 -0.004329 0.007915 0.000000 -0.000187 0.000000
# 4 0.000000 0.000000 0.000000 0.027020 0.000000 0.004399
# 5 -0.000634 0.002961 -0.000187 0.000000 0.025606 0.000000
# 6 0.000000 0.000000 0.000000 0.004399 0.000000 0.029257
#
#
# Mechanical properties :
#
#
# Convention : Reuss Voigt Hill
#
# Bulk Modulus (GPa) = 62.72280 89.53550 76.12915
# Shear Modulus (GPa) = 37.13325 41.28515 39.20920
#
# Velocity S-wave (km/s) = 3.91429 4.12732 4.02221
# Velocity P-wave (km/s) = 6.80508 7.72376 7.27893
#
# Compressibility (1/GPa) = 0.01594317
#
# Stress axis : x y z
#
# Youngs Moduli (GPa) = 65.66741 116.88645 126.34497
#
# Poissons Ratio (x) = 0.29627 0.12814
# Poissons Ratio (y) = 0.16645 0.54691
# Poissons Ratio (z) = 0.06660 0.50597
#
# Static dielectric constant tensor:
#      x y z
#    x 2.143870 0.000000 0.031300 
#    y 0.000000 1.942700 0.000000 
#    z 0.031300 0.000000 1.863160 
# 
# From -- ./inp_files/39886.got.cif
#   From: 2010.05.17/outbox.cif.g08.bks.cpg/sg5_20_cif.got.tgz:39886.got - 2010.06.03 18:56:24.
