data_PCOD9120644
_publ_section_title
;
Structure prediction by ZEFSAII (Michael W. Deem and Ramdas Pophale) SiO2 
 PCOD9120644
Probable space group: C 2
;
_chemical_formula_sum "Si O2"
_cell_formula_units_Z 28
_cell_length_a 9.352385
_cell_length_b 9.468689
_cell_length_c 25.030052
_cell_angle_alpha 90.000000
_cell_angle_beta 144.584362
_cell_angle_gamma 90.000000
_cell_volume 1284.488261
_symmetry_space_group_name_H-M "C 2"
_symmetry_group_IT_number 5
_symmetry_cell_setting 'monoclinic'
loop_
_space_group_symop_operation_xyz
x,y,z
-x,y,-z
1/2+x,1/2+y,z
1/2-x,1/2+y,-z
loop_
_atom_site_type_symbol
_atom_site_label
_atom_site_fract_x
_atom_site_fract_y
_atom_site_fract_z
Si Si1 0.000000 0.015260 0.000000
Si Si2 0.836865 0.203750 0.226752
Si Si3 0.833001 0.821476 0.044555
Si Si4 0.727202 0.761675 0.123296
Si Si5 0.873768 0.959753 0.648228
Si Si6 0.698625 0.390602 0.650311
Si Si7 0.772278 0.713566 0.679485
Si Si8 0.000000 0.688761 0.500000
O O1 0.781600 0.115303 0.912700
O O2 0.090307 0.932028 0.976479
O O3 0.571404 0.218123 0.118430
O O4 0.799874 0.222858 0.279862
O O5 0.969611 0.052419 0.261483
O O6 0.027768 0.323389 0.265440
O O7 0.799874 0.867994 0.096968
O O8 0.554055 0.777617 0.944087
O O9 0.933067 0.741941 0.229668
O O10 0.727495 0.080195 0.570490
O O11 0.061804 0.886949 0.665053
O O12 0.688993 0.847563 0.619223
O O13 0.714244 0.557388 0.640726
O O14 0.542398 0.292972 0.562519
#
# Coordination Sequence:
#
# PCOD9120644 Si02
#       8
#     2   4   4   4   4   4   4   2
#     4  10  18  34  54  76 112 154 200 248 288 332
#     4   9  20  39  57  87 123 155 198 247 290 344
#     4   9  18  34  56  78 115 160 196 240 288 330
#     4   9  21  36  51  83 119 153 201 248 284 337
#     4  10  23  40  63  88 117 154 195 243 297 358
#     4  10  22  40  63  88 119 153 192 242 297 358
#     4  10  21  38  61  87 120 161 199 240 297 350
#     4  10  24  42  60  90 122 146 190 248 298 362
#
# _framework density 21.798566000000001
#
# number of rings (size 3 to 8) (size 9 to 14) (size 15 to 20)
#    0.000    2.571    0.000    0.857    0.000   14.286 
#    0.000   11.429    0.000    0.000    0.000    0.000 
#    0.000    0.000    0.000    0.000    0.000    0.000 
#
# Total GULP energy -77978.131220 kJ/mol
# GULP energy per Si atom -5569.866516 kJ/mol
# Density = 2.174895 g / cm^3
# Si number density = 21.798566 Si / 1000 Ang^3
#
#
#
# Elastic Constant Matrix: (Units=GPa)
#
#
# Indices 1 2 3 4 5 6 
#
# 1 85.8940 62.0333 22.6166 0.0000 5.2098 0.0000
# 2 62.0333 111.6955 10.9482 0.0000 -11.1713 0.0000
# 3 22.6166 10.9482 64.2337 0.0000 2.4389 0.0000
# 4 0.0000 0.0000 0.0000 25.3440 0.0000 -3.2416
# 5 5.2098 -11.1713 2.4389 0.0000 19.0683 0.0000
# 6 0.0000 0.0000 0.0000 -3.2416 0.0000 36.0101
#
#
#
# Elastic Compliance Matrix: (Units=1/GPa)
#
#
# Indices 1 2 3 4 5 6 
#
# 1 0.024441 -0.014470 -0.005591 0.000000 -0.014440 0.000000
# 2 -0.014470 0.018299 0.001426 0.000000 0.014492 0.000000
# 3 -0.005591 0.001426 0.017288 0.000000 0.000152 0.000000
# 4 0.000000 0.000000 0.000000 0.039917 0.000000 0.003593
# 5 -0.014440 0.014492 0.000152 0.000000 0.064859 0.000000
# 6 0.000000 0.000000 0.000000 0.003593 0.000000 0.028093
#
#
# Mechanical properties :
#
#
# Convention : Reuss Voigt Hill
#
# Bulk Modulus (GPa) = 43.94248 50.33549 47.13899
# Shear Modulus (GPa) = 21.03029 27.16615 24.09822
#
# Velocity S-wave (km/s) = 3.10942 3.53404 3.32851
# Velocity P-wave (km/s) = 5.75270 6.30824 6.03686
#
# Compressibility (1/GPa) = 0.02275702
#
# Stress axis : x y z
#
# Youngs Moduli (GPa) = 40.91561 54.64825 57.84376
#
# Poissons Ratio (x) = 0.79076 0.32340
# Poissons Ratio (y) = 0.59205 -0.08247
# Poissons Ratio (z) = 0.22876 -0.07791
#
# Static dielectric constant tensor:
#      x y z
#    x 1.810720 0.000000 -0.008520 
#    y 0.000000 1.864470 0.000000 
#    z -0.008520 0.000000 1.886690 
# 
# From -- ./inp_files/70176.got.cif
#   From: 2010.05.17/outbox.cif.g08.bks.cpg/sg5_36_cif.got.tgz:70176.got - 2010.06.03 18:56:24.
