data_PCOD9120622
_publ_section_title
;
Structure prediction by ZEFSAII (Michael W. Deem and Ramdas Pophale) SiO2 
 PCOD9120622
Probable space group: C 2
;
_chemical_formula_sum "Si O2"
_cell_formula_units_Z 32
_cell_length_a 20.277557
_cell_length_b 11.108363
_cell_length_c 10.476061
_cell_angle_alpha 90.000000
_cell_angle_beta 132.927197
_cell_angle_gamma 90.000000
_cell_volume 1727.846343
_symmetry_space_group_name_H-M "C 2"
_symmetry_group_IT_number 5
_symmetry_cell_setting 'monoclinic'
loop_
_space_group_symop_operation_xyz
x,y,z
-x,y,-z
1/2+x,1/2+y,z
1/2-x,1/2+y,-z
loop_
_atom_site_type_symbol
_atom_site_label
_atom_site_fract_x
_atom_site_fract_y
_atom_site_fract_z
Si Si1 0.370156 0.841830 0.700177
Si Si2 0.132677 0.137398 0.745478
Si Si3 0.122842 0.984449 0.485662
Si Si4 0.797034 0.060524 0.904499
Si Si5 0.680933 0.092485 0.326788
Si Si6 0.756723 0.309805 0.288219
Si Si7 0.514304 0.650088 0.819308
Si Si8 0.198727 0.729307 0.606130
O O1 0.319627 0.839473 0.494388
O O2 0.456989 0.758143 0.800951
O O3 0.295672 0.782964 0.693356
O O4 0.383987 0.977524 0.768887
O O5 0.185063 0.243056 0.743096
O O6 0.052445 0.185999 0.728836
O O7 0.105387 0.045925 0.598893
O O8 0.193615 0.065938 0.929860
O O9 0.132387 0.842652 0.518775
O O10 0.218801 0.036427 0.562446
O O11 0.049124 0.034914 0.290702
O O12 0.718824 0.151534 0.757430
O O13 0.781820 0.931694 0.821234
O O14 0.895392 0.109654 0.990107
O O15 0.683341 0.210749 0.240141
O O16 0.671454 0.140756 0.456923
#
# Coordination Sequence:
#
# PCOD9120622 Si02
#       8
#     4   4   4   4   4   4   4   4
#     4  10  18  33  59  83 111 145 195 235 283 347
#     4   9  21  33  55  83 114 147 193 228 297 329
#     4  10  18  34  57  78 113 154 188 229 274 353
#     4  10  23  32  56  87 114 143 191 244 287 333
#     4   9  18  33  58  82 106 152 200 223 280 346
#     4  10  18  36  57  83 117 153 192 238 279 360
#     4  10  20  35  57  88 109 142 191 247 281 336
#     4  10  19  33  52  83 111 146 191 228 279 342
#
# _framework density 18.520166
#
# number of rings (size 3 to 8) (size 9 to 14) (size 15 to 20)
#    0.750    1.500    5.000    0.375    1.750    0.500 
#    0.000    0.000    0.000   12.000    0.000    0.000 
#    0.000    0.000    0.000    0.000    0.000    0.000 
#
# Total GULP energy -89069.165195 kJ/mol
# GULP energy per Si atom -5566.822825 kJ/mol
# Density = 1.847801 g / cm^3
# Si number density = 18.520166 Si / 1000 Ang^3
#
#
#
# Elastic Constant Matrix: (Units=GPa)
#
#
# Indices 1 2 3 4 5 6 
#
# 1 50.1008 22.7710 10.4437 0.0000 1.5320 0.0000
# 2 22.7710 126.8640 38.2031 0.0000 5.9749 0.0000
# 3 10.4437 38.2031 52.3896 0.0000 -5.7738 0.0000
# 4 0.0000 0.0000 0.0000 24.2650 0.0000 2.6908
# 5 1.5320 5.9749 -5.7738 0.0000 18.5979 0.0000
# 6 0.0000 0.0000 0.0000 2.6908 0.0000 16.8157
#
#
#
# Elastic Compliance Matrix: (Units=1/GPa)
#
#
# Indices 1 2 3 4 5 6 
#
# 1 0.021918 -0.003205 -0.002192 0.000000 -0.001456 0.000000
# 2 -0.003205 0.011195 -0.008171 0.000000 -0.005869 0.000000
# 3 -0.002192 -0.008171 0.026706 0.000000 0.011097 0.000000
# 4 0.000000 0.000000 0.000000 0.041956 0.000000 -0.006714
# 5 -0.001456 -0.005869 0.011097 0.000000 0.059220 0.000000
# 6 0.000000 0.000000 0.000000 -0.006714 0.000000 0.060542
#
#
# Mechanical properties :
#
#
# Convention : Reuss Voigt Hill
#
# Bulk Modulus (GPa) = 30.59860 41.35445 35.97653
# Shear Modulus (GPa) = 19.26263 22.46484 20.86374
#
# Velocity S-wave (km/s) = 3.22854 3.48658 3.36004
# Velocity P-wave (km/s) = 5.51866 6.21178 5.87545
#
# Compressibility (1/GPa) = 0.03268123
#
# Stress axis : x y z
#
# Youngs Moduli (GPa) = 45.62428 89.32665 37.44422
#
# Poissons Ratio (x) = 0.28632 0.08210
# Poissons Ratio (y) = 0.14624 0.30597
# Poissons Ratio (z) = 0.10003 0.72992
#
# Static dielectric constant tensor:
#      x y z
#    x 1.652420 0.000000 -0.000340 
#    y 0.000000 1.660880 0.000000 
#    z -0.000340 0.000000 1.657010 
# 
# From -- ./inp_files/47417.got.cif
#   From: 2010.05.17/outbox.cif.g08.bks.cpg/sg5_24_cif.got.tgz:47417.got - 2010.06.03 18:56:24.
