data_PCOD9120421
_publ_section_title
;
Structure prediction by ZEFSAII (Michael W. Deem and Ramdas Pophale) SiO2 
 PCOD9120421
Probable space group: C 2
;
_chemical_formula_sum "Si O2"
_cell_formula_units_Z 32
_cell_length_a 15.857086
_cell_length_b 23.646888
_cell_length_c 5.322707
_cell_angle_alpha 90.000000
_cell_angle_beta 69.392658
_cell_angle_gamma 90.000000
_cell_volume 1868.153190
_symmetry_space_group_name_H-M "C 2"
_symmetry_group_IT_number 5
_symmetry_cell_setting 'monoclinic'
loop_
_space_group_symop_operation_xyz
x,y,z
-x,y,-z
1/2+x,1/2+y,z
1/2-x,1/2+y,-z
loop_
_atom_site_type_symbol
_atom_site_label
_atom_site_fract_x
_atom_site_fract_y
_atom_site_fract_z
Si Si1 0.282762 0.981660 0.862978
Si Si2 0.441343 0.255118 0.314571
Si Si3 0.600586 0.091675 0.288385
Si Si4 0.093826 0.047336 0.995201
Si Si5 0.667470 0.150298 0.722090
Si Si6 0.736289 0.458456 0.414767
Si Si7 0.840425 0.085828 0.570340
Si Si8 0.058007 0.886874 0.682538
O O1 0.303687 0.953763 0.575305
O O2 0.350961 0.033090 0.833134
O O3 0.180068 0.005820 0.929166
O O4 0.277147 0.941123 0.105913
O O5 0.500000 0.237196 0.500000
O O6 0.360067 0.212792 0.337067
O O7 0.416632 0.320705 0.378195
O O8 0.500000 0.253055 0.000000
O O9 0.500000 0.085388 0.500000
O O10 0.652234 0.115220 0.480032
O O11 0.608660 0.130038 0.027088
O O12 0.115023 0.090810 0.748395
O O13 0.092870 0.076662 0.266800
O O14 0.000000 0.020089 0.000000
O O15 0.768999 0.135053 0.695452
O O16 0.712955 0.525327 0.396024
O O17 0.646799 0.424471 0.576019
O O18 0.000000 0.903978 0.500000
O O19 0.000000 0.891463 0.000000
#
# Coordination Sequence:
#
# PCOD9120421 Si02
#       8
#     4   4   4   4   4   4   4   4
#     4  10  19  33  44  72 101 129 173 218 244 317
#     4  10  21  35  50  74 104 138 184 220 248 309
#     4  12  21  32  51  73 102 140 175 208 266 316
#     4  10  18  30  45  63  95 132 161 203 251 300
#     4  12  19  35  50  72 105 139 174 216 260 299
#     4  10  18  31  49  63  99 136 161 210 265 281
#     4  10  19  31  45  69  99 128 170 214 246 308
#     4  10  21  35  50  74 103 138 186 219 246 308
#
# _framework density 17.129216
#
# number of rings (size 3 to 8) (size 9 to 14) (size 15 to 20)
#    0.000    1.500    5.000    3.375    0.000    6.000 
#    0.000    0.000    0.000    0.000    0.000    0.000 
#    0.000    4.000    0.000    0.375    0.250    0.000 
#
# Total GULP energy -89098.471373 kJ/mol
# GULP energy per Si atom -5568.654461 kJ/mol
# Density = 1.709023 g / cm^3
# Si number density = 17.129216 Si / 1000 Ang^3
#
#
#
# Elastic Constant Matrix: (Units=GPa)
#
#
# Indices 1 2 3 4 5 6 
#
# 1 42.4920 21.0762 18.6055 0.0000 12.1774 0.0000
# 2 21.0762 54.9964 13.1260 0.0000 0.3920 0.0000
# 3 18.6055 13.1260 128.8712 0.0000 27.5365 0.0000
# 4 0.0000 0.0000 0.0000 6.3775 0.0000 -2.9215
# 5 12.1774 0.3920 27.5365 0.0000 34.8689 0.0000
# 6 0.0000 0.0000 0.0000 -2.9215 0.0000 22.2103
#
#
#
# Elastic Compliance Matrix: (Units=1/GPa)
#
#
# Indices 1 2 3 4 5 6 
#
# 1 0.033218 -0.012343 -0.001311 0.000000 -0.010427 0.000000
# 2 -0.012343 0.023292 -0.001751 0.000000 0.005432 0.000000
# 3 -0.001311 -0.001751 0.009654 0.000000 -0.007147 0.000000
# 4 0.000000 0.000000 0.000000 0.166856 0.000000 0.021948
# 5 -0.010427 0.005432 -0.007147 0.000000 0.037903 0.000000
# 6 0.000000 0.000000 0.000000 0.021948 0.000000 0.047911
#
#
# Mechanical properties :
#
#
# Convention : Reuss Voigt Hill
#
# Bulk Modulus (GPa) = 28.28406 36.88611 32.58509
# Shear Modulus (GPa) = 13.83396 24.26147 19.04771
#
# Velocity S-wave (km/s) = 2.84495 3.76756 3.33829
# Velocity P-wave (km/s) = 5.22874 6.36450 5.82437
#
# Compressibility (1/GPa) = 0.03535560
#
# Stress axis : x y z
#
# Youngs Moduli (GPa) = 30.10407 42.93247 103.58043
#
# Poissons Ratio (x) = 0.52992 0.13575
# Poissons Ratio (y) = 0.37157 0.18137
# Poissons Ratio (z) = 0.03945 0.07517
#
# Static dielectric constant tensor:
#      x y z
#    x 1.647880 0.000000 0.022300 
#    y 0.000000 1.578460 0.000000 
#    z 0.022300 0.000000 1.699590 
# 
# From -- ./inp_files/7575.got.cif
#   From: 2010.05.17/outbox.cif.g08.bks.cpg/sg5_4_cif.got.tgz:7575.got - 2010.06.03 18:56:24.
