data_PCOD9120514
_publ_section_title
;
Structure prediction by ZEFSAII (Michael W. Deem and Ramdas Pophale) SiO2 
 PCOD9120514
Probable space group: C 2
;
_chemical_formula_sum "Si O2"
_cell_formula_units_Z 26
_cell_length_a 9.586372
_cell_length_b 13.395614
_cell_length_c 13.967896
_cell_angle_alpha 90.000000
_cell_angle_beta 40.487578
_cell_angle_gamma 90.000000
_cell_volume 1164.614099
_symmetry_space_group_name_H-M "C 2"
_symmetry_group_IT_number 5
_symmetry_cell_setting 'monoclinic'
loop_
_space_group_symop_operation_xyz
x,y,z
-x,y,-z
1/2+x,1/2+y,z
1/2-x,1/2+y,-z
loop_
_atom_site_type_symbol
_atom_site_label
_atom_site_fract_x
_atom_site_fract_y
_atom_site_fract_z
Si Si1 0.537256 0.357880 0.704798
Si Si2 0.238174 0.460528 0.008414
Si Si3 0.003070 0.145095 0.114220
Si Si4 0.131243 0.502016 0.275435
Si Si5 0.500000 0.840681 0.500000
Si Si6 0.835831 0.344579 0.238871
Si Si7 0.320483 0.501654 0.527961
O O1 0.413753 0.390463 0.865739
O O2 0.761966 0.298663 0.599060
O O3 0.354651 0.311273 0.732179
O O4 0.590810 0.461098 0.618749
O O5 0.298386 0.575913 0.958861
O O6 0.238663 0.458081 0.123743
O O7 0.999159 0.424619 0.107175
O O8 0.978950 0.247744 0.182500
O O9 0.794190 0.076918 0.239239
O O10 0.000000 0.164588 0.000000
O O11 0.064074 0.412702 0.378944
O O12 0.906825 0.554913 0.364973
O O13 0.739303 0.400908 0.380297
O O14 0.500000 0.553220 0.500000
#
# Coordination Sequence:
#
# PCOD9120514 Si02
#       7
#     4   4   4   4   2   4   4
#     4  10  18  32  53  81 109 146 189 226 272 333
#     4  10  19  33  57  83 111 145 192 236 285 326
#     4  10  19  33  55  86 111 142 192 234 279 340
#     4   9  18  32  52  80 108 145 191 230 275 332
#     4  10  18  32  52  80 108 152 192 220 274 332
#     4  10  20  36  57  83 112 149 188 235 284 333
#     4   8  17  33  51  77 109 147 189 225 275 330
#
# _framework density 22.324992000000002
#
# number of rings (size 3 to 8) (size 9 to 14) (size 15 to 20)
#    0.000    2.462    1.538    1.385    0.000    0.000 
#    4.154    0.000    1.692    9.231   20.000    0.000 
#    0.000    0.000    0.000    0.000    0.000    0.000 
#
# Total GULP energy -72441.219240 kJ/mol
# GULP energy per Si atom -5572.401480 kJ/mol
# Density = 2.227418 g / cm^3
# Si number density = 22.324992 Si / 1000 Ang^3
#
#
#
# Elastic Constant Matrix: (Units=GPa)
#
#
# Indices 1 2 3 4 5 6 
#
# 1 73.3428 10.6815 29.6187 -0.0001 -20.5503 0.0000
# 2 10.6815 43.1083 16.2043 -0.0004 -3.1044 0.0001
# 3 29.6187 16.2043 130.2772 -0.0015 -6.8126 0.0003
# 4 -0.0001 -0.0004 -0.0015 15.2725 0.0003 -8.1303
# 5 -20.5503 -3.1044 -6.8126 0.0003 52.6131 0.0000
# 6 0.0000 0.0001 0.0003 -8.1303 0.0000 14.8637
#
#
#
# Elastic Compliance Matrix: (Units=1/GPa)
#
#
# Indices 1 2 3 4 5 6 
#
# 1 0.017016 -0.002564 -0.003232 -0.000001 0.006076 0.000000
# 2 -0.002564 0.024779 -0.002492 0.000001 0.000138 0.000000
# 3 -0.003232 -0.002492 0.008706 0.000001 -0.000282 0.000000
# 4 -0.000001 0.000001 0.000001 0.092376 -0.000001 0.050529
# 5 0.006076 0.000138 -0.000282 -0.000001 0.021352 0.000000
# 6 0.000000 0.000000 0.000000 0.050529 0.000000 0.094917
#
#
# Mechanical properties :
#
#
# Convention : Reuss Voigt Hill
#
# Bulk Modulus (GPa) = 29.47626 39.97084 34.72355
# Shear Modulus (GPa) = 17.41976 29.23144 23.32560
#
# Velocity S-wave (km/s) = 2.79638 3.62243 3.23587
# Velocity P-wave (km/s) = 4.86397 5.95306 5.43586
#
# Compressibility (1/GPa) = 0.03392561
#
# Stress axis : x y z
#
# Youngs Moduli (GPa) = 58.76904 40.35619 114.86416
#
# Poissons Ratio (x) = 0.10346 0.37123
# Poissons Ratio (y) = 0.15067 0.28625
# Poissons Ratio (z) = 0.18994 0.10057
#
# Static dielectric constant tensor:
#      x y z
#    x 1.951760 0.000000 -0.058250 
#    y 0.000000 1.798600 0.000000 
#    z -0.058250 0.000000 1.870730 
# 
# From -- ./inp_files/60584.got.cif
#   From: 2010.05.17/outbox.cif.g08.bks.cpg/sg5_31_cif.got.tgz:60584.got - 2010.06.03 18:56:24.
