data_PCOD9120583
_publ_section_title
;
Structure prediction by ZEFSAII (Michael W. Deem and Ramdas Pophale) SiO2 
 PCOD9120583
Probable space group: C 2
;
_chemical_formula_sum "Si O2"
_cell_formula_units_Z 32
_cell_length_a 20.837392
_cell_length_b 19.705348
_cell_length_c 11.978089
_cell_angle_alpha 90.000000
_cell_angle_beta 159.018076
_cell_angle_gamma 90.000000
_cell_volume 1761.112368
_symmetry_space_group_name_H-M "C 2"
_symmetry_group_IT_number 5
_symmetry_cell_setting 'monoclinic'
loop_
_space_group_symop_operation_xyz
x,y,z
-x,y,-z
1/2+x,1/2+y,z
1/2-x,1/2+y,-z
loop_
_atom_site_type_symbol
_atom_site_label
_atom_site_fract_x
_atom_site_fract_y
_atom_site_fract_z
Si Si1 0.685582 0.026890 0.822778
Si Si2 0.216497 0.821113 0.371457
Si Si3 0.038070 0.104174 0.435695
Si Si4 0.320959 0.989619 0.936336
Si Si5 0.716402 0.418691 0.566363
Si Si6 0.281263 0.163588 0.635659
Si Si7 0.309263 0.434620 0.835163
Si Si8 0.293446 0.033489 0.520601
O O1 0.500000 0.065041 0.500000
O O2 0.696764 0.969070 0.748462
O O3 0.684712 0.989412 0.940133
O O4 0.848486 0.079732 0.078873
O O5 0.273854 0.858115 0.578482
O O6 0.261395 0.742489 0.452469
O O7 0.276758 0.869518 0.366468
O O8 0.000000 0.825060 0.000000
O O9 0.148960 0.035015 0.629571
O O10 0.165031 0.145340 0.557296
O O11 0.000000 0.131933 0.500000
O O12 0.292574 0.922706 0.814899
O O13 0.503418 0.027281 0.195084
O O14 0.782121 0.487783 0.613424
O O15 0.501316 0.419193 0.202481
O O16 0.237809 0.108727 0.467813
O O17 0.500000 0.157658 0.000000
O O18 0.320635 0.492796 0.757614
#
# Coordination Sequence:
#
# PCOD9120583 Si02
#       8
#     4   4   4   4   4   4   4   4
#     4  11  21  35  54  85 117 150 189 237 292 348
#     4   8  19  32  54  83 118 149 188 236 290 334
#     4  10  21  34  54  85 120 146 188 238 287 339
#     4  11  19  31  54  88 109 144 184 238 287 335
#     4  10  18  33  53  83 112 145 183 241 286 329
#     4  11  18  34  58  89 116 154 197 233 282 355
#     4  10  19  35  52  82 117 149 187 238 286 334
#     4  11  18  29  56  85 108 141 189 236 287 328
#
# _framework density 18.170335000000001
#
# number of rings (size 3 to 8) (size 9 to 14) (size 15 to 20)
#    0.000    1.750    5.000    1.500    0.000    0.000 
#    0.000    0.625    0.000   12.000    3.250    1.750 
#    0.000    0.000    0.000    0.000    0.000    0.000 
#
# Total GULP energy -89074.541792 kJ/mol
# GULP energy per Si atom -5567.158862 kJ/mol
# Density = 1.812898 g / cm^3
# Si number density = 18.170335 Si / 1000 Ang^3
#
#
#
# Elastic Constant Matrix: (Units=GPa)
#
#
# Indices 1 2 3 4 5 6 
#
# 1 107.7210 43.8811 26.1142 0.0000 -1.4025 0.0000
# 2 43.8811 109.4986 16.9846 0.0000 -10.1444 0.0000
# 3 26.1142 16.9846 77.7030 0.0000 10.2404 0.0000
# 4 0.0000 0.0000 0.0000 12.2930 0.0000 1.8582
# 5 -1.4025 -10.1444 10.2404 0.0000 31.0309 0.0000
# 6 0.0000 0.0000 0.0000 1.8582 0.0000 13.2524
#
#
#
# Elastic Compliance Matrix: (Units=1/GPa)
#
#
# Indices 1 2 3 4 5 6 
#
# 1 0.011742 -0.004219 -0.003045 0.000000 0.000156 0.000000
# 2 -0.004219 0.011454 -0.001625 0.000000 0.004090 0.000000
# 3 -0.003045 -0.001625 0.014988 0.000000 -0.005615 0.000000
# 4 0.000000 0.000000 0.000000 0.083108 0.000000 -0.011653
# 5 0.000156 0.004090 -0.005615 0.000000 0.035423 0.000000
# 6 0.000000 0.000000 0.000000 -0.011653 0.000000 0.077092
#
#
# Mechanical properties :
#
#
# Convention : Reuss Voigt Hill
#
# Bulk Modulus (GPa) = 49.00185 52.09805 50.54995
# Shear Modulus (GPa) = 19.35087 25.17812 22.26449
#
# Velocity S-wave (km/s) = 3.26693 3.72650 3.50426
# Velocity P-wave (km/s) = 6.42316 6.87386 6.65233
#
# Compressibility (1/GPa) = 0.02040739
#
# Stress axis : x y z
#
# Youngs Moduli (GPa) = 85.16484 87.30458 66.72049
#
# Poissons Ratio (x) = 0.36832 0.20314
# Poissons Ratio (y) = 0.35929 0.10841
# Poissons Ratio (z) = 0.25929 0.14186
#
# Static dielectric constant tensor:
#      x y z
#    x 1.697090 0.000000 -0.004420 
#    y 0.000000 1.607360 0.000000 
#    z -0.004420 0.000000 1.693340 
# 
# From -- ./inp_files/37220.got.cif
#   From: 2010.05.17/outbox.cif.g08.bks.cpg/sg5_19_cif.got.tgz:37220.got - 2010.06.03 18:56:24.
