data_PCOD9120126
_publ_section_title
;
Structure prediction by ZEFSAII (Michael W. Deem and Ramdas Pophale) SiO2 
 PCOD9120126
Probable space group: C 2
;
_chemical_formula_sum "Si O2"
_cell_formula_units_Z 28
_cell_length_a 35.646809
_cell_length_b 5.188551
_cell_length_c 7.025951
_cell_angle_alpha 90.000000
_cell_angle_beta 114.321298
_cell_angle_gamma 90.000000
_cell_volume 1184.157647
_symmetry_space_group_name_H-M "C 2"
_symmetry_group_IT_number 5
_symmetry_cell_setting 'monoclinic'
loop_
_space_group_symop_operation_xyz
x,y,z
-x,y,-z
1/2+x,1/2+y,z
1/2-x,1/2+y,-z
loop_
_atom_site_type_symbol
_atom_site_label
_atom_site_fract_x
_atom_site_fract_y
_atom_site_fract_z
Si Si1 0.345177 0.615270 0.499144
Si Si2 0.015908 0.230896 0.811992
Si Si3 0.899250 0.552810 0.044548
Si Si4 0.853247 0.059999 0.974425
Si Si5 0.109476 0.625541 0.422630
Si Si6 0.482441 0.218705 0.745328
Si Si7 0.276424 0.596712 0.074068
O O1 0.347012 0.587206 0.732255
O O2 0.356859 0.332152 0.448388
O O3 0.301187 0.675750 0.317151
O O4 0.377811 0.834081 0.500129
O O5 0.983969 0.433822 0.661328
O O6 0.057777 0.390872 0.870688
O O7 0.011322 0.943288 0.725401
O O8 0.000000 0.193705 0.000000
O O9 0.868316 0.344200 0.064066
O O10 0.891681 0.598186 0.806877
O O11 0.887546 0.838899 0.093786
O O12 0.810605 0.011649 0.990433
O O13 0.065794 0.766590 0.369431
O O14 0.500000 0.187450 0.000000
O O15 0.247508 0.350295 0.045625
#
# Coordination Sequence:
#
# PCOD9120126 Si02
#       7
#     4   4   4   4   4   4   4
#     4  10  23  39  63  93 126 161 208 250 320 378
#     4  10  17  24  44  80 127 161 207 255 296 339
#     4  10  18  33  53  86 133 163 205 262 296 368
#     4  10  23  39  63  93 126 161 208 250 320 378
#     4  10  18  33  53  86 133 163 205 262 296 368
#     4  10  17  24  44  80 127 161 207 255 296 339
#     4  12  26  46  70  94 123 160 207 262 330 396
#
# _framework density 23.645499999999998
#
# number of rings (size 3 to 8) (size 9 to 14) (size 15 to 20)
#    0.000    1.714    2.857    3.429    8.000    1.143 
#    0.000    0.000    0.000    0.000    0.000   15.000 
#    0.000    0.000    0.000    0.000    0.000    0.000 
#
# Total GULP energy -77971.839166 kJ/mol
# GULP energy per Si atom -5569.417083 kJ/mol
# Density = 2.359168 g / cm^3
# Si number density = 23.645500 Si / 1000 Ang^3
#
#
#
# Elastic Constant Matrix: (Units=GPa)
#
#
# Indices 1 2 3 4 5 6 
#
# 1 78.0753 17.7029 35.9274 0.0000 10.9996 0.0000
# 2 17.7029 158.3930 0.7754 0.0000 17.8844 0.0000
# 3 35.9274 0.7754 74.0765 0.0000 -20.2868 0.0000
# 4 0.0000 0.0000 0.0000 5.8255 0.0000 26.5825
# 5 10.9996 17.8844 -20.2868 0.0000 34.7400 0.0000
# 6 0.0000 0.0000 0.0000 26.5825 0.0000 39.6074
#
#
#
# Elastic Compliance Matrix: (Units=1/GPa)
#
#
# Indices 1 2 3 4 5 6 
#
# 1 0.021911 -0.000656 -0.014793 0.000000 -0.015239 0.000000
# 2 -0.000656 0.006815 -0.000782 0.000000 -0.003757 0.000000
# 3 -0.014793 -0.000782 0.026278 0.000000 0.020432 0.000000
# 4 0.000000 0.000000 0.000000 -0.083228 0.000000 0.055858
# 5 -0.015239 -0.003757 0.020432 0.000000 0.047476 0.000000
# 6 0.000000 0.000000 0.000000 0.055858 0.000000 -0.012241
#
#
# Mechanical properties :
#
#
# Convention : Reuss Voigt Hill
#
# Bulk Modulus (GPa) = 44.36359 46.59514 45.47936
# Shear Modulus (GPa) = 106.40874 33.11053 69.75963
#
# Velocity S-wave (km/s) = 6.71561 3.74610 5.43749
# Velocity P-wave (km/s) = 8.88455 6.20158 7.66142
#
# Compressibility (1/GPa) = 0.02254101
#
# Stress axis : x y z
#
# Youngs Moduli (GPa) = 45.63875 146.73929 38.05428
#
# Poissons Ratio (x) = 0.09624 0.56296
# Poissons Ratio (y) = 0.02993 0.02977
# Poissons Ratio (z) = 0.67516 0.11479
#
# Static dielectric constant tensor:
#      x y z
#    x 2.208810 0.000000 0.014670 
#    y 0.000000 1.922090 0.000000 
#    z 0.014670 0.000000 1.809730 
# 
# From -- ./inp_files/32317.got.cif
#   From: 2010.05.17/outbox.cif.g08.bks.cpg/sg5_17_cif.got.tgz:32317.got - 2010.06.03 18:56:24.
