data_PCOD9120885
_publ_section_title
;
Structure prediction by ZEFSAII (Michael W. Deem and Ramdas Pophale) SiO2 
 PCOD9120885
Probable space group: C 2
;
_chemical_formula_sum "Si O2"
_cell_formula_units_Z 28
_cell_length_a 7.006737
_cell_length_b 12.158942
_cell_length_c 19.816804
_cell_angle_alpha 90.000000
_cell_angle_beta 42.282975
_cell_angle_gamma 90.000000
_cell_volume 1135.864413
_symmetry_space_group_name_H-M "C 2"
_symmetry_group_IT_number 5
_symmetry_cell_setting 'monoclinic'
loop_
_space_group_symop_operation_xyz
x,y,z
-x,y,-z
1/2+x,1/2+y,z
1/2-x,1/2+y,-z
loop_
_atom_site_type_symbol
_atom_site_label
_atom_site_fract_x
_atom_site_fract_y
_atom_site_fract_z
Si Si1 0.385116 0.090250 0.329506
Si Si2 0.500000 0.415485 0.500000
Si Si3 0.411490 0.330248 0.378915
Si Si4 0.459490 0.768581 0.782988
Si Si5 0.871375 0.965138 0.144639
Si Si6 0.095793 0.504136 0.069469
Si Si7 0.000000 0.699111 0.000000
Si Si8 0.044354 0.036987 0.282015
O O1 0.321764 0.212017 0.374158
O O2 0.717646 0.060924 0.228041
O O3 0.220488 0.071030 0.302612
O O4 0.251831 0.997155 0.411873
O O5 0.389179 0.345053 0.465323
O O6 0.324416 0.442831 0.363162
O O7 0.750070 0.329132 0.279066
O O8 0.258801 0.851536 0.793991
O O9 0.536376 0.656666 0.725027
O O10 0.279337 0.756173 0.898796
O O11 0.741185 0.990625 0.103950
O O12 0.201787 0.949302 0.039744
O O13 0.095039 0.627600 0.039561
O O14 0.761373 0.486297 0.169501
#
# Coordination Sequence:
#
# PCOD9120885 Si02
#       8
#     4   2   4   4   4   4   2   4
#     4  10  21  42  64  86 117 156 197 245 307 351
#     4  10  22  42  60  92 118 148 194 256 310 362
#     4  11  22  42  66  86 120 155 195 252 301 360
#     4  11  20  37  63  85 127 162 197 244 297 343
#     4  10  18  36  61  82 117 168 194 236 295 355
#     4   9  17  33  55  83 124 155 202 233 282 340
#     4  10  20  30  54  92 122 162 200 248 272 348
#     4   9  21  40  58  92 122 157 200 243 284 357
#
# _framework density 24.650832000000001
#
# number of rings (size 3 to 8) (size 9 to 14) (size 15 to 20)
#    0.000    2.000    4.286    1.714    0.000    2.286 
#    7.714    0.000    0.000    0.000    0.000    0.000 
#    0.000    0.000    0.000    0.000    0.000    0.000 
#
# Total GULP energy -78071.539191 kJ/mol
# GULP energy per Si atom -5576.538514 kJ/mol
# Density = 2.459473 g / cm^3
# Si number density = 24.650832 Si / 1000 Ang^3
#
#
#
# Elastic Constant Matrix: (Units=GPa)
#
#
# Indices 1 2 3 4 5 6 
#
# 1 41.3585 33.8401 16.0936 -0.0071 10.7014 -0.0009
# 2 33.8401 150.2157 45.7050 -0.0043 33.7724 0.0010
# 3 16.0936 45.7050 105.3193 -0.0099 21.3047 0.0027
# 4 -0.0071 -0.0043 -0.0099 43.1143 0.0066 7.2560
# 5 10.7014 33.7724 21.3047 0.0066 38.8145 -0.0013
# 6 -0.0009 0.0010 0.0027 7.2560 -0.0013 27.8698
#
#
#
# Elastic Compliance Matrix: (Units=1/GPa)
#
#
# Indices 1 2 3 4 5 6 
#
# 1 0.030143 -0.005755 -0.001620 0.000004 -0.002414 0.000000
# 2 -0.005755 0.009952 -0.002260 0.000001 -0.005833 -0.000001
# 3 -0.001620 -0.002260 0.011513 0.000003 -0.003907 -0.000002
# 4 0.000004 0.000001 0.000003 0.024257 -0.000008 -0.006315
# 5 -0.002414 -0.005833 -0.003907 -0.000008 0.033648 0.000004
# 6 0.000000 -0.000001 -0.000002 -0.006315 0.000004 0.037525
#
#
# Mechanical properties :
#
#
# Convention : Reuss Voigt Hill
#
# Bulk Modulus (GPa) = 30.92271 54.24121 42.58196
# Shear Modulus (GPa) = 28.23451 35.37671 31.80561
#
# Velocity S-wave (km/s) = 3.38801 3.79240 3.59589
# Velocity P-wave (km/s) = 5.27981 6.42090 5.87811
#
# Compressibility (1/GPa) = 0.03233869
#
# Stress axis : x y z
#
# Youngs Moduli (GPa) = 33.17574 100.47862 86.85486
#
# Poissons Ratio (x) = 0.57822 0.14074
# Poissons Ratio (y) = 0.19092 0.19627
# Poissons Ratio (z) = 0.05376 0.22706
#
# Static dielectric constant tensor:
#      x y z
#    x 2.098930 0.000000 -0.022540 
#    y 0.000000 1.995500 0.000000 
#    z -0.022540 0.000000 2.013190 
# 
# From -- ./inp_files/64484.got.cif
#   From: 2010.05.17/outbox.cif.g08.bks.cpg/sg5_33_cif.got.tgz:64484.got - 2010.06.03 18:56:24.
