data_PCOD9120059
_publ_section_title
;
Structure prediction by ZEFSAII (Michael W. Deem and Ramdas Pophale) SiO2 
 PCOD9120059
Probable space group: C 2
;
_chemical_formula_sum "Si O2"
_cell_formula_units_Z 26
_cell_length_a 23.964832
_cell_length_b 6.994843
_cell_length_c 7.231738
_cell_angle_alpha 90.000000
_cell_angle_beta 47.589251
_cell_angle_gamma 90.000000
_cell_volume 895.044993
_symmetry_space_group_name_H-M "C 2"
_symmetry_group_IT_number 5
_symmetry_cell_setting 'monoclinic'
loop_
_space_group_symop_operation_xyz
x,y,z
-x,y,-z
1/2+x,1/2+y,z
1/2-x,1/2+y,-z
loop_
_atom_site_type_symbol
_atom_site_label
_atom_site_fract_x
_atom_site_fract_y
_atom_site_fract_z
Si Si1 0.211305 0.128660 0.275897
Si Si2 0.846053 0.071390 0.198545
Si Si3 0.555329 0.622080 0.541597
Si Si4 0.971997 0.693444 0.274830
Si Si5 0.000000 0.262379 0.000000
Si Si6 0.312450 0.062182 0.548573
Si Si7 0.867579 0.645747 0.013755
O O1 0.208220 0.350579 0.339800
O O2 0.298087 0.085693 0.037894
O O3 0.182734 0.025575 0.527574
O O4 0.142638 0.100337 0.289170
O O5 0.770653 0.161188 0.274695
O O6 0.864798 0.872631 0.058667
O O7 0.923729 0.184266 0.058686
O O8 0.500000 0.652063 0.500000
O O9 0.531639 0.424069 0.694708
O O10 0.546274 0.795826 0.707244
O O11 0.884052 0.644983 0.497795
O O12 0.044494 0.615333 0.227420
O O13 0.000000 0.644462 0.000000
O O14 0.343415 0.060334 0.267469
#
# Coordination Sequence:
#
# PCOD9120059 Si02
#       7
#     4   4   4   4   2   4   4
#     4   9  18  31  49  80 112 142 183 230 277 320
#     4   9  16  29  53  78 108 146 185 220 264 330
#     4  11  21  36  62  82 106 147 194 225 268 331
#     4  10  17  34  56  82 111 145 184 228 269 335
#     4  10  16  34  56  82 106 136 184 224 262 314
#     4   9  17  28  50  83 112 142 178 226 282 317
#     4   9  16  30  51  78 109 150 180 225 275 328
#
# _framework density 29.048819000000002
#
# number of rings (size 3 to 8) (size 9 to 14) (size 15 to 20)
#    0.000    2.462    2.308    2.769    0.000    1.231 
#   16.615    0.769    3.385    0.000    0.000    0.000 
#    0.000    0.000    0.000    0.000    0.000    0.000 
#
# Total GULP energy -72591.684333 kJ/mol
# GULP energy per Si atom -5583.975718 kJ/mol
# Density = 2.898270 g / cm^3
# Si number density = 29.048819 Si / 1000 Ang^3
#
#
#
# Elastic Constant Matrix: (Units=GPa)
#
#
# Indices 1 2 3 4 5 6 
#
# 1 248.8472 90.5530 85.9581 0.0000 -70.9886 0.0000
# 2 90.5530 286.0914 37.6209 0.0000 41.2224 0.0000
# 3 85.9581 37.6209 153.0703 0.0000 -28.2364 0.0000
# 4 0.0000 0.0000 0.0000 21.2414 0.0000 -20.2823
# 5 -70.9886 41.2224 -28.2364 0.0000 101.4754 0.0000
# 6 0.0000 0.0000 0.0000 -20.2823 0.0000 24.2661
#
#
#
# Elastic Compliance Matrix: (Units=1/GPa)
#
#
# Indices 1 2 3 4 5 6 
#
# 1 0.007589 -0.002913 -0.002475 0.000000 0.005804 0.000000
# 2 -0.002913 0.005074 -0.000388 0.000000 -0.004207 0.000000
# 3 -0.002475 -0.000388 0.008146 0.000000 0.000692 0.000000
# 4 0.000000 0.000000 0.000000 0.233156 0.000000 0.194878
# 5 0.005804 -0.004207 0.000692 0.000000 0.015816 0.000000
# 6 0.000000 0.000000 0.000000 0.194878 0.000000 0.204094
#
#
# Mechanical properties :
#
#
# Convention : Reuss Voigt Hill
#
# Bulk Modulus (GPa) = 108.01071 124.03031 116.02051
# Shear Modulus (GPa) = 10.23514 60.98838 35.61176
#
# Velocity S-wave (km/s) = 1.87912 4.58702 3.50512
# Velocity P-wave (km/s) = 6.47853 8.41690 7.51051
#
# Compressibility (1/GPa) = 0.00925834
#
# Stress axis : x y z
#
# Youngs Moduli (GPa) = 131.76859 197.06516 122.76067
#
# Poissons Ratio (x) = 0.57401 0.30386
# Poissons Ratio (y) = 0.38382 0.04757
# Poissons Ratio (z) = 0.32616 0.07636
#
# Static dielectric constant tensor:
#      x y z
#    x 2.360580 0.000000 0.001930 
#    y 0.000000 2.072230 0.000000 
#    z 0.001930 0.000000 2.176260 
# 
# From -- ./inp_files/26526.got.cif
#   From: 2010.05.17/outbox.cif.g08.bks.cpg/sg5_14_cif.got.tgz:26526.got - 2010.06.03 18:56:24.
