data_PCOD9120397
_publ_section_title
;
Structure prediction by ZEFSAII (Michael W. Deem and Ramdas Pophale) SiO2 
 PCOD9120397
Probable space group: C 2
;
_chemical_formula_sum "Si O2"
_cell_formula_units_Z 32
_cell_length_a 7.407413
_cell_length_b 18.511194
_cell_length_c 17.378244
_cell_angle_alpha 90.000000
_cell_angle_beta 38.792106
_cell_angle_gamma 90.000000
_cell_volume 1492.882007
_symmetry_space_group_name_H-M "C 2"
_symmetry_group_IT_number 5
_symmetry_cell_setting 'monoclinic'
loop_
_space_group_symop_operation_xyz
x,y,z
-x,y,-z
1/2+x,1/2+y,z
1/2-x,1/2+y,-z
loop_
_atom_site_type_symbol
_atom_site_label
_atom_site_fract_x
_atom_site_fract_y
_atom_site_fract_z
Si Si1 0.180254 0.651490 0.519524
Si Si2 0.830069 0.068649 0.718325
Si Si3 0.177837 0.318877 0.518555
Si Si4 0.174067 0.902352 0.287894
Si Si5 0.795650 0.061736 0.245965
Si Si6 0.832019 0.893285 0.240400
Si Si7 0.165022 0.577053 0.019921
Si Si8 0.750777 0.413627 0.974081
O O1 0.483260 0.613215 0.403264
O O2 0.242086 0.735189 0.511645
O O3 0.000000 0.645563 0.500000
O O4 0.985146 0.609574 0.646254
O O5 0.517603 0.099679 0.845239
O O6 0.011022 0.066069 0.739359
O O7 0.802907 0.986587 0.699154
O O8 0.478848 0.361496 0.414397
O O9 0.000000 0.336604 0.500000
O O10 0.951000 0.343588 0.659245
O O11 0.494101 0.876351 0.158387
O O12 0.996773 0.896312 0.266954
O O13 0.737509 0.976250 0.254386
O O14 0.000059 0.088564 0.108655
O O15 0.079332 0.871559 0.097282
O O16 0.130422 0.489189 0.032021
O O17 0.000000 0.606598 0.000000
O O18 0.500000 0.436274 0.000000
#
# Coordination Sequence:
#
# PCOD9120397 Si02
#       8
#     4   4   4   4   4   4   4   4
#     4  10  19  31  47  69  99 128 158 202 248 286
#     4   8  14  27  50  73  89 117 161 201 235 276
#     4  10  21  35  51  71  97 132 170 204 242 290
#     4   9  17  33  55  74  95 128 170 206 235 283
#     4   8  14  27  50  73  89 117 161 201 235 276
#     4   9  17  33  55  74  95 128 170 206 235 283
#     4   8  14  28  49  70  93 123 163 203 235 278
#     4  10  18  28  47  78 107 125 151 199 257 300
#
# _framework density 21.435048999999999
#
# number of rings (size 3 to 8) (size 9 to 14) (size 15 to 20)
#    0.000    3.000    0.000    3.375    0.000    4.000 
#    0.000    6.250    0.000    3.000    0.000    0.000 
#    0.000    0.000    0.000    0.000    0.000    0.000 
#
# Total GULP energy -89205.342388 kJ/mol
# GULP energy per Si atom -5575.333899 kJ/mol
# Density = 2.138626 g / cm^3
# Si number density = 21.435049 Si / 1000 Ang^3
#
#
#
# Elastic Constant Matrix: (Units=GPa)
#
#
# Indices 1 2 3 4 5 6 
#
# 1 50.7589 -5.3237 6.9300 0.0000 -14.2169 -0.0008
# 2 -5.3237 48.2390 67.1728 -0.0003 -10.2407 -0.0001
# 3 6.9300 67.1728 238.9964 -0.0028 -18.6988 -0.0007
# 4 0.0000 -0.0003 -0.0028 -4.9443 0.0001 -7.6887
# 5 -14.2169 -10.2407 -18.6988 0.0001 20.6882 0.0003
# 6 -0.0008 -0.0001 -0.0007 -7.6887 0.0003 13.9908
#
#
#
# Elastic Compliance Matrix: (Units=1/GPa)
#
#
# Indices 1 2 3 4 5 6 
#
# 1 0.027276 0.010513 -0.002014 0.000000 0.022127 0.000001
# 2 0.010513 0.039681 -0.010068 0.000002 0.017767 0.000001
# 3 -0.002014 -0.010068 0.007074 -0.000002 0.000026 -0.000001
# 4 0.000000 0.000002 -0.000002 -0.109054 0.000001 -0.059932
# 5 0.022127 0.017767 0.000026 0.000001 0.072361 0.000000
# 6 0.000001 0.000001 -0.000001 -0.059932 0.000000 0.038540
#
#
# Mechanical properties :
#
#
# Convention : Reuss Voigt Hill
#
# Bulk Modulus (GPa) = 14.10576 52.83916 33.47246
# Shear Modulus (GPa) = 48.71019 23.89460 36.30240
#
# Velocity S-wave (km/s) = 4.77220 3.34240 4.11980
# Velocity P-wave (km/s) = 6.07949 6.29284 6.18708
#
# Compressibility (1/GPa) = 0.07089304
#
# Stress axis : x y z
#
# Youngs Moduli (GPa) = 36.66204 25.20079 141.35761
#
# Poissons Ratio (x) = -0.26493 0.28475
# Poissons Ratio (y) = -0.38542 1.42314
# Poissons Ratio (z) = 0.07385 0.25371
#
# Static dielectric constant tensor:
#      x y z
#    x 1.846210 0.000000 0.008350 
#    y 0.000000 1.715640 0.000000 
#    z 0.008350 0.000000 1.837010 
# 
# From -- ./inp_files/64789.got.cif
#   From: 2010.05.17/outbox.cif.g08.bks.cpg/sg5_33_cif.got.tgz:64789.got - 2010.06.03 18:56:24.
