data_PCOD9120026
_publ_section_title
;
Structure prediction by ZEFSAII (Michael W. Deem and Ramdas Pophale) SiO2 
 PCOD9120026
Probable space group: C 2
;
_chemical_formula_sum "Si O2"
_cell_formula_units_Z 26
_cell_length_a 20.378659
_cell_length_b 7.679473
_cell_length_c 8.866376
_cell_angle_alpha 90.000000
_cell_angle_beta 68.655145
_cell_angle_gamma 90.000000
_cell_volume 1292.386638
_symmetry_space_group_name_H-M "C 2"
_symmetry_group_IT_number 5
_symmetry_cell_setting 'monoclinic'
loop_
_space_group_symop_operation_xyz
x,y,z
-x,y,-z
1/2+x,1/2+y,z
1/2-x,1/2+y,-z
loop_
_atom_site_type_symbol
_atom_site_label
_atom_site_fract_x
_atom_site_fract_y
_atom_site_fract_z
Si Si1 0.292088 0.245880 0.139454
Si Si2 0.597942 0.246935 0.704482
Si Si3 0.924069 0.576088 0.591829
Si Si4 0.000000 0.511409 0.000000
Si Si5 0.672479 0.581323 0.082443
Si Si6 0.975304 0.947130 0.680438
Si Si7 0.872929 0.429768 0.923604
O O1 0.329285 0.280078 0.268717
O O2 0.218806 0.139395 0.188827
O O3 0.294589 0.424288 0.040827
O O4 0.342317 0.108986 0.011117
O O5 0.607989 0.144370 0.538060
O O6 0.549707 0.128483 0.853240
O O7 0.546828 0.412137 0.714370
O O8 0.945385 0.752600 0.665399
O O9 0.878517 0.456962 0.739218
O O10 0.000000 0.489120 0.500000
O O11 0.949992 0.406681 0.930061
O O12 0.591479 0.539311 0.189932
O O13 0.671220 0.762068 0.991966
O O14 0.000000 0.024905 0.500000
#
# Coordination Sequence:
#
# PCOD9120026 Si02
#       7
#     4   4   4   2   4   4   4
#     4  11  23  40  60  90 124 167 204 256 317 379
#     4   9  18  35  65  86 124 163 204 259 320 361
#     4   9  16  35  59  88 119 162 199 259 318 364
#     4  10  16  32  54  96 114 150 204 260 300 370
#     4  12  23  39  63  90 127 169 209 254 318 382
#     4   9  18  36  62  91 120 160 205 258 308 366
#     4  11  21  35  62  86 123 160 207 254 310 377
#
# _framework density 20.117818
#
# number of rings (size 3 to 8) (size 9 to 14) (size 15 to 20)
#    0.000    2.154    6.154    0.923    0.000    1.846 
#    0.000    3.077    3.385    0.000    0.000    0.000 
#    0.000    0.000    0.000    0.000    0.000    0.000 
#
# Total GULP energy -72368.077385 kJ/mol
# GULP energy per Si atom -5566.775183 kJ/mol
# Density = 2.007203 g / cm^3
# Si number density = 20.117818 Si / 1000 Ang^3
#
#
#
# Elastic Constant Matrix: (Units=GPa)
#
#
# Indices 1 2 3 4 5 6 
#
# 1 100.7833 27.8239 25.6070 0.0000 37.0260 0.0000
# 2 27.8239 87.8216 21.2016 0.0000 8.2177 0.0000
# 3 25.6070 21.2016 59.8487 0.0000 15.4659 0.0000
# 4 0.0000 0.0000 0.0000 4.1589 0.0000 -5.8406
# 5 37.0260 8.2177 15.4659 0.0000 33.5584 0.0000
# 6 0.0000 0.0000 0.0000 -5.8406 0.0000 28.2689
#
#
#
# Elastic Compliance Matrix: (Units=1/GPa)
#
#
# Indices 1 2 3 4 5 6 
#
# 1 0.018059 -0.003595 -0.001739 0.000000 -0.018243 0.000000
# 2 -0.003595 0.013207 -0.003780 0.000000 0.002474 0.000000
# 3 -0.001739 -0.003780 0.020498 0.000000 -0.006603 0.000000
# 4 0.000000 0.000000 0.000000 0.338738 0.000000 0.069987
# 5 -0.018243 0.002474 -0.006603 0.000000 0.052364 0.000000
# 6 0.000000 0.000000 0.000000 0.069987 0.000000 0.049834
#
#
# Mechanical properties :
#
#
# Convention : Reuss Voigt Hill
#
# Bulk Modulus (GPa) = 29.81805 44.19094 37.00450
# Shear Modulus (GPa) = 9.57662 24.78531 17.18097
#
# Velocity S-wave (km/s) = 2.18417 3.51381 2.92553
# Velocity P-wave (km/s) = 4.60594 6.20292 5.46310
#
# Compressibility (1/GPa) = 0.03353673
#
# Stress axis : x y z
#
# Youngs Moduli (GPa) = 55.37517 75.71991 48.78512
#
# Poissons Ratio (x) = 0.27218 0.08483
# Poissons Ratio (y) = 0.19905 0.18440
# Poissons Ratio (z) = 0.09629 0.28621
#
# Static dielectric constant tensor:
#      x y z
#    x 1.813860 0.000000 0.023090 
#    y 0.000000 1.736270 0.000000 
#    z 0.023090 0.000000 1.724360 
# 
# From -- ./inp_files/30451.got.cif
#   From: 2010.05.17/outbox.cif.g08.bks.cpg/sg5_16_cif.got.tgz:30451.got - 2010.06.03 18:56:24.
