data_PCOD9120892
_publ_section_title
;
Structure prediction by ZEFSAII (Michael W. Deem and Ramdas Pophale) SiO2 
 PCOD9120892
Probable space group: C 2
;
_chemical_formula_sum "Si O2"
_cell_formula_units_Z 30
_cell_length_a 19.614450
_cell_length_b 8.307463
_cell_length_c 9.080125
_cell_angle_alpha 90.000000
_cell_angle_beta 90.510144
_cell_angle_gamma 90.000000
_cell_volume 1479.514286
_symmetry_space_group_name_H-M "C 2"
_symmetry_group_IT_number 5
_symmetry_cell_setting 'monoclinic'
loop_
_space_group_symop_operation_xyz
x,y,z
-x,y,-z
1/2+x,1/2+y,z
1/2-x,1/2+y,-z
loop_
_atom_site_type_symbol
_atom_site_label
_atom_site_fract_x
_atom_site_fract_y
_atom_site_fract_z
Si Si1 0.722307 0.330520 0.366649
Si Si2 0.735537 0.746075 0.066567
Si Si3 0.000000 0.096330 0.000000
Si Si4 0.238974 0.456887 0.345827
Si Si5 0.542271 0.836975 0.737953
Si Si6 0.119444 0.014867 0.198019
Si Si7 0.906674 0.298819 0.586105
Si Si8 0.824061 0.482242 0.166163
O O1 0.710590 0.374145 0.536360
O O2 0.656630 0.360298 0.264134
O O3 0.778616 0.462562 0.313169
O O4 0.745752 0.147667 0.354751
O O5 0.749026 0.887368 0.183837
O O6 0.676978 0.624835 0.121419
O O7 0.802957 0.637447 0.071867
O O8 0.705333 0.828663 0.922794
O O9 0.030857 0.210216 0.870611
O O10 0.941468 0.995568 0.917638
O O11 0.163497 0.393256 0.389736
O O12 0.467849 0.887760 0.676261
O O13 0.576723 0.776323 0.585757
O O14 0.596503 0.965609 0.799579
O O15 0.096795 0.125591 0.335087
#
# Coordination Sequence:
#
# PCOD9120892 Si02
#       8
#     4   4   2   4   4   4   4   4
#     4  11  22  35  60  84 118 148 191 242 298 341
#     4  10  21  35  57  85 118 147 194 231 295 342
#     4  10  18  36  62  82 118 156 196 236 286 350
#     4  11  21  38  58  86 115 152 185 246 292 350
#     4  10  19  33  60  85 112 155 193 236 278 353
#     4   9  19  35  56  86 113 154 190 237 279 348
#     4   9  19  35  58  84 112 150 200 228 284 347
#     4  11  20  36  56  87 115 151 193 243 285 347
#
# _framework density 20.276924000000001
#
# number of rings (size 3 to 8) (size 9 to 14) (size 15 to 20)
#    0.000    1.867    2.667    3.200    0.000    0.000 
#    0.000    0.000    8.800    6.400    0.000    0.000 
#    0.000    0.000    0.000    0.000    0.000    0.000 
#
# Total GULP energy -83644.329130 kJ/mol
# GULP energy per Si atom -5576.288609 kJ/mol
# Density = 2.023077 g / cm^3
# Si number density = 20.276924 Si / 1000 Ang^3
#
#
#
# Elastic Constant Matrix: (Units=GPa)
#
#
# Indices 1 2 3 4 5 6 
#
# 1 71.4432 10.5574 23.9326 0.0000 27.5573 0.0000
# 2 10.5574 61.9597 15.7400 0.0000 15.4847 0.0000
# 3 23.9326 15.7400 99.6296 0.0000 21.2024 0.0000
# 4 0.0000 0.0000 0.0000 24.4252 0.0000 9.5748
# 5 27.5573 15.4847 21.2024 0.0000 37.5317 0.0000
# 6 0.0000 0.0000 0.0000 9.5748 0.0000 23.1769
#
#
#
# Elastic Compliance Matrix: (Units=1/GPa)
#
#
# Indices 1 2 3 4 5 6 
#
# 1 0.019853 0.000534 -0.001937 0.000000 -0.013702 0.000000
# 2 0.000534 0.018192 -0.001502 0.000000 -0.007049 0.000000
# 3 -0.001937 -0.001502 0.011713 0.000000 -0.004575 0.000000
# 4 0.000000 0.000000 0.000000 0.048853 0.000000 -0.020182
# 5 -0.013702 -0.007049 -0.004575 0.000000 0.042198 0.000000
# 6 0.000000 0.000000 0.000000 -0.020182 0.000000 0.051484
#
#
# Mechanical properties :
#
#
# Convention : Reuss Voigt Hill
#
# Bulk Modulus (GPa) = 22.75482 37.05474 29.90478
# Shear Modulus (GPa) = 23.50150 29.21359 26.35755
#
# Velocity S-wave (km/s) = 3.40814 3.79981 3.60929
# Velocity P-wave (km/s) = 5.17046 6.12907 5.67006
#
# Compressibility (1/GPa) = 0.04394674
#
# Stress axis : x y z
#
# Youngs Moduli (GPa) = 50.37139 54.96989 85.37179
#
# Poissons Ratio (x) = -0.02935 0.16538
# Poissons Ratio (y) = -0.02689 0.12825
# Poissons Ratio (z) = 0.09758 0.08258
#
# Static dielectric constant tensor:
#      x y z
#    x 1.768970 0.000000 -0.016400 
#    y 0.000000 1.687420 0.000000 
#    z -0.016400 0.000000 1.771270 
# 
# From -- ./inp_files/28922.got.cif
#   From: 2010.05.17/outbox.cif.g08.bks.cpg/sg5_15_cif.got.tgz:28922.got - 2010.06.03 18:56:24.
