data_PCOD9120594
_publ_section_title
;
Structure prediction by ZEFSAII (Michael W. Deem and Ramdas Pophale) SiO2 
 PCOD9120594
Probable space group: C 2
;
_chemical_formula_sum "Si O2"
_cell_formula_units_Z 28
_cell_length_a 7.042929
_cell_length_b 13.553210
_cell_length_c 18.515614
_cell_angle_alpha 90.000000
_cell_angle_beta 39.607053
_cell_angle_gamma 90.000000
_cell_volume 1126.747532
_symmetry_space_group_name_H-M "C 2"
_symmetry_group_IT_number 5
_symmetry_cell_setting 'monoclinic'
loop_
_space_group_symop_operation_xyz
x,y,z
-x,y,-z
1/2+x,1/2+y,z
1/2-x,1/2+y,-z
loop_
_atom_site_type_symbol
_atom_site_label
_atom_site_fract_x
_atom_site_fract_y
_atom_site_fract_z
Si Si1 0.199522 0.004170 0.539928
Si Si2 0.104796 0.124737 0.259803
Si Si3 0.375645 0.533481 0.111114
Si Si4 0.496817 0.119359 0.664003
Si Si5 0.753560 0.458447 0.121828
Si Si6 0.938479 0.831342 0.701726
Si Si7 0.755669 0.302266 0.869656
O O1 0.500000 0.991329 0.500000
O O2 0.304144 0.034306 0.429876
O O3 0.018183 0.096910 0.625874
O O4 0.011403 0.907653 0.615983
O O5 0.240061 0.229801 0.200075
O O6 0.795592 0.120497 0.302968
O O7 0.317393 0.035701 0.168292
O O8 0.110368 0.591795 0.224925
O O9 0.629820 0.531779 0.097291
O O10 0.305533 0.417047 0.127024
O O11 0.500000 0.571503 0.000000
O O12 0.611626 0.230847 0.635175
O O13 0.528440 0.386060 0.230458
O O14 0.000000 0.403824 0.000000
O O15 0.587606 0.803155 0.805573
O O16 0.500000 0.268869 0.000000
#
# Coordination Sequence:
#
# PCOD9120594 Si02
#       7
#     4   4   4   4   4   4   4
#     4   9  18  37  60  83 114 152 194 239 283 342
#     4   8  17  32  56  83 108 147 195 231 279 345
#     4  10  21  36  53  79 116 155 191 238 292 339
#     4   9  19  36  56  80 115 152 190 241 291 332
#     4  10  18  33  56  81 110 148 190 236 282 338
#     4  10  21  37  59  88 113 149 198 234 283 351
#     4  10  19  35  56  84 119 149 184 237 291 345
#
# _framework density 24.850289
#
# number of rings (size 3 to 8) (size 9 to 14) (size 15 to 20)
#    0.000    2.571    0.000    3.000    0.000    1.714 
#    0.000   10.714    0.000    0.000    0.000    0.000 
#    0.000    0.000    0.000    0.000    0.000    0.000 
#
# Total GULP energy -78133.858959 kJ/mol
# GULP energy per Si atom -5580.989926 kJ/mol
# Density = 2.479373 g / cm^3
# Si number density = 24.850289 Si / 1000 Ang^3
#
#
#
# Elastic Constant Matrix: (Units=GPa)
#
#
# Indices 1 2 3 4 5 6 
#
# 1 44.6265 2.1165 29.3858 -0.0051 8.0332 -0.0008
# 2 2.1165 110.1413 56.1211 -0.0012 20.0735 0.0056
# 3 29.3858 56.1211 142.7963 -0.0151 26.3324 0.0006
# 4 -0.0051 -0.0012 -0.0151 25.5583 0.0069 4.1485
# 5 8.0332 20.0735 26.3324 0.0069 50.6939 0.0012
# 6 -0.0008 0.0056 0.0006 4.1485 0.0012 23.6414
#
#
#
# Elastic Compliance Matrix: (Units=1/GPa)
#
#
# Indices 1 2 3 4 5 6 
#
# 1 0.026831 0.003115 -0.006342 0.000002 -0.002191 0.000000
# 2 0.003115 0.011987 -0.004850 -0.000001 -0.002721 -0.000002
# 3 -0.006342 -0.004850 0.010700 0.000006 -0.002632 0.000000
# 4 0.000002 -0.000001 0.000006 0.040273 -0.000008 -0.007067
# 5 -0.002191 -0.002721 -0.002632 -0.000008 0.022518 0.000001
# 6 0.000000 -0.000002 0.000000 -0.007067 0.000001 0.043539
#
#
# Mechanical properties :
#
#
# Convention : Reuss Voigt Hill
#
# Bulk Modulus (GPa) = 29.97306 52.53456 41.25381
# Shear Modulus (GPa) = 27.30419 33.97476 30.63947
#
# Velocity S-wave (km/s) = 3.31833 3.70155 3.51517
# Velocity P-wave (km/s) = 5.17392 6.28132 5.75432
#
# Compressibility (1/GPa) = 0.03336329
#
# Stress axis : x y z
#
# Youngs Moduli (GPa) = 37.27064 83.42633 93.46081
#
# Poissons Ratio (x) = -0.25988 0.59270
# Poissons Ratio (y) = -0.11610 0.45331
# Poissons Ratio (z) = 0.23636 0.40464
#
# Static dielectric constant tensor:
#      x y z
#    x 2.128750 0.000010 -0.092820 
#    y 0.000010 1.950450 -0.000010 
#    z -0.092820 -0.000010 2.007670 
# 
# From -- ./inp_files/36086.got.cif
#   From: 2010.05.17/outbox.cif.g08.bks.cpg/sg5_19_cif.got.tgz:36086.got - 2010.06.03 18:56:24.
