data_PCOD9120086
_publ_section_title
;
Structure prediction by ZEFSAII (Michael W. Deem and Ramdas Pophale) SiO2 
 PCOD9120086
Probable space group: C 2
;
_chemical_formula_sum "Si O2"
_cell_formula_units_Z 30
_cell_length_a 18.150599
_cell_length_b 8.799057
_cell_length_c 8.011233
_cell_angle_alpha 90.000000
_cell_angle_beta 68.689602
_cell_angle_gamma 90.000000
_cell_volume 1191.976588
_symmetry_space_group_name_H-M "C 2"
_symmetry_group_IT_number 5
_symmetry_cell_setting 'monoclinic'
loop_
_space_group_symop_operation_xyz
x,y,z
-x,y,-z
1/2+x,1/2+y,z
1/2-x,1/2+y,-z
loop_
_atom_site_type_symbol
_atom_site_label
_atom_site_fract_x
_atom_site_fract_y
_atom_site_fract_z
Si Si1 0.885743 0.401120 0.193658
Si Si2 0.522119 0.347936 0.245233
Si Si3 0.000000 0.630453 0.000000
Si Si4 0.609890 0.621933 0.046036
Si Si5 0.777264 0.203219 0.494131
Si Si6 0.257660 0.011104 0.065295
Si Si7 0.154104 0.916143 0.689682
Si Si8 0.168789 0.713604 0.252226
O O1 0.955565 0.518620 0.162837
O O2 0.907832 0.281215 0.027626
O O3 0.851034 0.308562 0.376241
O O4 0.815024 0.500639 0.175265
O O5 0.552331 0.244197 0.065055
O O6 0.427821 0.343537 0.305011
O O7 0.578431 0.274050 0.338813
O O8 0.542571 0.524711 0.192956
O O9 0.683485 0.625535 0.111486
O O10 0.637280 0.518419 0.866112
O O11 0.813310 0.035185 0.476807
O O12 0.723749 0.296832 0.665854
O O13 0.715949 0.196584 0.386452
O O14 0.314128 0.059897 0.865230
O O15 0.212413 0.849529 0.114102
#
# Coordination Sequence:
#
# PCOD9120086 Si02
#       8
#     4   4   2   4   4   4   4   4
#     4  10  22  35  56  90 120 150 194 251 305 356
#     4  11  23  36  61  92 118 155 199 255 311 354
#     4  12  22  30  58  94 120 142 200 250 302 358
#     4  10  20  38  60  85 123 154 191 255 310 348
#     4  10  24  41  60  84 118 165 201 243 296 365
#     4  10  16  35  57  85 115 148 194 242 298 358
#     4  11  22  40  57  85 119 160 204 243 295 358
#     4  10  20  38  58  88 120 155 196 245 306 360
#
# _framework density 25.168279999999999
#
# number of rings (size 3 to 8) (size 9 to 14) (size 15 to 20)
#    0.000    1.600    6.667    0.000    5.600    0.533 
#    2.400    0.000    0.000    0.000    6.933    0.000 
#    0.000    0.000    0.000    0.000    0.000    0.000 
#
# Total GULP energy -83735.810665 kJ/mol
# GULP energy per Si atom -5582.387378 kJ/mol
# Density = 2.511100 g / cm^3
# Si number density = 25.168280 Si / 1000 Ang^3
#
#
#
# Elastic Constant Matrix: (Units=GPa)
#
#
# Indices 1 2 3 4 5 6 
#
# 1 81.6677 26.3136 15.2404 0.0000 -23.9299 0.0000
# 2 26.3136 120.5593 14.5627 0.0000 -18.4737 0.0000
# 3 15.2404 14.5627 37.6967 0.0000 -7.2533 0.0000
# 4 0.0000 0.0000 0.0000 31.4420 0.0000 -11.5564
# 5 -23.9299 -18.4737 -7.2533 0.0000 40.6915 0.0000
# 6 0.0000 0.0000 0.0000 -11.5564 0.0000 40.9398
#
#
#
# Elastic Compliance Matrix: (Units=1/GPa)
#
#
# Indices 1 2 3 4 5 6 
#
# 1 0.015886 -0.001762 -0.004244 0.000000 0.007786 0.000000
# 2 -0.001762 0.009396 -0.002378 0.000000 0.002806 0.000000
# 3 -0.004244 -0.002378 0.029485 0.000000 0.001681 0.000000
# 4 0.000000 0.000000 0.000000 0.035486 0.000000 0.010017
# 5 0.007786 0.002806 0.001681 0.000000 0.030727 0.000000
# 6 0.000000 0.000000 0.000000 0.010017 0.000000 0.027254
#
#
# Mechanical properties :
#
#
# Convention : Reuss Voigt Hill
#
# Bulk Modulus (GPa) = 26.31522 39.12857 32.72189
# Shear Modulus (GPa) = 28.14240 34.86848 31.50544
#
# Velocity S-wave (km/s) = 3.34753 3.72615 3.54190
# Velocity P-wave (km/s) = 5.04180 5.83891 5.45493
#
# Compressibility (1/GPa) = 0.03800082
#
# Stress axis : x y z
#
# Youngs Moduli (GPa) = 62.94988 106.42405 33.91534
#
# Poissons Ratio (x) = 0.18747 0.14393
# Poissons Ratio (y) = 0.11089 0.08065
# Poissons Ratio (z) = 0.26715 0.25306
#
# Static dielectric constant tensor:
#      x y z
#    x 2.030740 0.000000 0.018780 
#    y 0.000000 1.980110 0.000000 
#    z 0.018780 0.000000 2.190010 
# 
# From -- ./inp_files/45857.got.cif
#   From: 2010.05.17/outbox.cif.g08.bks.cpg/sg5_23_cif.got.tgz:45857.got - 2010.06.03 18:56:24.
