data_PCOD9120473
_publ_section_title
;
Structure prediction by ZEFSAII (Michael W. Deem and Ramdas Pophale) SiO2 
 PCOD9120473
Probable space group: C 2
;
_chemical_formula_sum "Si O2"
_cell_formula_units_Z 32
_cell_length_a 21.544392
_cell_length_b 16.291364
_cell_length_c 9.682385
_cell_angle_alpha 90.000000
_cell_angle_beta 153.783899
_cell_angle_gamma 90.000000
_cell_volume 1501.268733
_symmetry_space_group_name_H-M "C 2"
_symmetry_group_IT_number 5
_symmetry_cell_setting 'monoclinic'
loop_
_space_group_symop_operation_xyz
x,y,z
-x,y,-z
1/2+x,1/2+y,z
1/2-x,1/2+y,-z
loop_
_atom_site_type_symbol
_atom_site_label
_atom_site_fract_x
_atom_site_fract_y
_atom_site_fract_z
Si Si1 0.343521 0.962620 0.908169
Si Si2 0.775543 0.967781 0.614126
Si Si3 0.434240 0.215362 0.222095
Si Si4 0.272656 0.401435 0.081687
Si Si5 0.636201 0.735158 0.688791
Si Si6 0.455035 0.393685 0.187701
Si Si7 0.564038 0.101498 0.267719
Si Si8 0.451912 0.824161 0.759816
O O1 0.225637 0.969689 0.554243
O O2 0.319063 0.968902 0.022846
O O3 0.414940 0.874159 0.031976
O O4 0.456133 0.028196 0.083504
O O5 0.665651 0.894092 0.439040
O O6 0.710365 0.054890 0.534118
O O7 0.915902 0.943414 0.974009
O O8 0.500000 0.239583 0.500000
O O9 0.413504 0.298079 0.092087
O O10 0.543015 0.160538 0.354900
O O11 0.278196 0.182306 0.947563
O O12 0.351773 0.428257 0.101644
O O13 0.391042 0.389874 0.437119
O O14 0.189345 0.318433 0.875079
O O15 0.500000 0.702716 0.500000
O O16 0.592143 0.763117 0.447765
O O17 0.500000 0.141352 0.000000
O O18 0.500000 0.784883 0.000000
#
# Coordination Sequence:
#
# PCOD9120473 Si02
#       8
#     4   4   4   4   4   4   4   4
#     4   9  18  32  55  84 110 140 198 249 292 347
#     4   9  17  34  56  82 111 145 196 255 291 345
#     4  11  21  39  56  87 128 162 195 247 304 370
#     4  10  18  31  52  83 118 148 187 249 306 344
#     4  11  19  33  56  83 125 159 193 246 310 351
#     4  10  19  34  53  84 121 152 190 248 303 352
#     4   9  21  40  60  84 116 160 205 247 296 372
#     4   9  16  28  50  83 111 136 188 246 294 338
#
# _framework density 21.315304000000001
#
# number of rings (size 3 to 8) (size 9 to 14) (size 15 to 20)
#    0.000    2.250    6.250    1.500    0.000    1.500 
#    2.250    1.250    5.500    0.000    0.000    0.000 
#    0.000    0.000    0.000    0.000    0.000    0.000 
#
# Total GULP energy -89081.259338 kJ/mol
# GULP energy per Si atom -5567.578709 kJ/mol
# Density = 2.126679 g / cm^3
# Si number density = 21.315304 Si / 1000 Ang^3
#
#
#
# Elastic Constant Matrix: (Units=GPa)
#
#
# Indices 1 2 3 4 5 6 
#
# 1 80.9286 18.7367 7.6851 0.0000 -11.7793 0.0000
# 2 18.7367 22.2438 11.8713 0.0000 -14.6180 0.0000
# 3 7.6851 11.8713 79.1107 0.0000 -8.4000 0.0000
# 4 0.0000 0.0000 0.0000 7.0729 0.0000 -1.8913
# 5 -11.7793 -14.6180 -8.4000 0.0000 32.3356 0.0000
# 6 0.0000 0.0000 0.0000 -1.8913 0.0000 13.4169
#
#
#
# Elastic Compliance Matrix: (Units=1/GPa)
#
#
# Indices 1 2 3 4 5 6 
#
# 1 0.015370 -0.013435 0.000486 0.000000 -0.000348 0.000000
# 2 -0.013435 0.079366 -0.007522 0.000000 0.029031 0.000000
# 3 0.000486 -0.007522 0.013759 0.000000 0.000351 0.000000
# 4 0.000000 0.000000 0.000000 0.146922 0.000000 0.020711
# 5 -0.000348 0.029031 0.000351 0.000000 0.044014 0.000000
# 6 0.000000 0.000000 0.000000 0.020711 0.000000 0.077452
#
#
# Mechanical properties :
#
#
# Convention : Reuss Voigt Hill
#
# Bulk Modulus (GPa) = 14.80313 28.76326 21.78320
# Shear Modulus (GPa) = 11.35475 20.16442 15.75958
#
# Velocity S-wave (km/s) = 2.31054 3.07906 2.72206
# Velocity P-wave (km/s) = 3.75207 5.11510 4.48566
#
# Compressibility (1/GPa) = 0.06755326
#
# Stress axis : x y z
#
# Youngs Moduli (GPa) = 65.06079 12.59986 72.67801
#
# Poissons Ratio (x) = 0.16928 -0.03532
# Poissons Ratio (y) = 0.87410 0.54668
# Poissons Ratio (z) = -0.03162 0.09478
#
# Static dielectric constant tensor:
#      x y z
#    x 1.835860 0.000000 0.055060 
#    y 0.000000 1.757620 0.000000 
#    z 0.055060 0.000000 1.844020 
# 
# From -- ./inp_files/30068.got.cif
#   From: 2010.05.17/outbox.cif.g08.bks.cpg/sg5_16_cif.got.tgz:30068.got - 2010.06.03 18:56:24.
