data_PCOD9120037
_publ_section_title
;
Structure prediction by ZEFSAII (Michael W. Deem and Ramdas Pophale) SiO2 
 PCOD9120037
Probable space group: C 2
;
_chemical_formula_sum "Si O2"
_cell_formula_units_Z 24
_cell_length_a 14.028240
_cell_length_b 13.043541
_cell_length_c 11.555223
_cell_angle_alpha 90.000000
_cell_angle_beta 30.315245
_cell_angle_gamma 90.000000
_cell_volume 1067.234029
_symmetry_space_group_name_H-M "C 2"
_symmetry_group_IT_number 5
_symmetry_cell_setting 'monoclinic'
loop_
_space_group_symop_operation_xyz
x,y,z
-x,y,-z
1/2+x,1/2+y,z
1/2-x,1/2+y,-z
loop_
_atom_site_type_symbol
_atom_site_label
_atom_site_fract_x
_atom_site_fract_y
_atom_site_fract_z
Si Si1 0.791061 0.921140 0.722342
Si Si2 0.760416 0.387340 0.490305
Si Si3 0.000000 0.732090 0.500000
Si Si4 0.521199 0.036526 0.348186
Si Si5 0.885358 0.929361 0.012433
Si Si6 0.805413 0.241821 0.642581
Si Si7 0.500000 0.074629 0.000000
O O1 0.730383 0.891258 0.655829
O O2 0.838910 0.807951 0.718393
O O3 0.000000 0.970735 0.500000
O O4 0.634273 0.997962 0.933172
O O5 0.841883 0.293193 0.479453
O O6 0.874719 0.484085 0.418737
O O7 0.542686 0.394774 0.756896
O O8 0.034556 0.653855 0.569163
O O9 0.500000 0.988931 0.500000
O O10 0.738538 0.005065 0.103175
O O11 0.789962 0.829332 0.173614
O O12 0.000000 0.980710 0.000000
O O13 0.655820 0.150213 0.782829
O O14 0.000000 0.211702 0.500000
#
# Coordination Sequence:
#
# PCOD9120037 Si02
#       7
#     4   4   2   4   4   4   2
#     4  10  26  47  58  84 139 182 221 260 318 403
#     4  11  20  37  69  99 127 166 217 274 331 394
#     4   8  20  46  58  76 134 170 206 268 314 382
#     4  10  17  36  65  95 129 159 211 277 330 380
#     4  10  16  32  62 104 129 153 205 288 338 371
#     4  11  19  37  67 103 132 158 217 286 330 381
#     4  12  24  44  66  82 136 190 214 262 342 384
#
# _framework density 22.488036999999998
#
# number of rings (size 3 to 8) (size 9 to 14) (size 15 to 20)
#    1.000    0.667    7.500    0.500    0.000    2.667 
#    4.500    0.000    0.000    0.000    0.000    0.000 
#    0.000    0.000    0.000    0.000    0.000    0.000 
#
# Total GULP energy -66802.613112 kJ/mol
# GULP energy per Si atom -5566.884426 kJ/mol
# Density = 2.243685 g / cm^3
# Si number density = 22.488037 Si / 1000 Ang^3
#
#
#
# Elastic Constant Matrix: (Units=GPa)
#
#
# Indices 1 2 3 4 5 6 
#
# 1 87.7159 34.8799 21.9357 0.0002 -12.3570 0.0008
# 2 34.8799 131.6537 30.7219 -0.0001 -21.6989 0.0004
# 3 21.9357 30.7219 59.7606 -0.0017 -21.0544 0.0000
# 4 0.0002 -0.0001 -0.0017 -15.3297 0.0005 -69.0733
# 5 -12.3570 -21.6989 -21.0544 0.0005 40.8460 -0.0006
# 6 0.0008 0.0004 0.0000 -69.0733 -0.0006 -28.4904
#
#
#
# Elastic Compliance Matrix: (Units=1/GPa)
#
#
# Indices 1 2 3 4 5 6 
#
# 1 0.013391 -0.002634 -0.003210 0.000000 0.000997 0.000000
# 2 -0.002634 0.009421 -0.002925 0.000000 0.002700 0.000000
# 3 -0.003210 -0.002925 0.022637 0.000000 0.009143 -0.000001
# 4 0.000000 0.000000 0.000000 0.006573 0.000000 -0.015936
# 5 0.000997 0.002700 0.009143 0.000000 0.030931 0.000000
# 6 0.000000 0.000000 -0.000001 -0.015936 0.000000 0.003537
#
#
# Mechanical properties :
#
#
# Convention : Reuss Voigt Hill
#
# Bulk Modulus (GPa) = 35.82850 50.46723 43.14787
# Shear Modulus (GPa) = 44.11811 12.17802 28.14806
#
# Velocity S-wave (km/s) = 4.43408 2.32961 3.54176
# Velocity P-wave (km/s) = 6.49474 5.45221 5.99618
#
# Compressibility (1/GPa) = 0.02791074
#
# Stress axis : x y z
#
# Youngs Moduli (GPa) = 74.67608 106.14307 44.17625
#
# Poissons Ratio (x) = 0.27963 0.14179
# Poissons Ratio (y) = 0.19673 0.12922
# Poissons Ratio (z) = 0.23969 0.31047
#
# Static dielectric constant tensor:
#      x y z
#    x 1.879340 0.000000 -0.034050 
#    y 0.000000 1.864680 0.000000 
#    z -0.034050 0.000000 1.962060 
# 
# From -- ./inp_files/42886.got.cif
#   From: 2010.05.17/outbox.cif.g08.bks.cpg/sg5_22_cif.got.tgz:42886.got - 2010.06.03 18:56:24.
