data_PCOD9120401
_publ_section_title
;
Structure prediction by ZEFSAII (Michael W. Deem and Ramdas Pophale) SiO2 
 PCOD9120401
Probable space group: C 2
;
_chemical_formula_sum "Si O2"
_cell_formula_units_Z 28
_cell_length_a 19.090535
_cell_length_b 6.655479
_cell_length_c 19.122439
_cell_angle_alpha 90.000000
_cell_angle_beta 152.920189
_cell_angle_gamma 90.000000
_cell_volume 1106.044805
_symmetry_space_group_name_H-M "C 2"
_symmetry_group_IT_number 5
_symmetry_cell_setting 'monoclinic'
loop_
_space_group_symop_operation_xyz
x,y,z
-x,y,-z
1/2+x,1/2+y,z
1/2-x,1/2+y,-z
loop_
_atom_site_type_symbol
_atom_site_label
_atom_site_fract_x
_atom_site_fract_y
_atom_site_fract_z
Si Si1 0.472666 0.875000 0.627460
Si Si2 0.204869 0.400664 0.066765
Si Si3 0.966564 0.862813 0.603514
Si Si4 0.714156 0.449054 0.017879
Si Si5 0.243407 0.204893 0.310143
Si Si6 0.000000 0.387411 0.500000
Si Si7 0.621110 0.438289 0.321744
Si Si8 0.000000 0.407432 0.000000
O O1 0.507218 0.786850 0.581418
O O2 0.288938 0.830764 0.475476
O O3 0.465330 0.121318 0.618442
O O4 0.631494 0.847631 0.811980
O O5 0.357372 0.413196 0.248662
O O6 0.231638 0.487784 0.013657
O O7 0.074588 0.505897 0.997831
O O8 0.185391 0.160799 0.032903
O O9 0.853260 0.879046 0.437712
O O10 0.917523 0.972222 0.631266
O O11 0.541386 0.354703 0.853927
O O12 0.350965 0.030266 0.375329
O O13 0.154004 0.125359 0.299596
O O14 0.130086 0.271979 0.150058
#
# Coordination Sequence:
#
# PCOD9120401 Si02
#       8
#     4   4   4   4   4   2   4   2
#     4   9  18  29  49  72 105 134 175 222 269 320
#     4  10  21  34  56  80 111 140 185 226 277 320
#     4   8  17  32  45  72 105 133 174 222 271 309
#     4  10  19  35  51  81 108 144 178 230 266 330
#     4  10  18  28  49  72 108 130 176 221 275 316
#     4   8  16  30  42  72 100 138 162 234 276 306
#     4   9  17  29  47  71 103 136 175 216 268 316
#     4  12  20  30  52  88 104 140 182 230 264 334
#
# _framework density 25.315431
#
# number of rings (size 3 to 8) (size 9 to 14) (size 15 to 20)
#    0.000    2.857    1.429    2.571    2.000    0.000 
#    0.000    0.000    0.000    0.857    7.429    0.000 
#    0.000    0.000    0.000    0.000    0.000    0.000 
#
# Total GULP energy -77996.567627 kJ/mol
# GULP energy per Si atom -5571.183402 kJ/mol
# Density = 2.525781 g / cm^3
# Si number density = 25.315431 Si / 1000 Ang^3
#
#
#
# Elastic Constant Matrix: (Units=GPa)
#
#
# Indices 1 2 3 4 5 6 
#
# 1 142.8047 -12.3758 55.7578 0.0000 20.4336 0.0000
# 2 -12.3758 67.9123 42.0880 0.0000 6.6060 0.0000
# 3 55.7578 42.0880 268.3292 0.0000 1.8780 0.0000
# 4 0.0000 0.0000 0.0000 17.0223 0.0000 -3.1077
# 5 20.4336 6.6060 1.8780 0.0000 42.0838 0.0000
# 6 0.0000 0.0000 0.0000 -3.1077 0.0000 13.2190
#
#
#
# Elastic Compliance Matrix: (Units=1/GPa)
#
#
# Indices 1 2 3 4 5 6 
#
# 1 0.008927 0.003568 -0.002381 0.000000 -0.004788 0.000000
# 2 0.003568 0.017992 -0.003533 0.000000 -0.004399 0.000000
# 3 -0.002381 -0.003533 0.004765 0.000000 0.001498 0.000000
# 4 0.000000 0.000000 0.000000 0.061381 0.000000 0.014431
# 5 -0.004788 -0.004399 0.001498 0.000000 0.026711 0.000000
# 6 0.000000 0.000000 0.000000 0.014431 0.000000 0.079041
#
#
# Mechanical properties :
#
#
# Convention : Reuss Voigt Hill
#
# Bulk Modulus (GPa) = 37.04706 72.22068 54.63387
# Shear Modulus (GPa) = 23.52870 40.70344 32.11607
#
# Velocity S-wave (km/s) = 3.05195 4.01415 3.56566
# Velocity P-wave (km/s) = 5.20434 7.07636 6.21128
#
# Compressibility (1/GPa) = 0.02699270
#
# Stress axis : x y z
#
# Youngs Moduli (GPa) = 112.02480 55.57893 209.85550
#
# Poissons Ratio (x) = -0.19831 0.49968
# Poissons Ratio (y) = -0.39972 0.74138
# Poissons Ratio (z) = 0.26674 0.19635
#
# Static dielectric constant tensor:
#      x y z
#    x 2.058550 0.000000 0.036790 
#    y 0.000000 2.122890 0.000000 
#    z 0.036790 0.000000 1.992450 
# 
# From -- ./inp_files/27004.got.cif
#   From: 2010.05.17/outbox.cif.g08.bks.cpg/sg5_14_cif.got.tgz:27004.got - 2010.06.03 18:56:24.
