data_PCOD9120143
_publ_section_title
;
Structure prediction by ZEFSAII (Michael W. Deem and Ramdas Pophale) SiO2 
 PCOD9120143
Probable space group: C 2
;
_chemical_formula_sum "Si O2"
_cell_formula_units_Z 22
_cell_length_a 6.810655
_cell_length_b 25.492834
_cell_length_c 7.985731
_cell_angle_alpha 90.000000
_cell_angle_beta 138.046588
_cell_angle_gamma 90.000000
_cell_volume 926.915317
_symmetry_space_group_name_H-M "C 2"
_symmetry_group_IT_number 5
_symmetry_cell_setting 'monoclinic'
loop_
_space_group_symop_operation_xyz
x,y,z
-x,y,-z
1/2+x,1/2+y,z
1/2-x,1/2+y,-z
loop_
_atom_site_type_symbol
_atom_site_label
_atom_site_fract_x
_atom_site_fract_y
_atom_site_fract_z
Si Si1 0.050468 0.226360 0.293832
Si Si2 0.359481 0.067277 0.582415
Si Si3 0.645851 0.961956 0.264849
Si Si4 0.000000 0.364084 0.000000
Si Si5 0.351160 0.611760 0.092197
Si Si6 0.903935 0.769767 0.207938
O O1 0.246917 0.232841 0.248667
O O2 0.263494 0.251166 0.567271
O O3 0.938362 0.167204 0.229856
O O4 0.765501 0.260079 0.070683
O O5 0.500000 0.087963 0.500000
O O6 0.014830 0.071237 0.320464
O O7 0.442545 0.006490 0.660541
O O8 0.513392 0.100601 0.827660
O O9 0.518445 0.902777 0.172637
O O10 0.000000 0.958026 0.500000
O O11 0.500000 0.982886 0.000000
O O12 0.290039 0.327719 0.185236
O O13 0.500000 0.608810 0.000000
#
# Coordination Sequence:
#
# PCOD9120143 Si02
#       6
#     4   4   4   2   4   4
#     4   9  15  23  38  62  98 124 153 186 265 308
#     4  10  21  32  50  74 103 140 178 211 256 302
#     4  10  21  35  53  69 102 145 180 219 254 301
#     4   8  20  30  50  64 104 136 178 204 272 288
#     4  10  17  28  44  68 103 142 156 203 258 318
#     4   9  16  23  41  66  92 129 155 206 249 326
#
# _framework density 23.734638
#
# number of rings (size 3 to 8) (size 9 to 14) (size 15 to 20)
#    0.545    2.182    1.818    2.182   10.182    0.000 
#    0.000    0.000    0.000    0.000    0.000    0.000 
#    0.000   23.273    8.727    0.000    0.000    0.000 
#
# Total GULP energy -61234.831147 kJ/mol
# GULP energy per Si atom -5566.802832 kJ/mol
# Density = 2.368062 g / cm^3
# Si number density = 23.734638 Si / 1000 Ang^3
#
#
#
# Elastic Constant Matrix: (Units=GPa)
#
#
# Indices 1 2 3 4 5 6 
#
# 1 62.4036 -0.5959 41.1063 0.0000 18.7933 0.0000
# 2 -0.5959 150.1527 67.3860 0.0000 5.8265 0.0000
# 3 41.1063 67.3860 252.2544 0.0000 28.3722 0.0000
# 4 0.0000 0.0000 0.0000 176.6341 0.0000 -107.6248
# 5 18.7933 5.8265 28.3722 0.0000 41.6024 0.0000
# 6 0.0000 0.0000 0.0000 -107.6248 0.0000 66.6988
#
#
#
# Elastic Compliance Matrix: (Units=1/GPa)
#
#
# Indices 1 2 3 4 5 6 
#
# 1 0.020172 0.001669 -0.002905 0.000000 -0.007365 0.000000
# 2 0.001669 0.007710 -0.002302 0.000000 -0.000264 0.000000
# 3 -0.002905 -0.002302 0.005273 0.000000 -0.001962 0.000000
# 4 0.000000 0.000000 0.000000 0.336559 0.000000 0.543070
# 5 -0.007365 -0.000264 -0.001962 0.000000 0.028739 0.000000
# 6 0.000000 0.000000 0.000000 0.543070 0.000000 0.891288
#
#
# Mechanical properties :
#
#
# Convention : Reuss Voigt Hill
#
# Bulk Modulus (GPa) = 38.34243 75.62262 56.98253
# Shear Modulus (GPa) = 3.82993 80.78135 42.30564
#
# Velocity S-wave (km/s) = 1.27167 5.84030 4.22648
# Velocity P-wave (km/s) = 4.28321 8.79828 6.91938
#
# Compressibility (1/GPa) = 0.02608077
#
# Stress axis : x y z
#
# Youngs Moduli (GPa) = 49.57327 129.70471 189.63993
#
# Poissons Ratio (x) = -0.21654 0.55085
# Poissons Ratio (y) = -0.08276 0.43653
# Poissons Ratio (z) = 0.14400 0.29857
#
# Static dielectric constant tensor:
#      x y z
#    x 2.004040 0.000000 -0.150240 
#    y 0.000000 1.910670 0.000000 
#    z -0.150240 0.000000 1.722380 
# 
# From -- ./inp_files/17244.got.cif
#   From: 2010.05.17/outbox.cif.g08.bks.cpg/sg5_9_cif.got.tgz:17244.got - 2010.06.03 18:56:24.
