data_PCOD9120439
_publ_section_title
;
Structure prediction by ZEFSAII (Michael W. Deem and Ramdas Pophale) SiO2 
 PCOD9120439
Probable space group: C 2
;
_chemical_formula_sum "Si O2"
_cell_formula_units_Z 28
_cell_length_a 5.555067
_cell_length_b 23.603557
_cell_length_c 9.457097
_cell_angle_alpha 90.000000
_cell_angle_beta 109.826666
_cell_angle_gamma 90.000000
_cell_volume 1166.504368
_symmetry_space_group_name_H-M "C 2"
_symmetry_group_IT_number 5
_symmetry_cell_setting 'monoclinic'
loop_
_space_group_symop_operation_xyz
x,y,z
-x,y,-z
1/2+x,1/2+y,z
1/2-x,1/2+y,-z
loop_
_atom_site_type_symbol
_atom_site_label
_atom_site_fract_x
_atom_site_fract_y
_atom_site_fract_z
Si Si1 0.881679 0.619730 0.315740
Si Si2 0.000000 0.750431 0.000000
Si Si3 0.108652 0.170585 0.666435
Si Si4 0.685622 0.455321 0.837970
Si Si5 0.769335 0.334117 0.742164
Si Si6 0.500000 0.740771 0.000000
Si Si7 0.238026 0.301576 0.686502
Si Si8 0.171925 0.497086 0.816946
O O1 0.628566 0.659366 0.275844
O O2 0.794727 0.560582 0.231634
O O3 0.000000 0.614637 0.500000
O O4 0.110739 0.643881 0.264047
O O5 0.754757 0.712832 0.990606
O O6 0.885153 0.793958 0.864394
O O7 0.160752 0.236555 0.645466
O O8 0.000000 0.144338 0.500000
O O9 0.764640 0.390130 0.836698
O O10 0.378596 0.461352 0.767206
O O11 0.867365 0.484669 0.756989
O O12 0.753643 0.482432 0.004782
O O13 0.475717 0.322500 0.642103
O O14 0.877553 0.281706 0.855979
O O15 0.980675 0.337095 0.659520
#
# Coordination Sequence:
#
# PCOD9120439 Si02
#       8
#     4   2   4   4   4   2   4   4
#     4  10  21  39  62  84 109 145 192 244 290 334
#     4   8  16  26  40  66  97 130 165 200 252 304
#     4  10  21  38  60  83 108 147 195 235 281 337
#     4  10  20  33  54  85 114 148 184 224 285 348
#     4  10  18  30  51  79 110 143 181 217 260 328
#     4   8  14  24  40  62  93 128 163 198 234 290
#     4  10  19  33  53  79 111 146 181 223 270 327
#     4  10  20  35  56  84 112 146 190 237 287 337
#
# _framework density 24.003337999999999
#
# number of rings (size 3 to 8) (size 9 to 14) (size 15 to 20)
#    0.000    2.286    0.000    3.429    0.000    5.714 
#    0.000    4.286    0.000    5.143    0.000    0.000 
#    0.000    0.000    0.000    0.000    0.000    0.000 
#
# Total GULP energy -78001.340036 kJ/mol
# GULP energy per Si atom -5571.524288 kJ/mol
# Density = 2.394871 g / cm^3
# Si number density = 24.003338 Si / 1000 Ang^3
#
#
#
# Elastic Constant Matrix: (Units=GPa)
#
#
# Indices 1 2 3 4 5 6 
#
# 1 296.8672 46.3720 32.2755 0.0000 16.2857 0.0000
# 2 46.3720 94.7067 23.0793 0.0000 8.1874 0.0000
# 3 32.2755 23.0793 59.8256 0.0000 4.5507 0.0000
# 4 0.0000 0.0000 0.0000 82.3612 0.0000 5.4368
# 5 16.2857 8.1874 4.5507 0.0000 20.1961 0.0000
# 6 0.0000 0.0000 0.0000 5.4368 0.0000 46.3722
#
#
#
# Elastic Compliance Matrix: (Units=1/GPa)
#
#
# Indices 1 2 3 4 5 6 
#
# 1 0.003854 -0.001355 -0.001386 0.000000 -0.002246 0.000000
# 2 -0.001355 0.012421 -0.003826 0.000000 -0.003080 0.000000
# 3 -0.001386 -0.003826 0.019063 0.000000 -0.001627 0.000000
# 4 0.000000 0.000000 0.000000 0.012236 0.000000 -0.001435
# 5 -0.002246 -0.003080 -0.001627 0.000000 0.052941 0.000000
# 6 0.000000 0.000000 0.000000 -0.001435 0.000000 0.021733
#
#
# Mechanical properties :
#
#
# Convention : Reuss Voigt Hill
#
# Bulk Modulus (GPa) = 45.03776 72.76148 58.89962
# Shear Modulus (GPa) = 35.01798 53.09742 44.05770
#
# Velocity S-wave (km/s) = 3.82367 4.70838 4.28890
# Velocity P-wave (km/s) = 6.18852 7.74192 7.00839
#
# Compressibility (1/GPa) = 0.02220359
#
# Stress axis : x y z
#
# Youngs Moduli (GPa) = 259.46587 80.50710 52.45868
#
# Poissons Ratio (x) = 0.10911 0.07268
# Poissons Ratio (y) = 0.35165 0.20073
# Poissons Ratio (z) = 0.35950 0.30805
#
# Static dielectric constant tensor:
#      x y z
#    x 1.918580 0.000000 -0.049080 
#    y 0.000000 1.862670 0.000000 
#    z -0.049080 0.000000 1.996590 
# 
# From -- ./inp_files/34001.got.cif
#   From: 2010.05.17/outbox.cif.g08.bks.cpg/sg5_18_cif.got.tgz:34001.got - 2010.06.03 18:56:24.
