data_PCOD9120645
_publ_section_title
;
Structure prediction by ZEFSAII (Michael W. Deem and Ramdas Pophale) SiO2 
 PCOD9120645
Probable space group: C 2
;
_chemical_formula_sum "Si O2"
_cell_formula_units_Z 26
_cell_length_a 13.986027
_cell_length_b 9.877711
_cell_length_c 15.143974
_cell_angle_alpha 90.000000
_cell_angle_beta 139.960185
_cell_angle_gamma 90.000000
_cell_volume 1345.914396
_symmetry_space_group_name_H-M "C 2"
_symmetry_group_IT_number 5
_symmetry_cell_setting 'monoclinic'
loop_
_space_group_symop_operation_xyz
x,y,z
-x,y,-z
1/2+x,1/2+y,z
1/2-x,1/2+y,-z
loop_
_atom_site_type_symbol
_atom_site_label
_atom_site_fract_x
_atom_site_fract_y
_atom_site_fract_z
Si Si1 0.727224 0.080880 0.315894
Si Si2 0.220511 0.130096 0.841147
Si Si3 0.697788 0.880964 0.577070
Si Si4 0.001064 0.881324 0.309056
Si Si5 0.094066 0.620164 0.850234
Si Si6 0.000000 0.875738 0.500000
Si Si7 0.131935 0.429046 0.723079
O O1 0.690942 0.102595 0.186892
O O2 0.800681 0.218757 0.405078
O O3 0.571691 0.058963 0.254332
O O4 0.852354 0.966733 0.407951
O O5 0.165247 0.283708 0.790970
O O6 0.314128 0.108499 0.995352
O O7 0.086711 0.021732 0.746293
O O8 0.832957 0.909843 0.607096
O O9 0.717149 0.941174 0.689553
O O10 0.541317 0.927376 0.427440
O O11 0.928911 0.777768 0.189027
O O12 0.991221 0.807362 0.398016
O O13 0.166136 0.543023 0.818811
#
# Coordination Sequence:
#
# PCOD9120645 Si02
#       7
#     4   4   4   4   4   2   4
#     4   9  18  33  57  77 102 139 181 218 248 307
#     4  10  20  37  54  75 105 144 179 209 252 314
#     4   9  18  35  55  80 101 135 179 216 263 303
#     4  10  21  35  56  77 107 137 170 219 264 310
#     4  11  21  34  52  81 109 139 172 212 263 312
#     4  10  18  34  54  82 106 132 172 220 272 302
#     4  10  20  34  57  78 105 136 176 221 254 308
#
# _framework density 19.317722
#
# number of rings (size 3 to 8) (size 9 to 14) (size 15 to 20)
#    0.000    2.154    0.000    5.077    0.000    2.462 
#    0.000    5.385    0.000    0.000    0.000    0.000 
#    0.000    0.000    0.000    0.000    0.000    0.000 
#
# Total GULP energy -72525.850865 kJ/mol
# GULP energy per Si atom -5578.911605 kJ/mol
# Density = 1.927375 g / cm^3
# Si number density = 19.317722 Si / 1000 Ang^3
#
#
#
# Elastic Constant Matrix: (Units=GPa)
#
#
# Indices 1 2 3 4 5 6 
#
# 1 100.0108 10.6703 12.7912 0.0000 -10.4453 0.0000
# 2 10.6703 24.2226 3.5460 0.0000 -1.6262 0.0000
# 3 12.7912 3.5460 76.6591 0.0000 -24.0231 0.0000
# 4 0.0000 0.0000 0.0000 18.9913 0.0000 -8.2424
# 5 -10.4453 -1.6262 -24.0231 0.0000 23.0217 0.0000
# 6 0.0000 0.0000 0.0000 -8.2424 0.0000 24.4186
#
#
#
# Elastic Compliance Matrix: (Units=1/GPa)
#
#
# Indices 1 2 3 4 5 6 
#
# 1 0.010970 -0.004501 -0.000241 0.000000 0.004408 0.000000
# 2 -0.004501 0.043442 -0.001392 0.000000 -0.000426 0.000000
# 3 -0.000241 -0.001392 0.019442 0.000000 0.020080 0.000000
# 4 0.000000 0.000000 0.000000 0.061693 0.000000 0.020824
# 5 0.004408 -0.000426 0.020080 0.000000 0.066361 0.000000
# 6 0.000000 0.000000 0.000000 0.020824 0.000000 0.047981
#
#
# Mechanical properties :
#
#
# Convention : Reuss Voigt Hill
#
# Bulk Modulus (GPa) = 16.23753 28.32308 22.28031
# Shear Modulus (GPa) = 17.68743 24.87867 21.28305
#
# Velocity S-wave (km/s) = 3.02918 3.59258 3.32284
# Velocity P-wave (km/s) = 4.54514 5.64822 5.12644
#
# Compressibility (1/GPa) = 0.06158573
#
# Stress axis : x y z
#
# Youngs Moduli (GPa) = 91.15455 23.01928 51.43521
#
# Poissons Ratio (x) = 0.10362 0.01239
# Poissons Ratio (y) = 0.41032 0.07160
# Poissons Ratio (z) = 0.02196 0.03204
#
# Static dielectric constant tensor:
#      x y z
#    x 1.678800 0.000000 -0.026790 
#    y 0.000000 1.658320 0.000000 
#    z -0.026790 0.000000 1.672900 
# 
# From -- ./inp_files/23353.got.cif
#   From: 2010.05.17/outbox.cif.g08.bks.cpg/sg5_12_cif.got.tgz:23353.got - 2010.06.03 18:56:24.
