data_PCOD9120770
_publ_section_title
;
Structure prediction by ZEFSAII (Michael W. Deem and Ramdas Pophale) SiO2 
 PCOD9120770
Probable space group: C 2
;
_chemical_formula_sum "Si O2"
_cell_formula_units_Z 28
_cell_length_a 9.675454
_cell_length_b 9.188049
_cell_length_c 33.992061
_cell_angle_alpha 90.000000
_cell_angle_beta 155.604285
_cell_angle_gamma 90.000000
_cell_volume 1248.131651
_symmetry_space_group_name_H-M "C 2"
_symmetry_group_IT_number 5
_symmetry_cell_setting 'monoclinic'
loop_
_space_group_symop_operation_xyz
x,y,z
-x,y,-z
1/2+x,1/2+y,z
1/2-x,1/2+y,-z
loop_
_atom_site_type_symbol
_atom_site_label
_atom_site_fract_x
_atom_site_fract_y
_atom_site_fract_z
Si Si1 0.367360 0.302870 0.844544
Si Si2 0.610207 0.141456 0.438092
Si Si3 0.134137 0.299778 0.424314
Si Si4 0.046513 0.119766 0.159149
Si Si5 0.644179 0.306977 0.697880
Si Si6 0.613953 0.643281 0.711362
Si Si7 0.377642 0.256137 0.007977
O O1 0.366702 0.453345 0.821084
O O2 0.622864 0.310815 0.947651
O O3 0.010079 0.294052 0.773252
O O4 0.381417 0.177735 0.815065
O O5 0.869333 0.199509 0.537709
O O6 0.613665 0.234545 0.399022
O O7 0.245445 0.171939 0.361948
O O8 0.619593 0.969743 0.431666
O O9 0.500000 0.277696 0.500000
O O10 0.872812 0.246196 0.323588
O O11 0.680472 0.137775 0.084913
O O12 0.314899 0.214160 0.251911
O O13 0.967998 0.186439 0.095801
O O14 0.599067 0.476238 0.694472
O O15 0.500000 0.347856 0.000000
#
# Coordination Sequence:
#
# PCOD9120770 Si02
#       7
#     4   4   4   4   4   4   4
#     4  10  18  35  54  73 103 138 164 212 257 291
#     4  10  21  36  56  73 106 136 163 211 257 290
#     4  10  21  37  53  79 102 133 171 208 249 303
#     4   8  17  33  54  72 101 135 169 208 252 299
#     4  10  20  35  51  78 103 134 171 208 249 303
#     4  10  22  34  52  78 106 131 171 208 249 304
#     4   7  17  34  49  75 103 131 166 214 251 298
#
# _framework density 22.433530999999999
#
# number of rings (size 3 to 8) (size 9 to 14) (size 15 to 20)
#    0.857    1.714    0.000    1.714    0.000    3.429 
#    0.000    2.857    0.000    0.000    0.000    0.000 
#    0.000    0.000    0.000    0.000    0.000    0.000 
#
# Total GULP energy -77987.394186 kJ/mol
# GULP energy per Si atom -5570.528156 kJ/mol
# Density = 2.238247 g / cm^3
# Si number density = 22.433531 Si / 1000 Ang^3
#
#
#
# Elastic Constant Matrix: (Units=GPa)
#
#
# Indices 1 2 3 4 5 6 
#
# 1 54.4828 26.1595 40.4447 0.0000 -26.3525 0.0000
# 2 26.1595 122.7578 54.7726 0.0000 -46.2108 -0.0001
# 3 40.4447 54.7726 122.5359 0.0003 -45.1615 -0.0005
# 4 0.0000 0.0000 0.0003 27.6271 0.0000 -9.2398
# 5 -26.3525 -46.2108 -45.1615 0.0000 36.2453 -0.0002
# 6 0.0000 -0.0001 -0.0005 -9.2398 -0.0002 28.8171
#
#
#
# Elastic Compliance Matrix: (Units=1/GPa)
#
#
# Indices 1 2 3 4 5 6 
#
# 1 0.029714 0.003318 -0.003272 0.000000 0.021758 0.000000
# 2 0.003318 0.016064 0.000299 0.000000 0.023265 0.000000
# 3 -0.003272 0.000299 0.015479 0.000000 0.017290 0.000000
# 4 0.000000 0.000000 0.000000 0.040544 0.000000 0.013000
# 5 0.021758 0.023265 0.017290 0.000000 0.094614 0.000001
# 6 0.000000 0.000000 0.000000 0.013000 0.000001 0.038870
#
#
# Mechanical properties :
#
#
# Convention : Reuss Voigt Hill
#
# Bulk Modulus (GPa) = 16.14256 60.28114 38.21185
# Shear Modulus (GPa) = 19.58919 30.43121 25.01020
#
# Velocity S-wave (km/s) = 2.95822 3.68707 3.34257
# Velocity P-wave (km/s) = 4.34505 6.71233 5.65397
#
# Compressibility (1/GPa) = 0.06194805
#
# Stress axis : x y z
#
# Youngs Moduli (GPa) = 33.65437 62.25265 64.60237
#
# Poissons Ratio (x) = -0.20657 0.21136
# Poissons Ratio (y) = -0.11168 -0.01932
# Poissons Ratio (z) = 0.11011 -0.01862
#
# Static dielectric constant tensor:
#      x y z
#    x 1.884710 0.000000 -0.063120 
#    y 0.000000 1.788800 0.000000 
#    z -0.063120 0.000000 1.911090 
# 
# From -- ./inp_files/70169.got.cif
#   From: 2010.05.17/outbox.cif.g08.bks.cpg/sg5_36_cif.got.tgz:70169.got - 2010.06.03 18:56:24.
