data_PCOD9120178
_publ_section_title
;
Structure prediction by ZEFSAII (Michael W. Deem and Ramdas Pophale) SiO2 
 PCOD9120178
Probable space group: C 2
;
_chemical_formula_sum "Si O2"
_cell_formula_units_Z 28
_cell_length_a 18.161160
_cell_length_b 19.857544
_cell_length_c 9.072874
_cell_angle_alpha 90.000000
_cell_angle_beta 26.866786
_cell_angle_gamma 90.000000
_cell_volume 1478.676989
_symmetry_space_group_name_H-M "C 2"
_symmetry_group_IT_number 5
_symmetry_cell_setting 'monoclinic'
loop_
_space_group_symop_operation_xyz
x,y,z
-x,y,-z
1/2+x,1/2+y,z
1/2-x,1/2+y,-z
loop_
_atom_site_type_symbol
_atom_site_label
_atom_site_fract_x
_atom_site_fract_y
_atom_site_fract_z
Si Si1 0.390892 0.362320 0.458791
Si Si2 0.841364 0.381532 0.380027
Si Si3 0.776759 0.349635 0.813732
Si Si4 0.686819 0.091978 0.228119
Si Si5 0.195547 0.743360 0.180065
Si Si6 0.726620 0.970228 0.957612
Si Si7 0.937029 0.527840 0.268043
O O1 0.318667 0.363344 0.424879
O O2 0.304135 0.298008 0.689944
O O3 0.345284 0.428646 0.636853
O O4 0.584059 0.356705 0.123622
O O5 0.861902 0.351119 0.504792
O O6 0.835565 0.462003 0.407317
O O7 0.000000 0.365852 0.000000
O O8 0.788607 0.280612 0.881838
O O9 0.822831 0.412804 0.835100
O O10 0.500000 0.091651 0.500000
O O11 0.753905 0.167401 0.096864
O O12 0.666604 0.072927 0.435657
O O13 0.775629 0.034460 0.971588
O O14 0.000000 0.738409 0.500000
O O15 0.586056 0.998073 0.100136
O O16 0.000000 0.557944 0.000000
#
# Coordination Sequence:
#
# PCOD9120178 Si02
#       7
#     4   4   4   4   4   4   4
#     4  10  19  34  53  79 110 140 176 219 273 320
#     4  11  20  33  53  80 112 137 177 223 266 314
#     4  10  20  33  55  80 106 141 179 221 267 318
#     4   9  17  30  53  79 108 138 181 231 262 305
#     4   8  17  34  51  76 109 139 180 224 264 315
#     4  10  17  30  53  79 103 138 176 223 264 306
#     4  10  18  30  49  82 112 132 176 222 270 310
#
# _framework density 18.935845
#
# number of rings (size 3 to 8) (size 9 to 14) (size 15 to 20)
#    0.000    2.286    4.286    1.714    0.000    0.000 
#    0.000    5.714    0.000    3.429    0.000    0.000 
#    0.000    0.000    0.000    0.000    0.000    0.000 
#
# Total GULP energy -78003.551588 kJ/mol
# GULP energy per Si atom -5571.682256 kJ/mol
# Density = 1.889275 g / cm^3
# Si number density = 18.935845 Si / 1000 Ang^3
#
#
#
# Elastic Constant Matrix: (Units=GPa)
#
#
# Indices 1 2 3 4 5 6 
#
# 1 94.9288 22.8465 28.9314 0.0008 25.9566 -0.0004
# 2 22.8465 115.5872 33.4055 0.0001 23.9089 0.0002
# 3 28.9314 33.4055 55.9387 0.0007 23.1347 0.0002
# 4 0.0008 0.0001 0.0007 14.4867 0.0001 1.8551
# 5 25.9566 23.9089 23.1347 0.0001 38.6278 0.0000
# 6 -0.0004 0.0002 0.0002 1.8551 0.0000 15.0624
#
#
#
# Elastic Compliance Matrix: (Units=1/GPa)
#
#
# Indices 1 2 3 4 5 6 
#
# 1 0.013657 -0.000105 -0.004296 -0.000001 -0.006539 0.000000
# 2 -0.000105 0.010855 -0.004890 0.000000 -0.003720 0.000000
# 3 -0.004296 -0.004890 0.027347 -0.000001 -0.010465 0.000000
# 4 -0.000001 0.000000 -0.000001 0.070135 0.000001 -0.008638
# 5 -0.006539 -0.003720 -0.010465 0.000001 0.038852 0.000000
# 6 0.000000 0.000000 0.000000 -0.008638 0.000000 0.067454
#
#
# Mechanical properties :
#
#
# Convention : Reuss Voigt Hill
#
# Bulk Modulus (GPa) = 30.05143 48.53573 39.29358
# Shear Modulus (GPa) = 19.38188 25.72014 22.55101
#
# Velocity S-wave (km/s) = 3.20278 3.68948 3.45471
# Velocity P-wave (km/s) = 5.43890 6.62095 6.05882
#
# Compressibility (1/GPa) = 0.03327629
#
# Stress axis : x y z
#
# Youngs Moduli (GPa) = 73.22363 92.12558 36.56760
#
# Poissons Ratio (x) = 0.00969 0.15710
# Poissons Ratio (y) = 0.00770 0.17880
# Poissons Ratio (z) = 0.31458 0.45045
#
# Static dielectric constant tensor:
#      x y z
#    x 1.694240 0.000000 0.005780 
#    y 0.000000 1.656960 0.000000 
#    z 0.005780 0.000000 1.702260 
# 
# From -- ./inp_files/27976.got.cif
#   From: 2010.05.17/outbox.cif.g08.bks.cpg/sg5_14_cif.got.tgz:27976.got - 2010.06.03 18:56:24.
