data_PCOD9120835
_publ_section_title
;
Structure prediction by ZEFSAII (Michael W. Deem and Ramdas Pophale) SiO2 
 PCOD9120835
Probable space group: C 2
;
_chemical_formula_sum "Si O2"
_cell_formula_units_Z 32
_cell_length_a 14.646216
_cell_length_b 23.054553
_cell_length_c 9.524744
_cell_angle_alpha 90.000000
_cell_angle_beta 29.721097
_cell_angle_gamma 90.000000
_cell_volume 1594.494848
_symmetry_space_group_name_H-M "C 2"
_symmetry_group_IT_number 5
_symmetry_cell_setting 'monoclinic'
loop_
_space_group_symop_operation_xyz
x,y,z
-x,y,-z
1/2+x,1/2+y,z
1/2-x,1/2+y,-z
loop_
_atom_site_type_symbol
_atom_site_label
_atom_site_fract_x
_atom_site_fract_y
_atom_site_fract_z
Si Si1 0.403613 0.905850 0.760626
Si Si2 0.812996 0.656987 0.687396
Si Si3 0.012508 0.886421 0.647271
Si Si4 0.679656 0.575729 0.656672
Si Si5 0.995487 0.154188 0.673620
Si Si6 0.355823 0.959232 0.311552
Si Si7 0.225817 0.779505 0.375580
Si Si8 0.004267 0.288270 0.242359
O O1 0.500000 0.934736 0.500000
O O2 0.505099 0.931469 0.761076
O O3 0.458053 0.838246 0.698760
O O4 0.183719 0.908491 0.035191
O O5 0.830930 0.603972 0.557494
O O6 0.748390 0.710327 0.676110
O O7 0.000000 0.679998 0.500000
O O8 0.688848 0.641968 0.988016
O O9 0.196614 0.915733 0.465774
O O10 0.038602 0.816427 0.625639
O O11 0.000000 0.900608 0.500000
O O12 0.640144 0.616479 0.573188
O O13 0.743397 0.513187 0.523285
O O14 0.500000 0.575671 0.000000
O O15 0.008486 0.223904 0.676903
O O16 0.000000 0.140974 0.500000
O O17 0.500000 0.978445 0.000000
O O18 0.323180 0.795917 0.390347
O O19 0.336014 0.797968 0.088407
#
# Coordination Sequence:
#
# PCOD9120835 Si02
#       8
#     4   4   4   4   4   4   4   4
#     4  12  27  43  67 102 136 171 216 273 336 392
#     4  10  21  39  65  96 126 168 217 262 322 397
#     4  12  23  42  71 100 130 172 225 266 323 402
#     4  10  24  45  66  91 127 172 221 272 326 379
#     4  10  21  40  65  94 129 170 211 265 328 386
#     4  12  26  47  70  94 130 177 226 276 322 385
#     4  10  18  35  69  95 127 171 214 261 321 397
#     4  10  18  37  65  95 134 169 207 264 329 389
#
# _framework density 20.069051999999999
#
# number of rings (size 3 to 8) (size 9 to 14) (size 15 to 20)
#    0.000    1.250    5.000    0.750    3.500    2.000 
#    2.250    0.000    0.000    0.000    0.000    0.000 
#    0.000    0.000    0.000    0.000    0.000    0.000 
#
# Total GULP energy -89089.243110 kJ/mol
# GULP energy per Si atom -5568.077694 kJ/mol
# Density = 2.002337 g / cm^3
# Si number density = 20.069052 Si / 1000 Ang^3
#
#
#
# Elastic Constant Matrix: (Units=GPa)
#
#
# Indices 1 2 3 4 5 6 
#
# 1 66.4670 15.2078 31.6928 -0.0010 0.7061 -0.0002
# 2 15.2078 63.3526 5.2701 -0.0005 14.5600 -0.0002
# 3 31.6928 5.2701 63.6147 -0.0005 5.3125 -0.0004
# 4 -0.0010 -0.0005 -0.0005 22.5783 0.0010 4.7994
# 5 0.7061 14.5600 5.3125 0.0010 28.6555 0.0002
# 6 -0.0002 -0.0002 -0.0004 4.7994 0.0002 15.4476
#
#
#
# Elastic Compliance Matrix: (Units=1/GPa)
#
#
# Indices 1 2 3 4 5 6 
#
# 1 0.021162 -0.005136 -0.010454 0.000000 0.004026 0.000000
# 2 -0.005136 0.019152 0.001802 0.000001 -0.009939 0.000000
# 3 -0.010454 0.001802 0.021161 0.000000 -0.004581 0.000000
# 4 0.000000 0.000001 0.000000 0.047422 -0.000002 -0.014733
# 5 0.004026 -0.009939 -0.004581 -0.000002 0.040697 0.000000
# 6 0.000000 0.000000 0.000000 -0.014733 0.000000 0.069313
#
#
# Mechanical properties :
#
#
# Convention : Reuss Voigt Hill
#
# Bulk Modulus (GPa) = 29.49851 33.08616 31.29234
# Shear Modulus (GPa) = 19.39634 22.75386 21.07510
#
# Velocity S-wave (km/s) = 3.11220 3.37082 3.24409
# Velocity P-wave (km/s) = 5.25783 5.62777 5.44594
#
# Compressibility (1/GPa) = 0.03390001
#
# Stress axis : x y z
#
# Youngs Moduli (GPa) = 47.25509 52.21464 47.25705
#
# Poissons Ratio (x) = 0.26815 0.49400
# Poissons Ratio (y) = 0.24268 -0.08515
# Poissons Ratio (z) = 0.49398 -0.09409
#
# Static dielectric constant tensor:
#      x y z
#    x 1.731240 0.000000 -0.021520 
#    y 0.000000 1.741340 0.000000 
#    z -0.021520 0.000000 1.730900 
# 
# From -- ./inp_files/25581.got.cif
#   From: 2010.05.17/outbox.cif.g08.bks.cpg/sg5_13_cif.got.tgz:25581.got - 2010.06.03 18:56:24.
