data_PCOD9120783
_publ_section_title
;
Structure prediction by ZEFSAII (Michael W. Deem and Ramdas Pophale) SiO2 
 PCOD9120783
Probable space group: C 2
;
_chemical_formula_sum "Si O2"
_cell_formula_units_Z 32
_cell_length_a 12.566714
_cell_length_b 16.210415
_cell_length_c 7.673506
_cell_angle_alpha 90.000000
_cell_angle_beta 72.839507
_cell_angle_gamma 90.000000
_cell_volume 1493.592853
_symmetry_space_group_name_H-M "C 2"
_symmetry_group_IT_number 5
_symmetry_cell_setting 'monoclinic'
loop_
_space_group_symop_operation_xyz
x,y,z
-x,y,-z
1/2+x,1/2+y,z
1/2-x,1/2+y,-z
loop_
_atom_site_type_symbol
_atom_site_label
_atom_site_fract_x
_atom_site_fract_y
_atom_site_fract_z
Si Si1 0.549960 0.696200 0.672321
Si Si2 0.879993 0.763986 0.100981
Si Si3 0.737733 0.632473 0.370155
Si Si4 0.761382 0.914760 0.997951
Si Si5 0.693266 0.960335 0.633226
Si Si6 0.076310 0.894339 0.621562
Si Si7 0.020598 0.377307 0.192341
Si Si8 0.923634 0.043251 0.824443
O O1 0.500000 0.697014 0.500000
O O2 0.678891 0.678473 0.560789
O O3 0.508527 0.781000 0.774043
O O4 0.502200 0.622099 0.812143
O O5 0.792360 0.696942 0.210784
O O6 0.908260 0.824283 0.245790
O O7 0.828898 0.828633 0.985030
O O8 0.000000 0.724920 0.000000
O O9 0.818459 0.558534 0.385676
O O10 0.648997 0.578063 0.302095
O O11 0.723675 0.932124 0.817578
O O12 0.840039 0.995029 0.996744
O O13 0.648817 0.901735 0.163932
O O14 0.800443 0.926489 0.480871
O O15 0.574708 0.920559 0.649096
O O16 0.000000 0.862764 0.500000
O O17 0.004699 0.970803 0.725478
O O18 0.000000 0.400207 0.000000
#
# Coordination Sequence:
#
# PCOD9120783 Si02
#       8
#     4   4   4   4   4   4   4   4
#     4  10  18  35  58  85 113 153 206 244 290 354
#     4  12  24  36  59  95 129 153 201 262 318 363
#     4  10  20  34  59  90 114 158 207 247 290 370
#     4  10  20  38  55  87 122 158 196 250 306 370
#     4  10  20  38  64  83 115 167 214 240 303 369
#     4  12  19  39  65  89 113 161 209 254 295 366
#     4  10  22  37  57  86 125 159 197 253 313 366
#     4  10  18  35  64  82 116 153 200 246 287 362
#
# _framework density 21.424848000000001
#
# number of rings (size 3 to 8) (size 9 to 14) (size 15 to 20)
#    0.000    1.500    5.000    2.625    0.000    2.500 
#    2.250    0.000    0.000    5.250    0.000    0.000 
#    0.000    0.000    0.000    0.000    0.000    0.000 
#
# Total GULP energy -89172.847320 kJ/mol
# GULP energy per Si atom -5573.302958 kJ/mol
# Density = 2.137608 g / cm^3
# Si number density = 21.424848 Si / 1000 Ang^3
#
#
#
# Elastic Constant Matrix: (Units=GPa)
#
#
# Indices 1 2 3 4 5 6 
#
# 1 64.5917 6.4191 26.3990 0.0000 -19.1275 0.0000
# 2 6.4191 17.0473 -50.4895 0.0000 24.4700 0.0000
# 3 26.3990 -50.4895 -66.8707 0.0000 70.9206 0.0000
# 4 0.0000 0.0000 0.0000 19.9775 0.0000 -10.2026
# 5 -19.1275 24.4700 70.9206 0.0000 -35.2668 0.0000
# 6 0.0000 0.0000 0.0000 -10.2026 0.0000 10.8496
#
#
#
# Elastic Compliance Matrix: (Units=1/GPa)
#
#
# Indices 1 2 3 4 5 6 
#
# 1 0.013970 0.002899 0.002274 0.000000 -0.000992 0.000000
# 2 0.002899 0.030010 0.000969 0.000000 0.021199 0.000000
# 3 0.002274 0.000969 0.013580 0.000000 0.026748 0.000000
# 4 0.000000 0.000000 0.000000 0.096309 0.000000 0.090566
# 5 -0.000992 0.021199 0.026748 0.000000 0.040682 0.000000
# 6 0.000000 0.000000 0.000000 0.090566 0.000000 0.177335
#
#
# Mechanical properties :
#
#
# Convention : Reuss Voigt Hill
#
# Bulk Modulus (GPa) = 14.31715 -2.28606 6.01555
# Shear Modulus (GPa) = 13.05882 1.27470 7.16676
#
# Velocity S-wave (km/s) = 2.47152 0.77217 1.83094
# Velocity P-wave (km/s) = 3.85247 0.52376 2.69882
#
# Compressibility (1/GPa) = 0.06984628
#
# Stress axis : x y z
#
# Youngs Moduli (GPa) = 71.57944 33.32242 73.63658
#
# Poissons Ratio (x) = -0.09661 -0.16748
# Poissons Ratio (y) = -0.20752 -0.07138
# Poissons Ratio (z) = -0.16280 -0.03230
#
# Static dielectric constant tensor:
#      x y z
#    x 1.933510 0.000000 -0.006190 
#    y 0.000000 1.767500 0.000000 
#    z -0.006190 0.000000 1.838490 
# 
# From -- ./inp_files/24638.got.cif
#   From: 2010.05.17/outbox.cif.g08.bks.cpg/sg5_13_cif.got.tgz:24638.got - 2010.06.03 18:56:24.
