data_PCOD9120353
_publ_section_title
;
Structure prediction by ZEFSAII (Michael W. Deem and Ramdas Pophale) SiO2 
 PCOD9120353
Probable space group: C 2
;
_chemical_formula_sum "Si O2"
_cell_formula_units_Z 24
_cell_length_a 9.863238
_cell_length_b 16.593217
_cell_length_c 8.435374
_cell_angle_alpha 90.000000
_cell_angle_beta 66.916767
_cell_angle_gamma 90.000000
_cell_volume 1270.024768
_symmetry_space_group_name_H-M "C 2"
_symmetry_group_IT_number 5
_symmetry_cell_setting 'monoclinic'
loop_
_space_group_symop_operation_xyz
x,y,z
-x,y,-z
1/2+x,1/2+y,z
1/2-x,1/2+y,-z
loop_
_atom_site_type_symbol
_atom_site_label
_atom_site_fract_x
_atom_site_fract_y
_atom_site_fract_z
Si Si1 0.886744 0.777970 0.412019
Si Si2 0.846602 0.678220 0.125132
Si Si3 0.405429 0.771988 0.274513
Si Si4 0.962855 0.105071 0.827580
Si Si5 0.544705 0.425529 0.162771
Si Si6 0.296757 0.820963 0.984354
O O1 0.861420 0.705556 0.299989
O O2 0.725792 0.800146 0.553679
O O3 0.000000 0.754312 0.500000
O O4 0.960693 0.855430 0.294920
O O5 0.705915 0.626760 0.137329
O O6 0.821775 0.763284 0.044606
O O7 0.000000 0.640944 0.000000
O O8 0.446183 0.678981 0.289411
O O9 0.344553 0.777311 0.123697
O O10 0.559345 0.821497 0.194449
O O11 0.989882 0.014407 0.757514
O O12 0.000000 0.107008 0.000000
O O13 0.718070 0.402607 0.074224
O O14 0.500000 0.425367 0.000000
#
# Coordination Sequence:
#
# PCOD9120353 Si02
#       6
#     4   4   4   4   4   4
#     4  12  22  36  62  91 123 160 204 249 293 358
#     4  11  19  38  62  90 117 159 213 244 286 367
#     4  10  20  36  61  86 120 163 201 247 292 355
#     4  10  22  39  65  90 123 156 200 253 308 352
#     4  11  21  40  63  89 120 159 196 250 307 358
#     4  10  17  37  61  86 115 158 212 238 287 362
#
# _framework density 18.897269000000001
#
# number of rings (size 3 to 8) (size 9 to 14) (size 15 to 20)
#    0.000    1.333    8.333    0.000    0.000    2.667 
#    6.000    0.000    0.000    0.000    0.000    0.000 
#    0.000    0.000    0.000    0.000    0.000    0.000 
#
# Total GULP energy -66870.651657 kJ/mol
# GULP energy per Si atom -5572.554305 kJ/mol
# Density = 1.885426 g / cm^3
# Si number density = 18.897269 Si / 1000 Ang^3
#
#
#
# Elastic Constant Matrix: (Units=GPa)
#
#
# Indices 1 2 3 4 5 6 
#
# 1 116.2898 38.5425 41.3573 0.0000 -8.2123 0.0000
# 2 38.5425 68.9804 23.8112 0.0000 -4.8434 0.0000
# 3 41.3573 23.8112 82.9556 0.0000 -21.7682 0.0000
# 4 0.0000 0.0000 0.0000 12.6843 0.0000 0.8692
# 5 -8.2123 -4.8434 -21.7682 0.0000 40.2341 0.0000
# 6 0.0000 0.0000 0.0000 0.8692 0.0000 8.8096
#
#
#
# Elastic Compliance Matrix: (Units=1/GPa)
#
#
# Indices 1 2 3 4 5 6 
#
# 1 0.011890 -0.005087 -0.004652 0.000000 -0.000702 0.000000
# 2 -0.005087 0.018282 -0.002805 0.000000 -0.000355 0.000000
# 3 -0.004652 -0.002805 0.017297 0.000000 0.008071 0.000000
# 4 0.000000 0.000000 0.000000 0.079374 0.000000 -0.007831
# 5 -0.000702 -0.000355 0.008071 0.000000 0.029035 0.000000
# 6 0.000000 0.000000 0.000000 -0.007831 0.000000 0.114285
#
#
# Mechanical properties :
#
#
# Convention : Reuss Voigt Hill
#
# Bulk Modulus (GPa) = 44.67876 52.84978 48.76427
# Shear Modulus (GPa) = 16.51738 23.31326 19.91532
#
# Velocity S-wave (km/s) = 2.95966 3.51619 3.24986
# Velocity P-wave (km/s) = 5.94758 6.67176 6.32005
#
# Compressibility (1/GPa) = 0.02238200
#
# Stress axis : x y z
#
# Youngs Moduli (GPa) = 84.10408 54.69722 57.81416
#
# Poissons Ratio (x) = 0.27825 0.26894
# Poissons Ratio (y) = 0.42784 0.16215
# Poissons Ratio (z) = 0.39124 0.15341
#
# Static dielectric constant tensor:
#      x y z
#    x 1.728960 0.000000 -0.011380 
#    y 0.000000 1.653100 0.000000 
#    z -0.011380 0.000000 1.687120 
# 
# From -- ./inp_files/15679.got.cif
#   From: 2010.05.17/outbox.cif.g08.bks.cpg/sg5_8_cif.got.tgz:15679.got - 2010.06.03 18:56:24.
