data_PCOD9120663
_publ_section_title
;
Structure prediction by ZEFSAII (Michael W. Deem and Ramdas Pophale) SiO2 
 PCOD9120663
Probable space group: C 2
;
_chemical_formula_sum "Si O2"
_cell_formula_units_Z 30
_cell_length_a 12.079740
_cell_length_b 16.256554
_cell_length_c 8.930561
_cell_angle_alpha 90.000000
_cell_angle_beta 68.590377
_cell_angle_gamma 90.000000
_cell_volume 1632.720869
_symmetry_space_group_name_H-M "C 2"
_symmetry_group_IT_number 5
_symmetry_cell_setting 'monoclinic'
loop_
_space_group_symop_operation_xyz
x,y,z
-x,y,-z
1/2+x,1/2+y,z
1/2-x,1/2+y,-z
loop_
_atom_site_type_symbol
_atom_site_label
_atom_site_fract_x
_atom_site_fract_y
_atom_site_fract_z
Si Si1 0.000000 0.034850 0.000000
Si Si2 0.648171 0.783719 0.175543
Si Si3 0.709749 0.648603 0.373897
Si Si4 0.071319 0.447902 0.105120
Si Si5 0.980105 0.606927 0.331672
Si Si6 0.588946 0.676361 0.740634
Si Si7 0.212570 0.700687 0.132212
Si Si8 0.700928 0.539783 0.096023
O O1 0.941614 0.094788 0.151819
O O2 0.099886 0.992842 0.051139
O O3 0.697204 0.735926 0.295332
O O4 0.610740 0.878146 0.201847
O O5 0.526383 0.734614 0.192652
O O6 0.749437 0.772957 0.998606
O O7 0.845108 0.632579 0.360333
O O8 0.622137 0.652799 0.556705
O O9 0.674326 0.577666 0.271614
O O10 0.009619 0.523959 0.222526
O O11 0.184053 0.484910 0.964106
O O12 0.000000 0.410343 0.000000
O O13 0.000000 0.593415 0.500000
O O14 0.076950 0.676512 0.234353
O O15 0.707279 0.712375 0.759900
O O16 0.263690 0.620708 0.018432
#
# Coordination Sequence:
#
# PCOD9120663 Si02
#       8
#     2   4   4   4   4   4   4   4
#     4  10  18  34  56  82 112 144 204 238 290 348
#     4  11  22  35  57  92 115 156 196 250 306 350
#     4  11  21  35  58  90 121 152 206 247 299 356
#     4  11  22  38  61  86 125 156 199 251 311 358
#     4  11  22  38  60  91 118 161 200 252 300 359
#     4  11  17  32  57  85 116 148 191 250 292 348
#     4   9  18  34  56  80 114 149 203 236 288 355
#     4   9  19  34  54  84 111 154 196 245 293 362
#
# _framework density 18.374237000000001
#
# number of rings (size 3 to 8) (size 9 to 14) (size 15 to 20)
#    0.000    1.600    6.667    1.200    0.000    1.067 
#    0.000    1.333    0.000    0.000    3.467    0.000 
#    0.000    0.000    0.000    0.000    0.000    0.000 
#
# Total GULP energy -83533.317689 kJ/mol
# GULP energy per Si atom -5568.887846 kJ/mol
# Density = 1.833242 g / cm^3
# Si number density = 18.374237 Si / 1000 Ang^3
#
#
#
# Elastic Constant Matrix: (Units=GPa)
#
#
# Indices 1 2 3 4 5 6 
#
# 1 76.4045 21.9891 28.3758 0.0000 9.1797 0.0000
# 2 21.9891 56.8718 17.0765 0.0000 -1.4908 0.0000
# 3 28.3758 17.0765 121.5764 0.0000 4.3585 0.0000
# 4 0.0000 0.0000 0.0000 9.4109 0.0000 3.6811
# 5 9.1797 -1.4908 4.3585 0.0000 31.1107 0.0000
# 6 0.0000 0.0000 0.0000 3.6811 0.0000 11.0111
#
#
#
# Elastic Compliance Matrix: (Units=1/GPa)
#
#
# Indices 1 2 3 4 5 6 
#
# 1 0.016316 -0.005573 -0.002857 0.000000 -0.004681 0.000000
# 2 -0.005573 0.020310 -0.001654 0.000000 0.002849 0.000000
# 3 -0.002857 -0.001654 0.009143 0.000000 -0.000517 0.000000
# 4 0.000000 0.000000 0.000000 0.122246 0.000000 -0.040868
# 5 -0.004681 0.002849 -0.000517 0.000000 0.033733 0.000000
# 6 0.000000 0.000000 0.000000 -0.040868 0.000000 0.104480
#
#
# Mechanical properties :
#
#
# Convention : Reuss Voigt Hill
#
# Bulk Modulus (GPa) = 39.06382 43.30396 41.18389
# Shear Modulus (GPa) = 14.92852 22.80063 18.86457
#
# Velocity S-wave (km/s) = 2.85348 3.52647 3.20767
# Velocity P-wave (km/s) = 5.67122 6.34036 6.01510
#
# Compressibility (1/GPa) = 0.02559914
#
# Stress axis : x y z
#
# Youngs Moduli (GPa) = 61.29033 49.23793 109.37236
#
# Poissons Ratio (x) = 0.27441 0.31253
# Poissons Ratio (y) = 0.34158 0.18091
# Poissons Ratio (z) = 0.17514 0.08144
#
# Static dielectric constant tensor:
#      x y z
#    x 1.711260 0.000000 0.036760 
#    y 0.000000 1.625310 0.000000 
#    z 0.036760 0.000000 1.648470 
# 
# From -- ./inp_files/21274.got.cif
#   From: 2010.05.17/outbox.cif.g08.bks.cpg/sg5_11_cif.got.tgz:21274.got - 2010.06.03 18:56:24.
