data_PCOD9120806
_publ_section_title
;
Structure prediction by ZEFSAII (Michael W. Deem and Ramdas Pophale) SiO2 
 PCOD9120806
Probable space group: C 2
;
_chemical_formula_sum "Si O2"
_cell_formula_units_Z 26
_cell_length_a 8.745070
_cell_length_b 14.200278
_cell_length_c 9.492924
_cell_angle_alpha 90.000000
_cell_angle_beta 65.967425
_cell_angle_gamma 90.000000
_cell_volume 1076.664233
_symmetry_space_group_name_H-M "C 2"
_symmetry_group_IT_number 5
_symmetry_cell_setting 'monoclinic'
loop_
_space_group_symop_operation_xyz
x,y,z
-x,y,-z
1/2+x,1/2+y,z
1/2-x,1/2+y,-z
loop_
_atom_site_type_symbol
_atom_site_label
_atom_site_fract_x
_atom_site_fract_y
_atom_site_fract_z
Si Si1 0.796909 0.441710 0.851456
Si Si2 0.193496 0.078395 0.303591
Si Si3 0.298442 0.284233 0.609487
Si Si4 0.000000 0.550498 0.000000
Si Si5 0.281662 0.793314 0.660659
Si Si6 0.077042 0.895804 0.197149
Si Si7 0.799023 0.564205 0.580845
O O1 0.868177 0.349532 0.751953
O O2 0.742148 0.503586 0.736967
O O3 0.654427 0.418018 0.017138
O O4 0.933575 0.493204 0.892289
O O5 0.338936 0.096937 0.131787
O O6 0.155466 0.187079 0.350511
O O7 0.241558 0.042513 0.442664
O O8 0.074603 0.997662 0.280950
O O9 0.500000 0.291993 0.500000
O O10 0.203440 0.322853 0.507839
O O11 0.286543 0.338676 0.759899
O O12 0.260833 0.173410 0.629998
O O13 0.915849 0.825991 0.242498
O O14 0.000000 0.554652 0.500000
#
# Coordination Sequence:
#
# PCOD9120806 Si02
#       7
#     4   4   4   2   4   4   4
#     4  11  22  34  59  90 125 165 203 259 321 369
#     4  10  21  37  63  89 122 156 210 261 309 373
#     4   8  17  34  60  90 115 156 205 254 307 369
#     4  10  22  36  56  90 118 162 202 258 310 360
#     4  10  21  38  63  88 120 169 205 251 322 381
#     4  10  21  35  58  94 127 152 208 264 307 380
#     4  10  18  35  61  89 121 163 211 253 312 386
#
# _framework density 24.14866
#
# number of rings (size 3 to 8) (size 9 to 14) (size 15 to 20)
#    0.000    2.154    1.538    2.308    2.154    1.231 
#    0.000    0.000   13.538    2.769    0.000    0.000 
#    0.000    0.000    0.000    0.000    0.000    0.000 
#
# Total GULP energy -72479.199119 kJ/mol
# GULP energy per Si atom -5575.323009 kJ/mol
# Density = 2.409370 g / cm^3
# Si number density = 24.148660 Si / 1000 Ang^3
#
#
#
# Elastic Constant Matrix: (Units=GPa)
#
#
# Indices 1 2 3 4 5 6 
#
# 1 58.4284 21.9286 44.8115 0.0000 0.3261 0.0000
# 2 21.9286 103.5369 61.6205 0.0000 13.0617 0.0000
# 3 44.8115 61.6205 196.4368 0.0000 15.8374 0.0000
# 4 0.0000 0.0000 0.0000 14.4591 0.0000 -20.0901
# 5 0.3261 13.0617 15.8374 0.0000 45.2616 0.0000
# 6 0.0000 0.0000 0.0000 -20.0901 0.0000 -1.3347
#
#
#
# Elastic Compliance Matrix: (Units=1/GPa)
#
#
# Indices 1 2 3 4 5 6 
#
# 1 0.021235 -0.002176 -0.004322 0.000000 0.001987 0.000000
# 2 -0.002176 0.012312 -0.003170 0.000000 -0.002428 0.000000
# 3 -0.004322 -0.003170 0.007198 0.000000 -0.001573 0.000000
# 4 0.000000 0.000000 0.000000 0.003156 0.000000 -0.047504
# 5 0.001987 -0.002428 -0.001573 0.000000 0.023330 0.000000
# 6 0.000000 0.000000 0.000000 -0.047504 0.000000 -0.034189
#
#
# Mechanical properties :
#
#
# Convention : Reuss Voigt Hill
#
# Bulk Modulus (GPa) = 46.70851 68.34705 57.52778
# Shear Modulus (GPa) = 84.01259 27.01329 55.51294
#
# Velocity S-wave (km/s) = 5.90468 3.34821 4.79978
# Velocity P-wave (km/s) = 8.11610 6.58114 7.38859
#
# Compressibility (1/GPa) = 0.02140937
#
# Stress axis : x y z
#
# Youngs Moduli (GPa) = 47.09168 81.21969 138.93116
#
# Poissons Ratio (x) = 0.17674 0.60043
# Poissons Ratio (y) = 0.10247 0.44042
# Poissons Ratio (z) = 0.20352 0.25747
#
# Static dielectric constant tensor:
#      x y z
#    x 2.088340 0.000000 -0.054310 
#    y 0.000000 1.949280 0.000000 
#    z -0.054310 0.000000 1.890480 
# 
# From -- ./inp_files/20021.got.cif
#   From: 2010.05.17/outbox.cif.g08.bks.cpg/sg5_11_cif.got.tgz:20021.got - 2010.06.03 18:56:24.
