data_PCOD9120445
_publ_section_title
;
Structure prediction by ZEFSAII (Michael W. Deem and Ramdas Pophale) SiO2 
 PCOD9120445
Probable space group: C 2
;
_chemical_formula_sum "Si O2"
_cell_formula_units_Z 28
_cell_length_a 9.412401
_cell_length_b 17.580045
_cell_length_c 9.685537
_cell_angle_alpha 90.000000
_cell_angle_beta 45.239374
_cell_angle_gamma 90.000000
_cell_volume 1137.983525
_symmetry_space_group_name_H-M "C 2"
_symmetry_group_IT_number 5
_symmetry_cell_setting 'monoclinic'
loop_
_space_group_symop_operation_xyz
x,y,z
-x,y,-z
1/2+x,1/2+y,z
1/2-x,1/2+y,-z
loop_
_atom_site_type_symbol
_atom_site_label
_atom_site_fract_x
_atom_site_fract_y
_atom_site_fract_z
Si Si1 0.325348 0.030940 0.303284
Si Si2 0.611720 0.464408 0.709524
Si Si3 0.807426 0.888084 0.737526
Si Si4 0.743989 0.168427 0.837329
Si Si5 0.855300 0.805881 0.231826
Si Si6 0.659817 0.069748 0.274977
Si Si7 0.210942 0.728947 0.151068
O O1 0.223992 0.090480 0.266880
O O2 0.540196 0.058733 0.213225
O O3 0.183496 0.015232 0.531444
O O4 0.342164 0.948201 0.225686
O O5 0.397099 0.429776 0.812803
O O6 0.727530 0.384242 0.651786
O O7 0.658924 0.515805 0.808695
O O8 0.714793 0.806487 0.832177
O O9 0.000000 0.880135 0.500000
O O10 0.800211 0.243693 0.714036
O O11 0.500000 0.170409 0.000000
O O12 0.808883 0.189067 0.948423
O O13 0.994566 0.760845 0.246678
O O14 0.000000 0.826150 0.000000
O O15 0.500000 0.047582 0.500000
O O16 0.703614 0.158829 0.259549
#
# Coordination Sequence:
#
# PCOD9120445 Si02
#       7
#     4   4   4   4   4   4   4
#     4  10  18  33  53  80 105 140 174 216 261 312
#     4   9  19  32  50  82 108 133 172 220 262 305
#     4   9  18  33  55  78 107 133 175 219 263 307
#     4   9  16  31  53  78 100 137 184 210 250 313
#     4   8  15  31  53  74 100 135 179 207 249 308
#     4  10  18  30  53  78 109 133 175 218 260 304
#     4   9  16  31  51  79  97 135 182 213 247 302
#
# _framework density 24.604925000000001
#
# number of rings (size 3 to 8) (size 9 to 14) (size 15 to 20)
#    0.000    3.143    2.857    0.429    0.000    0.000 
#    7.714    0.000    3.143    2.571    3.714    0.000 
#    0.000    0.000    0.000    0.000    0.000    0.000 
#
# Total GULP energy -78005.828176 kJ/mol
# GULP energy per Si atom -5571.844870 kJ/mol
# Density = 2.454892 g / cm^3
# Si number density = 24.604925 Si / 1000 Ang^3
#
#
#
# Elastic Constant Matrix: (Units=GPa)
#
#
# Indices 1 2 3 4 5 6 
#
# 1 58.7161 48.7845 29.4626 0.0000 5.8953 0.0000
# 2 48.7845 210.0080 42.3772 0.0000 13.2120 0.0000
# 3 29.4626 42.3772 78.5548 0.0000 -6.4684 0.0000
# 4 0.0000 0.0000 0.0000 41.3066 0.0000 25.1548
# 5 5.8953 13.2120 -6.4684 0.0000 20.0788 0.0000
# 6 0.0000 0.0000 0.0000 25.1548 0.0000 37.8684
#
#
#
# Elastic Compliance Matrix: (Units=1/GPa)
#
#
# Indices 1 2 3 4 5 6 
#
# 1 0.024827 -0.003702 -0.007924 0.000000 -0.007406 0.000000
# 2 -0.003702 0.006337 -0.002346 0.000000 -0.003838 0.000000
# 3 -0.007924 -0.002346 0.017757 0.000000 0.009591 0.000000
# 4 0.000000 0.000000 0.000000 0.040655 0.000000 -0.027006
# 5 -0.007406 -0.003838 0.009591 0.000000 0.057593 0.000000
# 6 0.000000 0.000000 0.000000 -0.027006 0.000000 0.044347
#
#
# Mechanical properties :
#
#
# Convention : Reuss Voigt Hill
#
# Bulk Modulus (GPa) = 47.67309 65.39196 56.53253
# Shear Modulus (GPa) = 22.07969 34.96108 28.52038
#
# Velocity S-wave (km/s) = 2.99886 3.77357 3.40830
# Velocity P-wave (km/s) = 5.60432 6.75432 6.20602
#
# Compressibility (1/GPa) = 0.02097620
#
# Stress axis : x y z
#
# Youngs Moduli (GPa) = 40.27882 157.81363 56.31532
#
# Poissons Ratio (x) = 0.58428 0.44625
# Poissons Ratio (y) = 0.14913 0.13210
# Poissons Ratio (z) = 0.31917 0.37020
#
# Static dielectric constant tensor:
#      x y z
#    x 2.024790 0.000000 0.024110 
#    y 0.000000 1.981250 0.000000 
#    z 0.024110 0.000000 2.066180 
# 
# From -- ./inp_files/39616.got.cif
#   From: 2010.05.17/outbox.cif.g08.bks.cpg/sg5_20_cif.got.tgz:39616.got - 2010.06.03 18:56:24.
