data_PCOD9120298
_publ_section_title
;
Structure prediction by ZEFSAII (Michael W. Deem and Ramdas Pophale) SiO2 
 PCOD9120298
Probable space group: C 2
;
_chemical_formula_sum "Si O2"
_cell_formula_units_Z 28
_cell_length_a 20.853229
_cell_length_b 6.936488
_cell_length_c 7.872297
_cell_angle_alpha 90.000000
_cell_angle_beta 84.232646
_cell_angle_gamma 90.000000
_cell_volume 1132.949354
_symmetry_space_group_name_H-M "C 2"
_symmetry_group_IT_number 5
_symmetry_cell_setting 'monoclinic'
loop_
_space_group_symop_operation_xyz
x,y,z
-x,y,-z
1/2+x,1/2+y,z
1/2-x,1/2+y,-z
loop_
_atom_site_type_symbol
_atom_site_label
_atom_site_fract_x
_atom_site_fract_y
_atom_site_fract_z
Si Si1 0.054701 0.470790 0.367372
Si Si2 0.652675 0.493377 0.112356
Si Si3 0.382872 0.671790 0.388433
Si Si4 0.827158 0.457157 0.839210
Si Si5 0.986253 0.104109 0.807050
Si Si6 0.711951 0.961022 0.779936
Si Si7 0.196579 0.881243 0.717547
O O1 0.093337 0.317413 0.475074
O O2 0.111589 0.568784 0.250165
O O3 0.021886 0.330394 0.238239
O O4 0.000000 0.564474 0.500000
O O5 0.579339 0.484559 0.203148
O O6 0.713575 0.406830 0.200305
O O7 0.662350 0.727597 0.124676
O O8 0.660570 0.431201 0.909885
O O9 0.447996 0.564192 0.309238
O O10 0.335743 0.493988 0.428284
O O11 0.338780 0.803689 0.274153
O O12 0.767857 0.460092 0.728743
O O13 0.809027 0.532387 0.027356
O O14 0.000000 0.085406 0.000000
O O15 0.702869 0.156276 0.676872
#
# Coordination Sequence:
#
# PCOD9120298 Si02
#       7
#     4   4   4   4   4   4   4
#     4   9  20  35  60  86 117 163 204 240 304 378
#     4   9  17  33  59  86 119 148 197 260 297 348
#     4  11  20  37  61  84 121 168 195 245 313 367
#     4   9  17  35  55  88 115 155 204 246 300 361
#     4  10  17  34  66  85 113 162 204 246 303 362
#     4  10  20  34  63  89 122 149 209 259 298 363
#     4  10  19  33  59  90 119 150 201 256 303 357
#
# _framework density 24.714255000000001
#
# number of rings (size 3 to 8) (size 9 to 14) (size 15 to 20)
#    0.000    2.286    2.857    0.857    2.000    0.000 
#    7.714    0.000   28.286    4.286    0.000    0.000 
#    0.000    0.000    0.000    0.000    0.000    0.000 
#
# Total GULP energy -78065.355703 kJ/mol
# GULP energy per Si atom -5576.096836 kJ/mol
# Density = 2.465800 g / cm^3
# Si number density = 24.714255 Si / 1000 Ang^3
#
#
#
# Elastic Constant Matrix: (Units=GPa)
#
#
# Indices 1 2 3 4 5 6 
#
# 1 138.3890 30.1256 35.4431 0.0000 -14.3916 0.0000
# 2 30.1256 76.9589 -1.6797 0.0000 5.5014 0.0000
# 3 35.4431 -1.6797 64.1458 0.0000 -13.5154 0.0000
# 4 0.0000 0.0000 0.0000 8.2003 0.0000 9.5480
# 5 -14.3916 5.5014 -13.5154 0.0000 38.7119 0.0000
# 6 0.0000 0.0000 0.0000 9.5480 0.0000 26.3939
#
#
#
# Elastic Compliance Matrix: (Units=1/GPa)
#
#
# Indices 1 2 3 4 5 6 
#
# 1 0.009617 -0.004046 -0.004906 0.000000 0.002437 0.000000
# 2 -0.004046 0.014830 0.002011 0.000000 -0.002909 0.000000
# 3 -0.004906 0.002011 0.019330 0.000000 0.004639 0.000000
# 4 0.000000 0.000000 0.000000 0.210688 0.000000 -0.076217
# 5 0.002437 -0.002909 0.004639 0.000000 0.028771 0.000000
# 6 0.000000 0.000000 0.000000 -0.076217 0.000000 0.065459
#
#
# Mechanical properties :
#
#
# Convention : Reuss Voigt Hill
#
# Bulk Modulus (GPa) = 33.45096 45.25241 39.35168
# Shear Modulus (GPa) = 13.42131 29.03488 21.22809
#
# Velocity S-wave (km/s) = 2.33289 3.43129 2.93395
# Velocity P-wave (km/s) = 4.56300 5.83509 5.23781
#
# Compressibility (1/GPa) = 0.02989451
#
# Stress axis : x y z
#
# Youngs Moduli (GPa) = 103.98615 67.43304 51.73208
#
# Poissons Ratio (x) = 0.27282 0.25380
# Poissons Ratio (y) = 0.42070 -0.10402
# Poissons Ratio (z) = 0.51016 -0.13559
#
# Static dielectric constant tensor:
#      x y z
#    x 2.032560 0.000000 -0.043590 
#    y 0.000000 1.997350 0.000000 
#    z -0.043590 0.000000 1.973180 
# 
# From -- ./inp_files/28733.got.cif
#   From: 2010.05.17/outbox.cif.g08.bks.cpg/sg5_15_cif.got.tgz:28733.got - 2010.06.03 18:56:24.
