data_PCOD9120038
_publ_section_title
;
Structure prediction by ZEFSAII (Michael W. Deem and Ramdas Pophale) SiO2 
 PCOD9120038
Probable space group: C 2
;
_chemical_formula_sum "Si O2"
_cell_formula_units_Z 18
_cell_length_a 17.276490
_cell_length_b 6.602571
_cell_length_c 22.108847
_cell_angle_alpha 90.000000
_cell_angle_beta 164.450208
_cell_angle_gamma 90.000000
_cell_volume 676.070741
_symmetry_space_group_name_H-M "C 2"
_symmetry_group_IT_number 5
_symmetry_cell_setting 'monoclinic'
loop_
_space_group_symop_operation_xyz
x,y,z
-x,y,-z
1/2+x,1/2+y,z
1/2-x,1/2+y,-z
loop_
_atom_site_type_symbol
_atom_site_label
_atom_site_fract_x
_atom_site_fract_y
_atom_site_fract_z
Si Si1 0.096498 0.534230 0.325763
Si Si2 0.662411 0.356971 0.792421
Si Si3 0.829085 0.370613 0.745727
Si Si4 0.500000 0.975180 0.500000
Si Si5 0.330543 0.910325 0.245064
O O1 0.438659 0.513608 0.596576
O O2 0.036139 0.455443 0.214069
O O3 0.976029 0.754809 0.251160
O O4 0.954195 0.389659 0.270184
O O5 0.663778 0.161227 0.749732
O O6 0.972333 0.427517 0.048232
O O7 0.500000 0.445621 0.500000
O O8 0.778366 0.126651 0.705307
O O9 0.480251 0.860259 0.421601
O O10 0.000000 0.846513 0.000000
#
# Coordination Sequence:
#
# PCOD9120038 Si02
#       5
#     4   4   4   2   4
#     4  10  22  35  61  92 125 154 201 256 304 350
#     4  10  21  37  60  89 124 157 199 252 298 361
#     4  10  19  35  63  87 115 162 209 242 289 362
#     4  10  16  32  62  80 108 158 208 230 274 360
#     4  10  19  35  60  86 116 157 210 242 287 358
#
# _framework density 26.624431999999999
#
# number of rings (size 3 to 8) (size 9 to 14) (size 15 to 20)
#    2.000    0.000    4.444    0.000    0.000    5.333 
#    0.000    0.000   12.222    0.000    0.000    0.000 
#    0.000    0.000    0.000    0.000    0.000    0.000 
#
# Total GULP energy -50291.131421 kJ/mol
# GULP energy per Si atom -5587.903491 kJ/mol
# Density = 2.656383 g / cm^3
# Si number density = 26.624432 Si / 1000 Ang^3
#
#
#
# Elastic Constant Matrix: (Units=GPa)
#
#
# Indices 1 2 3 4 5 6 
#
# 1 169.2828 19.1023 31.3341 0.0584 -37.3800 0.0389
# 2 19.1023 80.9982 3.3614 -0.4835 -15.7835 -0.0316
# 3 31.3341 3.3614 141.4679 -0.4081 -21.2608 -0.0934
# 4 0.0584 -0.4835 -0.4081 12.6092 0.0890 -11.9236
# 5 -37.3800 -15.7835 -21.2608 0.0890 47.1638 0.0293
# 6 0.0389 -0.0316 -0.0934 -11.9236 0.0293 47.0521
#
#
#
# Elastic Compliance Matrix: (Units=1/GPa)
#
#
# Indices 1 2 3 4 5 6 
#
# 1 0.007277 -0.000675 -0.000819 -0.000175 0.005173 -0.000056
# 2 -0.000675 0.013293 0.000454 0.000665 0.004117 0.000176
# 3 -0.000819 0.000454 0.007686 0.000345 0.002967 0.000102
# 4 -0.000175 0.000665 0.000345 0.104352 0.000026 0.026445
# 5 0.005173 0.004117 0.002967 0.000026 0.028018 -0.000006
# 6 -0.000056 0.000176 0.000102 0.026445 -0.000006 0.027955
#
#
# Mechanical properties :
#
#
# Convention : Reuss Voigt Hill
#
# Bulk Modulus (GPa) = 38.20205 55.48272 46.84239
# Shear Modulus (GPa) = 25.07697 43.89511 34.48604
#
# Velocity S-wave (km/s) = 3.07233 4.06480 3.60290
# Velocity P-wave (km/s) = 5.19281 6.55091 5.91099
#
# Compressibility (1/GPa) = 0.02617660
#
# Stress axis : x y z
#
# Youngs Moduli (GPa) = 137.41166 75.22992 130.10112
#
# Poissons Ratio (x) = 0.05081 0.10655
# Poissons Ratio (y) = 0.09280 -0.05912
# Poissons Ratio (z) = 0.11254 -0.03419
#
# Static dielectric constant tensor:
#      x y z
#    x 2.057010 -0.000020 0.112730 
#    y -0.000020 2.159180 -0.000210 
#    z 0.112730 -0.000210 2.078440 
# 
# From -- ./inp_files/61533.got.cif
#   From: 2010.05.17/outbox.cif.g08.bks.cpg/sg5_31_cif.got.tgz:61533.got - 2010.06.03 18:56:24.
