data_PCOD9120899
_publ_section_title
;
Structure prediction by ZEFSAII (Michael W. Deem and Ramdas Pophale) SiO2 
 PCOD9120899
Probable space group: C 2
;
_chemical_formula_sum "Si O2"
_cell_formula_units_Z 32
_cell_length_a 19.685077
_cell_length_b 7.748041
_cell_length_c 25.167986
_cell_angle_alpha 90.000000
_cell_angle_beta 22.048325
_cell_angle_gamma 90.000000
_cell_volume 1440.981572
_symmetry_space_group_name_H-M "C 2"
_symmetry_group_IT_number 5
_symmetry_cell_setting 'monoclinic'
loop_
_space_group_symop_operation_xyz
x,y,z
-x,y,-z
1/2+x,1/2+y,z
1/2-x,1/2+y,-z
loop_
_atom_site_type_symbol
_atom_site_label
_atom_site_fract_x
_atom_site_fract_y
_atom_site_fract_z
Si Si1 0.687302 0.349100 0.355405
Si Si2 0.765762 0.262221 0.523395
Si Si3 0.572818 0.722746 0.391087
Si Si4 0.474435 0.850184 0.958589
Si Si5 0.106187 0.891128 0.171170
Si Si6 0.751346 0.272774 0.960223
Si Si7 0.131541 0.404560 0.662316
Si Si8 0.530333 0.269401 0.919245
O O1 0.500000 0.245041 0.500000
O O2 0.622613 0.518798 0.367586
O O3 0.750157 0.392791 0.369871
O O4 0.866119 0.280291 0.195523
O O5 0.597417 0.389882 0.659029
O O6 0.826451 0.278370 0.418080
O O7 0.935883 0.260437 0.441564
O O8 0.668391 0.083346 0.606780
O O9 0.500000 0.786276 0.500000
O O10 0.765546 0.808285 0.242771
O O11 0.501935 0.060021 0.937531
O O12 0.500000 0.790850 0.000000
O O13 0.266531 0.821774 0.092809
O O14 0.171638 0.082992 0.107883
O O15 0.130345 0.780784 0.100290
O O16 0.930446 0.385810 0.830368
O O17 0.620440 0.341466 0.009663
O O18 0.500000 0.329439 0.000000
#
# Coordination Sequence:
#
# PCOD9120899 Si02
#       8
#     4   4   4   4   4   4   4   4
#     4  10  19  36  65  91 125 170 227 276 309 393
#     4  12  25  39  66 100 135 176 221 291 335 400
#     4  10  18  36  62  92 120 167 236 266 308 391
#     4   9  19  34  59  94 123 160 221 272 314 390
#     4  11  23  39  64  98 135 172 221 273 341 398
#     4  11  22  40  65  94 134 172 219 274 338 405
#     4  12  24  42  63 101 137 172 226 280 344 397
#     4   9  18  32  58  90 117 158 215 270 305 377
#
# _framework density 22.207086
#
# number of rings (size 3 to 8) (size 9 to 14) (size 15 to 20)
#    0.000    1.500    3.750    3.000    3.500    2.000 
#    0.000    0.000    0.000   15.000    0.000    0.000 
#    0.000    0.000    0.000    0.000    0.000    0.000 
#
# Total GULP energy -89240.368517 kJ/mol
# GULP energy per Si atom -5577.523032 kJ/mol
# Density = 2.215654 g / cm^3
# Si number density = 22.207086 Si / 1000 Ang^3
#
#
#
# Elastic Constant Matrix: (Units=GPa)
#
#
# Indices 1 2 3 4 5 6 
#
# 1 134.2497 9.4251 48.8208 -0.0031 -12.5647 0.0013
# 2 9.4251 39.3441 8.8234 -0.0039 -4.3386 -0.0004
# 3 48.8208 8.8234 126.8040 -0.0136 -15.8198 0.0031
# 4 -0.0031 -0.0039 -0.0136 -9.8171 -0.0019 17.1320
# 5 -12.5647 -4.3386 -15.8198 -0.0019 47.8765 0.0029
# 6 0.0013 -0.0004 0.0031 17.1320 0.0029 -1.4545
#
#
#
# Elastic Compliance Matrix: (Units=1/GPa)
#
#
# Indices 1 2 3 4 5 6 
#
# 1 0.008792 -0.001272 -0.003153 0.000000 0.001150 -0.000001
# 2 -0.001272 0.026157 -0.001122 0.000001 0.001666 0.000006
# 3 -0.003153 -0.001122 0.009452 -0.000001 0.002194 0.000006
# 4 0.000000 0.000001 -0.000001 0.005209 -0.000004 0.061355
# 5 0.001150 0.001666 0.002194 -0.000004 0.022065 0.000002
# 6 -0.000001 0.000006 0.000006 0.061355 0.000002 0.035158
#
#
# Mechanical properties :
#
#
# Convention : Reuss Voigt Hill
#
# Bulk Modulus (GPa) = 30.02494 48.28181 39.15337
# Shear Modulus (GPa) = 38.75028 22.87622 30.81325
#
# Velocity S-wave (km/s) = 4.18179 3.21305 3.72901
# Velocity P-wave (km/s) = 6.07176 5.96269 6.01748
#
# Compressibility (1/GPa) = 0.03330565
#
# Stress axis : x y z
#
# Youngs Moduli (GPa) = 113.73399 38.23073 105.79771
#
# Poissons Ratio (x) = 0.04864 0.33359
# Poissons Ratio (y) = 0.14470 0.11875
# Poissons Ratio (z) = 0.35862 0.04291
#
# Static dielectric constant tensor:
#      x y z
#    x 1.911080 0.000010 0.008940 
#    y 0.000010 1.943600 0.000000 
#    z 0.008940 0.000000 1.822490 
# 
# From -- ./inp_files/71092.got.cif
#   From: 2010.05.17/outbox.cif.g08.bks.cpg/sg5_36_cif.got.tgz:71092.got - 2010.06.03 18:56:24.
