data_PCOD9120776
_publ_section_title
;
Structure prediction by ZEFSAII (Michael W. Deem and Ramdas Pophale) SiO2 
 PCOD9120776
Probable space group: C 2
;
_chemical_formula_sum "Si O2"
_cell_formula_units_Z 28
_cell_length_a 12.346008
_cell_length_b 8.781913
_cell_length_c 10.696738
_cell_angle_alpha 90.000000
_cell_angle_beta 102.017641
_cell_angle_gamma 90.000000
_cell_volume 1134.339337
_symmetry_space_group_name_H-M "C 2"
_symmetry_group_IT_number 5
_symmetry_cell_setting 'monoclinic'
loop_
_space_group_symop_operation_xyz
x,y,z
-x,y,-z
1/2+x,1/2+y,z
1/2-x,1/2+y,-z
loop_
_atom_site_type_symbol
_atom_site_label
_atom_site_fract_x
_atom_site_fract_y
_atom_site_fract_z
Si Si1 0.124110 0.025550 0.998975
Si Si2 0.322080 0.973894 0.478411
Si Si3 0.643868 0.365367 0.743848
Si Si4 0.376676 0.662555 0.415138
Si Si5 0.327189 0.617866 0.738175
Si Si6 0.438938 0.784798 0.172668
Si Si7 0.497208 0.080701 0.304676
O O1 0.115351 0.206237 0.960737
O O2 0.161380 0.943050 0.882650
O O3 0.189852 0.011465 0.143371
O O4 0.000000 0.971617 0.000000
O O5 0.316604 0.792394 0.483861
O O6 0.205687 0.031808 0.396207
O O7 0.411677 0.026288 0.393614
O O8 0.378911 0.048025 0.614472
O O9 0.639567 0.488824 0.632282
O O10 0.744585 0.255666 0.738891
O O11 0.535350 0.255610 0.725274
O O12 0.500000 0.672214 0.500000
O O13 0.367005 0.744144 0.276377
O O14 0.450861 0.682311 0.774878
O O15 0.471773 0.961772 0.186383
#
# Coordination Sequence:
#
# PCOD9120776 Si02
#       7
#     4   4   4   4   4   4   4
#     4   9  20  40  57  73 109 154 188 226 284 341
#     4   9  17  34  56  78 112 150 179 228 282 339
#     4  10  22  33  58  88 108 145 193 243 278 339
#     4  10  18  35  57  79 110 155 190 215 284 350
#     4  10  21  36  55  85 115 142 190 241 284 327
#     4   9  18  38  57  76 109 153 187 225 285 341
#     4   9  17  35  55  81 109 146 187 223 289 340
#
# _framework density 24.683972000000001
#
# number of rings (size 3 to 8) (size 9 to 14) (size 15 to 20)
#    0.000    2.571    2.857    0.000    4.000    4.571 
#    2.571    9.286    0.000    0.000    0.000    0.000 
#    0.000    0.000    0.000    0.000    0.000    0.000 
#
# Total GULP energy -78163.532790 kJ/mol
# GULP energy per Si atom -5583.109485 kJ/mol
# Density = 2.462779 g / cm^3
# Si number density = 24.683972 Si / 1000 Ang^3
#
#
#
# Elastic Constant Matrix: (Units=GPa)
#
#
# Indices 1 2 3 4 5 6 
#
# 1 37.8677 21.5256 15.5754 0.0000 -0.9356 0.0000
# 2 21.5256 154.3208 70.8334 0.0000 14.8305 0.0000
# 3 15.5754 70.8334 102.7553 0.0000 0.3029 0.0000
# 4 0.0000 0.0000 0.0000 39.5319 0.0000 -0.2169
# 5 -0.9356 14.8305 0.3029 0.0000 35.0693 0.0000
# 6 0.0000 0.0000 0.0000 -0.2169 0.0000 31.8890
#
#
#
# Elastic Compliance Matrix: (Units=1/GPa)
#
#
# Indices 1 2 3 4 5 6 
#
# 1 0.029225 -0.003292 -0.002167 0.000000 0.002191 0.000000
# 2 -0.003292 0.010432 -0.006679 0.000000 -0.004442 0.000000
# 3 -0.002167 -0.006679 0.014656 0.000000 0.002640 0.000000
# 4 0.000000 0.000000 0.000000 0.025297 0.000000 0.000172
# 5 0.002191 -0.004442 0.002640 0.000000 0.030429 0.000000
# 6 0.000000 0.000000 0.000000 0.000172 0.000000 0.031360
#
#
# Mechanical properties :
#
#
# Convention : Reuss Voigt Hill
#
# Bulk Modulus (GPa) = 33.29237 56.75697 45.02467
# Shear Modulus (GPa) = 28.45973 33.76532 31.11253
#
# Velocity S-wave (km/s) = 3.39922 3.70253 3.55411
# Velocity P-wave (km/s) = 5.37801 6.42820 5.92641
#
# Compressibility (1/GPa) = 0.03003691
#
# Stress axis : x y z
#
# Youngs Moduli (GPa) = 34.21774 95.86160 68.22920
#
# Poissons Ratio (x) = 0.31562 0.14783
# Poissons Ratio (y) = 0.11266 0.45569
# Poissons Ratio (z) = 0.07414 0.64024
#
# Static dielectric constant tensor:
#      x y z
#    x 2.109430 0.000000 -0.051910 
#    y 0.000000 2.022820 0.000000 
#    z -0.051910 0.000000 2.014700 
# 
# From -- ./inp_files/41881.got.cif
#   From: 2010.05.17/outbox.cif.g08.bks.cpg/sg5_21_cif.got.tgz:41881.got - 2010.06.03 18:56:24.
