data_PCOD9120495
_publ_section_title
;
Structure prediction by ZEFSAII (Michael W. Deem and Ramdas Pophale) SiO2 
 PCOD9120495
Probable space group: C 2
;
_chemical_formula_sum "Si O2"
_cell_formula_units_Z 24
_cell_length_a 20.826160
_cell_length_b 10.943110
_cell_length_c 7.103501
_cell_angle_alpha 90.000000
_cell_angle_beta 145.909658
_cell_angle_gamma 90.000000
_cell_volume 907.397477
_symmetry_space_group_name_H-M "C 2"
_symmetry_group_IT_number 5
_symmetry_cell_setting 'monoclinic'
loop_
_space_group_symop_operation_xyz
x,y,z
-x,y,-z
1/2+x,1/2+y,z
1/2-x,1/2+y,-z
loop_
_atom_site_type_symbol
_atom_site_label
_atom_site_fract_x
_atom_site_fract_y
_atom_site_fract_z
Si Si1 0.706887 0.044050 0.673591
Si Si2 0.408426 0.704181 0.150481
Si Si3 0.055333 0.975017 0.341792
Si Si4 0.239982 0.587601 0.302291
Si Si5 0.368357 0.820787 0.675813
Si Si6 0.498199 0.204072 0.226692
O O1 0.720444 0.054950 0.475717
O O2 0.593519 0.100812 0.485119
O O3 0.699685 0.899127 0.644468
O O4 0.806001 0.128769 0.994934
O O5 0.500000 0.774175 0.500000
O O6 0.484949 0.588653 0.259945
O O7 0.351950 0.795805 0.860395
O O8 0.026887 0.841744 0.358421
O O9 0.194110 0.984668 0.656158
O O10 0.000000 0.968897 0.000000
O O11 0.342671 0.685267 0.547064
O O12 0.120558 0.655260 0.974934
O O13 0.500000 0.862179 0.000000
O O14 0.500000 0.209882 0.000000
#
# Coordination Sequence:
#
# PCOD9120495 Si02
#       6
#     4   4   4   4   4   4
#     4  10  21  36  59  92 125 163 215 276 318 389
#     4  11  23  40  61  96 134 169 213 271 338 397
#     4  11  18  37  61  88 120 172 221 263 323 406
#     4  10  18  31  57  92 117 159 214 275 307 385
#     4  11  19  36  63  92 120 161 225 264 311 393
#     4   9  20  33  56  95 123 153 215 283 322 366
#
# _framework density 26.449271
#
# number of rings (size 3 to 8) (size 9 to 14) (size 15 to 20)
#    0.000    1.667    5.000    2.500    7.000    0.000 
#    0.000    1.667    0.000    0.000    0.000    7.000 
#    0.000    0.000    0.000    0.000    0.000    0.000 
#
# Total GULP energy -66836.734523 kJ/mol
# GULP energy per Si atom -5569.727877 kJ/mol
# Density = 2.638907 g / cm^3
# Si number density = 26.449271 Si / 1000 Ang^3
#
#
#
# Elastic Constant Matrix: (Units=GPa)
#
#
# Indices 1 2 3 4 5 6 
#
# 1 72.3789 36.3381 40.0409 0.0000 3.3783 0.0000
# 2 36.3381 11.9502 15.8743 0.0000 25.7375 0.0000
# 3 40.0409 15.8743 87.9849 0.0000 29.9886 0.0000
# 4 0.0000 0.0000 0.0000 -31.1970 0.0000 -5.9137
# 5 3.3783 25.7375 29.9886 0.0000 56.1643 0.0000
# 6 0.0000 0.0000 0.0000 -5.9137 0.0000 10.6400
#
#
#
# Elastic Compliance Matrix: (Units=1/GPa)
#
#
# Indices 1 2 3 4 5 6 
#
# 1 -0.000082 0.029838 -0.000840 0.000000 -0.013220 0.000000
# 2 0.029838 -0.045976 -0.014490 0.000000 0.027011 0.000000
# 3 -0.000840 -0.014490 0.014770 0.000000 -0.001196 0.000000
# 4 0.000000 0.000000 0.000000 -0.028999 0.000000 -0.016118
# 5 -0.013220 0.027011 -0.001196 0.000000 0.006861 0.000000
# 6 0.000000 0.000000 0.000000 -0.016118 0.000000 0.085027
#
#
# Mechanical properties :
#
#
# Convention : Reuss Voigt Hill
#
# Bulk Modulus (GPa) = -439.85987 39.64674 -200.10656
# Shear Modulus (GPa) = 2736.81127 12.45882 1374.63505
#
# Velocity S-wave (km/s) = 32.20227 2.17271 22.82221
# Velocity P-wave (km/s) = 34.87096 4.61698 24.87268
#
# Compressibility (1/GPa) = -0.00227345
#
# Stress axis : x y z
#
# Youngs Moduli (GPa) = -12164.02075 -21.75042 67.70597
#
# Poissons Ratio (x) = 0.64899 0.05688
# Poissons Ratio (y) = 362.94861 0.98107
# Poissons Ratio (z) = -10.21991 -0.31517
#
# Static dielectric constant tensor:
#      x y z
#    x 2.165260 0.000000 -0.141770 
#    y 0.000000 2.101180 0.000000 
#    z -0.141770 0.000000 2.442360 
# 
# From -- ./inp_files/30961.got.cif
#   From: 2010.05.17/outbox.cif.g08.bks.cpg/sg5_16_cif.got.tgz:30961.got - 2010.06.03 18:56:24.
