data_PCOD9120165
_publ_section_title
;
Structure prediction by ZEFSAII (Michael W. Deem and Ramdas Pophale) SiO2 
 PCOD9120165
Probable space group: C 2
;
_chemical_formula_sum "Si O2"
_cell_formula_units_Z 28
_cell_length_a 22.743592
_cell_length_b 5.183773
_cell_length_c 13.584114
_cell_angle_alpha 90.000000
_cell_angle_beta 66.491200
_cell_angle_gamma 90.000000
_cell_volume 1468.605417
_symmetry_space_group_name_H-M "C 2"
_symmetry_group_IT_number 5
_symmetry_cell_setting 'monoclinic'
loop_
_space_group_symop_operation_xyz
x,y,z
-x,y,-z
1/2+x,1/2+y,z
1/2-x,1/2+y,-z
loop_
_atom_site_type_symbol
_atom_site_label
_atom_site_fract_x
_atom_site_fract_y
_atom_site_fract_z
Si Si1 0.176625 0.549280 0.482591
Si Si2 0.067040 0.665100 0.398695
Si Si3 0.055442 0.177923 0.277672
Si Si4 0.924402 0.624124 0.069661
Si Si5 0.057669 0.249724 0.784111
Si Si6 0.322138 0.543533 0.385342
Si Si7 0.923369 0.118757 0.955142
O O1 0.124274 0.626349 0.437537
O O2 0.249655 0.568233 0.394800
O O3 0.168840 0.267583 0.537394
O O4 0.171563 0.764211 0.570763
O O5 0.061982 0.943471 0.349398
O O6 0.000000 0.618973 0.500000
O O7 0.076971 0.444702 0.310503
O O8 0.091697 0.109293 0.151325
O O9 0.981725 0.235143 0.291719
O O10 0.922542 0.526478 0.183963
O O11 0.898889 0.882412 0.036535
O O12 0.000000 0.640747 0.000000
O O13 0.900846 0.381636 0.020605
O O14 0.002223 0.135248 0.892631
O O15 0.122173 0.092030 0.729735
#
# Coordination Sequence:
#
# PCOD9120165 Si02
#       7
#     4   4   4   4   4   4   4
#     4  10  22  35  56  73 111 142 181 225 258 307
#     4  12  21  34  51  76 107 143 181 214 260 314
#     4  10  22  32  50  76 106 142 170 211 266 319
#     4  10  17  30  47  74 108 132 158 215 263 320
#     4   9  20  32  55  78 112 136 176 215 273 323
#     4  10  20  38  53  80 103 143 180 222 268 306
#     4   9  20  30  47  74 109 132 164 207 269 315
#
# _framework density 19.065705000000001
#
# number of rings (size 3 to 8) (size 9 to 14) (size 15 to 20)
#    0.857    1.143    0.000    5.143    0.000    3.429 
#    0.000    0.000    0.000    0.000    0.000    4.000 
#    4.286    0.000    0.000    0.000    0.000    0.000 
#
# Total GULP energy -77969.074944 kJ/mol
# GULP energy per Si atom -5569.219639 kJ/mol
# Density = 1.902231 g / cm^3
# Si number density = 19.065705 Si / 1000 Ang^3
#
#
#
# Elastic Constant Matrix: (Units=GPa)
#
#
# Indices 1 2 3 4 5 6 
#
# 1 80.3166 -6.9825 27.5863 0.0000 7.1029 0.0000
# 2 -6.9825 90.1997 7.3777 0.0000 2.1261 0.0000
# 3 27.5863 7.3777 35.1869 0.0000 2.5528 0.0000
# 4 0.0000 0.0000 0.0000 26.3119 0.0000 7.6311
# 5 7.1029 2.1261 2.5528 0.0000 19.5637 0.0000
# 6 0.0000 0.0000 0.0000 7.6311 0.0000 11.6358
#
#
#
# Elastic Compliance Matrix: (Units=1/GPa)
#
#
# Indices 1 2 3 4 5 6 
#
# 1 0.018056 0.002689 -0.014359 0.000000 -0.004974 0.000000
# 2 0.002689 0.011697 -0.004440 0.000000 -0.001668 0.000000
# 3 -0.014359 -0.004440 0.040579 0.000000 0.000401 0.000000
# 4 0.000000 0.000000 0.000000 0.046932 0.000000 -0.030780
# 5 -0.004974 -0.001668 0.000401 0.000000 0.053050 0.000000
# 6 0.000000 0.000000 0.000000 -0.030780 0.000000 0.106128
#
#
# Mechanical properties :
#
#
# Convention : Reuss Voigt Hill
#
# Bulk Modulus (GPa) = 26.23766 29.07403 27.65584
# Shear Modulus (GPa) = 15.55854 23.35039 19.45447
#
# Velocity S-wave (km/s) = 2.85976 3.50341 3.19782
# Velocity P-wave (km/s) = 4.96949 5.62563 5.30771
#
# Compressibility (1/GPa) = 0.03811316
#
# Stress axis : x y z
#
# Youngs Moduli (GPa) = 55.38212 85.49062 24.64334
#
# Poissons Ratio (x) = -0.22993 0.35386
# Poissons Ratio (y) = -0.14895 0.10942
# Poissons Ratio (z) = 0.79524 0.37958
#
# Static dielectric constant tensor:
#      x y z
#    x 1.667830 0.000000 0.034870 
#    y 0.000000 1.706820 0.000000 
#    z 0.034870 0.000000 1.721040 
# 
# From -- ./inp_files/56389.got.cif
#   From: 2010.05.17/outbox.cif.g08.bks.cpg/sg5_29_cif.got.tgz:56389.got - 2010.06.03 18:56:24.
