data_PCOD9120468
_publ_section_title
;
Structure prediction by ZEFSAII (Michael W. Deem and Ramdas Pophale) SiO2 
 PCOD9120468
Probable space group: C 2
;
_chemical_formula_sum "Si O2"
_cell_formula_units_Z 32
_cell_length_a 15.525179
_cell_length_b 22.335189
_cell_length_c 9.998641
_cell_angle_alpha 90.000000
_cell_angle_beta 160.760659
_cell_angle_gamma 90.000000
_cell_volume 1142.463728
_symmetry_space_group_name_H-M "C 2"
_symmetry_group_IT_number 5
_symmetry_cell_setting 'monoclinic'
loop_
_space_group_symop_operation_xyz
x,y,z
-x,y,-z
1/2+x,1/2+y,z
1/2-x,1/2+y,-z
loop_
_atom_site_type_symbol
_atom_site_label
_atom_site_fract_x
_atom_site_fract_y
_atom_site_fract_z
Si Si1 0.147682 0.946250 0.358810
Si Si2 0.514269 0.325378 0.863409
Si Si3 0.272241 0.573445 0.552259
Si Si4 0.607624 0.725151 0.937448
Si Si5 0.275841 0.483147 0.059098
Si Si6 0.274634 0.857358 0.985433
Si Si7 0.613757 0.198057 0.371673
Si Si8 0.357497 0.608432 0.151651
O O1 0.215419 0.877132 0.499287
O O2 0.933660 0.966431 0.155891
O O3 0.329925 0.005610 0.616131
O O4 0.000000 0.943428 0.000000
O O5 0.724604 0.351215 0.069779
O O6 0.562470 0.255768 0.899279
O O7 0.500000 0.325307 0.000000
O O8 0.073038 0.627272 0.296453
O O9 0.425850 0.590602 0.642167
O O10 0.500000 0.574845 0.000000
O O11 0.311187 0.710196 0.537360
O O12 0.730234 0.675032 0.020019
O O13 0.616645 0.794118 0.906626
O O14 0.743156 0.713463 0.278874
O O15 0.500000 0.490343 0.500000
O O16 0.107468 0.424414 0.853900
O O17 0.168419 0.550017 0.877981
O O18 0.000000 0.861039 0.500000
O O19 0.500000 0.616252 0.500000
#
# Coordination Sequence:
#
# PCOD9120468 Si02
#       8
#     4   4   4   4   4   4   4   4
#     4   8  15  26  45  69  94 122 161 203 236 277
#     4  10  20  33  49  75 103 130 163 205 248 288
#     4   9  14  27  47  70  95 124 162 202 239 282
#     4  10  19  31  51  77 100 131 165 201 248 295
#     4   8  15  26  43  67  96 124 157 203 240 274
#     4  10  18  31  50  73 100 133 166 198 243 298
#     4  10  18  32  51  76 101 130 165 203 246 295
#     4   9  16  27  44  71  98 122 161 207 242 275
#
# _framework density 28.009640999999998
#
# number of rings (size 3 to 8) (size 9 to 14) (size 15 to 20)
#    0.000    2.750    3.750    0.000    0.000    2.000 
#    0.000    0.000    0.000    1.500    3.250    0.000 
#    0.000    0.000    0.000    0.000    0.000    0.000 
#
# Total GULP energy -89219.524174 kJ/mol
# GULP energy per Si atom -5576.220261 kJ/mol
# Density = 2.794589 g / cm^3
# Si number density = 28.009641 Si / 1000 Ang^3
#
#
#
# Elastic Constant Matrix: (Units=GPa)
#
#
# Indices 1 2 3 4 5 6 
#
# 1 99.6885 91.3640 32.2361 0.0006 -26.2123 0.0006
# 2 91.3640 332.7760 21.0974 0.0004 -2.5937 0.0000
# 3 32.2361 21.0974 76.9706 0.0019 -16.5530 0.0021
# 4 0.0006 0.0004 0.0019 18.4538 0.0012 11.5094
# 5 -26.2123 -2.5937 -16.5530 0.0012 34.5664 0.0005
# 6 0.0006 0.0000 0.0021 11.5094 0.0005 60.1832
#
#
#
# Elastic Compliance Matrix: (Units=1/GPa)
#
#
# Indices 1 2 3 4 5 6 
#
# 1 0.018958 -0.004857 -0.004008 -0.000001 0.012092 0.000000
# 2 -0.004857 0.004303 0.000147 0.000000 -0.003290 0.000000
# 3 -0.004008 0.000147 0.015584 -0.000002 0.004434 0.000000
# 4 -0.000001 0.000000 -0.000002 0.061528 -0.000003 -0.011767
# 5 0.012092 -0.003290 0.004434 -0.000003 0.039976 0.000000
# 6 0.000000 0.000000 0.000000 -0.011767 0.000000 0.018866
#
#
# Mechanical properties :
#
#
# Convention : Reuss Voigt Hill
#
# Bulk Modulus (GPa) = 46.70704 88.75889 67.73297
# Shear Modulus (GPa) = 27.20529 46.95652 37.08091
#
# Velocity S-wave (km/s) = 3.11992 4.09888 3.64244
# Velocity P-wave (km/s) = 5.44886 7.35925 6.47490
#
# Compressibility (1/GPa) = 0.02141005
#
# Stress axis : x y z
#
# Youngs Moduli (GPa) = 52.74829 232.37197 64.16854
#
# Poissons Ratio (x) = 1.12853 0.25719
# Poissons Ratio (y) = 0.25618 -0.00943
# Poissons Ratio (z) = 0.21142 -0.03416
#
# Static dielectric constant tensor:
#      x y z
#    x 2.189680 0.000000 0.122040 
#    y 0.000000 2.327570 0.000000 
#    z 0.122040 0.000000 2.363570 
# 
# From -- ./inp_files/21795.got.cif
#   From: 2010.05.17/outbox.cif.g08.bks.cpg/sg5_11_cif.got.tgz:21795.got - 2010.06.03 18:56:24.
