data_PCOD9120092
_publ_section_title
;
Structure prediction by ZEFSAII (Michael W. Deem and Ramdas Pophale) SiO2 
 PCOD9120092
Probable space group: C 2
;
_chemical_formula_sum "Si O2"
_cell_formula_units_Z 26
_cell_length_a 14.099845
_cell_length_b 7.034861
_cell_length_c 16.489148
_cell_angle_alpha 90.000000
_cell_angle_beta 36.642431
_cell_angle_gamma 90.000000
_cell_volume 976.137271
_symmetry_space_group_name_H-M "C 2"
_symmetry_group_IT_number 5
_symmetry_cell_setting 'monoclinic'
loop_
_space_group_symop_operation_xyz
x,y,z
-x,y,-z
1/2+x,1/2+y,z
1/2-x,1/2+y,-z
loop_
_atom_site_type_symbol
_atom_site_label
_atom_site_fract_x
_atom_site_fract_y
_atom_site_fract_z
Si Si1 0.315373 0.856780 0.227851
Si Si2 0.758172 0.399799 0.715732
Si Si3 0.366321 0.476704 0.802066
Si Si4 0.850279 0.210376 0.973091
Si Si5 0.000000 0.921854 0.000000
Si Si6 0.404351 0.926551 0.451091
Si Si7 0.653647 0.369744 0.497192
O O1 0.277908 0.627504 0.254640
O O2 0.264300 0.945129 0.178169
O O3 0.502722 0.859706 0.118626
O O4 0.192163 0.933679 0.379907
O O5 0.787437 0.354182 0.602367
O O6 0.919796 0.357495 0.651849
O O7 0.611897 0.309195 0.862272
O O8 0.355225 0.638048 0.877433
O O9 0.531857 0.476335 0.639859
O O10 0.322756 0.291813 0.886885
O O11 0.893487 0.050901 0.011494
O O12 0.408373 0.153969 0.460187
O O13 0.324907 0.876423 0.421983
#
# Coordination Sequence:
#
# PCOD9120092 Si02
#       7
#     4   4   4   4   2   4   4
#     4  10  20  41  67  93 126 171 219 272 329 400
#     4   9  17  34  60  83 116 167 207 254 316 385
#     4  12  22  41  67  98 129 178 221 274 333 401
#     4  11  23  39  69  95 131 173 226 270 336 402
#     4  10  16  36  58  88 116 168 210 262 310 392
#     4  10  20  35  60  92 121 159 217 263 325 393
#     4  11  21  37  65  95 124 168 217 271 327 395
#
# _framework density 26.6356
#
# number of rings (size 3 to 8) (size 9 to 14) (size 15 to 20)
#    0.000    1.538    4.615    3.231    0.000    2.462 
#    0.000    0.000   23.692    0.000    0.000    0.000 
#    0.000    0.000    0.000    0.000    0.000    0.000 
#
# Total GULP energy -72791.270452 kJ/mol
# GULP energy per Si atom -5599.328496 kJ/mol
# Density = 2.657498 g / cm^3
# Si number density = 26.635600 Si / 1000 Ang^3
#
#
#
# Elastic Constant Matrix: (Units=GPa)
#
#
# Indices 1 2 3 4 5 6 
#
# 1 85.7828 -5.3745 19.2238 0.0000 31.0441 0.0000
# 2 -5.3745 71.0662 -9.7688 0.0000 10.6804 0.0000
# 3 19.2238 -9.7688 189.0196 0.0000 29.8579 0.0000
# 4 0.0000 0.0000 0.0000 30.6603 0.0000 -26.1307
# 5 31.0441 10.6804 29.8579 0.0000 39.5326 0.0000
# 6 0.0000 0.0000 0.0000 -26.1307 0.0000 74.1444
#
#
#
# Elastic Compliance Matrix: (Units=1/GPa)
#
#
# Indices 1 2 3 4 5 6 
#
# 1 0.017168 0.003682 0.000830 0.000000 -0.015103 0.000000
# 2 0.003682 0.015880 0.001795 0.000000 -0.008537 0.000000
# 3 0.000830 0.001795 0.006220 0.000000 -0.005835 0.000000
# 4 0.000000 0.000000 0.000000 0.046618 0.000000 0.016429
# 5 -0.015103 -0.008537 -0.005835 0.000000 0.043869 0.000000
# 6 0.000000 0.000000 0.000000 0.016429 0.000000 0.019277
#
#
# Mechanical properties :
#
#
# Convention : Reuss Voigt Hill
#
# Bulk Modulus (GPa) = 19.27450 39.33661 29.30555
# Shear Modulus (GPa) = 32.52831 51.65333 42.09082
#
# Velocity S-wave (km/s) = 3.49841 4.40848 3.97954
# Velocity P-wave (km/s) = 4.85495 6.38071 5.66939
#
# Compressibility (1/GPa) = 0.05188203
#
# Stress axis : x y z
#
# Youngs Moduli (GPa) = 58.24863 62.97375 160.75929
#
# Poissons Ratio (x) = -0.23189 -0.13344
# Poissons Ratio (y) = -0.21449 -0.28852
# Poissons Ratio (z) = -0.04835 -0.11302
#
# Static dielectric constant tensor:
#      x y z
#    x 1.806010 0.000000 -0.132360 
#    y 0.000000 2.166670 0.000000 
#    z -0.132360 0.000000 2.004190 
# 
# From -- ./inp_files/54096.got.cif
#   From: 2010.05.17/outbox.cif.g08.bks.cpg/sg5_28_cif.got.tgz:54096.got - 2010.06.03 18:56:24.
