data_PCOD9120649
_publ_section_title
;
Structure prediction by ZEFSAII (Michael W. Deem and Ramdas Pophale) SiO2 
 PCOD9120649
Probable space group: C 2
;
_chemical_formula_sum "Si O2"
_cell_formula_units_Z 26
_cell_length_a 9.376871
_cell_length_b 21.801912
_cell_length_c 9.017709
_cell_angle_alpha 90.000000
_cell_angle_beta 135.420812
_cell_angle_gamma 90.000000
_cell_volume 1293.958954
_symmetry_space_group_name_H-M "C 2"
_symmetry_group_IT_number 5
_symmetry_cell_setting 'monoclinic'
loop_
_space_group_symop_operation_xyz
x,y,z
-x,y,-z
1/2+x,1/2+y,z
1/2-x,1/2+y,-z
loop_
_atom_site_type_symbol
_atom_site_label
_atom_site_fract_x
_atom_site_fract_y
_atom_site_fract_z
Si Si1 0.258558 0.732460 0.786483
Si Si2 0.000000 0.049555 0.500000
Si Si3 0.000000 0.033379 0.000000
Si Si4 0.684728 0.951121 0.251662
Si Si5 0.358087 0.149041 0.036253
Si Si6 0.897389 0.132305 0.672111
Si Si7 0.500000 0.345845 0.500000
Si Si8 0.071988 0.526386 0.719763
O O1 0.142812 0.697352 0.831631
O O2 0.266257 0.687057 0.646723
O O3 0.141660 0.796330 0.689446
O O4 0.500000 0.739678 0.000000
O O5 0.142567 0.092868 0.504240
O O6 0.158672 0.003111 0.697498
O O7 0.073053 0.080778 0.180175
O O8 0.202839 0.996713 0.116386
O O9 0.821423 0.894368 0.407125
O O10 0.584894 0.980875 0.322142
O O11 0.500000 0.938205 0.000000
O O12 0.398969 0.084747 0.150388
O O13 0.500000 0.157396 0.000000
O O14 0.125905 0.154379 0.810040
O O15 0.000000 0.543058 0.500000
#
# Coordination Sequence:
#
# PCOD9120649 Si02
#       8
#     4   2   2   4   4   4   2   4
#     4  10  21  41  65  90 128 167 212 257 315 381
#     4  11  22  34  64 102 134 159 198 252 326 387
#     4  10  18  34  54  92 132 158 186 244 330 384
#     4  11  24  42  61  91 126 169 218 266 307 369
#     4  10  20  35  62 103 134 163 192 254 333 386
#     4  10  18  36  57  96 135 158 194 251 316 393
#     4  11  26  42  68  82 114 179 234 260 308 359
#     4  11  21  35  63  97 133 162 201 250 322 393
#
# _framework density 20.093373
#
# number of rings (size 3 to 8) (size 9 to 14) (size 15 to 20)
#    0.000    1.538    3.846    4.615    1.077    2.462 
#    0.000    0.000   11.846    0.000    0.000    0.000 
#    0.000    0.000    0.000    0.000    0.000    0.000 
#
# Total GULP energy -72368.708129 kJ/mol
# GULP energy per Si atom -5566.823702 kJ/mol
# Density = 2.004764 g / cm^3
# Si number density = 20.093373 Si / 1000 Ang^3
#
#
#
# Elastic Constant Matrix: (Units=GPa)
#
#
# Indices 1 2 3 4 5 6 
#
# 1 142.0820 56.9495 46.2176 0.0000 7.0831 0.0000
# 2 56.9495 115.3019 32.8644 0.0000 4.7784 0.0000
# 3 46.2176 32.8644 86.3030 0.0000 22.5501 0.0000
# 4 0.0000 0.0000 0.0000 32.2408 0.0000 11.6603
# 5 7.0831 4.7784 22.5501 0.0000 36.1095 0.0000
# 6 0.0000 0.0000 0.0000 11.6603 0.0000 16.8315
#
#
#
# Elastic Compliance Matrix: (Units=1/GPa)
#
#
# Indices 1 2 3 4 5 6 
#
# 1 0.009818 -0.003716 -0.004144 0.000000 0.001154 0.000000
# 2 -0.003716 0.011181 -0.002476 0.000000 0.000795 0.000000
# 3 -0.004144 -0.002476 0.017269 0.000000 -0.009644 0.000000
# 4 0.000000 0.000000 0.000000 0.041386 0.000000 -0.028671
# 5 0.001154 0.000795 -0.009644 0.000000 0.033384 0.000000
# 6 0.000000 0.000000 0.000000 -0.028671 0.000000 0.079274
#
#
# Mechanical properties :
#
#
# Convention : Reuss Voigt Hill
#
# Bulk Modulus (GPa) = 56.82972 68.41665 62.62318
# Shear Modulus (GPa) = 22.84671 30.88004 26.86338
#
# Velocity S-wave (km/s) = 3.37564 3.92449 3.66037
# Velocity P-wave (km/s) = 6.59829 7.39316 7.00701
#
# Compressibility (1/GPa) = 0.01759643
#
# Stress axis : x y z
#
# Youngs Moduli (GPa) = 101.85160 89.43843 57.90709
#
# Poissons Ratio (x) = 0.33235 0.23999
# Poissons Ratio (y) = 0.37847 0.14335
# Poissons Ratio (z) = 0.42211 0.22141
#
# Static dielectric constant tensor:
#      x y z
#    x 1.771600 0.000000 0.040290 
#    y 0.000000 1.715640 0.000000 
#    z 0.040290 0.000000 1.797540 
# 
# From -- ./inp_files/16916.got.cif
#   From: 2010.05.17/outbox.cif.g08.bks.cpg/sg5_9_cif.got.tgz:16916.got - 2010.06.03 18:56:24.
