data_PCOD9120811
_publ_section_title
;
Structure prediction by ZEFSAII (Michael W. Deem and Ramdas Pophale) SiO2 
 PCOD9120811
Probable space group: C 2
;
_chemical_formula_sum "Si O2"
_cell_formula_units_Z 30
_cell_length_a 17.780023
_cell_length_b 4.891855
_cell_length_c 16.662932
_cell_angle_alpha 90.000000
_cell_angle_beta 108.400290
_cell_angle_gamma 90.000000
_cell_volume 1375.200597
_symmetry_space_group_name_H-M "C 2"
_symmetry_group_IT_number 5
_symmetry_cell_setting 'monoclinic'
loop_
_space_group_symop_operation_xyz
x,y,z
-x,y,-z
1/2+x,1/2+y,z
1/2-x,1/2+y,-z
loop_
_atom_site_type_symbol
_atom_site_label
_atom_site_fract_x
_atom_site_fract_y
_atom_site_fract_z
Si Si1 0.000000 0.245090 0.000000
Si Si2 0.259271 0.059168 0.450452
Si Si3 0.077881 0.454167 0.791300
Si Si4 0.371598 0.126097 0.870372
Si Si5 0.504704 0.475294 0.843212
Si Si6 0.767097 0.290866 0.714932
Si Si7 0.758463 0.384969 0.057545
Si Si8 0.335445 0.817378 0.329834
O O1 0.065928 0.441264 0.059809
O O2 0.964476 0.052793 0.057452
O O3 0.220733 0.798370 0.480511
O O4 0.205148 0.211136 0.365267
O O5 0.169787 0.435706 0.581240
O O6 0.056826 0.759972 0.810967
O O7 0.157478 0.372454 0.867545
O O8 0.091690 0.389041 0.702369
O O9 0.007703 0.259285 0.797883
O O10 0.420457 0.342862 0.833757
O O11 0.325664 0.928817 0.794805
O O12 0.311304 0.271351 0.910164
O O13 0.733072 0.004552 0.734319
O O14 0.693814 0.506211 0.680835
O O15 0.741590 0.689770 0.020761
#
# Coordination Sequence:
#
# PCOD9120811 Si02
#       8
#     2   4   4   4   4   4   4   4
#     4  12  28  48  64  86 130 182 234 284 326 370
#     4  10  18  35  62 103 142 160 196 260 342 400
#     4  12  25  46  60  94 127 170 226 273 337 390
#     4  12  28  47  64  91 132 178 229 279 330 387
#     4  12  28  43  66  86 130 179 227 281 324 392
#     4  10  22  38  65  95 130 171 206 267 328 386
#     4  12  29  39  64  91 121 167 228 286 341 373
#     4  10  21  39  65  95 134 167 200 273 327 395
#
# _framework density 21.815002
#
# number of rings (size 3 to 8) (size 9 to 14) (size 15 to 20)
#    0.800    0.000    4.000    2.800   11.200    0.000 
#    0.000    0.000    0.000    0.000    0.000    0.933 
#   12.000    0.000    0.000    0.000    0.000    0.000 
#
# Total GULP energy -83795.595885 kJ/mol
# GULP energy per Si atom -5586.373059 kJ/mol
# Density = 2.176535 g / cm^3
# Si number density = 21.815002 Si / 1000 Ang^3
#
#
#
# Elastic Constant Matrix: (Units=GPa)
#
#
# Indices 1 2 3 4 5 6 
#
# 1 42.7303 -7.6394 7.9321 0.0002 -17.6521 -0.0002
# 2 -7.6394 89.7441 11.2120 0.0007 -9.2852 -0.0006
# 3 7.9321 11.2120 80.2860 0.0002 -35.2529 -0.0002
# 4 0.0002 0.0007 0.0002 40.5721 -0.0001 -6.7807
# 5 -17.6521 -9.2852 -35.2529 -0.0001 28.9838 0.0001
# 6 -0.0002 -0.0006 -0.0002 -6.7807 0.0001 28.3205
#
#
#
# Elastic Compliance Matrix: (Units=1/GPa)
#
#
# Indices 1 2 3 4 5 6 
#
# 1 0.039946 0.006134 0.014470 0.000000 0.043893 0.000000
# 2 0.006134 0.012467 0.002247 0.000000 0.010463 0.000000
# 3 0.014470 0.002247 0.031974 0.000000 0.048422 0.000000
# 4 0.000000 0.000000 0.000000 0.025675 0.000000 0.006147
# 5 0.043893 0.010463 0.048422 0.000000 0.123481 0.000000
# 6 0.000000 0.000000 0.000000 0.006147 0.000000 0.036782
#
#
# Mechanical properties :
#
#
# Convention : Reuss Voigt Hill
#
# Bulk Modulus (GPa) = 7.68713 26.19665 16.94189
# Shear Modulus (GPa) = 18.65775 32.99234 25.82504
#
# Velocity S-wave (km/s) = 2.92767 3.89314 3.44440
# Velocity P-wave (km/s) = 3.86779 5.67832 4.85814
#
# Compressibility (1/GPa) = 0.13008752
#
# Stress axis : x y z
#
# Youngs Moduli (GPa) = 25.03406 80.21368 31.27567
#
# Poissons Ratio (x) = -0.49202 -0.45255
# Poissons Ratio (y) = -0.15356 -0.07028
# Poissons Ratio (z) = -0.36224 -0.18025
#
# Static dielectric constant tensor:
#      x y z
#    x 1.832250 0.000000 -0.041870 
#    y 0.000000 1.789620 0.000000 
#    z -0.041870 0.000000 1.850020 
# 
# From -- ./inp_files/55305.got.cif
#   From: 2010.05.17/outbox.cif.g08.bks.cpg/sg5_28_cif.got.tgz:55305.got - 2010.06.03 18:56:24.
