data_PCOD9120383
_publ_section_title
;
Structure prediction by ZEFSAII (Michael W. Deem and Ramdas Pophale) SiO2 
 PCOD9120383
Probable space group: C 2
;
_chemical_formula_sum "Si O2"
_cell_formula_units_Z 30
_cell_length_a 10.825232
_cell_length_b 12.525071
_cell_length_c 12.225007
_cell_angle_alpha 90.000000
_cell_angle_beta 112.085584
_cell_angle_gamma 90.000000
_cell_volume 1535.923991
_symmetry_space_group_name_H-M "C 2"
_symmetry_group_IT_number 5
_symmetry_cell_setting 'monoclinic'
loop_
_space_group_symop_operation_xyz
x,y,z
-x,y,-z
1/2+x,1/2+y,z
1/2-x,1/2+y,-z
loop_
_atom_site_type_symbol
_atom_site_label
_atom_site_fract_x
_atom_site_fract_y
_atom_site_fract_z
Si Si1 0.372251 0.358730 0.377556
Si Si2 0.437945 0.306951 0.158467
Si Si3 0.740204 0.236294 0.222616
Si Si4 0.161144 0.082336 0.559404
Si Si5 0.000000 0.970472 0.000000
Si Si6 0.843910 0.619926 0.410520
Si Si7 0.354589 0.113428 0.007868
Si Si8 0.275411 0.982023 0.175944
O O1 0.500000 0.358727 0.500000
O O2 0.416365 0.358561 0.267211
O O3 0.295705 0.467739 0.376130
O O4 0.307634 0.243340 0.373590
O O5 0.586437 0.259496 0.201986
O O6 0.345859 0.209072 0.093642
O O7 0.425328 0.393654 0.060001
O O8 0.802875 0.179859 0.348580
O O9 0.788430 0.355297 0.205682
O O10 0.742267 0.151682 0.122404
O O11 0.241202 0.088025 0.472159
O O12 0.000000 0.082139 0.500000
O O13 0.879738 0.020032 0.891477
O O14 0.831059 0.547100 0.298241
O O15 0.000000 0.615925 0.500000
O O16 0.337538 0.011162 0.078796
O O17 0.500000 0.111336 0.000000
#
# Coordination Sequence:
#
# PCOD9120383 Si02
#       8
#     4   4   4   4   2   4   4   4
#     4  10  22  39  66  89 125 173 227 262 312 400
#     4  10  17  40  64  92 116 167 227 258 304 406
#     4  10  22  39  66  90 132 165 211 272 336 381
#     4  11  27  42  65  98 131 173 218 280 331 383
#     4  10  22  36  68  90 128 168 214 266 328 384
#     4  11  25  44  68  94 131 179 227 265 325 401
#     4  10  20  38  64  94 122 163 217 263 317 388
#     4  11  23  39  69  95 129 171 215 268 331 391
#
# _framework density 19.532215999999998
#
# number of rings (size 3 to 8) (size 9 to 14) (size 15 to 20)
#    0.000    1.600    4.667    1.600   13.067    0.533 
#    0.000    0.000    1.467    0.000    0.000    0.000 
#    0.000    0.000    0.000    0.000    0.000    0.000 
#
# Total GULP energy -83545.115485 kJ/mol
# GULP energy per Si atom -5569.674366 kJ/mol
# Density = 1.948776 g / cm^3
# Si number density = 19.532216 Si / 1000 Ang^3
#
#
#
# Elastic Constant Matrix: (Units=GPa)
#
#
# Indices 1 2 3 4 5 6 
#
# 1 60.9748 29.6772 33.7225 0.0000 -14.2575 0.0000
# 2 29.6772 91.6735 44.0148 0.0000 -14.8500 0.0000
# 3 33.7225 44.0148 110.2191 0.0000 -18.8072 0.0000
# 4 0.0000 0.0000 0.0000 54.3689 0.0000 -23.1653
# 5 -14.2575 -14.8500 -18.8072 0.0000 41.1390 0.0000
# 6 0.0000 0.0000 0.0000 -23.1653 0.0000 38.4261
#
#
#
# Elastic Compliance Matrix: (Units=1/GPa)
#
#
# Indices 1 2 3 4 5 6 
#
# 1 0.021819 -0.004373 -0.004239 0.000000 0.004045 0.000000
# 2 -0.004373 0.014636 -0.004191 0.000000 0.001852 0.000000
# 3 -0.004239 -0.004191 0.012511 0.000000 0.002737 0.000000
# 4 0.000000 0.000000 0.000000 0.024750 0.000000 0.014921
# 5 0.004045 0.001852 0.002737 0.000000 0.027630 0.000000
# 6 0.000000 0.000000 0.000000 0.014921 0.000000 0.035019
#
#
# Mechanical properties :
#
#
# Convention : Reuss Voigt Hill
#
# Bulk Modulus (GPa) = 42.80863 53.07741 47.94302
# Shear Modulus (GPa) = 29.45394 37.15032 33.30213
#
# Velocity S-wave (km/s) = 3.88747 4.36593 4.13363
# Velocity P-wave (km/s) = 6.48956 7.25592 6.88341
#
# Compressibility (1/GPa) = 0.02335977
#
# Stress axis : x y z
#
# Youngs Moduli (GPa) = 45.83179 68.32486 79.93264
#
# Poissons Ratio (x) = 0.29877 0.33885
# Poissons Ratio (y) = 0.20041 0.33499
# Poissons Ratio (z) = 0.19429 0.28634
#
# Static dielectric constant tensor:
#      x y z
#    x 1.710140 0.000000 0.023960 
#    y 0.000000 1.716920 0.000000 
#    z 0.023960 0.000000 1.712310 
# 
# From -- ./inp_files/39260.got.cif
#   From: 2010.05.17/outbox.cif.g08.bks.cpg/sg5_20_cif.got.tgz:39260.got - 2010.06.03 18:56:24.
