data_PCOD9120617
_publ_section_title
;
Structure prediction by ZEFSAII (Michael W. Deem and Ramdas Pophale) SiO2 
 PCOD9120617
Probable space group: C 2
;
_chemical_formula_sum "Si O2"
_cell_formula_units_Z 28
_cell_length_a 13.882226
_cell_length_b 14.402856
_cell_length_c 8.485913
_cell_angle_alpha 90.000000
_cell_angle_beta 56.263866
_cell_angle_gamma 90.000000
_cell_volume 1410.986617
_symmetry_space_group_name_H-M "C 2"
_symmetry_group_IT_number 5
_symmetry_cell_setting 'monoclinic'
loop_
_space_group_symop_operation_xyz
x,y,z
-x,y,-z
1/2+x,1/2+y,z
1/2-x,1/2+y,-z
loop_
_atom_site_type_symbol
_atom_site_label
_atom_site_fract_x
_atom_site_fract_y
_atom_site_fract_z
Si Si1 0.744204 0.879910 0.304480
Si Si2 0.000000 0.822154 0.000000
Si Si3 0.869698 0.175128 0.078046
Si Si4 0.500000 0.009204 0.000000
Si Si5 0.471765 0.155087 0.785198
Si Si6 0.626123 0.845095 0.720121
Si Si7 0.663458 0.085296 0.390483
Si Si8 0.923591 0.235972 0.712554
O O1 0.729270 0.854370 0.502312
O O2 0.674748 0.802139 0.269877
O O3 0.668426 0.974955 0.357092
O O4 0.879598 0.878571 0.133465
O O5 0.981998 0.752502 0.865967
O O6 0.844667 0.279993 0.158784
O O7 0.795392 0.113170 0.261494
O O8 0.862477 0.169797 0.896058
O O9 0.000000 0.153049 0.000000
O O10 0.582099 0.942448 0.825276
O O11 0.431712 0.078294 0.947399
O O12 0.595765 0.119317 0.605399
O O13 0.391392 0.142930 0.705714
O O14 0.518238 0.796910 0.725087
O O15 0.000000 0.194289 0.500000
#
# Coordination Sequence:
#
# PCOD9120617 Si02
#       8
#     4   2   4   2   4   4   4   4
#     4  11  22  35  60  85 116 149 193 234 287 347
#     4  11  24  42  57  84 128 162 183 232 308 363
#     4  10  20  34  55  80 115 146 178 234 297 347
#     4  11  16  34  57  86 108 132 191 250 284 317
#     4  10  23  38  59  84 114 154 196 240 285 345
#     4  10  18  33  58  88 108 141 188 245 288 331
#     4  11  22  36  58  85 112 151 199 240 279 342
#     4   9  18  32  56  84 105 139 188 238 281 334
#
# _framework density 19.844270000000002
#
# number of rings (size 3 to 8) (size 9 to 14) (size 15 to 20)
#    0.000    1.714    3.571    2.571    5.000    0.000 
#    0.000    0.000    0.000    0.000    0.000    0.000 
#    0.000    0.000    0.000    0.000    0.000    0.000 
#
# Total GULP energy -77995.288021 kJ/mol
# GULP energy per Si atom -5571.092002 kJ/mol
# Density = 1.979910 g / cm^3
# Si number density = 19.844270 Si / 1000 Ang^3
#
#
#
# Elastic Constant Matrix: (Units=GPa)
#
#
# Indices 1 2 3 4 5 6 
#
# 1 24.6937 -1.8587 26.3738 0.0000 -2.0778 0.0000
# 2 -1.8587 18.5654 3.2195 0.0000 -1.5235 0.0000
# 3 26.3738 3.2195 119.4758 0.0000 -10.2386 0.0000
# 4 0.0000 0.0000 0.0000 29.0958 0.0000 -3.3147
# 5 -2.0778 -1.5235 -10.2386 0.0000 36.8922 0.0000
# 6 0.0000 0.0000 0.0000 -3.3147 0.0000 7.5620
#
#
#
# Elastic Compliance Matrix: (Units=1/GPa)
#
#
# Indices 1 2 3 4 5 6 
#
# 1 0.054012 0.007509 -0.012126 0.000000 -0.000013 0.000000
# 2 0.007509 0.055287 -0.002987 0.000000 0.001877 0.000000
# 3 -0.012126 -0.002987 0.011328 0.000000 0.002337 0.000000
# 4 0.000000 0.000000 0.000000 0.036176 0.000000 0.015857
# 5 -0.000013 0.001877 0.002337 0.000000 0.027831 0.000000
# 6 0.000000 0.000000 0.000000 0.015857 0.000000 0.139191
#
#
# Mechanical properties :
#
#
# Convention : Reuss Voigt Hill
#
# Bulk Modulus (GPa) = 9.48594 24.24489 16.86542
# Shear Modulus (GPa) = 13.36284 23.71003 18.53643
#
# Velocity S-wave (km/s) = 2.59778 3.46034 3.05961
# Velocity P-wave (km/s) = 3.71329 5.31125 4.58246
#
# Compressibility (1/GPa) = 0.10541919
#
# Stress axis : x y z
#
# Youngs Moduli (GPa) = 18.51451 18.08733 88.28049
#
# Poissons Ratio (x) = -0.13582 1.07052
# Poissons Ratio (y) = -0.13903 0.26366
# Poissons Ratio (z) = 0.22451 0.05402
#
# Static dielectric constant tensor:
#      x y z
#    x 1.735550 0.000000 -0.010140 
#    y 0.000000 1.786860 0.000000 
#    z -0.010140 0.000000 1.765030 
# 
# From -- ./inp_files/23962.got.cif
#   From: 2010.05.17/outbox.cif.g08.bks.cpg/sg5_12_cif.got.tgz:23962.got - 2010.06.03 18:56:24.
