data_PCOD9120533
_publ_section_title
;
Structure prediction by ZEFSAII (Michael W. Deem and Ramdas Pophale) SiO2 
 PCOD9120533
Probable space group: C 2
;
_chemical_formula_sum "Si O2"
_cell_formula_units_Z 28
_cell_length_a 15.203368
_cell_length_b 19.662401
_cell_length_c 10.378276
_cell_angle_alpha 90.000000
_cell_angle_beta 153.055517
_cell_angle_gamma 90.000000
_cell_volume 1405.793264
_symmetry_space_group_name_H-M "C 2"
_symmetry_group_IT_number 5
_symmetry_cell_setting 'monoclinic'
loop_
_space_group_symop_operation_xyz
x,y,z
-x,y,-z
1/2+x,1/2+y,z
1/2-x,1/2+y,-z
loop_
_atom_site_type_symbol
_atom_site_label
_atom_site_fract_x
_atom_site_fract_y
_atom_site_fract_z
Si Si1 0.907522 0.969960 0.753549
Si Si2 0.523358 0.031427 0.291971
Si Si3 0.852365 0.677705 0.473449
Si Si4 0.199665 0.225929 0.547283
Si Si5 0.500000 0.340779 0.000000
Si Si6 0.783484 0.194689 0.991319
Si Si7 0.500000 0.114731 0.000000
Si Si8 0.403390 0.543064 0.233041
O O1 0.997103 0.894603 0.878131
O O2 0.679347 0.972123 0.483824
O O3 0.957206 0.009082 0.689385
O O4 0.000000 0.006441 0.000000
O O5 0.610218 0.095811 0.485318
O O6 0.504600 0.067686 0.129432
O O7 0.309434 0.008552 0.051458
O O8 0.733141 0.703033 0.441460
O O9 0.755761 0.698036 0.213050
O O10 0.071317 0.707760 0.773973
O O11 0.318553 0.291956 0.743096
O O12 0.310516 0.163063 0.762090
O O13 0.973052 0.236738 0.276467
O O14 0.852220 0.119472 0.123086
O O15 0.500000 0.540733 0.500000
#
# Coordination Sequence:
#
# PCOD9120533 Si02
#       8
#     4   4   4   4   2   4   2   4
#     4  10  22  39  56  79 114 155 204 240 272 335
#     4  10  18  32  55  85 122 149 177 236 297 347
#     4   9  19  31  54  91 116 138 186 231 290 367
#     4  10  18  37  58  76 115 156 188 240 289 328
#     4   9  24  42  58  80 108 159 218 240 262 345
#     4  10  19  32  56  92 117 143 175 234 307 355
#     4   9  18  30  54  90 114 143 186 234 298 363
#     4  11  21  34  60  93 123 149 185 234 299 360
#
# _framework density 19.917579
#
# number of rings (size 3 to 8) (size 9 to 14) (size 15 to 20)
#    0.429    1.714    0.000    4.714    0.000    2.857 
#    0.000    2.857   12.571    0.000    0.000    0.000 
#    0.000    0.000    0.000    0.000    0.000    0.000 
#
# Total GULP energy -78053.891219 kJ/mol
# GULP energy per Si atom -5575.277944 kJ/mol
# Density = 1.987225 g / cm^3
# Si number density = 19.917579 Si / 1000 Ang^3
#
#
#
# Elastic Constant Matrix: (Units=GPa)
#
#
# Indices 1 2 3 4 5 6 
#
# 1 42.0714 12.9669 26.3091 0.0000 0.6199 0.0000
# 2 12.9669 28.5253 16.0187 0.0000 1.4195 0.0000
# 3 26.3091 16.0187 116.9275 0.0001 18.6430 0.0000
# 4 0.0000 0.0000 0.0001 -0.5916 0.0000 -2.4537
# 5 0.6199 1.4195 18.6430 0.0000 38.7035 0.0000
# 6 0.0000 0.0000 0.0000 -2.4537 0.0000 3.7461
#
#
#
# Elastic Compliance Matrix: (Units=1/GPa)
#
#
# Indices 1 2 3 4 5 6 
#
# 1 0.030731 -0.010809 -0.005869 0.000000 0.002731 0.000000
# 2 -0.010809 0.041833 -0.003338 0.000000 0.000247 0.000000
# 3 -0.005869 -0.003338 0.011152 0.000000 -0.005155 0.000000
# 4 0.000000 0.000000 0.000000 -0.454798 0.000000 -0.297897
# 5 0.002731 0.000247 -0.005155 0.000000 0.028268 0.000000
# 6 0.000000 0.000000 0.000000 -0.297897 0.000000 0.071818
#
#
# Mechanical properties :
#
#
# Convention : Reuss Voigt Hill
#
# Bulk Modulus (GPa) = 22.89267 33.12371 28.00819
# Shear Modulus (GPa) = -23.10505 17.18691 -2.95907
#
# Velocity S-wave (km/s) = -3.40962 2.94071 -1.22020
# Velocity P-wave (km/s) = 1.99550 5.31007 3.47957
#
# Compressibility (1/GPa) = 0.04368211
#
# Stress axis : x y z
#
# Youngs Moduli (GPa) = 32.54073 23.90480 89.66855
#
# Poissons Ratio (x) = 0.25840 0.52628
# Poissons Ratio (y) = 0.35175 0.29932
# Poissons Ratio (z) = 0.19099 0.07980
#
# Static dielectric constant tensor:
#      x y z
#    x 1.774870 0.000000 0.028960 
#    y 0.000000 1.683270 0.000000 
#    z 0.028960 0.000000 1.766410 
# 
# From -- ./inp_files/45177.got.cif
#   From: 2010.05.17/outbox.cif.g08.bks.cpg/sg5_23_cif.got.tgz:45177.got - 2010.06.03 18:56:24.
