data_PCOD9120212
_publ_section_title
;
Structure prediction by ZEFSAII (Michael W. Deem and Ramdas Pophale) SiO2 
 PCOD9120212
Probable space group: C 2
;
_chemical_formula_sum "Si O2"
_cell_formula_units_Z 18
_cell_length_a 12.866957
_cell_length_b 8.559765
_cell_length_c 22.020311
_cell_angle_alpha 90.000000
_cell_angle_beta 17.720924
_cell_angle_gamma 90.000000
_cell_volume 738.207752
_symmetry_space_group_name_H-M "C 2"
_symmetry_group_IT_number 5
_symmetry_cell_setting 'monoclinic'
loop_
_space_group_symop_operation_xyz
x,y,z
-x,y,-z
1/2+x,1/2+y,z
1/2-x,1/2+y,-z
loop_
_atom_site_type_symbol
_atom_site_label
_atom_site_fract_x
_atom_site_fract_y
_atom_site_fract_z
Si Si1 0.551059 0.296590 0.900076
Si Si2 0.000000 0.493893 0.500000
Si Si3 0.890563 0.131261 0.169291
Si Si4 0.675937 0.312644 0.575387
Si Si5 0.462609 0.957004 0.093544
O O1 0.433644 0.469485 0.946545
O O2 0.951532 0.293754 0.659760
O O3 0.411813 0.126372 0.956372
O O4 0.500000 0.289283 0.000000
O O5 0.191989 0.599057 0.343195
O O6 0.254124 0.381232 0.396305
O O7 0.579933 0.166967 0.292635
O O8 0.090141 0.294842 0.050819
O O9 0.446076 0.442408 0.668522
O O10 0.500000 0.945874 0.000000
#
# Coordination Sequence:
#
# PCOD9120212 Si02
#       5
#     4   2   4   4   4
#     4  10  17  31  58  84 117 153 190 241 295 344
#     4  10  18  38  66  86 124 152 202 250 292 356
#     4   9  20  34  60  85 115 160 191 242 301 343
#     4   9  20  36  61  85 116 160 194 243 298 347
#     4   9  19  35  60  86 118 158 197 243 296 353
#
# _framework density 24.383379999999999
#
# number of rings (size 3 to 8) (size 9 to 14) (size 15 to 20)
#    1.333    1.333    0.000    3.333    0.000    0.000 
#    0.000    4.444   29.333    0.000    0.000    0.000 
#    0.000    0.000    0.000    0.000    0.000    0.000 
#
# Total GULP energy -50131.755597 kJ/mol
# GULP energy per Si atom -5570.195066 kJ/mol
# Density = 2.432788 g / cm^3
# Si number density = 24.383380 Si / 1000 Ang^3
#
#
#
# Elastic Constant Matrix: (Units=GPa)
#
#
# Indices 1 2 3 4 5 6 
#
# 1 95.8392 99.6911 15.3962 0.2359 12.1448 0.1774
# 2 99.6911 285.3053 40.0276 -0.0207 27.4651 -0.0171
# 3 15.3962 40.0276 50.3272 0.4565 11.5135 0.3830
# 4 0.2359 -0.0207 0.4565 85.9212 -0.1508 40.7681
# 5 12.1448 27.4651 11.5135 -0.1508 37.4707 0.0120
# 6 0.1774 -0.0171 0.3830 40.7681 0.0120 123.3882
#
#
#
# Elastic Compliance Matrix: (Units=1/GPa)
#
#
# Indices 1 2 3 4 5 6 
#
# 1 0.016447 -0.005592 -0.000324 -0.000042 -0.001132 -0.000009
# 2 -0.005592 0.006003 -0.002659 0.000023 -0.001770 0.000010
# 3 -0.000324 -0.002659 0.023250 -0.000117 -0.005091 -0.000033
# 4 -0.000042 0.000023 -0.000117 0.013803 0.000090 -0.004560
# 5 -0.001132 -0.001770 -0.005091 0.000090 0.029917 -0.000015
# 6 -0.000009 0.000010 -0.000033 -0.004560 -0.000015 0.009611
#
#
# Mechanical properties :
#
#
# Convention : Reuss Voigt Hill
#
# Bulk Modulus (GPa) = 35.02771 82.41126 58.71949
# Shear Modulus (GPa) = 39.77833 67.77980 53.77907
#
# Velocity S-wave (km/s) = 4.04340 5.27806 4.70144
# Velocity P-wave (km/s) = 6.01626 8.42706 7.32157
#
# Compressibility (1/GPa) = 0.02854883
#
# Stress axis : x y z
#
# Youngs Moduli (GPa) = 60.80136 166.59677 43.01167
#
# Poissons Ratio (x) = 0.93168 0.01394
# Poissons Ratio (y) = 0.34003 0.11435
# Poissons Ratio (z) = 0.01971 0.44291
#
# Static dielectric constant tensor:
#      x y z
#    x 1.825600 -0.000340 0.171280 
#    y -0.000340 1.997190 0.000520 
#    z 0.171280 0.000520 1.562850 
# 
# From -- ./inp_files/68599.got.cif
#   From: 2010.05.17/outbox.cif.g08.bks.cpg/sg5_35_cif.got.tgz:68599.got - 2010.06.03 18:56:24.
