data_PCOD9120506
_publ_section_title
;
Structure prediction by ZEFSAII (Michael W. Deem and Ramdas Pophale) SiO2 
 PCOD9120506
Probable space group: C 2
;
_chemical_formula_sum "Si O2"
_cell_formula_units_Z 32
_cell_length_a 11.665417
_cell_length_b 15.738926
_cell_length_c 8.923109
_cell_angle_alpha 90.000000
_cell_angle_beta 66.757878
_cell_angle_gamma 90.000000
_cell_volume 1505.338058
_symmetry_space_group_name_H-M "C 2"
_symmetry_group_IT_number 5
_symmetry_cell_setting 'monoclinic'
loop_
_space_group_symop_operation_xyz
x,y,z
-x,y,-z
1/2+x,1/2+y,z
1/2-x,1/2+y,-z
loop_
_atom_site_type_symbol
_atom_site_label
_atom_site_fract_x
_atom_site_fract_y
_atom_site_fract_z
Si Si1 0.315744 0.653290 0.258971
Si Si2 0.448399 0.184002 0.769980
Si Si3 0.286453 0.899736 0.415793
Si Si4 0.635122 0.826939 0.909790
Si Si5 0.278743 0.222523 0.411914
Si Si6 0.970397 0.509225 0.680093
Si Si7 0.311764 0.465694 0.244306
Si Si8 0.683375 0.292333 0.917239
O O1 0.178007 0.671970 0.260131
O O2 0.388030 0.735951 0.161806
O O3 0.291601 0.653842 0.450452
O O4 0.363169 0.560291 0.186766
O O5 0.573117 0.220297 0.630352
O O6 0.481051 0.086084 0.791396
O O7 0.413025 0.245265 0.923957
O O8 0.272005 0.879909 0.247336
O O9 0.281350 0.809360 0.499585
O O10 0.423043 0.940403 0.354805
O O11 0.195280 0.952567 0.571455
O O12 0.500000 0.868524 0.000000
O O13 0.701216 0.812921 0.033207
O O14 0.274555 0.227190 0.235080
O O15 0.832345 0.472306 0.737838
O O16 0.000000 0.548274 0.500000
O O17 0.360521 0.380359 0.139151
#
# Coordination Sequence:
#
# PCOD9120506 Si02
#       8
#     4   4   4   4   4   4   4   4
#     4   9  19  35  57  79 104 143 186 220 262 324
#     4  10  18  32  54  81 111 143 177 222 275 322
#     4   9  18  30  50  74 101 136 175 214 260 314
#     4  10  20  36  53  78 110 143 176 219 276 325
#     4  10  18  32  51  76 105 139 178 219 264 320
#     4   9  16  30  54  81 104 136 181 228 271 315
#     4   9  17  34  54  77 106 138 179 225 267 318
#     4  10  21  33  51  80 112 142 178 223 275 324
#
# _framework density 21.257683
#
# number of rings (size 3 to 8) (size 9 to 14) (size 15 to 20)
#    0.000    2.500    0.000    3.750    0.000    1.000 
#    0.000   16.875    0.000    0.000    0.000   22.750 
#    0.000    0.000    0.000    0.000    0.000    0.000 
#
# Total GULP energy -89085.090121 kJ/mol
# GULP energy per Si atom -5567.818133 kJ/mol
# Density = 2.120930 g / cm^3
# Si number density = 21.257683 Si / 1000 Ang^3
#
#
#
# Elastic Constant Matrix: (Units=GPa)
#
#
# Indices 1 2 3 4 5 6 
#
# 1 32.0621 6.4780 13.6055 0.0000 1.9021 0.0000
# 2 6.4780 110.2717 43.5381 0.0000 -5.5061 0.0000
# 3 13.6055 43.5381 108.0848 0.0000 2.1372 0.0000
# 4 0.0000 0.0000 0.0000 35.9517 0.0000 -3.1396
# 5 1.9021 -5.5061 2.1372 0.0000 29.4655 0.0000
# 6 0.0000 0.0000 0.0000 -3.1396 0.0000 26.3712
#
#
#
# Elastic Compliance Matrix: (Units=1/GPa)
#
#
# Indices 1 2 3 4 5 6 
#
# 1 0.033070 -0.000489 -0.003927 0.000000 -0.001941 0.000000
# 2 -0.000489 0.010953 -0.004398 0.000000 0.002397 0.000000
# 3 -0.003927 -0.004398 0.011546 0.000000 -0.001406 0.000000
# 4 0.000000 0.000000 0.000000 0.028107 0.000000 0.003346
# 5 -0.001941 0.002397 -0.001406 0.000000 0.034613 0.000000
# 6 0.000000 0.000000 0.000000 0.003346 0.000000 0.038319
#
#
# Mechanical properties :
#
#
# Convention : Reuss Voigt Hill
#
# Bulk Modulus (GPa) = 26.35725 41.96245 34.15985
# Shear Modulus (GPa) = 26.75455 30.81080 28.78267
#
# Velocity S-wave (km/s) = 3.55150 3.81122 3.68365
# Velocity P-wave (km/s) = 5.40771 6.25699 5.84779
#
# Compressibility (1/GPa) = 0.03794022
#
# Stress axis : x y z
#
# Youngs Moduli (GPa) = 30.23886 91.29583 86.61187
#
# Poissons Ratio (x) = 0.04465 0.34016
# Poissons Ratio (y) = 0.01479 0.38092
# Poissons Ratio (z) = 0.11876 0.40152
#
# Static dielectric constant tensor:
#      x y z
#    x 1.768540 0.000000 0.013060 
#    y 0.000000 1.823240 0.000000 
#    z 0.013060 0.000000 1.825480 
# 
# From -- ./inp_files/24614.got.cif
#   From: 2010.05.17/outbox.cif.g08.bks.cpg/sg5_13_cif.got.tgz:24614.got - 2010.06.03 18:56:24.
