data_PCOD9120682
_publ_section_title
;
Structure prediction by ZEFSAII (Michael W. Deem and Ramdas Pophale) SiO2 
 PCOD9120682
Probable space group: C 2
;
_chemical_formula_sum "Si O2"
_cell_formula_units_Z 28
_cell_length_a 34.053412
_cell_length_b 8.057861
_cell_length_c 9.436475
_cell_angle_alpha 90.000000
_cell_angle_beta 33.668111
_cell_angle_gamma 90.000000
_cell_volume 1435.485376
_symmetry_space_group_name_H-M "C 2"
_symmetry_group_IT_number 5
_symmetry_cell_setting 'monoclinic'
loop_
_space_group_symop_operation_xyz
x,y,z
-x,y,-z
1/2+x,1/2+y,z
1/2-x,1/2+y,-z
loop_
_atom_site_type_symbol
_atom_site_label
_atom_site_fract_x
_atom_site_fract_y
_atom_site_fract_z
Si Si1 0.328192 0.720940 0.420027
Si Si2 0.073957 0.726248 0.014140
Si Si3 0.290900 0.449139 0.339771
Si Si4 0.551536 0.846762 0.114986
Si Si5 0.500000 0.367089 0.500000
Si Si6 0.620095 0.643459 0.146607
Si Si7 0.000000 0.942367 0.000000
Si Si8 0.405167 0.701044 0.467682
O O1 0.290358 0.549141 0.489569
O O2 0.280796 0.864154 0.493762
O O3 0.348369 0.753701 0.520698
O O4 0.404393 0.717513 0.113551
O O5 0.075473 0.529039 0.998362
O O6 0.017865 0.761793 0.308518
O O7 0.047384 0.823687 0.956356
O O8 0.149051 0.807204 0.830056
O O9 0.316346 0.582381 0.144689
O O10 0.577757 0.791695 0.192736
O O11 0.469447 0.821468 0.323817
O O12 0.565771 0.490029 0.319344
O O13 0.636473 0.673780 0.260749
O O14 0.949058 0.051025 0.257927
#
# Coordination Sequence:
#
# PCOD9120682 Si02
#       8
#     4   4   4   4   2   4   2   4
#     4  11  22  40  64  84 121 165 212 256 302 384
#     4  11  23  35  59  95 123 159 205 260 308 373
#     4  10  22  43  60  85 121 174 208 246 316 377
#     4  11  22  37  63  96 125 159 207 255 320 369
#     4  10  18  34  58  84 120 162 198 242 312 370
#     4  10  20  39  63  85 125 167 199 251 318 376
#     4  12  20  38  62  94 124 156 204 262 328 350
#     4  12  20  39  63  93 120 166 202 262 315 371
#
# _framework density 19.505599
#
# number of rings (size 3 to 8) (size 9 to 14) (size 15 to 20)
#    0.000    1.143    5.714    1.714    4.000    0.000 
#    0.000    4.286    0.000    0.000    0.000    0.000 
#    0.000    0.000    0.000    0.000    0.000    0.000 
#
# Total GULP energy -78058.110163 kJ/mol
# GULP energy per Si atom -5575.579297 kJ/mol
# Density = 1.946120 g / cm^3
# Si number density = 19.505599 Si / 1000 Ang^3
#
#
#
# Elastic Constant Matrix: (Units=GPa)
#
#
# Indices 1 2 3 4 5 6 
#
# 1 133.7970 29.2921 27.0360 0.0000 6.2006 0.0000
# 2 29.2921 81.2139 1.4965 0.0000 -7.6560 0.0000
# 3 27.0360 1.4965 37.5712 0.0000 -3.3102 0.0000
# 4 0.0000 0.0000 0.0000 19.4044 0.0000 -0.0173
# 5 6.2006 -7.6560 -3.3102 0.0000 33.4080 0.0000
# 6 0.0000 0.0000 0.0000 -0.0173 0.0000 -17.3955
#
#
#
# Elastic Compliance Matrix: (Units=1/GPa)
#
#
# Indices 1 2 3 4 5 6 
#
# 1 0.009934 -0.003772 -0.007301 0.000000 -0.003432 0.000000
# 2 -0.003772 0.014020 0.002523 0.000000 0.004163 0.000000
# 3 -0.007301 0.002523 0.032221 0.000000 0.005126 0.000000
# 4 0.000000 0.000000 0.000000 0.051535 0.000000 -0.000051
# 5 -0.003432 0.004163 0.005126 0.000000 0.032032 0.000000
# 6 0.000000 0.000000 0.000000 -0.000051 0.000000 -0.057486
#
#
# Mechanical properties :
#
#
# Convention : Reuss Voigt Hill
#
# Bulk Modulus (GPa) = 25.59213 40.91459 33.25336
# Shear Modulus (GPa) = 44.49223 20.06722 32.27973
#
# Velocity S-wave (km/s) = 4.78116 3.21096 4.07245
# Velocity P-wave (km/s) = 6.60517 5.89647 6.26085
#
# Compressibility (1/GPa) = 0.03907451
#
# Stress axis : x y z
#
# Youngs Moduli (GPa) = 100.66399 71.32884 31.03596
#
# Poissons Ratio (x) = 0.26905 0.22658
# Poissons Ratio (y) = 0.37970 -0.07829
# Poissons Ratio (z) = 0.73490 -0.17994
#
# Static dielectric constant tensor:
#      x y z
#    x 1.741350 0.000000 0.057080 
#    y 0.000000 1.705750 0.000000 
#    z 0.057080 0.000000 1.740440 
# 
# From -- ./inp_files/26714.got.cif
#   From: 2010.05.17/outbox.cif.g08.bks.cpg/sg5_14_cif.got.tgz:26714.got - 2010.06.03 18:56:24.
