data_PCOD9120361
_publ_section_title
;
Structure prediction by ZEFSAII (Michael W. Deem and Ramdas Pophale) SiO2 
 PCOD9120361
Probable space group: C 2
;
_chemical_formula_sum "Si O2"
_cell_formula_units_Z 30
_cell_length_a 8.330120
_cell_length_b 17.299403
_cell_length_c 11.638955
_cell_angle_alpha 90.000000
_cell_angle_beta 62.476806
_cell_angle_gamma 90.000000
_cell_volume 1487.420360
_symmetry_space_group_name_H-M "C 2"
_symmetry_group_IT_number 5
_symmetry_cell_setting 'monoclinic'
loop_
_space_group_symop_operation_xyz
x,y,z
-x,y,-z
1/2+x,1/2+y,z
1/2-x,1/2+y,-z
loop_
_atom_site_type_symbol
_atom_site_label
_atom_site_fract_x
_atom_site_fract_y
_atom_site_fract_z
Si Si1 0.865132 0.813900 0.136832
Si Si2 0.367699 0.917599 0.216235
Si Si3 0.500000 0.792618 0.000000
Si Si4 0.763247 0.478627 0.929843
Si Si5 0.457271 0.397959 0.334075
Si Si6 0.539014 0.536225 0.803527
Si Si7 0.541143 0.709089 0.223468
Si Si8 0.130684 0.324373 0.567397
O O1 0.787952 0.891125 0.096498
O O2 0.961260 0.844956 0.218636
O O3 0.716424 0.750598 0.219609
O O4 0.000000 0.777829 0.000000
O O5 0.519912 0.980091 0.131448
O O6 0.438239 0.886350 0.316095
O O7 0.154944 0.925745 0.307701
O O8 0.377038 0.852517 0.112953
O O9 0.440555 0.738172 0.914878
O O10 0.681188 0.536584 0.861754
O O11 0.643862 0.497314 0.081799
O O12 0.373344 0.478761 0.318193
O O13 0.327759 0.351557 0.461732
O O14 0.483630 0.618235 0.772366
O O15 0.379111 0.746987 0.351891
O O16 0.000000 0.320765 0.500000
#
# Coordination Sequence:
#
# PCOD9120361 Si02
#       8
#     4   4   2   4   4   4   4   4
#     4  11  18  37  64  96 123 174 225 269 325 415
#     4  11  21  35  64  96 122 163 230 283 318 394
#     4  10  18  32  60  96 122 156 212 278 332 374
#     4  10  17  37  64  94 128 174 217 265 345 413
#     4  11  21  37  63  90 125 173 232 276 321 402
#     4  10  21  37  63  93 138 169 215 281 353 396
#     4  11  22  38  63  99 134 173 218 286 348 393
#     4  11  21  40  65  90 120 176 234 274 326 400
#
# _framework density 20.169146000000001
#
# number of rings (size 3 to 8) (size 9 to 14) (size 15 to 20)
#    0.000    1.333    6.667    3.600    0.000    0.000 
#    2.400    1.333    0.000    6.400    0.000    0.000 
#    0.000    0.000    0.000    0.000    0.000    0.000 
#
# Total GULP energy -83503.468818 kJ/mol
# GULP energy per Si atom -5566.897921 kJ/mol
# Density = 2.012324 g / cm^3
# Si number density = 20.169146 Si / 1000 Ang^3
#
#
#
# Elastic Constant Matrix: (Units=GPa)
#
#
# Indices 1 2 3 4 5 6 
#
# 1 91.6059 26.4349 34.3475 0.0000 -9.2904 0.0000
# 2 26.4349 88.0239 30.8755 0.0000 -9.0697 0.0000
# 3 34.3475 30.8755 119.1233 0.0000 -6.2803 0.0000
# 4 0.0000 0.0000 0.0000 21.0316 0.0000 -0.3679
# 5 -9.2904 -9.0697 -6.2803 0.0000 41.6455 0.0000
# 6 0.0000 0.0000 0.0000 -0.3679 0.0000 19.8279
#
#
#
# Elastic Compliance Matrix: (Units=1/GPa)
#
#
# Indices 1 2 3 4 5 6 
#
# 1 0.012984 -0.002671 -0.002953 0.000000 0.001870 0.000000
# 2 -0.002671 0.013259 -0.002566 0.000000 0.001905 0.000000
# 3 -0.002953 -0.002566 0.009926 0.000000 0.000279 0.000000
# 4 0.000000 0.000000 0.000000 0.047563 0.000000 0.000883
# 5 0.001870 0.001905 0.000279 0.000000 0.024886 0.000000
# 6 0.000000 0.000000 0.000000 0.000883 0.000000 0.050450
#
#
# Mechanical properties :
#
#
# Convention : Reuss Voigt Hill
#
# Bulk Modulus (GPa) = 50.53280 53.56322 52.04801
# Shear Modulus (GPa) = 27.46585 30.30734 28.88660
#
# Velocity S-wave (km/s) = 3.69423 3.88062 3.78857
# Velocity P-wave (km/s) = 6.58068 6.83327 6.70816
#
# Compressibility (1/GPa) = 0.01978913
#
# Stress axis : x y z
#
# Youngs Moduli (GPa) = 77.01885 75.42052 100.74651
#
# Poissons Ratio (x) = 0.20144 0.29749
# Poissons Ratio (y) = 0.20571 0.25852
# Poissons Ratio (z) = 0.22743 0.19353
#
# Static dielectric constant tensor:
#      x y z
#    x 1.842810 0.000000 0.010890 
#    y 0.000000 1.715780 0.000000 
#    z 0.010890 0.000000 1.763030 
# 
# From -- ./inp_files/37000.got.cif
#   From: 2010.05.17/outbox.cif.g08.bks.cpg/sg5_19_cif.got.tgz:37000.got - 2010.06.03 18:56:24.
