data_PCOD9120907
_publ_section_title
;
Structure prediction by ZEFSAII (Michael W. Deem and Ramdas Pophale) SiO2 
 PCOD9120907
Probable space group: C 2
;
_chemical_formula_sum "Si O2"
_cell_formula_units_Z 20
_cell_length_a 9.614565
_cell_length_b 11.154860
_cell_length_c 11.668434
_cell_angle_alpha 90.000000
_cell_angle_beta 45.749439
_cell_angle_gamma 90.000000
_cell_volume 896.392729
_symmetry_space_group_name_H-M "C 2"
_symmetry_group_IT_number 5
_symmetry_cell_setting 'monoclinic'
loop_
_space_group_symop_operation_xyz
x,y,z
-x,y,-z
1/2+x,1/2+y,z
1/2-x,1/2+y,-z
loop_
_atom_site_type_symbol
_atom_site_label
_atom_site_fract_x
_atom_site_fract_y
_atom_site_fract_z
Si Si1 0.400252 0.517980 0.280040
Si Si2 0.704824 0.682126 0.006750
Si Si3 0.611689 0.774879 0.655484
Si Si4 0.310683 0.361852 0.753073
Si Si5 0.000000 0.421854 0.500000
Si Si6 0.500000 0.061582 0.000000
O O1 0.560409 0.567426 0.097927
O O2 0.365353 0.633514 0.381353
O O3 0.495017 0.410765 0.298097
O O4 0.190715 0.491797 0.348865
O O5 0.583567 0.777636 0.153451
O O6 0.256571 0.745911 0.135015
O O7 0.899136 0.642447 0.960725
O O8 0.782919 0.823604 0.637716
O O9 0.575187 0.845081 0.562283
O O10 0.164426 0.474011 0.855184
#
# Coordination Sequence:
#
# PCOD9120907 Si02
#       6
#     4   4   4   4   2   2
#     4   9  25  42  66  96 127 177 212 265 318 383
#     4   9  21  40  64  98 125 158 215 264 332 375
#     4  10  24  42  62  96 127 169 225 257 310 394
#     4  11  20  43  65  97 130 162 205 278 335 369
#     4  12  26  46  62  94 132 184 222 250 314 380
#     4  10  18  36  62  98 126 158 192 264 338 380
#
# _framework density 22.311648999999999
#
# number of rings (size 3 to 8) (size 9 to 14) (size 15 to 20)
#    1.200    0.800    2.000    0.000    2.800    5.600 
#    3.600    0.000    0.000    0.000    0.000    0.000 
#    0.000    0.000    0.000    0.000    0.000    0.000 
#
# Total GULP energy -55782.622260 kJ/mol
# GULP energy per Si atom -5578.262226 kJ/mol
# Density = 2.226087 g / cm^3
# Si number density = 22.311649 Si / 1000 Ang^3
#
#
#
# Elastic Constant Matrix: (Units=GPa)
#
#
# Indices 1 2 3 4 5 6 
#
# 1 164.1110 62.4581 62.4278 0.0000 -11.1094 0.0000
# 2 62.4581 76.8556 29.9432 0.0000 0.1260 0.0000
# 3 62.4278 29.9432 51.5110 0.0000 -6.3894 0.0000
# 4 0.0000 0.0000 0.0000 16.8677 0.0000 -5.6865
# 5 -11.1094 0.1260 -6.3894 0.0000 45.6175 0.0000
# 6 0.0000 0.0000 0.0000 -5.6865 0.0000 52.5514
#
#
#
# Elastic Compliance Matrix: (Units=1/GPa)
#
#
# Indices 1 2 3 4 5 6 
#
# 1 0.013096 -0.005861 -0.012280 0.000000 0.001485 0.000000
# 2 -0.005861 0.019537 -0.004517 0.000000 -0.002114 0.000000
# 3 -0.012280 -0.004517 0.037199 0.000000 0.002232 0.000000
# 4 0.000000 0.000000 0.000000 0.061529 0.000000 0.006658
# 5 0.001485 -0.002114 0.002232 0.000000 0.022602 0.000000
# 6 0.000000 0.000000 0.000000 0.006658 0.000000 0.019749
#
#
# Mechanical properties :
#
#
# Convention : Reuss Voigt Hill
#
# Bulk Modulus (GPa) = 40.78835 66.90400 53.84617
# Shear Modulus (GPa) = 22.00712 32.18387 27.09549
#
# Velocity S-wave (km/s) = 3.14403 3.80211 3.48862
# Velocity P-wave (km/s) = 5.61255 7.02324 6.35715
#
# Compressibility (1/GPa) = 0.02451681
#
# Stress axis : x y z
#
# Youngs Moduli (GPa) = 76.36002 51.18437 26.88276
#
# Poissons Ratio (x) = 0.29997 0.33013
# Poissons Ratio (y) = 0.44751 0.12142
# Poissons Ratio (z) = 0.93772 0.23118
#
# Static dielectric constant tensor:
#      x y z
#    x 1.806680 0.000000 -0.055450 
#    y 0.000000 1.824050 0.000000 
#    z -0.055450 0.000000 1.880750 
# 
# From -- ./inp_files/35010.got.cif
#   From: 2010.05.17/outbox.cif.g08.bks.cpg/sg5_18_cif.got.tgz:35010.got - 2010.06.03 18:56:24.
