data_PCOD9120683
_publ_section_title
;
Structure prediction by ZEFSAII (Michael W. Deem and Ramdas Pophale) SiO2 
 PCOD9120683
Probable space group: C 2
;
_chemical_formula_sum "Si O2"
_cell_formula_units_Z 22
_cell_length_a 11.435376
_cell_length_b 9.330275
_cell_length_c 18.277484
_cell_angle_alpha 90.000000
_cell_angle_beta 153.467525
_cell_angle_gamma 90.000000
_cell_volume 871.128266
_symmetry_space_group_name_H-M "C 2"
_symmetry_group_IT_number 5
_symmetry_cell_setting 'monoclinic'
loop_
_space_group_symop_operation_xyz
x,y,z
-x,y,-z
1/2+x,1/2+y,z
1/2-x,1/2+y,-z
loop_
_atom_site_type_symbol
_atom_site_label
_atom_site_fract_x
_atom_site_fract_y
_atom_site_fract_z
Si Si1 0.720877 0.580390 0.885369
Si Si2 0.500000 0.599392 0.000000
Si Si3 0.094385 0.902497 0.385538
Si Si4 0.768259 0.068321 0.322903
Si Si5 0.061195 0.382419 0.749416
Si Si6 0.142843 0.784392 0.886961
O O1 0.443261 0.540842 0.688028
O O2 0.687813 0.750314 0.864391
O O3 0.705621 0.451117 0.936547
O O4 0.000000 0.548995 0.000000
O O5 0.718850 0.492228 0.152304
O O6 0.598187 0.695808 0.986905
O O7 0.365597 0.854205 0.572173
O O8 0.898519 0.959106 0.338712
O O9 0.982078 0.786829 0.266015
O O10 0.611384 0.969423 0.290068
O O11 0.000000 0.138836 0.500000
O O12 0.566040 0.192057 0.183329
#
# Coordination Sequence:
#
# PCOD9120683 Si02
#       6
#     4   2   4   4   4   4
#     4  10  20  38  57  87 121 154 203 256 303 366
#     4  10  18  34  58  84 120 162 200 246 316 366
#     4   9  21  36  64  85 116 161 208 245 308 370
#     4   9  19  37  58  88 124 152 203 262 302 365
#     4  10  20  34  61  85 119 162 197 258 312 364
#     4   9  19  35  64  80 119 159 203 246 306 367
#
# _framework density 25.254605999999999
#
# number of rings (size 3 to 8) (size 9 to 14) (size 15 to 20)
#    1.091    1.455    1.818    0.000    7.636    0.000 
#    0.000    8.182    8.000    0.000    0.000    0.000 
#    0.000    0.000    0.000    0.000    0.000    0.000 
#
# Total GULP energy -61273.906358 kJ/mol
# GULP energy per Si atom -5570.355123 kJ/mol
# Density = 2.519713 g / cm^3
# Si number density = 25.254606 Si / 1000 Ang^3
#
#
#
# Elastic Constant Matrix: (Units=GPa)
#
#
# Indices 1 2 3 4 5 6 
#
# 1 48.1138 21.5734 22.5371 0.0013 0.1198 0.0006
# 2 21.5734 154.4525 48.1301 0.0052 9.2353 -0.0008
# 3 22.5371 48.1301 103.8223 0.0147 -5.7410 -0.0004
# 4 0.0013 0.0052 0.0147 37.0804 -0.0005 4.6331
# 5 0.1198 9.2353 -5.7410 -0.0005 37.7585 -0.0001
# 6 0.0006 -0.0008 -0.0004 4.6331 -0.0001 31.6398
#
#
#
# Elastic Compliance Matrix: (Units=1/GPa)
#
#
# Indices 1 2 3 4 5 6 
#
# 1 0.023651 -0.001970 -0.004234 0.000001 -0.000237 -0.000001
# 2 -0.001970 0.007955 -0.003396 0.000000 -0.002456 0.000000
# 3 -0.004234 -0.003396 0.012275 -0.000004 0.002710 0.000001
# 4 0.000001 0.000000 -0.000004 0.027471 0.000000 -0.004023
# 5 -0.000237 -0.002456 0.002710 0.000000 0.027498 0.000000
# 6 -0.000001 0.000000 0.000001 -0.004023 0.000000 0.032195
#
#
# Mechanical properties :
#
#
# Convention : Reuss Voigt Hill
#
# Bulk Modulus (GPa) = 40.51620 54.54109 47.52865
# Shear Modulus (GPa) = 31.55156 35.57228 33.56192
#
# Velocity S-wave (km/s) = 3.53843 3.75713 3.64942
# Velocity P-wave (km/s) = 5.72468 6.36119 6.05131
#
# Compressibility (1/GPa) = 0.02468148
#
# Stress axis : x y z
#
# Youngs Moduli (GPa) = 42.28123 125.71235 81.46639
#
# Poissons Ratio (x) = 0.24765 0.34492
# Poissons Ratio (y) = 0.08329 0.27664
# Poissons Ratio (z) = 0.17901 0.42689
#
# Static dielectric constant tensor:
#      x y z
#    x 2.124930 0.000000 -0.115670 
#    y 0.000000 1.999210 -0.000010 
#    z -0.115670 -0.000010 2.082950 
# 
# From -- ./inp_files/70583.got.cif
#   From: 2010.05.17/outbox.cif.g08.bks.cpg/sg5_36_cif.got.tgz:70583.got - 2010.06.03 18:56:24.
