data_PCOD9120087
_publ_section_title
;
Structure prediction by ZEFSAII (Michael W. Deem and Ramdas Pophale) SiO2 
 PCOD9120087
Probable space group: C 2
;
_chemical_formula_sum "Si O2"
_cell_formula_units_Z 24
_cell_length_a 19.750584
_cell_length_b 7.600846
_cell_length_c 11.077876
_cell_angle_alpha 90.000000
_cell_angle_beta 44.922177
_cell_angle_gamma 90.000000
_cell_volume 1174.336844
_symmetry_space_group_name_H-M "C 2"
_symmetry_group_IT_number 5
_symmetry_cell_setting 'monoclinic'
loop_
_space_group_symop_operation_xyz
x,y,z
-x,y,-z
1/2+x,1/2+y,z
1/2-x,1/2+y,-z
loop_
_atom_site_type_symbol
_atom_site_label
_atom_site_fract_x
_atom_site_fract_y
_atom_site_fract_z
Si Si1 0.957740 0.819370 0.931575
Si Si2 0.262920 0.355152 0.302739
Si Si3 0.550800 0.930561 0.550018
Si Si4 0.451370 0.920223 0.179790
Si Si5 0.273797 0.472748 0.549067
Si Si6 0.464683 0.340656 0.415948
O O1 0.008487 0.624037 0.865835
O O2 0.981890 0.904748 0.772814
O O3 0.844591 0.818943 0.101755
O O4 0.000000 0.904618 0.000000
O O5 0.164629 0.440534 0.382682
O O6 0.300277 0.458619 0.374063
O O7 0.229648 0.169439 0.399020
O O8 0.500000 0.843905 0.500000
O O9 0.515761 0.131711 0.603227
O O10 0.531584 0.849066 0.706558
O O11 0.337247 0.915734 0.303614
O O12 0.500000 0.840086 0.000000
O O13 0.352442 0.370386 0.527981
O O14 0.500000 0.413657 0.500000
#
# Coordination Sequence:
#
# PCOD9120087 Si02
#       6
#     4   4   4   4   4   4
#     4  10  16  35  58  80 104 147 187 213 282 336
#     4  11  20  33  62  82 107 148 189 229 268 334
#     4   9  20  37  57  79 112 148 183 222 279 326
#     4   9  16  31  56  78  99 144 183 218 260 337
#     4  11  19  33  58  84 107 142 192 222 277 323
#     4  10  21  38  57  80 115 149 180 227 277 330
#
# _framework density 20.437066000000002
#
# number of rings (size 3 to 8) (size 9 to 14) (size 15 to 20)
#    0.000    2.000    5.000    2.000    0.000    0.667 
#    3.000    0.000   22.000    0.000    0.000    0.000 
#    0.000    0.000    0.000    0.000    0.000    0.000 
#
# Total GULP energy -66845.728929 kJ/mol
# GULP energy per Si atom -5570.477411 kJ/mol
# Density = 2.039055 g / cm^3
# Si number density = 20.437066 Si / 1000 Ang^3
#
#
#
# Elastic Constant Matrix: (Units=GPa)
#
#
# Indices 1 2 3 4 5 6 
#
# 1 161.9331 -3.4721 75.7926 0.0000 31.9240 0.0000
# 2 -3.4721 32.8785 10.1781 -0.0001 13.1200 0.0000
# 3 75.7926 10.1781 164.8458 0.0000 21.9558 0.0000
# 4 0.0000 -0.0001 0.0000 9.4518 0.0000 -1.6955
# 5 31.9240 13.1200 21.9558 0.0000 28.0189 0.0000
# 6 0.0000 0.0000 0.0000 -1.6955 0.0000 7.5152
#
#
#
# Elastic Compliance Matrix: (Units=1/GPa)
#
#
# Indices 1 2 3 4 5 6 
#
# 1 0.010476 0.007204 -0.003598 0.000000 -0.012491 0.000000
# 2 0.007204 0.042359 -0.002448 0.000001 -0.026125 0.000000
# 3 -0.003598 -0.002448 0.008009 0.000000 -0.001030 0.000000
# 4 0.000000 0.000001 0.000000 0.110262 0.000000 0.024876
# 5 -0.012491 -0.026125 -0.001030 0.000000 0.062962 0.000000
# 6 0.000000 0.000000 0.000000 0.024876 0.000000 0.138676
#
#
# Mechanical properties :
#
#
# Convention : Reuss Voigt Hill
#
# Bulk Modulus (GPa) = 15.83272 58.29494 37.06383
# Shear Modulus (GPa) = 12.77202 27.47443 20.12322
#
# Velocity S-wave (km/s) = 2.50260 3.67051 3.14131
# Velocity P-wave (km/s) = 4.01429 6.82272 5.59750
#
# Compressibility (1/GPa) = 0.06316036
#
# Stress axis : x y z
#
# Youngs Moduli (GPa) = 95.45316 23.60790 124.86105
#
# Poissons Ratio (x) = -0.17008 0.44925
# Poissons Ratio (y) = -0.68769 0.30569
# Poissons Ratio (z) = 0.34344 0.05780
#
# Static dielectric constant tensor:
#      x y z
#    x 1.837210 0.000000 0.018800 
#    y 0.000000 1.764490 0.000000 
#    z 0.018800 0.000000 1.759180 
# 
# From -- ./inp_files/45940.got.cif
#   From: 2010.05.17/outbox.cif.g08.bks.cpg/sg5_23_cif.got.tgz:45940.got - 2010.06.03 18:56:24.
