data_PCOD9120261
_publ_section_title
;
Structure prediction by ZEFSAII (Michael W. Deem and Ramdas Pophale) SiO2 
 PCOD9120261
Probable space group: C 2
;
_chemical_formula_sum "Si O2"
_cell_formula_units_Z 26
_cell_length_a 16.557191
_cell_length_b 10.098699
_cell_length_c 7.764820
_cell_angle_alpha 90.000000
_cell_angle_beta 87.364576
_cell_angle_gamma 90.000000
_cell_volume 1296.951981
_symmetry_space_group_name_H-M "C 2"
_symmetry_group_IT_number 5
_symmetry_cell_setting 'monoclinic'
loop_
_space_group_symop_operation_xyz
x,y,z
-x,y,-z
1/2+x,1/2+y,z
1/2-x,1/2+y,-z
loop_
_atom_site_type_symbol
_atom_site_label
_atom_site_fract_x
_atom_site_fract_y
_atom_site_fract_z
Si Si1 0.500000 0.997081 0.000000
Si Si2 0.458890 0.183863 0.326887
Si Si3 0.062324 0.932713 0.859635
Si Si4 0.290641 0.516062 0.363807
Si Si5 0.191668 0.751780 0.451374
Si Si6 0.184618 0.749755 0.060081
Si Si7 0.819901 0.448832 0.944104
O O1 0.415825 0.924657 0.957386
O O2 0.520581 0.088743 0.832731
O O3 0.500000 0.140903 0.500000
O O4 0.480850 0.335113 0.272214
O O5 0.365601 0.194354 0.394125
O O6 0.127056 0.021642 0.754794
O O7 0.117435 0.829696 0.962764
O O8 0.000000 0.995441 0.000000
O O9 0.269728 0.659198 0.437817
O O10 0.297708 0.404948 0.507925
O O11 0.219023 0.461790 0.244170
O O12 0.157992 0.737683 0.261276
O O13 0.194867 0.600362 0.989891
O O14 0.266309 0.836339 0.040554
#
# Coordination Sequence:
#
# PCOD9120261 Si02
#       7
#     2   4   4   4   4   4   4
#     4  12  22  38  62  92 124 156 212 252 304 352
#     4  11  20  32  58  89 119 151 202 259 296 342
#     4  10  17  33  57  86 122 152 202 252 297 354
#     4   9  21  35  56  89 119 155 202 250 301 358
#     4  10  21  35  57  87 118 158 203 246 300 366
#     4  10  20  36  61  90 123 161 202 247 308 361
#     4  10  21  38  61  90 119 162 202 252 300 369
#
# _framework density 20.047001000000002
#
# number of rings (size 3 to 8) (size 9 to 14) (size 15 to 20)
#    0.000    1.846    2.308    2.769    2.154    0.000 
#    0.000    0.000   15.231    0.000   24.000    0.000 
#    0.000    0.000    0.000    0.000    0.000    0.000 
#
# Total GULP energy -72459.149608 kJ/mol
# GULP energy per Si atom -5573.780739 kJ/mol
# Density = 2.000137 g / cm^3
# Si number density = 20.047001 Si / 1000 Ang^3
#
#
#
# Elastic Constant Matrix: (Units=GPa)
#
#
# Indices 1 2 3 4 5 6 
#
# 1 93.6732 22.3631 8.2278 0.0000 -20.3378 0.0000
# 2 22.3631 50.1411 8.8653 0.0000 -23.4165 0.0000
# 3 8.2278 8.8653 84.6124 0.0000 -16.9281 0.0000
# 4 0.0000 0.0000 0.0000 17.3451 0.0000 -1.7397
# 5 -20.3378 -23.4165 -16.9281 0.0000 37.3771 0.0000
# 6 0.0000 0.0000 0.0000 -1.7397 0.0000 25.3659
#
#
#
# Elastic Compliance Matrix: (Units=1/GPa)
#
#
# Indices 1 2 3 4 5 6 
#
# 1 0.012501 -0.003387 0.000083 0.000000 0.004718 0.000000
# 2 -0.003387 0.029141 0.000616 0.000000 0.016693 0.000000
# 3 0.000083 0.000616 0.013011 0.000000 0.006324 0.000000
# 4 0.000000 0.000000 0.000000 0.058053 0.000000 0.003982
# 5 0.004718 0.016693 0.006324 0.000000 0.042643 0.000000
# 6 0.000000 0.000000 0.000000 0.003982 0.000000 0.039696
#
#
# Mechanical properties :
#
#
# Convention : Reuss Voigt Hill
#
# Bulk Modulus (GPa) = 20.29330 34.14878 27.22104
# Shear Modulus (GPa) = 23.05770 28.61563 25.83667
#
# Velocity S-wave (km/s) = 3.39511 3.78223 3.59389
# Velocity P-wave (km/s) = 5.05113 6.01207 5.55243
#
# Compressibility (1/GPa) = 0.04927734
#
# Stress axis : x y z
#
# Youngs Moduli (GPa) = 79.99359 34.31572 76.85705
#
# Poissons Ratio (x) = 0.11622 -0.00639
# Poissons Ratio (y) = 0.27093 -0.04732
# Poissons Ratio (z) = -0.00665 -0.02113
#
# Static dielectric constant tensor:
#      x y z
#    x 1.783830 0.000000 0.016700 
#    y 0.000000 1.685610 0.000000 
#    z 0.016700 0.000000 1.730220 
# 
# From -- ./inp_files/26681.got.cif
#   From: 2010.05.17/outbox.cif.g08.bks.cpg/sg5_14_cif.got.tgz:26681.got - 2010.06.03 18:56:24.
