data_PCOD9120484
_publ_section_title
;
Structure prediction by ZEFSAII (Michael W. Deem and Ramdas Pophale) SiO2 
 PCOD9120484
Probable space group: C 2
;
_chemical_formula_sum "Si O2"
_cell_formula_units_Z 28
_cell_length_a 18.853713
_cell_length_b 13.994550
_cell_length_c 9.015689
_cell_angle_alpha 90.000000
_cell_angle_beta 42.728736
_cell_angle_gamma 90.000000
_cell_volume 1614.071005
_symmetry_space_group_name_H-M "C 2"
_symmetry_group_IT_number 5
_symmetry_cell_setting 'monoclinic'
loop_
_space_group_symop_operation_xyz
x,y,z
-x,y,-z
1/2+x,1/2+y,z
1/2-x,1/2+y,-z
loop_
_atom_site_type_symbol
_atom_site_label
_atom_site_fract_x
_atom_site_fract_y
_atom_site_fract_z
Si Si1 0.157777 0.362440 0.095464
Si Si2 0.956349 0.435802 0.225537
Si Si3 0.479160 0.118527 0.359819
Si Si4 0.292460 0.082056 0.972148
Si Si5 0.719102 0.215861 0.291390
Si Si6 0.111477 0.192977 0.395014
Si Si7 0.608623 0.740709 0.740476
O O1 0.196947 0.469054 0.066886
O O2 0.237901 0.308470 0.862130
O O3 0.140424 0.293232 0.264349
O O4 0.047618 0.380947 0.178883
O O5 0.873850 0.354376 0.312273
O O6 0.925051 0.528212 0.365533
O O7 0.000000 0.469110 0.000000
O O8 0.500000 0.095061 0.500000
O O9 0.401935 0.208704 0.471790
O O10 0.599110 0.122133 0.121743
O O11 0.198007 0.115783 0.218887
O O12 0.274313 0.133161 0.842532
O O13 0.797567 0.200197 0.306122
O O14 0.102462 0.200326 0.585145
O O15 0.000000 0.165259 0.500000
O O16 0.500000 0.730956 0.000000
#
# Coordination Sequence:
#
# PCOD9120484 Si02
#       7
#     4   4   4   4   4   4   4
#     4  10  19  36  58  83 116 145 198 232 281 339
#     4  10  18  31  54  85 112 142 186 244 278 322
#     4   9  20  34  57  83 114 148 191 231 283 337
#     4   9  21  37  55  86 110 151 196 240 276 341
#     4  10  19  35  54  85 117 150 184 240 290 333
#     4  11  21  35  60  84 113 155 193 236 285 344
#     4  11  20  34  54  86 116 147 183 244 291 327
#
# _framework density 17.347439999999999
#
# number of rings (size 3 to 8) (size 9 to 14) (size 15 to 20)
#    0.000    2.000    4.286    0.857    6.000    2.286 
#    0.000    3.571    0.000    0.000    0.000    1.000 
#    0.000    0.000    0.000    0.000    0.000    0.000 
#
# Total GULP energy -77960.690425 kJ/mol
# GULP energy per Si atom -5568.620745 kJ/mol
# Density = 1.730796 g / cm^3
# Si number density = 17.347440 Si / 1000 Ang^3
#
#
#
# Elastic Constant Matrix: (Units=GPa)
#
#
# Indices 1 2 3 4 5 6 
#
# 1 97.3360 26.4323 36.3845 0.0000 7.5929 0.0000
# 2 26.4323 58.6239 20.4427 0.0000 -13.7482 0.0000
# 3 36.3845 20.4427 83.7913 0.0000 -13.3466 0.0000
# 4 0.0000 0.0000 0.0000 23.9514 0.0000 -2.5691
# 5 7.5929 -13.7482 -13.3466 0.0000 26.1000 0.0000
# 6 0.0000 0.0000 0.0000 -2.5691 0.0000 26.3397
#
#
#
# Elastic Compliance Matrix: (Units=1/GPa)
#
#
# Indices 1 2 3 4 5 6 
#
# 1 0.015903 -0.007592 -0.006997 0.000000 -0.012204 0.000000
# 2 -0.007592 0.024014 -0.000213 0.000000 0.014749 0.000000
# 3 -0.006997 -0.000213 0.016690 0.000000 0.010458 0.000000
# 4 0.000000 0.000000 0.000000 0.042193 0.000000 0.004115
# 5 -0.012204 0.014749 0.010458 0.000000 0.054982 0.000000
# 6 0.000000 0.000000 0.000000 0.004115 0.000000 0.038367
#
#
# Mechanical properties :
#
#
# Convention : Reuss Voigt Hill
#
# Bulk Modulus (GPa) = 37.03206 45.14113 41.08659
# Shear Modulus (GPa) = 21.66807 25.71099 23.68953
#
# Velocity S-wave (km/s) = 3.53804 3.85401 3.69940
# Velocity P-wave (km/s) = 6.17122 6.77368 6.47946
#
# Compressibility (1/GPa) = 0.02700363
#
# Stress axis : x y z
#
# Youngs Moduli (GPa) = 62.88146 41.64200 59.91444
#
# Poissons Ratio (x) = 0.31616 0.41922
# Poissons Ratio (y) = 0.47742 0.01274
# Poissons Ratio (z) = 0.43998 0.00885
#
# Static dielectric constant tensor:
#      x y z
#    x 1.592040 0.000000 -0.004480 
#    y 0.000000 1.586290 0.000000 
#    z -0.004480 0.000000 1.668420 
# 
# From -- ./inp_files/20317.got.cif
#   From: 2010.05.17/outbox.cif.g08.bks.cpg/sg5_11_cif.got.tgz:20317.got - 2010.06.03 18:56:24.
