data_PCOD9120565
_publ_section_title
;
Structure prediction by ZEFSAII (Michael W. Deem and Ramdas Pophale) SiO2 
 PCOD9120565
Probable space group: C 2
;
_chemical_formula_sum "Si O2"
_cell_formula_units_Z 30
_cell_length_a 16.046112
_cell_length_b 17.808263
_cell_length_c 12.716472
_cell_angle_alpha 90.000000
_cell_angle_beta 152.399959
_cell_angle_gamma 90.000000
_cell_volume 1683.515803
_symmetry_space_group_name_H-M "C 2"
_symmetry_group_IT_number 5
_symmetry_cell_setting 'monoclinic'
loop_
_space_group_symop_operation_xyz
x,y,z
-x,y,-z
1/2+x,1/2+y,z
1/2-x,1/2+y,-z
loop_
_atom_site_type_symbol
_atom_site_label
_atom_site_fract_x
_atom_site_fract_y
_atom_site_fract_z
Si Si1 0.513833 0.061470 0.639792
Si Si2 0.920282 0.945872 0.295566
Si Si3 0.568350 0.899083 0.801178
Si Si4 0.128027 0.112095 0.848869
Si Si5 0.335482 0.762345 0.240344
Si Si6 0.500000 0.299486 0.000000
Si Si7 0.111774 0.074426 0.233092
Si Si8 0.348405 0.403325 0.644312
O O1 0.500000 0.068388 0.500000
O O2 0.322375 0.092017 0.464129
O O3 0.547787 0.973690 0.705617
O O4 0.679494 0.102871 0.879110
O O5 0.000000 0.934398 0.500000
O O6 0.038769 0.904073 0.337953
O O7 0.916423 0.034746 0.262162
O O8 0.714260 0.918836 0.053189
O O9 0.654306 0.830596 0.831683
O O10 0.363649 0.887417 0.610713
O O11 0.131582 0.183820 0.779603
O O12 0.984492 0.118924 0.781810
O O13 0.500000 0.779786 0.500000
O O14 0.157704 0.757419 0.113570
O O15 0.412180 0.348799 0.808641
O O16 0.113477 0.986363 0.266143
O O17 0.000000 0.083640 0.000000
#
# Coordination Sequence:
#
# PCOD9120565 Si02
#       8
#     4   4   4   4   4   2   4   4
#     4  10  19  33  60  90 118 150 203 261 297 341
#     4  10  21  40  62  86 122 161 203 248 302 363
#     4  10  21  36  61  93 116 151 205 257 301 351
#     4  10  23  38  55  88 124 164 199 236 308 372
#     4  12  24  39  61  88 126 158 195 252 309 365
#     4  12  22  36  64  96 120 152 198 260 304 350
#     4  10  18  32  61  88 117 151 197 253 296 345
#     4  10  20  34  62  97 116 147 202 257 304 345
#
# _framework density 17.819849999999999
#
# number of rings (size 3 to 8) (size 9 to 14) (size 15 to 20)
#    0.000    1.600    4.667    0.800    1.867    1.600 
#    0.000    3.333    2.933    0.000    0.000    0.000 
#    0.000    0.000    0.000    0.000    0.000    0.000 
#
# Total GULP energy -83638.774018 kJ/mol
# GULP energy per Si atom -5575.918268 kJ/mol
# Density = 1.777929 g / cm^3
# Si number density = 17.819850 Si / 1000 Ang^3
#
#
#
# Elastic Constant Matrix: (Units=GPa)
#
#
# Indices 1 2 3 4 5 6 
#
# 1 120.3199 31.9975 63.8895 0.0000 9.1566 0.0000
# 2 31.9975 46.0616 18.7785 0.0000 0.6771 0.0000
# 3 63.8895 18.7785 104.1960 0.0000 -4.0071 0.0000
# 4 0.0000 0.0000 0.0000 -4.3833 0.0000 -17.0373
# 5 9.1566 0.6771 -4.0071 0.0000 39.9461 0.0000
# 6 0.0000 0.0000 0.0000 -17.0373 0.0000 -21.2797
#
#
#
# Elastic Compliance Matrix: (Units=1/GPa)
#
#
# Indices 1 2 3 4 5 6 
#
# 1 0.014641 -0.006895 -0.007890 0.000000 -0.004031 0.000000
# 2 -0.006895 0.026706 -0.000544 0.000000 0.001073 0.000000
# 3 -0.007890 -0.000544 0.014660 0.000000 0.003288 0.000000
# 4 0.000000 0.000000 0.000000 0.108021 0.000000 -0.086486
# 5 -0.004031 0.001073 0.003288 0.000000 0.026269 0.000000
# 6 0.000000 0.000000 0.000000 -0.086486 0.000000 0.022251
#
#
# Mechanical properties :
#
#
# Convention : Reuss Voigt Hill
#
# Bulk Modulus (GPa) = 39.44931 55.54538 47.49735
# Shear Modulus (GPa) = 19.86854 13.25077 16.55965
#
# Velocity S-wave (km/s) = 3.34273 2.72985 3.05172
# Velocity P-wave (km/s) = 6.08970 6.41672 6.25535
#
# Compressibility (1/GPa) = 0.02534898
#
# Stress axis : x y z
#
# Youngs Moduli (GPa) = 68.30172 37.44517 68.21513
#
# Poissons Ratio (x) = 0.25818 0.53820
# Poissons Ratio (y) = 0.47093 0.03711
# Poissons Ratio (z) = 0.53888 0.02037
#
# Static dielectric constant tensor:
#      x y z
#    x 1.610000 0.000000 0.032980 
#    y 0.000000 1.590860 0.000000 
#    z 0.032980 0.000000 1.626560 
# 
# From -- ./inp_files/40472.got.cif
#   From: 2010.05.17/outbox.cif.g08.bks.cpg/sg5_21_cif.got.tgz:40472.got - 2010.06.03 18:56:24.
