data_PCOD9120082
_publ_section_title
;
Structure prediction by ZEFSAII (Michael W. Deem and Ramdas Pophale) SiO2 
 PCOD9120082
Probable space group: C 2
;
_chemical_formula_sum "Si O2"
_cell_formula_units_Z 18
_cell_length_a 10.785699
_cell_length_b 15.643464
_cell_length_c 7.971713
_cell_angle_alpha 90.000000
_cell_angle_beta 42.800079
_cell_angle_gamma 90.000000
_cell_volume 913.872206
_symmetry_space_group_name_H-M "C 2"
_symmetry_group_IT_number 5
_symmetry_cell_setting 'monoclinic'
loop_
_space_group_symop_operation_xyz
x,y,z
-x,y,-z
1/2+x,1/2+y,z
1/2-x,1/2+y,-z
loop_
_atom_site_type_symbol
_atom_site_label
_atom_site_fract_x
_atom_site_fract_y
_atom_site_fract_z
Si Si1 0.117099 0.825710 0.145234
Si Si2 0.000000 0.182111 0.000000
Si Si3 0.573639 0.950627 0.239137
Si Si4 0.720075 0.833318 0.639864
Si Si5 0.138731 0.636480 0.202945
O O1 0.194788 0.839921 0.258246
O O2 0.141388 0.723930 0.093896
O O3 0.900566 0.838754 0.347514
O O4 0.244582 0.892810 0.925042
O O5 0.105266 0.244884 0.764544
O O6 0.158113 0.127949 0.925920
O O7 0.500000 0.958833 0.500000
O O8 0.426040 0.902721 0.271039
O O9 0.597145 0.047805 0.154119
O O10 0.000000 0.650738 0.500000
#
# Coordination Sequence:
#
# PCOD9120082 Si02
#       5
#     4   2   4   4   4
#     4  10  19  39  64  83 111 161 204 226 282 355
#     4  10  16  34  66  80 102 158 204 228 266 348
#     4  11  23  34  58  92 127 141 188 249 302 327
#     4  10  18  36  66  81 109 157 203 229 274 348
#     4  10  19  34  60  91 108 150 203 237 273 349
#
# _framework density 19.696408999999999
#
# number of rings (size 3 to 8) (size 9 to 14) (size 15 to 20)
#    0.000    1.778    8.889    0.000    0.000    4.444 
#    0.000    0.000   14.667    0.000    0.000    0.000 
#    0.000    0.000    0.000    0.000    0.000    0.000 
#
# Total GULP energy -50124.572385 kJ/mol
# GULP energy per Si atom -5569.396932 kJ/mol
# Density = 1.965158 g / cm^3
# Si number density = 19.696409 Si / 1000 Ang^3
#
#
#
# Elastic Constant Matrix: (Units=GPa)
#
#
# Indices 1 2 3 4 5 6 
#
# 1 62.1031 26.4342 12.0915 0.0000 -29.9004 0.0000
# 2 26.4342 137.3794 25.7984 0.0000 -12.4407 0.0000
# 3 12.0915 25.7984 75.7329 0.0000 -36.5169 0.0000
# 4 0.0000 0.0000 0.0000 6.5804 0.0000 6.8067
# 5 -29.9004 -12.4407 -36.5169 0.0000 37.9202 0.0000
# 6 0.0000 0.0000 0.0000 6.8067 0.0000 17.6790
#
#
#
# Elastic Compliance Matrix: (Units=1/GPa)
#
#
# Indices 1 2 3 4 5 6 
#
# 1 0.036000 -0.006247 0.016950 0.000000 0.042659 0.000000
# 2 -0.006247 0.008861 -0.005590 0.000000 -0.007402 0.000000
# 3 0.016950 -0.005590 0.033533 0.000000 0.043823 0.000000
# 4 0.000000 0.000000 0.000000 0.252542 0.000000 -0.097232
# 5 0.042659 -0.007402 0.043823 0.000000 0.099781 0.000000
# 6 0.000000 0.000000 0.000000 -0.097232 0.000000 0.094000
#
#
# Mechanical properties :
#
#
# Convention : Reuss Voigt Hill
#
# Bulk Modulus (GPa) = 11.28426 44.87375 28.07900
# Shear Modulus (GPa) = 9.19065 26.49534 17.84300
#
# Velocity S-wave (km/s) = 2.16247 3.67166 3.01308
# Velocity P-wave (km/s) = 3.46072 6.38803 5.13729
#
# Compressibility (1/GPa) = 0.08861904
#
# Stress axis : x y z
#
# Youngs Moduli (GPa) = 27.77768 112.85945 29.82150
#
# Poissons Ratio (x) = 0.70502 -0.50547
# Poissons Ratio (y) = 0.17352 0.16670
# Poissons Ratio (z) = -0.47082 0.63089
#
# Static dielectric constant tensor:
#      x y z
#    x 1.707080 0.000000 0.033160 
#    y 0.000000 1.710620 0.000000 
#    z 0.033160 0.000000 1.772560 
# 
# From -- ./inp_files/20857.got.cif
#   From: 2010.05.17/outbox.cif.g08.bks.cpg/sg5_11_cif.got.tgz:20857.got - 2010.06.03 18:56:24.
