data_PCOD9120646
_publ_section_title
;
Structure prediction by ZEFSAII (Michael W. Deem and Ramdas Pophale) SiO2 
 PCOD9120646
Probable space group: C 2
;
_chemical_formula_sum "Si O2"
_cell_formula_units_Z 28
_cell_length_a 25.169267
_cell_length_b 5.421809
_cell_length_c 13.717453
_cell_angle_alpha 90.000000
_cell_angle_beta 136.946085
_cell_angle_gamma 90.000000
_cell_volume 1277.936939
_symmetry_space_group_name_H-M "C 2"
_symmetry_group_IT_number 5
_symmetry_cell_setting 'monoclinic'
loop_
_space_group_symop_operation_xyz
x,y,z
-x,y,-z
1/2+x,1/2+y,z
1/2-x,1/2+y,-z
loop_
_atom_site_type_symbol
_atom_site_label
_atom_site_fract_x
_atom_site_fract_y
_atom_site_fract_z
Si Si1 0.241913 0.384500 0.548966
Si Si2 0.965681 0.913330 0.095427
Si Si3 0.126893 0.625735 0.183633
Si Si4 0.922196 0.547093 0.184756
Si Si5 0.779167 0.535799 0.092563
Si Si6 0.926376 0.310958 0.701814
Si Si7 0.173410 0.264568 0.102238
O O1 0.243200 0.658689 0.507068
O O2 0.314770 0.350981 0.717346
O O3 0.154254 0.321245 0.464974
O O4 0.048518 0.047791 0.217298
O O5 0.942771 0.816600 0.171814
O O6 0.906719 0.124379 0.985457
O O7 0.938745 0.704864 0.982526
O O8 0.089490 0.499288 0.229115
O O9 0.185793 0.430350 0.212531
O O10 0.873729 0.534700 0.219211
O O11 0.001051 0.397454 0.267524
O O12 0.855096 0.444928 0.022708
O O13 0.739870 0.596345 0.144498
O O14 0.746080 0.274344 0.008108
#
# Coordination Sequence:
#
# PCOD9120646 Si02
#       7
#     4   4   4   4   4   4   4
#     4  10  24  44  58  80 117 169 206 232 286 370
#     4  10  20  35  54  88 114 152 189 248 300 340
#     4  10  23  38  55  84 123 158 201 243 300 362
#     4   9  19  33  53  84 119 152 190 244 299 344
#     4  10  18  34  54  82 123 155 192 238 294 364
#     4  10  23  38  55  84 123 158 201 243 300 362
#     4   9  19  33  53  84 119 152 190 244 299 344
#
# _framework density 21.910314
#
# number of rings (size 3 to 8) (size 9 to 14) (size 15 to 20)
#    0.000    2.286    1.429    0.000    8.000    6.286 
#    0.000    0.000    0.000    0.000    0.000    6.000 
#    0.000    0.000    0.000    0.000    0.000    0.000 
#
# Total GULP energy -77945.595052 kJ/mol
# GULP energy per Si atom -5567.542504 kJ/mol
# Density = 2.186045 g / cm^3
# Si number density = 21.910314 Si / 1000 Ang^3
#
#
#
# Elastic Constant Matrix: (Units=GPa)
#
#
# Indices 1 2 3 4 5 6 
#
# 1 102.0235 -0.0448 20.1689 0.0000 36.2846 0.0001
# 2 -0.0448 81.1188 3.7884 0.0000 0.8199 0.0003
# 3 20.1689 3.7884 54.2997 0.0000 25.7253 0.0000
# 4 0.0000 0.0000 0.0000 29.5284 0.0000 6.5887
# 5 36.2846 0.8199 25.7253 0.0000 26.2951 0.0000
# 6 0.0001 0.0003 0.0000 6.5887 0.0000 38.2991
#
#
#
# Elastic Compliance Matrix: (Units=1/GPa)
#
#
# Indices 1 2 3 4 5 6 
#
# 1 0.022786 -0.000111 0.012002 0.000000 -0.043181 0.000000
# 2 -0.000111 0.012379 -0.001328 0.000000 0.001067 0.000000
# 3 0.012002 -0.001328 0.040778 0.000000 -0.056415 0.000000
# 4 0.000000 0.000000 0.000000 0.035218 0.000000 -0.006059
# 5 -0.043181 0.001067 -0.056415 0.000000 0.152775 0.000000
# 6 0.000000 0.000000 0.000000 -0.006059 0.000000 0.027153
#
#
# Mechanical properties :
#
#
# Convention : Reuss Voigt Hill
#
# Bulk Modulus (GPa) = 10.30194 31.69635 20.99915
# Shear Modulus (GPa) = 16.53883 33.05981 24.79932
#
# Velocity S-wave (km/s) = 2.75042 3.88863 3.36796
# Velocity P-wave (km/s) = 3.84688 5.88725 4.97284
#
# Compressibility (1/GPa) = 0.09706906
#
# Stress axis : x y z
#
# Youngs Moduli (GPa) = 43.88589 80.78360 24.52285
#
# Poissons Ratio (x) = 0.00900 -0.29432
# Poissons Ratio (y) = 0.00489 0.03256
# Poissons Ratio (z) = -0.52671 0.10724
#
# Static dielectric constant tensor:
#      x y z
#    x 1.951980 0.000000 0.002210 
#    y 0.000000 1.896930 0.000000 
#    z 0.002210 0.000000 1.800410 
# 
# From -- ./inp_files/57985.got.cif
#   From: 2010.05.17/outbox.cif.g08.bks.cpg/sg5_29_cif.got.tgz:57985.got - 2010.06.03 18:56:24.
