data_PCOD9120041
_publ_section_title
;
Structure prediction by ZEFSAII (Michael W. Deem and Ramdas Pophale) SiO2 
 PCOD9120041
Probable space group: C 2
;
_chemical_formula_sum "Si O2"
_cell_formula_units_Z 30
_cell_length_a 7.606581
_cell_length_b 21.911979
_cell_length_c 10.416059
_cell_angle_alpha 90.000000
_cell_angle_beta 50.342327
_cell_angle_gamma 90.000000
_cell_volume 1336.572804
_symmetry_space_group_name_H-M "C 2"
_symmetry_group_IT_number 5
_symmetry_cell_setting 'monoclinic'
loop_
_space_group_symop_operation_xyz
x,y,z
-x,y,-z
1/2+x,1/2+y,z
1/2-x,1/2+y,-z
loop_
_atom_site_type_symbol
_atom_site_label
_atom_site_fract_x
_atom_site_fract_y
_atom_site_fract_z
Si Si1 0.611111 0.519840 0.753553
Si Si2 0.879482 0.148048 0.861276
Si Si3 0.537182 0.168571 0.784704
Si Si4 0.272060 0.869043 0.394314
Si Si5 0.500000 0.951360 0.500000
Si Si6 0.241660 0.064593 0.415820
Si Si7 0.745695 0.231455 0.452588
Si Si8 0.792598 0.462018 0.179191
O O1 0.474848 0.581132 0.859570
O O2 0.843220 0.485301 0.684622
O O3 0.713823 0.540700 0.569700
O O4 0.423027 0.467623 0.814859
O O5 0.694396 0.146760 0.831050
O O6 0.087305 0.185851 0.702151
O O7 0.721440 0.178867 0.046565
O O8 0.543525 0.108450 0.693645
O O9 0.678581 0.216846 0.632727
O O10 0.341015 0.908786 0.485137
O O11 0.340286 0.799506 0.388643
O O12 0.355449 0.899580 0.222148
O O13 0.000000 0.871235 0.500000
O O14 0.000000 0.098652 0.500000
O O15 0.243924 0.010061 0.314544
O O16 0.500000 0.227633 0.500000
O O17 0.000000 0.485586 0.000000
#
# Coordination Sequence:
#
# PCOD9120041 Si02
#       8
#     4   4   4   4   2   4   4   4
#     4  11  21  37  68 101 135 170 224 279 344 422
#     4  11  23  39  67 107 133 170 226 281 348 414
#     4  11  21  40  68 100 134 179 222 278 346 412
#     4  11  24  48  69  94 130 186 237 279 339 408
#     4  12  24  40  74  98 132 178 236 276 338 420
#     4  10  16  32  62  93 134 170 215 264 340 410
#     4  11  26  45  67  92 133 184 231 285 340 397
#     4  11  20  39  66  99 134 177 221 276 347 412
#
# _framework density 22.445464000000001
#
# number of rings (size 3 to 8) (size 9 to 14) (size 15 to 20)
#    0.000    1.067    6.667    1.600    2.800    0.533 
#    4.800    0.667    0.000    0.000    0.000    0.000 
#    0.000    0.000    0.000    0.000    0.000    0.000 
#
# Total GULP energy -83571.636341 kJ/mol
# GULP energy per Si atom -5571.442423 kJ/mol
# Density = 2.239438 g / cm^3
# Si number density = 22.445464 Si / 1000 Ang^3
#
#
#
# Elastic Constant Matrix: (Units=GPa)
#
#
# Indices 1 2 3 4 5 6 
#
# 1 51.4761 17.4915 12.0098 0.0000 -14.7847 0.0000
# 2 17.4915 115.6196 31.0414 0.0000 -6.3306 0.0000
# 3 12.0098 31.0414 133.0709 0.0000 -15.2287 0.0000
# 4 0.0000 0.0000 0.0000 12.5600 0.0000 -5.9839
# 5 -14.7847 -6.3306 -15.2287 0.0000 31.2490 0.0000
# 6 0.0000 0.0000 0.0000 -5.9839 0.0000 25.9123
#
#
#
# Elastic Compliance Matrix: (Units=1/GPa)
#
#
# Indices 1 2 3 4 5 6 
#
# 1 0.023458 -0.002913 -0.000249 0.000000 0.010387 0.000000
# 2 -0.002913 0.009611 -0.002027 0.000000 -0.000419 0.000000
# 3 -0.000249 -0.002027 0.008419 0.000000 0.003575 0.000000
# 4 0.000000 0.000000 0.000000 0.089460 0.000000 0.020659
# 5 0.010387 -0.000419 0.003575 0.000000 0.038573 0.000000
# 6 0.000000 0.000000 0.000000 0.020659 0.000000 0.043362
#
#
# Mechanical properties :
#
#
# Convention : Reuss Voigt Hill
#
# Bulk Modulus (GPa) = 32.14423 46.80579 39.47501
# Shear Modulus (GPa) = 21.40123 29.91917 25.66020
#
# Velocity S-wave (km/s) = 3.09119 3.65495 3.38483
# Velocity P-wave (km/s) = 5.20507 6.22173 5.73597
#
# Compressibility (1/GPa) = 0.03110978
#
# Stress axis : x y z
#
# Youngs Moduli (GPa) = 42.62978 104.04690 118.77671
#
# Poissons Ratio (x) = 0.30312 0.02955
# Poissons Ratio (y) = 0.12419 0.24076
# Poissons Ratio (z) = 0.01061 0.21090
#
# Static dielectric constant tensor:
#      x y z
#    x 1.986630 0.000000 -0.030140 
#    y 0.000000 1.898080 0.000000 
#    z -0.030140 0.000000 1.924130 
# 
# From -- ./inp_files/37537.got.cif
#   From: 2010.05.17/outbox.cif.g08.bks.cpg/sg5_19_cif.got.tgz:37537.got - 2010.06.03 18:56:24.
