data_PCOD9120485
_publ_section_title
;
Structure prediction by ZEFSAII (Michael W. Deem and Ramdas Pophale) SiO2 
 PCOD9120485
Probable space group: C 2
;
_chemical_formula_sum "Si O2"
_cell_formula_units_Z 20
_cell_length_a 18.229872
_cell_length_b 10.262100
_cell_length_c 20.970083
_cell_angle_alpha 90.000000
_cell_angle_beta 13.051203
_cell_angle_gamma 90.000000
_cell_volume 885.902085
_symmetry_space_group_name_H-M "C 2"
_symmetry_group_IT_number 5
_symmetry_cell_setting 'monoclinic'
loop_
_space_group_symop_operation_xyz
x,y,z
-x,y,-z
1/2+x,1/2+y,z
1/2-x,1/2+y,-z
loop_
_atom_site_type_symbol
_atom_site_label
_atom_site_fract_x
_atom_site_fract_y
_atom_site_fract_z
Si Si1 0.283093 0.659550 0.444358
Si Si2 0.612203 0.659555 0.832904
Si Si3 0.559996 0.159642 0.777322
Si Si4 0.074700 0.379014 0.765902
Si Si5 0.573109 0.440126 0.767211
O O1 0.109447 0.659724 0.658770
O O2 0.215510 0.787795 0.459168
O O3 0.216752 0.530961 0.458265
O O4 0.677068 0.659648 0.120220
O O5 0.505128 0.787645 0.884789
O O6 0.503839 0.531818 0.885745
O O7 0.000000 0.659275 0.500000
O O8 0.500000 0.659497 0.000000
O O9 0.705760 0.298643 0.674435
O O10 0.706672 0.020676 0.673554
O O11 0.750846 0.409529 0.999269
#
# Coordination Sequence:
#
# PCOD9120485 Si02
#       5
#     4   4   4   4   4
#     4   9  18  30  52  86 119 148 193 253 303 348
#     4  11  26  45  64  92 134 172 204 257 332 387
#     4  10  18  31  54  86 113 146 201 260 293 337
#     4   9  20  38  63  91 122 166 215 257 304 379
#     4   9  20  38  63  91 122 166 215 257 304 379
#
# _framework density 22.575858
#
# number of rings (size 3 to 8) (size 9 to 14) (size 15 to 20)
#    0.000    2.400    0.000    2.400    0.000   19.200 
#    0.000    2.000    0.000    0.000    0.000    0.000 
#    0.000    0.000    0.000    0.000    0.000    0.000 
#
# Total GULP energy -55838.764857 kJ/mol
# GULP energy per Si atom -5583.876486 kJ/mol
# Density = 2.252447 g / cm^3
# Si number density = 22.575858 Si / 1000 Ang^3
#
#
#
# Elastic Constant Matrix: (Units=GPa)
#
#
# Indices 1 2 3 4 5 6 
#
# 1 141.5376 66.3393 44.2999 0.0666 32.2909 -0.0009
# 2 66.3393 256.8046 9.8261 0.1514 13.0776 0.2245
# 3 44.2999 9.8261 108.0370 -0.0302 17.6894 0.0870
# 4 0.0666 0.1514 -0.0302 3.2427 0.0705 -5.7253
# 5 32.2909 13.0776 17.6894 0.0705 33.9192 0.0208
# 6 -0.0009 0.2245 0.0870 -5.7253 0.0208 34.5755
#
#
#
# Elastic Compliance Matrix: (Units=1/GPa)
#
#
# Indices 1 2 3 4 5 6 
#
# 1 0.010872 -0.002292 -0.002952 0.000109 -0.007927 0.000045
# 2 -0.002292 0.004457 0.000501 -0.000303 0.000203 -0.000081
# 3 -0.002952 0.000501 0.010925 0.000219 -0.003082 0.000007
# 4 0.000109 -0.000303 0.000219 0.435848 -0.001051 0.072174
# 5 -0.007927 0.000203 -0.003082 -0.001051 0.038560 -0.000191
# 6 0.000045 -0.000081 0.000007 0.072174 -0.000191 0.040874
#
#
# Mechanical properties :
#
#
# Convention : Reuss Voigt Hill
#
# Bulk Modulus (GPa) = 59.63211 83.03443 71.33327
# Shear Modulus (GPa) = 8.98294 40.07508 24.52901
#
# Velocity S-wave (km/s) = 1.99691 4.21780 3.29981
# Velocity P-wave (km/s) = 5.63811 7.78330 6.79589
#
# Compressibility (1/GPa) = 0.01676949
#
# Stress axis : x y z
#
# Youngs Moduli (GPa) = 91.98122 224.37525 91.53007
#
# Poissons Ratio (x) = 0.51426 0.27015
# Poissons Ratio (y) = 0.21082 -0.04588
# Poissons Ratio (z) = 0.27148 -0.11246
#
# Static dielectric constant tensor:
#      x y z
#    x 1.813050 -0.000010 -0.043950 
#    y -0.000010 1.959470 0.000170 
#    z -0.043950 0.000170 1.855760 
# 
# From -- ./inp_files/61605.got.cif
#   From: 2010.05.17/outbox.cif.g08.bks.cpg/sg5_31_cif.got.tgz:61605.got - 2010.06.03 18:56:24.
