data_PCOD9120849
_publ_section_title
;
Structure prediction by ZEFSAII (Michael W. Deem and Ramdas Pophale) SiO2 
 PCOD9120849
Probable space group: C 2
;
_chemical_formula_sum "Si O2"
_cell_formula_units_Z 22
_cell_length_a 15.786850
_cell_length_b 7.140460
_cell_length_c 7.292989
_cell_angle_alpha 90.000000
_cell_angle_beta 94.129673
_cell_angle_gamma 90.000000
_cell_volume 819.970395
_symmetry_space_group_name_H-M "C 2"
_symmetry_group_IT_number 5
_symmetry_cell_setting 'monoclinic'
loop_
_space_group_symop_operation_xyz
x,y,z
-x,y,-z
1/2+x,1/2+y,z
1/2-x,1/2+y,-z
loop_
_atom_site_type_symbol
_atom_site_label
_atom_site_fract_x
_atom_site_fract_y
_atom_site_fract_z
Si Si1 0.037010 0.842780 0.282879
Si Si2 0.000000 0.478150 0.500000
Si Si3 0.347718 0.867964 0.696782
Si Si4 0.374764 0.371808 0.096765
Si Si5 0.286852 0.284499 0.596540
Si Si6 0.198398 0.460715 0.932647
O O1 0.001559 0.637184 0.337448
O O2 0.121999 0.889661 0.413292
O O3 0.947760 0.949659 0.242079
O O4 0.079911 0.853780 0.092171
O O5 0.072085 0.345523 0.424725
O O6 0.320135 0.082687 0.660268
O O7 0.268275 0.762458 0.594573
O O8 0.357036 0.852787 0.918466
O O9 0.343727 0.157917 0.121173
O O10 0.288525 0.485278 0.052912
O O11 0.226551 0.364064 0.747445
#
# Coordination Sequence:
#
# PCOD9120849 Si02
#       6
#     4   2   4   4   4   4
#     4   9  19  36  58  90 112 164 210 251 286 373
#     4  10  18  36  56  88 118 152 218 244 294 362
#     4  11  23  39  64  92 123 166 207 262 310 366
#     4  10  20  36  64  86 124 157 209 253 306 365
#     4  10  23  39  62  93 126 162 213 252 313 365
#     4  11  20  39  59  96 123 162 205 257 311 369
#
# _framework density 26.830238999999999
#
# number of rings (size 3 to 8) (size 9 to 14) (size 15 to 20)
#    0.000    1.818    5.455    1.091    7.636    0.000 
#    0.000    0.000    4.000   10.909    0.000    0.000 
#    0.000    0.000    0.000    0.000    0.000    0.000 
#
# Total GULP energy -61294.168497 kJ/mol
# GULP energy per Si atom -5572.197136 kJ/mol
# Density = 2.676917 g / cm^3
# Si number density = 26.830239 Si / 1000 Ang^3
#
#
#
# Elastic Constant Matrix: (Units=GPa)
#
#
# Indices 1 2 3 4 5 6 
#
# 1 160.9982 10.6831 62.3959 0.0000 -22.4463 0.0000
# 2 10.6831 43.9522 16.2086 0.0000 -9.3612 0.0000
# 3 62.3959 16.2086 129.4337 0.0000 -68.6458 0.0000
# 4 0.0000 0.0000 0.0000 31.4963 0.0000 -2.9879
# 5 -22.4463 -9.3612 -68.6458 0.0000 53.2582 0.0000
# 6 0.0000 0.0000 0.0000 -2.9879 0.0000 14.3077
#
#
#
# Elastic Compliance Matrix: (Units=1/GPa)
#
#
# Indices 1 2 3 4 5 6 
#
# 1 0.008069 -0.000646 -0.006528 0.000000 -0.005127 0.000000
# 2 -0.000646 0.023925 -0.001892 0.000000 0.001494 0.000000
# 3 -0.006528 -0.001892 0.029943 0.000000 0.035510 0.000000
# 4 0.000000 0.000000 0.000000 0.032392 0.000000 0.006764
# 5 -0.005127 0.001494 0.035510 0.000000 0.062648 0.000000
# 6 0.000000 0.000000 0.000000 0.006764 0.000000 0.071305
#
#
# Mechanical properties :
#
#
# Convention : Reuss Voigt Hill
#
# Bulk Modulus (GPa) = 22.82868 56.99549 39.91208
# Shear Modulus (GPa) = 19.15586 36.15220 27.65403
#
# Velocity S-wave (km/s) = 2.67491 3.67473 3.21394
# Velocity P-wave (km/s) = 4.25056 6.26849 5.35543
#
# Compressibility (1/GPa) = 0.04380455
#
# Stress axis : x y z
#
# Youngs Moduli (GPa) = 123.92551 41.79719 33.39672
#
# Poissons Ratio (x) = 0.02700 0.21802
# Poissons Ratio (y) = 0.08004 0.06320
# Poissons Ratio (z) = 0.80901 0.07910
#
# Static dielectric constant tensor:
#      x y z
#    x 2.215430 0.000000 0.072420 
#    y 0.000000 2.190290 0.000000 
#    z 0.072420 0.000000 2.156250 
# 
# From -- ./inp_files/22664.got.cif
#   From: 2010.05.17/outbox.cif.g08.bks.cpg/sg5_12_cif.got.tgz:22664.got - 2010.06.03 18:56:24.
