data_PCOD9120024
_publ_section_title
;
Structure prediction by ZEFSAII (Michael W. Deem and Ramdas Pophale) SiO2 
 PCOD9120024
Probable space group: C 2
;
_chemical_formula_sum "Si O2"
_cell_formula_units_Z 16
_cell_length_a 12.823278
_cell_length_b 8.887543
_cell_length_c 5.489915
_cell_angle_alpha 90.000000
_cell_angle_beta 76.850000
_cell_angle_gamma 90.000000
_cell_volume 609.265049
_symmetry_space_group_name_H-M "C 2"
_symmetry_group_IT_number 5
_symmetry_cell_setting 'monoclinic'
loop_
_space_group_symop_operation_xyz
x,y,z
-x,y,-z
1/2+x,1/2+y,z
1/2-x,1/2+y,-z
loop_
_atom_site_type_symbol
_atom_site_label
_atom_site_fract_x
_atom_site_fract_y
_atom_site_fract_z
Si Si1 0.519677 0.288440 0.233291
Si Si2 0.266642 0.733048 0.115256
Si Si3 0.901128 0.479538 0.222320
Si Si4 0.622172 0.712060 0.452262
O O1 0.500000 0.362018 0.500000
O O2 0.639500 0.224469 0.173229
O O3 0.434700 0.150128 0.256437
O O4 0.500000 0.382329 0.000000
O O5 0.316148 0.657729 0.334608
O O6 0.299610 0.909891 0.134598
O O7 0.318396 0.687086 0.832101
O O8 0.887384 0.391283 0.482932
O O9 0.000000 0.420886 0.000000
O O10 0.500000 0.664043 0.500000
#
# Coordination Sequence:
#
# PCOD9120024 Si02
#       4
#     4   4   4   4
#     4  11  23  36  54  88 128 147 202 259 286 362
#     4  10  20  32  53  86 121 154 194 250 302 347
#     4   9  19  33  59  83 119 151 200 241 298 353
#     4  10  16  32  54  83 117 148 200 239 291 364
#
# _framework density 26.261147000000001
#
# number of rings (size 3 to 8) (size 9 to 14) (size 15 to 20)
#    1.500    0.500    2.500    3.000    3.500    0.000 
#    0.000    0.000    0.000    0.000    0.000   57.750 
#    0.000    0.000    0.000    0.000    0.000    0.000 
#
# Total GULP energy -44654.988844 kJ/mol
# GULP energy per Si atom -5581.873606 kJ/mol
# Density = 2.620138 g / cm^3
# Si number density = 26.261147 Si / 1000 Ang^3
#
#
#
# Elastic Constant Matrix: (Units=GPa)
#
#
# Indices 1 2 3 4 5 6 
#
# 1 129.9897 16.8075 100.1014 0.0000 18.7455 0.0000
# 2 16.8075 93.1680 15.0756 0.0000 1.6941 0.0000
# 3 100.1014 15.0756 293.6402 0.0000 15.6558 0.0000
# 4 0.0000 0.0000 0.0000 2.2455 0.0000 -6.3504
# 5 18.7455 1.6941 15.6558 0.0000 41.1912 0.0000
# 6 0.0000 0.0000 0.0000 -6.3504 0.0000 12.0253
#
#
#
# Elastic Compliance Matrix: (Units=1/GPa)
#
#
# Indices 1 2 3 4 5 6 
#
# 1 0.011110 -0.001368 -0.003522 0.000000 -0.003661 0.000000
# 2 -0.001368 0.010994 -0.000109 0.000000 0.000212 0.000000
# 3 -0.003522 -0.000109 0.004620 0.000000 -0.000149 0.000000
# 4 0.000000 0.000000 0.000000 -0.902513 0.000000 -0.476604
# 5 -0.003661 0.000212 -0.000149 0.000000 0.025991 0.000000
# 6 0.000000 0.000000 0.000000 -0.476604 0.000000 -0.168530
#
#
# Mechanical properties :
#
#
# Convention : Reuss Voigt Hill
#
# Bulk Modulus (GPa) = 59.79017 86.75189 73.27103
# Shear Modulus (GPa) = -4.98626 36.74664 15.88019
#
# Velocity S-wave (km/s) = -1.37944 3.74475 2.46174
# Velocity P-wave (km/s) = 4.50331 7.19747 6.00347
#
# Compressibility (1/GPa) = 0.01672516
#
# Stress axis : x y z
#
# Youngs Moduli (GPa) = 90.01030 90.95956 216.46512
#
# Poissons Ratio (x) = 0.12441 0.76237
# Poissons Ratio (y) = 0.12311 0.02369
# Poissons Ratio (z) = 0.31701 0.00996
#
# Static dielectric constant tensor:
#      x y z
#    x 2.017590 0.000000 0.048060 
#    y 0.000000 2.054390 0.000000 
#    z 0.048060 0.000000 2.122070 
# 
# From -- ./inp_files/2033.got.cif
#   From: 2010.05.17/outbox.cif.g08.bks.cpg/sg5_2_cif.got.tgz:2033.got - 2010.06.03 18:56:24.
