data_PCOD9120611
_publ_section_title
;
Structure prediction by ZEFSAII (Michael W. Deem and Ramdas Pophale) SiO2 
 PCOD9120611
Probable space group: C 2
;
_chemical_formula_sum "Si O2"
_cell_formula_units_Z 24
_cell_length_a 15.141220
_cell_length_b 16.818439
_cell_length_c 7.428789
_cell_angle_alpha 90.000000
_cell_angle_beta 29.015460
_cell_angle_gamma 90.000000
_cell_volume 917.586776
_symmetry_space_group_name_H-M "C 2"
_symmetry_group_IT_number 5
_symmetry_cell_setting 'monoclinic'
loop_
_space_group_symop_operation_xyz
x,y,z
-x,y,-z
1/2+x,1/2+y,z
1/2-x,1/2+y,-z
loop_
_atom_site_type_symbol
_atom_site_label
_atom_site_fract_x
_atom_site_fract_y
_atom_site_fract_z
Si Si1 0.693244 0.077750 0.730967
Si Si2 0.782087 0.855798 0.879217
Si Si3 0.208695 0.689380 0.198125
Si Si4 0.281770 0.242174 0.408413
Si Si5 0.706135 0.408075 0.560250
Si Si6 0.208775 0.021342 0.065530
O O1 0.794284 0.163322 0.554201
O O2 0.680411 0.047704 0.956377
O O3 0.744086 0.001085 0.521394
O O4 0.500000 0.101052 0.000000
O O5 0.711467 0.767209 0.048546
O O6 0.761831 0.886018 0.708410
O O7 0.000000 0.844757 0.500000
O O8 0.731581 0.932147 0.093029
O O9 0.231943 0.719374 0.358857
O O10 0.000000 0.680963 0.500000
O O11 0.285613 0.600160 0.062098
O O12 0.202626 0.330120 0.509497
O O13 0.500000 0.254082 0.000000
O O14 0.500000 0.409808 0.000000
O O15 0.000000 0.012300 0.500000
#
# Coordination Sequence:
#
# PCOD9120611 Si02
#       6
#     4   4   4   4   4   4
#     4  10  20  36  54  77 111 144 174 221 270 315
#     4   8  17  33  53  75 107 142 177 216 263 323
#     4  10  18  33  58  81 104 145 186 218 264 322
#     4   9  18  33  53  79 109 142 180 219 264 324
#     4   9  18  33  54  78 104 140 182 219 262 318
#     4  10  21  38  55  78 112 145 177 223 271 318
#
# _framework density 26.155564999999999
#
# number of rings (size 3 to 8) (size 9 to 14) (size 15 to 20)
#    0.000    2.667    0.000    2.000    0.000    5.333 
#    0.000    6.667    0.000    0.000    0.000    0.000 
#    0.000    0.000    0.000    0.000    0.000    0.000 
#
# Total GULP energy -66833.933195 kJ/mol
# GULP energy per Si atom -5569.494433 kJ/mol
# Density = 2.609603 g / cm^3
# Si number density = 26.155565 Si / 1000 Ang^3
#
#
#
# Elastic Constant Matrix: (Units=GPa)
#
#
# Indices 1 2 3 4 5 6 
#
# 1 35.7972 8.9677 -5.9788 -0.0072 5.0022 0.0040
# 2 8.9677 331.8140 44.5605 -0.0096 34.1867 0.0032
# 3 -5.9788 44.5605 39.2849 -0.0102 0.1667 0.0081
# 4 -0.0072 -0.0096 -0.0102 18.5555 0.0070 14.6263
# 5 5.0022 34.1867 0.1667 0.0070 15.7414 -0.0053
# 6 0.0040 0.0032 0.0081 14.6263 -0.0053 39.6322
#
#
#
# Elastic Compliance Matrix: (Units=1/GPa)
#
#
# Indices 1 2 3 4 5 6 
#
# 1 0.030151 -0.000709 0.005428 0.000030 -0.008098 -0.000016
# 2 -0.000709 0.004828 -0.005541 0.000005 -0.010201 -0.000002
# 3 0.005428 -0.005541 0.032524 0.000025 0.009965 -0.000015
# 4 0.000030 0.000005 0.000025 0.076002 -0.000063 -0.028049
# 5 -0.008098 -0.010201 0.009965 -0.000063 0.088150 0.000035
# 6 -0.000016 -0.000002 -0.000015 -0.028049 0.000035 0.035583
#
#
# Mechanical properties :
#
#
# Convention : Reuss Voigt Hill
#
# Bulk Modulus (GPa) = 15.18423 55.77719 35.48071
# Shear Modulus (GPa) = 17.19179 38.74226 27.96703
#
# Velocity S-wave (km/s) = 2.56655 3.85284 3.27350
# Velocity P-wave (km/s) = 3.82111 6.41592 5.28038
#
# Compressibility (1/GPa) = 0.06585781
#
# Stress axis : x y z
#
# Youngs Moduli (GPa) = 33.16630 207.12095 30.74643
#
# Poissons Ratio (x) = 0.14694 -0.16689
# Poissons Ratio (y) = 0.02353 0.17037
# Poissons Ratio (z) = -0.18002 1.14769
#
# Static dielectric constant tensor:
#      x y z
#    x 2.065520 -0.000010 0.032650 
#    y -0.000010 2.277850 0.000000 
#    z 0.032650 0.000000 2.110130 
# 
# From -- ./inp_files/14999.got.cif
#   From: 2010.05.17/outbox.cif.g08.bks.cpg/sg5_8_cif.got.tgz:14999.got - 2010.06.03 18:56:24.
