data_PCOD9120805
_publ_section_title
;
Structure prediction by ZEFSAII (Michael W. Deem and Ramdas Pophale) SiO2 
 PCOD9120805
Probable space group: C 2
;
_chemical_formula_sum "Si O2"
_cell_formula_units_Z 32
_cell_length_a 19.034623
_cell_length_b 12.709929
_cell_length_c 12.299581
_cell_angle_alpha 90.000000
_cell_angle_beta 36.833265
_cell_angle_gamma 90.000000
_cell_volume 1783.850676
_symmetry_space_group_name_H-M "C 2"
_symmetry_group_IT_number 5
_symmetry_cell_setting 'monoclinic'
loop_
_space_group_symop_operation_xyz
x,y,z
-x,y,-z
1/2+x,1/2+y,z
1/2-x,1/2+y,-z
loop_
_atom_site_type_symbol
_atom_site_label
_atom_site_fract_x
_atom_site_fract_y
_atom_site_fract_z
Si Si1 0.278938 0.554830 0.056497
Si Si2 0.622337 0.372237 0.784759
Si Si3 0.866475 0.114265 0.185968
Si Si4 0.115384 0.116001 0.284329
Si Si5 0.141358 0.897841 0.323695
Si Si6 0.730178 0.315186 0.867634
Si Si7 0.592514 0.217730 0.215356
Si Si8 0.832504 0.767292 0.503239
O O1 0.309776 0.596972 0.137310
O O2 0.260153 0.430446 0.091617
O O3 0.163620 0.612402 0.153190
O O4 0.385250 0.584739 0.842508
O O5 0.628137 0.498844 0.765795
O O6 0.716920 0.333032 0.755942
O O7 0.641095 0.316428 0.646855
O O8 0.500000 0.352859 0.000000
O O9 0.779569 0.191590 0.356960
O O10 0.000000 0.151198 0.000000
O O11 0.171637 0.230393 0.225696
O O12 0.000000 0.120516 0.500000
O O13 0.187884 0.014042 0.238681
O O14 0.151693 0.805762 0.221209
O O15 0.186700 0.857391 0.382505
O O16 0.000000 0.909797 0.500000
O O17 0.618316 0.260249 0.062781
O O18 0.452451 0.211573 0.399080
#
# Coordination Sequence:
#
# PCOD9120805 Si02
#       8
#     4   4   4   4   4   4   4   4
#     4  10  20  37  59  85 123 151 198 244 301 355
#     4  10  21  38  58  83 117 155 200 240 290 360
#     4  10  23  38  60  86 114 163 199 243 295 358
#     4  10  21  35  57  87 117 153 190 246 300 349
#     4   9  18  31  56  86 106 142 196 241 281 341
#     4  10  20  36  57  87 118 156 188 240 304 352
#     4  10  18  35  61  89 111 148 198 252 289 345
#     4  11  21  37  63  88 115 155 210 248 291 353
#
# _framework density 17.938721999999999
#
# number of rings (size 3 to 8) (size 9 to 14) (size 15 to 20)
#    0.000    2.000    3.750    0.000    0.000    2.000 
#    4.500    0.000    5.500    0.000    0.000    0.000 
#    0.000    0.000    0.000    0.000    0.000    0.000 
#
# Total GULP energy -89067.869107 kJ/mol
# GULP energy per Si atom -5566.741819 kJ/mol
# Density = 1.789789 g / cm^3
# Si number density = 17.938722 Si / 1000 Ang^3
#
#
#
# Elastic Constant Matrix: (Units=GPa)
#
#
# Indices 1 2 3 4 5 6 
#
# 1 62.3111 43.1255 36.6026 0.0000 10.7553 0.0000
# 2 43.1255 83.2961 43.4712 0.0000 -2.5392 0.0000
# 3 36.6026 43.4712 100.5015 0.0000 9.1320 0.0000
# 4 0.0000 0.0000 0.0000 25.3875 0.0000 6.1166
# 5 10.7553 -2.5392 9.1320 0.0000 30.1519 0.0000
# 6 0.0000 0.0000 0.0000 6.1166 0.0000 17.5306
#
#
#
# Elastic Compliance Matrix: (Units=1/GPa)
#
#
# Indices 1 2 3 4 5 6 
#
# 1 0.029570 -0.013570 -0.003946 0.000000 -0.010495 0.000000
# 2 -0.013570 0.022086 -0.005368 0.000000 0.008326 0.000000
# 3 -0.003946 -0.005368 0.014008 0.000000 -0.003287 0.000000
# 4 0.000000 0.000000 0.000000 0.043005 0.000000 -0.015005
# 5 -0.010495 0.008326 -0.003287 0.000000 0.038606 0.000000
# 6 0.000000 0.000000 0.000000 -0.015005 0.000000 0.062278
#
#
# Mechanical properties :
#
#
# Convention : Reuss Voigt Hill
#
# Bulk Modulus (GPa) = 50.26042 54.72307 52.49174
# Shear Modulus (GPa) = 19.08751 22.80796 20.94774
#
# Velocity S-wave (km/s) = 3.26550 3.56959 3.42093
# Velocity P-wave (km/s) = 6.50359 6.89645 6.70290
#
# Compressibility (1/GPa) = 0.01989637
#
# Stress axis : x y z
#
# Youngs Moduli (GPa) = 33.81833 45.27736 71.38971
#
# Poissons Ratio (x) = 0.61441 0.28171
# Poissons Ratio (y) = 0.45891 0.38319
# Poissons Ratio (z) = 0.13345 0.24303
#
# Static dielectric constant tensor:
#      x y z
#    x 1.626500 0.000000 0.005710 
#    y 0.000000 1.629130 0.000000 
#    z 0.005710 0.000000 1.698410 
# 
# From -- ./inp_files/46327.got.cif
#   From: 2010.05.17/outbox.cif.g08.bks.cpg/sg5_24_cif.got.tgz:46327.got - 2010.06.03 18:56:24.
