data_PCOD9120541
_publ_section_title
;
Structure prediction by ZEFSAII (Michael W. Deem and Ramdas Pophale) SiO2 
 PCOD9120541
Probable space group: C 2
;
_chemical_formula_sum "Si O2"
_cell_formula_units_Z 32
_cell_length_a 20.042309
_cell_length_b 10.553863
_cell_length_c 9.695622
_cell_angle_alpha 90.000000
_cell_angle_beta 51.484360
_cell_angle_gamma 90.000000
_cell_volume 1604.667019
_symmetry_space_group_name_H-M "C 2"
_symmetry_group_IT_number 5
_symmetry_cell_setting 'monoclinic'
loop_
_space_group_symop_operation_xyz
x,y,z
-x,y,-z
1/2+x,1/2+y,z
1/2-x,1/2+y,-z
loop_
_atom_site_type_symbol
_atom_site_label
_atom_site_fract_x
_atom_site_fract_y
_atom_site_fract_z
Si Si1 0.625173 0.567120 0.855115
Si Si2 0.684934 0.103867 0.328210
Si Si3 0.495671 0.670522 0.221979
Si Si4 0.898627 0.832543 0.927114
Si Si5 0.972409 0.438569 0.377046
Si Si6 0.648525 0.050246 0.056927
Si Si7 0.463721 0.436539 0.408734
Si Si8 0.306441 0.396717 0.758721
O O1 0.725637 0.576872 0.715168
O O2 0.573397 0.599098 0.784884
O O3 0.583240 0.665652 0.020833
O O4 0.609495 0.427096 0.935056
O O5 0.682412 0.057453 0.171759
O O6 0.684302 0.254792 0.311490
O O7 0.607273 0.034360 0.506307
O O8 0.460730 0.804108 0.316745
O O9 0.509029 0.571457 0.327468
O O10 0.861841 0.691971 0.989964
O O11 0.846341 0.889763 0.862354
O O12 0.998844 0.843465 0.755623
O O13 0.000000 0.413158 0.500000
O O14 0.052905 0.498879 0.195375
O O15 0.714111 0.960443 0.891219
O O16 0.500000 0.372471 0.500000
O O17 0.366894 0.467364 0.571010
#
# Coordination Sequence:
#
# PCOD9120541 Si02
#       8
#     4   4   4   4   4   4   4   4
#     4  10  20  38  58  81 117 164 198 242 298 367
#     4  10  20  35  56  85 122 156 192 252 305 356
#     4  10  21  37  59  83 118 162 202 244 303 361
#     4   9  18  33  55  84 118 152 197 245 304 365
#     4  10  21  37  59  92 122 157 200 256 308 355
#     4  10  19  33  59  92 118 152 197 256 310 356
#     4   9  18  33  53  81 110 148 195 251 299 348
#     4  10  18  32  56  85 117 151 195 246 307 355
#
# _framework density 19.941832000000002
#
# number of rings (size 3 to 8) (size 9 to 14) (size 15 to 20)
#    0.000    2.250    1.250    1.875    0.000    4.000 
#    4.500    0.000    0.000   12.000    0.000    0.000 
#    0.000    0.000    0.000    0.000    0.000    0.000 
#
# Total GULP energy -89072.981082 kJ/mol
# GULP energy per Si atom -5567.061318 kJ/mol
# Density = 1.989644 g / cm^3
# Si number density = 19.941832 Si / 1000 Ang^3
#
#
#
# Elastic Constant Matrix: (Units=GPa)
#
#
# Indices 1 2 3 4 5 6 
#
# 1 81.5544 44.1232 39.3151 0.0000 -23.7516 0.0000
# 2 44.1232 132.4401 56.7310 0.0000 -14.3789 0.0000
# 3 39.3151 56.7310 93.2521 0.0000 -34.1180 0.0000
# 4 0.0000 0.0000 0.0000 33.8835 0.0000 -4.8885
# 5 -23.7516 -14.3789 -34.1180 0.0000 31.7726 0.0000
# 6 0.0000 0.0000 0.0000 -4.8885 0.0000 21.4921
#
#
#
# Elastic Compliance Matrix: (Units=1/GPa)
#
#
# Indices 1 2 3 4 5 6 
#
# 1 0.018260 -0.004441 -0.001216 0.000000 0.010336 0.000000
# 2 -0.004441 0.011516 -0.007316 0.000000 -0.005964 0.000000
# 3 -0.001216 -0.007316 0.023295 0.000000 0.020795 0.000000
# 4 0.000000 0.000000 0.000000 0.030514 0.000000 0.006941
# 5 0.010336 -0.005964 0.020795 0.000000 0.058831 0.000000
# 6 0.000000 0.000000 0.000000 0.006941 0.000000 0.048107
#
#
# Mechanical properties :
#
#
# Convention : Reuss Voigt Hill
#
# Bulk Modulus (GPa) = 36.86282 65.28725 51.07503
# Shear Modulus (GPa) = 22.17180 28.56812 25.36996
#
# Velocity S-wave (km/s) = 3.33802 3.78904 3.57066
# Velocity P-wave (km/s) = 5.77770 7.20780 6.53200
#
# Compressibility (1/GPa) = 0.02712760
#
# Stress axis : x y z
#
# Youngs Moduli (GPa) = 54.76325 86.83327 42.92748
#
# Poissons Ratio (x) = 0.38561 0.05218
# Poissons Ratio (y) = 0.24319 0.31405
# Poissons Ratio (z) = 0.06657 0.63526
#
# Static dielectric constant tensor:
#      x y z
#    x 1.746370 0.000000 -0.021230 
#    y 0.000000 1.730830 0.000000 
#    z -0.021230 0.000000 1.750650 
# 
# From -- ./inp_files/29604.got.cif
#   From: 2010.05.17/outbox.cif.g08.bks.cpg/sg5_15_cif.got.tgz:29604.got - 2010.06.03 18:56:24.
