data_PCOD9120319
_publ_section_title
;
Structure prediction by ZEFSAII (Michael W. Deem and Ramdas Pophale) SiO2 
 PCOD9120319
Probable space group: C 2
;
_chemical_formula_sum "Si O2"
_cell_formula_units_Z 26
_cell_length_a 12.953272
_cell_length_b 8.543369
_cell_length_c 16.937039
_cell_angle_alpha 90.000000
_cell_angle_beta 33.163904
_cell_angle_gamma 90.000000
_cell_volume 1025.326099
_symmetry_space_group_name_H-M "C 2"
_symmetry_group_IT_number 5
_symmetry_cell_setting 'monoclinic'
loop_
_space_group_symop_operation_xyz
x,y,z
-x,y,-z
1/2+x,1/2+y,z
1/2-x,1/2+y,-z
loop_
_atom_site_type_symbol
_atom_site_label
_atom_site_fract_x
_atom_site_fract_y
_atom_site_fract_z
Si Si1 0.500000 0.286571 0.000000
Si Si2 0.205792 0.460659 0.276862
Si Si3 0.105196 0.545604 0.067150
Si Si4 0.376655 0.838963 0.324944
Si Si5 0.500000 0.706845 0.500000
Si Si6 0.395378 0.162855 0.333846
Si Si7 0.024492 0.992546 0.742102
Si Si8 0.500000 0.221375 0.500000
O O1 0.322769 0.403807 0.125684
O O2 0.490031 0.163828 0.934416
O O3 0.362042 0.472910 0.248172
O O4 0.074530 0.316509 0.382944
O O5 0.088591 0.616917 0.372562
O O6 0.305313 0.502124 0.903799
O O7 0.501015 0.890443 0.831451
O O8 0.085457 0.650906 0.158234
O O9 0.425679 0.664840 0.323208
O O10 0.166683 0.820485 0.428153
O O11 0.403746 0.988202 0.364801
O O12 0.700920 0.645029 0.406618
O O13 0.413253 0.341919 0.349274
#
# Coordination Sequence:
#
# PCOD9120319 Si02
#       8
#     2   4   4   4   2   4   4   2
#     4  12  20  36  54 104 126 158 188 258 340 340
#     4   9  19  31  61  87 116 156 199 248 299 355
#     4  10  21  32  55  87 123 154 191 252 303 355
#     4   9  19  29  56  86 111 147 201 253 280 342
#     4   9  13  32  50  83 101 150 205 227 268 363
#     4   9  18  29  55  84 108 154 198 249 283 342
#     4  10  17  36  52  86 113 157 208 236 288 365
#     4   9  17  36  56  93 117 158 215 261 274 369
#
# _framework density 25.357786999999998
#
# number of rings (size 3 to 8) (size 9 to 14) (size 15 to 20)
#    0.923    1.538    3.077    2.308    0.000    0.000 
#    0.000    3.077    0.000    0.000   64.000    0.000 
#    0.000    0.000    0.000    0.000    0.000    0.000 
#
# Total GULP energy -72384.290851 kJ/mol
# GULP energy per Si atom -5568.022373 kJ/mol
# Density = 2.530007 g / cm^3
# Si number density = 25.357787 Si / 1000 Ang^3
#
#
#
# Elastic Constant Matrix: (Units=GPa)
#
#
# Indices 1 2 3 4 5 6 
#
# 1 63.3150 44.4261 22.4647 0.0000 -0.1483 0.0000
# 2 44.4261 239.4830 69.2845 -0.0004 0.6354 -0.0001
# 3 22.4647 69.2845 134.9907 -0.0012 -17.7326 -0.0001
# 4 0.0000 -0.0004 -0.0012 51.7980 0.0002 -20.1799
# 5 -0.1483 0.6354 -17.7326 0.0002 32.5608 0.0001
# 6 0.0000 -0.0001 -0.0001 -20.1799 0.0001 32.0594
#
#
#
# Elastic Compliance Matrix: (Units=1/GPa)
#
#
# Indices 1 2 3 4 5 6 
#
# 1 0.018444 -0.002939 -0.001661 0.000000 -0.000763 0.000000
# 2 -0.002939 0.005449 -0.002502 0.000000 -0.001482 0.000000
# 3 -0.001661 -0.002502 0.009666 0.000000 0.005305 0.000000
# 4 0.000000 0.000000 0.000000 0.025578 0.000000 0.016100
# 5 -0.000763 -0.001482 0.005305 0.000000 0.033626 0.000000
# 6 0.000000 0.000000 0.000000 0.016100 0.000000 0.041327
#
#
# Mechanical properties :
#
#
# Convention : Reuss Voigt Hill
#
# Bulk Modulus (GPa) = 51.67055 78.90435 65.28745
# Shear Modulus (GPa) = 32.31122 43.39119 37.85120
#
# Velocity S-wave (km/s) = 3.57348 4.14110 3.86772
# Velocity P-wave (km/s) = 6.11941 7.35180 6.76373
#
# Compressibility (1/GPa) = 0.01935338
#
# Stress axis : x y z
#
# Youngs Moduli (GPa) = 54.21883 183.53042 103.46029
#
# Poissons Ratio (x) = 0.53936 0.17187
# Poissons Ratio (y) = 0.15934 0.25888
# Poissons Ratio (z) = 0.09007 0.45923
#
# Static dielectric constant tensor:
#      x y z
#    x 2.090670 0.000000 0.000140 
#    y 0.000000 2.033730 0.000000 
#    z 0.000140 0.000000 2.150580 
# 
# From -- ./inp_files/45792.got.cif
#   From: 2010.05.17/outbox.cif.g08.bks.cpg/sg5_23_cif.got.tgz:45792.got - 2010.06.03 18:56:24.
