data_PCOD9120840
_publ_section_title
;
Structure prediction by ZEFSAII (Michael W. Deem and Ramdas Pophale) SiO2 
 PCOD9120840
Probable space group: C 2
;
_chemical_formula_sum "Si O2"
_cell_formula_units_Z 26
_cell_length_a 10.748542
_cell_length_b 11.257881
_cell_length_c 20.205173
_cell_angle_alpha 90.000000
_cell_angle_beta 151.529664
_cell_angle_gamma 90.000000
_cell_volume 1165.513504
_symmetry_space_group_name_H-M "C 2"
_symmetry_group_IT_number 5
_symmetry_cell_setting 'monoclinic'
loop_
_space_group_symop_operation_xyz
x,y,z
-x,y,-z
1/2+x,1/2+y,z
1/2-x,1/2+y,-z
loop_
_atom_site_type_symbol
_atom_site_label
_atom_site_fract_x
_atom_site_fract_y
_atom_site_fract_z
Si Si1 0.534013 0.433690 0.205029
Si Si2 0.500000 0.578540 0.000000
Si Si3 0.000000 0.355896 0.500000
Si Si4 0.482142 0.917315 0.771968
Si Si5 0.814780 0.577558 0.801442
Si Si6 0.882533 0.185018 0.078040
Si Si7 0.526872 0.803362 0.660188
Si Si8 0.000000 0.399129 0.000000
O O1 0.736890 0.425660 0.359908
O O2 0.465802 0.568324 0.158288
O O3 0.704897 0.378926 0.225211
O O4 0.270868 0.357481 0.092524
O O5 0.248655 0.494757 0.891619
O O6 0.467104 0.664055 0.921059
O O7 0.064635 0.294507 0.459394
O O8 0.548020 0.803014 0.848901
O O9 0.391550 0.871398 0.657571
O O10 0.290556 0.005696 0.721682
O O11 0.587512 0.669548 0.709591
O O12 0.868150 0.480838 0.881962
O O13 0.076838 0.658089 0.923612
#
# Coordination Sequence:
#
# PCOD9120840 Si02
#       8
#     4   2   2   4   4   4   4   2
#     4   9  19  38  63  93 119 171 214 254 324 373
#     4  10  18  36  52  86 132 170 208 250 318 398
#     4   8  20  38  72  86 116 186 220 244 324 392
#     4  11  21  35  59  87 128 168 209 262 321 376
#     4  10  22  34  58  94 125 169 207 256 324 385
#     4  10  20  33  58  93 124 167 206 263 319 379
#     4  10  19  41  63  86 123 169 216 256 311 383
#     4  10  20  38  56  98 132 148 210 274 312 376
#
# _framework density 22.307763000000001
#
# number of rings (size 3 to 8) (size 9 to 14) (size 15 to 20)
#    0.923    1.231    1.538    2.769    4.308    1.231 
#    2.769    3.077    0.000    0.923    0.000    0.000 
#    0.000    0.000    0.000    0.000    0.000    0.000 
#
# Total GULP energy -72410.346757 kJ/mol
# GULP energy per Si atom -5570.026674 kJ/mol
# Density = 2.225699 g / cm^3
# Si number density = 22.307763 Si / 1000 Ang^3
#
#
#
# Elastic Constant Matrix: (Units=GPa)
#
#
# Indices 1 2 3 4 5 6 
#
# 1 85.1361 8.8552 10.6512 0.0002 -27.1831 0.0000
# 2 8.8552 73.5256 11.8937 -0.0001 -1.7451 -0.0001
# 3 10.6512 11.8937 62.2974 0.0005 -20.7996 0.0001
# 4 0.0002 -0.0001 0.0005 8.6429 0.0004 -3.6410
# 5 -27.1831 -1.7451 -20.7996 0.0004 34.4136 0.0001
# 6 0.0000 -0.0001 0.0001 -3.6410 0.0001 40.9639
#
#
#
# Elastic Compliance Matrix: (Units=1/GPa)
#
#
# Indices 1 2 3 4 5 6 
#
# 1 0.016150 -0.001985 0.002309 -0.000001 0.014052 0.000000
# 2 -0.001985 0.014314 -0.003351 0.000001 -0.002867 0.000000
# 3 0.002309 -0.003351 0.021109 -0.000002 0.014412 0.000000
# 4 -0.000001 0.000001 -0.000002 0.120203 -0.000004 0.010684
# 5 0.014052 -0.002867 0.014412 -0.000004 0.048723 0.000000
# 6 0.000000 0.000000 0.000000 0.010684 0.000000 0.025361
#
#
# Mechanical properties :
#
#
# Convention : Reuss Voigt Hill
#
# Bulk Modulus (GPa) = 21.96842 31.52881 26.74862
# Shear Modulus (GPa) = 18.72050 29.44136 24.08093
#
# Velocity S-wave (km/s) = 2.90002 3.63682 3.28912
# Velocity P-wave (km/s) = 4.59160 5.63911 5.14210
#
# Compressibility (1/GPa) = 0.04551989
#
# Stress axis : x y z
#
# Youngs Moduli (GPa) = 61.91915 69.86298 47.37347
#
# Poissons Ratio (x) = 0.13869 -0.10940
# Poissons Ratio (y) = 0.12292 0.15873
# Poissons Ratio (z) = -0.14299 0.23409
#
# Static dielectric constant tensor:
#      x y z
#    x 1.951640 0.000000 -0.044100 
#    y 0.000000 1.884750 0.000000 
#    z -0.044100 0.000000 1.828200 
# 
# From -- ./inp_files/46371.got.cif
#   From: 2010.05.17/outbox.cif.g08.bks.cpg/sg5_24_cif.got.tgz:46371.got - 2010.06.03 18:56:24.
