data_PCOD9120116
_publ_section_title
;
Structure prediction by ZEFSAII (Michael W. Deem and Ramdas Pophale) SiO2 
 PCOD9120116
Probable space group: C 2
;
_chemical_formula_sum "Si O2"
_cell_formula_units_Z 28
_cell_length_a 20.703473
_cell_length_b 7.003641
_cell_length_c 26.286146
_cell_angle_alpha 90.000000
_cell_angle_beta 160.871455
_cell_angle_gamma 90.000000
_cell_volume 1248.979692
_symmetry_space_group_name_H-M "C 2"
_symmetry_group_IT_number 5
_symmetry_cell_setting 'monoclinic'
loop_
_space_group_symop_operation_xyz
x,y,z
-x,y,-z
1/2+x,1/2+y,z
1/2-x,1/2+y,-z
loop_
_atom_site_type_symbol
_atom_site_label
_atom_site_fract_x
_atom_site_fract_y
_atom_site_fract_z
Si Si1 0.000000 0.364830 0.500000
Si Si2 0.000000 0.369317 0.000000
Si Si3 0.911302 0.787986 0.262871
Si Si4 0.871241 0.948358 0.130540
Si Si5 0.038753 0.240069 0.684791
Si Si6 0.294318 0.322810 0.960392
Si Si7 0.815612 0.524398 0.463993
Si Si8 0.834637 0.717569 0.815273
O O1 0.916926 0.493717 0.484440
O O2 0.826107 0.230788 0.349034
O O3 0.192038 0.259718 0.122892
O O4 0.080449 0.513210 0.103935
O O5 0.891712 0.777765 0.186809
O O6 0.068437 0.670766 0.413193
O O7 0.965403 0.013677 0.310735
O O8 0.083916 0.052861 0.285615
O O9 0.808405 0.903793 0.026787
O O10 0.713885 0.094528 0.036111
O O11 0.213856 0.282057 0.775024
O O12 0.844781 0.323328 0.515357
O O13 0.103084 0.351663 0.783231
O O14 0.489448 0.353387 0.072305
#
# Coordination Sequence:
#
# PCOD9120116 Si02
#       8
#     2   2   4   4   4   4   4   4
#     4  10  22  40  64 100 126 168 214 270 326 372
#     4  10  18  44  68  92 122 166 226 268 312 384
#     4  10  23  43  65  95 125 169 216 263 315 380
#     4  11  25  41  63  95 133 170 212 266 321 391
#     4   9  21  41  72  91 117 177 214 266 316 379
#     4  11  21  42  60  95 129 167 214 262 323 378
#     4  11  24  44  65  95 133 167 216 262 324 385
#     4  10  16  39  68  88 126 164 216 263 314 377
#
# _framework density 22.418298
#
# number of rings (size 3 to 8) (size 9 to 14) (size 15 to 20)
#    0.000    1.714    5.714    0.000    6.000    0.000 
#   10.286    6.429    0.000    0.000    0.000    0.000 
#    0.000    0.000    0.000    0.000    0.000    0.000 
#
# Total GULP energy -78103.256179 kJ/mol
# GULP energy per Si atom -5578.804013 kJ/mol
# Density = 2.236727 g / cm^3
# Si number density = 22.418298 Si / 1000 Ang^3
#
#
#
# Elastic Constant Matrix: (Units=GPa)
#
#
# Indices 1 2 3 4 5 6 
#
# 1 103.6480 8.6826 28.1136 -0.0025 -22.4850 -0.0009
# 2 8.6826 49.8404 16.7757 -0.0048 -11.4605 -0.0027
# 3 28.1136 16.7757 100.6654 0.0221 -23.8314 0.0007
# 4 -0.0025 -0.0048 0.0221 32.4998 0.0009 -9.4756
# 5 -22.4850 -11.4605 -23.8314 0.0009 44.2913 0.0000
# 6 -0.0009 -0.0027 0.0007 -9.4756 0.0000 22.7717
#
#
#
# Elastic Compliance Matrix: (Units=1/GPa)
#
#
# Indices 1 2 3 4 5 6 
#
# 1 0.011199 -0.000228 -0.002014 0.000003 0.004542 0.000002
# 2 -0.000228 0.021938 -0.002608 0.000006 0.004157 0.000005
# 3 -0.002014 -0.002608 0.012066 -0.000010 0.004795 -0.000005
# 4 0.000003 0.000006 -0.000010 0.035018 -0.000003 0.014571
# 5 0.004542 0.004157 0.004795 -0.000003 0.028540 -0.000001
# 6 0.000002 0.000005 -0.000005 0.014571 -0.000001 0.049977
#
#
# Mechanical properties :
#
#
# Convention : Reuss Voigt Hill
#
# Bulk Modulus (GPa) = 28.16777 40.14419 34.15598
# Shear Modulus (GPa) = 27.73581 33.28468 30.51025
#
# Velocity S-wave (km/s) = 3.52119 3.85737 3.69311
# Velocity P-wave (km/s) = 5.39663 6.14694 5.78397
#
# Compressibility (1/GPa) = 0.03550156
#
# Stress axis : x y z
#
# Youngs Moduli (GPa) = 89.29438 45.58398 82.87627
#
# Poissons Ratio (x) = 0.01042 0.16693
# Poissons Ratio (y) = 0.02040 0.21613
# Poissons Ratio (z) = 0.17985 0.11888
#
# Static dielectric constant tensor:
#      x y z
#    x 1.870090 0.000000 0.002360 
#    y 0.000000 1.882110 0.000000 
#    z 0.002360 0.000000 1.831640 
# 
# From -- ./inp_files/69460.got.cif
#   From: 2010.05.17/outbox.cif.g08.bks.cpg/sg5_35_cif.got.tgz:69460.got - 2010.06.03 18:56:24.
