data_PCOD9120690
_publ_section_title
;
Structure prediction by ZEFSAII (Michael W. Deem and Ramdas Pophale) SiO2 
 PCOD9120690
Probable space group: C 2
;
_chemical_formula_sum "Si O2"
_cell_formula_units_Z 28
_cell_length_a 12.156064
_cell_length_b 7.672101
_cell_length_c 15.257065
_cell_angle_alpha 90.000000
_cell_angle_beta 129.286649
_cell_angle_gamma 90.000000
_cell_volume 1101.317116
_symmetry_space_group_name_H-M "C 2"
_symmetry_group_IT_number 5
_symmetry_cell_setting 'monoclinic'
loop_
_space_group_symop_operation_xyz
x,y,z
-x,y,-z
1/2+x,1/2+y,z
1/2-x,1/2+y,-z
loop_
_atom_site_type_symbol
_atom_site_label
_atom_site_fract_x
_atom_site_fract_y
_atom_site_fract_z
Si Si1 0.793196 0.786790 0.253934
Si Si2 0.801537 0.394932 0.223751
Si Si3 0.568930 0.333483 0.852177
Si Si4 0.737753 0.061778 0.533480
Si Si5 0.000000 0.818645 0.000000
Si Si6 0.500000 0.300648 0.500000
Si Si7 0.024372 0.213857 0.220237
Si Si8 0.762827 0.712405 0.639363
O O1 0.830191 0.580531 0.282290
O O2 0.905563 0.884476 0.373846
O O3 0.634582 0.807155 0.210517
O O4 0.809226 0.821151 0.159065
O O5 0.640905 0.411252 0.107572
O O6 0.799278 0.242632 0.295515
O O7 0.910340 0.343841 0.203463
O O8 0.548168 0.541268 0.857437
O O9 0.429628 0.254436 0.735050
O O10 0.567713 0.236654 0.945390
O O11 0.612578 0.187590 0.501322
O O12 0.878083 0.132585 0.652957
O O13 0.753720 0.056193 0.436837
O O14 0.702302 0.872062 0.551566
#
# Coordination Sequence:
#
# PCOD9120690 Si02
#       8
#     4   4   4   4   2   2   4   4
#     4  11  21  42  68  95 132 173 202 257 320 382
#     4  11  23  43  67  88 129 167 212 271 321 372
#     4  10  21  43  65  90 130 166 212 266 316 369
#     4  10  20  34  59  88 127 170 211 242 312 375
#     4  10  22  46  70  86 124 174 208 276 330 358
#     4  10  18  34  58  90 128 168 196 236 302 388
#     4  10  23  42  61  97 128 160 214 263 313 385
#     4  10  20  38  57  92 127 172 205 257 310 373
#
# _framework density 25.424105000000001
#
# number of rings (size 3 to 8) (size 9 to 14) (size 15 to 20)
#    0.000    1.714    7.143    0.000    2.000    1.714 
#   10.286    0.000    0.000    0.000    0.000    0.000 
#    0.000    0.000    0.000    0.000    0.000    0.000 
#
# Total GULP energy -78248.161212 kJ/mol
# GULP energy per Si atom -5589.154372 kJ/mol
# Density = 2.536624 g / cm^3
# Si number density = 25.424105 Si / 1000 Ang^3
#
#
#
# Elastic Constant Matrix: (Units=GPa)
#
#
# Indices 1 2 3 4 5 6 
#
# 1 216.3045 31.4981 41.3761 0.0000 -40.1114 0.0000
# 2 31.4981 51.7176 24.6969 0.0000 8.0309 0.0000
# 3 41.3761 24.6969 85.2479 0.0000 -35.1953 0.0000
# 4 0.0000 0.0000 0.0000 10.5107 0.0000 -5.2687
# 5 -40.1114 8.0309 -35.1953 0.0000 45.3816 0.0000
# 6 0.0000 0.0000 0.0000 -5.2687 0.0000 28.7093
#
#
#
# Elastic Compliance Matrix: (Units=1/GPa)
#
#
# Indices 1 2 3 4 5 6 
#
# 1 0.006822 -0.006686 0.002359 0.000000 0.009043 0.000000
# 2 -0.006686 0.036143 -0.018102 0.000000 -0.026345 0.000000
# 3 0.002359 -0.018102 0.026498 0.000000 0.025838 0.000000
# 4 0.000000 0.000000 0.000000 0.104780 0.000000 0.019229
# 5 0.009043 -0.026345 0.025838 0.000000 0.054729 0.000000
# 6 0.000000 0.000000 0.000000 0.019229 0.000000 0.038361
#
#
# Mechanical properties :
#
#
# Convention : Reuss Voigt Hill
#
# Bulk Modulus (GPa) = 40.64303 60.93469 50.78886
# Shear Modulus (GPa) = 15.60587 33.96692 24.78639
#
# Velocity S-wave (km/s) = 2.48023 3.65912 3.12575
# Velocity P-wave (km/s) = 4.92166 6.47082 5.74866
#
# Compressibility (1/GPa) = 0.02460447
#
# Stress axis : x y z
#
# Youngs Moduli (GPa) = 146.57794 27.66781 37.73928
#
# Poissons Ratio (x) = 0.18498 -0.08902
# Poissons Ratio (y) = 0.97998 0.68317
# Poissons Ratio (z) = -0.34576 0.50086
#
# Static dielectric constant tensor:
#      x y z
#    x 2.009800 0.000000 -0.038450 
#    y 0.000000 2.075220 0.000000 
#    z -0.038450 0.000000 2.054950 
# 
# From -- ./inp_files/52356.got.cif
#   From: 2010.05.17/outbox.cif.g08.bks.cpg/sg5_27_cif.got.tgz:52356.got - 2010.06.03 18:56:24.
