data_PCOD9120222
_publ_section_title
;
Structure prediction by ZEFSAII (Michael W. Deem and Ramdas Pophale) SiO2 
 PCOD9120222
Probable space group: C 2
;
_chemical_formula_sum "Si O2"
_cell_formula_units_Z 30
_cell_length_a 22.891655
_cell_length_b 8.367066
_cell_length_c 22.953443
_cell_angle_alpha 90.000000
_cell_angle_beta 161.124686
_cell_angle_gamma 90.000000
_cell_volume 1422.281693
_symmetry_space_group_name_H-M "C 2"
_symmetry_group_IT_number 5
_symmetry_cell_setting 'monoclinic'
loop_
_space_group_symop_operation_xyz
x,y,z
-x,y,-z
1/2+x,1/2+y,z
1/2-x,1/2+y,-z
loop_
_atom_site_type_symbol
_atom_site_label
_atom_site_fract_x
_atom_site_fract_y
_atom_site_fract_z
Si Si1 0.807934 0.110650 0.929524
Si Si2 0.600215 0.796729 0.686181
Si Si3 0.267187 0.329638 0.730625
Si Si4 0.004017 0.079441 0.705218
Si Si5 0.000000 0.117559 0.000000
Si Si6 0.644617 0.128870 0.893034
Si Si7 0.684723 0.887273 0.437260
Si Si8 0.935644 0.861965 0.778863
O O1 0.703288 0.190887 0.884319
O O2 0.688326 0.956397 0.796764
O O3 0.887599 0.197323 0.947130
O O4 0.978352 0.027603 0.121089
O O5 0.732381 0.739044 0.758346
O O6 0.420072 0.844428 0.480932
O O7 0.557472 0.666268 0.695212
O O8 0.396966 0.266225 0.802060
O O9 0.353739 0.497859 0.832322
O O10 0.858362 0.936774 0.562515
O O11 0.890395 0.208596 0.636427
O O12 0.185865 0.052676 0.913107
O O13 0.482565 0.003371 0.731735
O O14 0.569790 0.263365 0.865202
O O15 0.760293 0.893738 0.574545
#
# Coordination Sequence:
#
# PCOD9120222 Si02
#       8
#     4   4   4   4   2   4   4   4
#     4  10  18  32  52  80 117 149 191 239 293 348
#     4  10  17  32  51  80 112 149 190 237 299 349
#     4   9  17  29  51  74 116 145 180 251 298 342
#     4  12  24  37  57  89 123 160 197 242 297 361
#     4   8  18  28  48  80 110 152 184 242 302 336
#     4  12  21  34  58  81 121 157 191 240 290 357
#     4  12  23  38  57  84 127 154 195 248 292 359
#     4  11  19  34  51  86 116 150 191 240 301 346
#
# _framework density 21.092866999999998
#
# number of rings (size 3 to 8) (size 9 to 14) (size 15 to 20)
#    0.000    1.333    6.667    0.000    0.000    0.000 
#    0.000    0.000    0.000    0.000    0.000    9.333 
#   16.000    0.000    0.000    0.000    0.000    0.000 
#
# Total GULP energy -83574.999382 kJ/mol
# GULP energy per Si atom -5571.666625 kJ/mol
# Density = 2.104486 g / cm^3
# Si number density = 21.092867 Si / 1000 Ang^3
#
#
#
# Elastic Constant Matrix: (Units=GPa)
#
#
# Indices 1 2 3 4 5 6 
#
# 1 217.0744 29.6984 26.1072 0.0002 16.6221 0.0000
# 2 29.6984 26.0614 13.4855 0.0002 3.8498 -0.0001
# 3 26.1072 13.4855 131.0739 0.0004 -10.5601 0.0001
# 4 0.0002 0.0002 0.0004 17.5596 0.0002 9.5730
# 5 16.6221 3.8498 -10.5601 0.0002 31.3370 0.0000
# 6 0.0000 -0.0001 0.0001 9.5730 0.0000 26.2505
#
#
#
# Elastic Compliance Matrix: (Units=1/GPa)
#
#
# Indices 1 2 3 4 5 6 
#
# 1 0.005673 -0.005698 -0.000750 0.000000 -0.002562 0.000000
# 2 -0.005698 0.047608 -0.004102 -0.000001 -0.004209 0.000000
# 3 -0.000750 -0.004102 0.008504 0.000000 0.003768 0.000000
# 4 0.000000 -0.000001 0.000000 0.071081 -0.000001 -0.025922
# 5 -0.002562 -0.004209 0.003768 -0.000001 0.035057 0.000000
# 6 0.000000 0.000000 0.000000 -0.025922 0.000000 0.047548
#
#
# Mechanical properties :
#
#
# Convention : Reuss Voigt Hill
#
# Bulk Modulus (GPa) = 24.57912 56.97689 40.77801
# Shear Modulus (GPa) = 19.98942 35.35731 27.67337
#
# Velocity S-wave (km/s) = 3.08179 4.09867 3.62605
# Velocity P-wave (km/s) = 4.93370 7.03348 6.07500
#
# Compressibility (1/GPa) = 0.04068493
#
# Stress axis : x y z
#
# Youngs Moduli (GPa) = 176.28604 21.00469 117.58756
#
# Poissons Ratio (x) = 0.11968 0.08820
# Poissons Ratio (y) = 1.00443 0.48239
# Poissons Ratio (z) = 0.13222 0.08617
#
# Static dielectric constant tensor:
#      x y z
#    x 1.869740 0.000000 0.054930 
#    y 0.000000 1.766280 0.000000 
#    z 0.054930 0.000000 1.814950 
# 
# From -- ./inp_files/69637.got.cif
#   From: 2010.05.17/outbox.cif.g08.bks.cpg/sg5_35_cif.got.tgz:69637.got - 2010.06.03 18:56:24.
