data_PCOD9120312
_publ_section_title
;
Structure prediction by ZEFSAII (Michael W. Deem and Ramdas Pophale) SiO2 
 PCOD9120312
Probable space group: C 2
;
_chemical_formula_sum "Si O2"
_cell_formula_units_Z 32
_cell_length_a 11.503865
_cell_length_b 21.538056
_cell_length_c 9.089930
_cell_angle_alpha 90.000000
_cell_angle_beta 51.826613
_cell_angle_gamma 90.000000
_cell_volume 1770.569377
_symmetry_space_group_name_H-M "C 2"
_symmetry_group_IT_number 5
_symmetry_cell_setting 'monoclinic'
loop_
_space_group_symop_operation_xyz
x,y,z
-x,y,-z
1/2+x,1/2+y,z
1/2-x,1/2+y,-z
loop_
_atom_site_type_symbol
_atom_site_label
_atom_site_fract_x
_atom_site_fract_y
_atom_site_fract_z
Si Si1 0.842202 0.738350 0.695464
Si Si2 0.556012 0.720272 0.297083
Si Si3 0.389052 0.939425 0.448796
Si Si4 0.921598 0.325959 0.207491
Si Si5 0.559294 0.059488 0.285748
Si Si6 0.880428 0.680244 0.965523
Si Si7 0.846442 0.001590 0.190899
Si Si8 0.616099 0.638741 0.775297
O O1 0.723782 0.788483 0.731523
O O2 0.873248 0.732661 0.844381
O O3 0.764955 0.673055 0.708607
O O4 0.000000 0.746959 0.500000
O O5 0.500000 0.740780 0.500000
O O6 0.531310 0.777218 0.203269
O O7 0.441518 0.669783 0.326039
O O8 0.716262 0.687845 0.163343
O O9 0.500000 0.928433 0.500000
O O10 0.388336 0.881898 0.341917
O O11 0.446865 0.003884 0.330137
O O12 0.230320 0.952161 0.644871
O O13 0.000000 0.349714 0.000000
O O14 0.500000 0.075394 0.500000
O O15 0.578290 0.116593 0.157457
O O16 0.719227 0.025813 0.177770
O O17 0.000000 0.689023 0.000000
O O18 0.875952 0.065831 0.252364
O O19 0.000000 0.981281 0.000000
O O20 0.500000 0.650512 0.000000
#
# Coordination Sequence:
#
# PCOD9120312 Si02
#       8
#     4   4   4   4   4   4   4   4
#     4  11  22  37  61  91 116 160 200 247 315 355
#     4  11  23  37  57  89 119 161 203 246 306 355
#     4   9  21  38  63  90 115 163 207 248 290 361
#     4  11  22  45  66  75 116 165 217 248 285 379
#     4   9  19  37  60  90 127 164 197 232 303 379
#     4  12  23  35  56  95 132 147 194 263 311 352
#     4   9  16  31  62  91 119 154 198 243 298 362
#     4  10  17  35  62  83 124 164 196 231 292 392
#
# _framework density 18.073281000000001
#
# number of rings (size 3 to 8) (size 9 to 14) (size 15 to 20)
#    0.000    2.000    3.750    2.250    5.250    0.500 
#    0.000    2.500    0.000    2.250    0.000    0.000 
#    0.000    0.000    0.000    0.000    0.000    0.000 
#
# Total GULP energy -89140.056802 kJ/mol
# GULP energy per Si atom -5571.253550 kJ/mol
# Density = 1.803215 g / cm^3
# Si number density = 18.073281 Si / 1000 Ang^3
#
#
#
# Elastic Constant Matrix: (Units=GPa)
#
#
# Indices 1 2 3 4 5 6 
#
# 1 110.6822 35.6745 58.5605 0.0000 -3.7117 0.0000
# 2 35.6745 98.7198 55.2023 0.0000 0.8596 0.0000
# 3 58.5605 55.2023 117.3798 0.0000 -14.1654 0.0000
# 4 0.0000 0.0000 0.0000 36.6121 0.0000 9.8635
# 5 -3.7117 0.8596 -14.1654 0.0000 34.6658 0.0000
# 6 0.0000 0.0000 0.0000 9.8635 0.0000 15.0254
#
#
#
# Elastic Compliance Matrix: (Units=1/GPa)
#
#
# Indices 1 2 3 4 5 6 
#
# 1 0.012444 -0.001291 -0.005719 0.000000 -0.000972 0.000000
# 2 -0.001291 0.014210 -0.006414 0.000000 -0.003112 0.000000
# 3 -0.005719 -0.006414 0.015078 0.000000 0.005708 0.000000
# 4 0.000000 0.000000 0.000000 0.033182 0.000000 -0.021782
# 5 -0.000972 -0.003112 0.005708 0.000000 0.031152 0.000000
# 6 0.000000 0.000000 0.000000 -0.021782 0.000000 0.080853
#
#
# Mechanical properties :
#
#
# Convention : Reuss Voigt Hill
#
# Bulk Modulus (GPa) = 67.18451 69.51736 68.35093
# Shear Modulus (GPa) = 22.85946 29.08363 25.97154
#
# Velocity S-wave (km/s) = 3.56029 4.01584 3.79491
# Velocity P-wave (km/s) = 7.35901 7.74921 7.55663
#
# Compressibility (1/GPa) = 0.01488438
#
# Stress axis : x y z
#
# Youngs Moduli (GPa) = 80.36060 70.37307 66.32270
#
# Poissons Ratio (x) = 0.09083 0.37927
# Poissons Ratio (y) = 0.10372 0.42542
# Poissons Ratio (z) = 0.45955 0.45140
#
# Static dielectric constant tensor:
#      x y z
#    x 1.641720 0.000000 -0.008470 
#    y 0.000000 1.631680 0.000000 
#    z -0.008470 0.000000 1.653540 
# 
# From -- ./inp_files/22098.got.cif
#   From: 2010.05.17/outbox.cif.g08.bks.cpg/sg5_12_cif.got.tgz:22098.got - 2010.06.03 18:56:24.
