data_PCOD9120016
_publ_section_title
;
Structure prediction by ZEFSAII (Michael W. Deem and Ramdas Pophale) SiO2 
 PCOD9120016
Probable space group: C 2
;
_chemical_formula_sum "Si O2"
_cell_formula_units_Z 26
_cell_length_a 6.999238
_cell_length_b 29.233029
_cell_length_c 5.521161
_cell_angle_alpha 90.000000
_cell_angle_beta 77.787917
_cell_angle_gamma 90.000000
_cell_volume 1104.115675
_symmetry_space_group_name_H-M "C 2"
_symmetry_group_IT_number 5
_symmetry_cell_setting 'monoclinic'
loop_
_space_group_symop_operation_xyz
x,y,z
-x,y,-z
1/2+x,1/2+y,z
1/2-x,1/2+y,-z
loop_
_atom_site_type_symbol
_atom_site_label
_atom_site_fract_x
_atom_site_fract_y
_atom_site_fract_z
Si Si1 0.721522 0.970740 0.035574
Si Si2 0.699530 0.380028 0.192655
Si Si3 0.126433 0.643721 0.717546
Si Si4 0.874293 0.746868 0.284895
Si Si5 0.312161 0.549581 0.708880
Si Si6 0.000000 0.495305 0.500000
Si Si7 0.755851 0.844326 0.318942
O O1 0.839448 0.933494 0.852031
O O2 0.803994 0.021167 0.960624
O O3 0.500000 0.964295 0.000000
O O4 0.673752 0.966331 0.330926
O O5 0.491438 0.354279 0.254275
O O6 0.805077 0.367643 0.413758
O O7 0.807313 0.364326 0.920391
O O8 0.208303 0.695407 0.687038
O O9 0.283896 0.603752 0.711619
O O10 0.000000 0.637241 0.500000
O O11 0.000000 0.641057 0.000000
O O12 0.730019 0.789904 0.327276
O O13 0.000000 0.751148 0.500000
O O14 0.000000 0.750670 0.000000
O O15 0.500000 0.537544 0.500000
O O16 0.114968 0.529253 0.644460
#
# Coordination Sequence:
#
# PCOD9120016 Si02
#       7
#     4   4   4   4   4   2   4
#     4  10  24  40  59  83 122 172 212 267 317 389
#     4  10  20  31  55  81 122 149 198 254 312 360
#     4  10  21  38  64  90 128 165 215 265 329 382
#     4  10  16  31  55  89 117 162 202 263 317 376
#     4  11  24  40  64  92 126 169 217 272 324 391
#     4  10  22  44  60  84 128 162 222 262 326 378
#     4  10  18  32  53  90 121 147 207 264 300 377
#
# _framework density 23.548255000000001
#
# number of rings (size 3 to 8) (size 9 to 14) (size 15 to 20)
#    0.000    1.846    3.846    1.385    6.462    1.846 
#    0.000    0.000    0.000    1.846    0.000    0.000 
#    0.000    0.000    0.000    0.000    0.000    0.000 
#
# Total GULP energy -72501.641936 kJ/mol
# GULP energy per Si atom -5577.049380 kJ/mol
# Density = 2.349466 g / cm^3
# Si number density = 23.548255 Si / 1000 Ang^3
#
#
#
# Elastic Constant Matrix: (Units=GPa)
#
#
# Indices 1 2 3 4 5 6 
#
# 1 61.2127 4.1318 27.6600 0.0000 1.2162 0.0000
# 2 4.1318 170.6594 55.8130 0.0000 0.1635 0.0000
# 3 27.6600 55.8130 184.9577 0.0000 15.3263 0.0000
# 4 0.0000 0.0000 0.0000 26.3121 0.0000 10.6405
# 5 1.2162 0.1635 15.3263 0.0000 43.7154 0.0000
# 6 0.0000 0.0000 0.0000 10.6405 0.0000 5.2662
#
#
#
# Elastic Compliance Matrix: (Units=1/GPa)
#
#
# Indices 1 2 3 4 5 6 
#
# 1 0.017566 0.000496 -0.002818 0.000000 0.000497 0.000000
# 2 0.000496 0.006535 -0.002104 0.000000 0.000699 0.000000
# 3 -0.002818 -0.002104 0.006649 0.000000 -0.002245 0.000000
# 4 0.000000 0.000000 0.000000 0.207789 0.000000 -0.419844
# 5 0.000497 0.000699 -0.002245 0.000000 0.023646 0.000000
# 6 0.000000 0.000000 0.000000 -0.419844 0.000000 1.038198
#
#
# Mechanical properties :
#
#
# Convention : Reuss Voigt Hill
#
# Bulk Modulus (GPa) = 45.66599 65.78213 55.72406
# Shear Modulus (GPa) = 3.79785 37.00708 20.40246
#
# Velocity S-wave (km/s) = 1.27134 3.96857 2.94668
# Velocity P-wave (km/s) = 4.64647 6.99965 5.94074
#
# Compressibility (1/GPa) = 0.02189813
#
# Stress axis : x y z
#
# Youngs Moduli (GPa) = 56.92682 153.01994 150.39844
#
# Poissons Ratio (x) = -0.07586 0.42380
# Poissons Ratio (y) = -0.02822 0.31646
# Poissons Ratio (z) = 0.16041 0.32198
#
# Static dielectric constant tensor:
#      x y z
#    x 1.881160 0.000000 0.023120 
#    y 0.000000 1.913010 0.000000 
#    z 0.023120 0.000000 2.094030 
# 
# From -- ./inp_files/3726.got.cif
#   From: 2010.05.17/outbox.cif.g08.bks.cpg/sg5_2_cif.got.tgz:3726.got - 2010.06.03 18:56:24.
