data_PCOD9120602
_publ_section_title
;
Structure prediction by ZEFSAII (Michael W. Deem and Ramdas Pophale) SiO2 
 PCOD9120602
Probable space group: C 2
;
_chemical_formula_sum "Si O2"
_cell_formula_units_Z 26
_cell_length_a 14.194967
_cell_length_b 15.419758
_cell_length_c 5.027021
_cell_angle_alpha 90.000000
_cell_angle_beta 98.201853
_cell_angle_gamma 90.000000
_cell_volume 1089.074628
_symmetry_space_group_name_H-M "C 2"
_symmetry_group_IT_number 5
_symmetry_cell_setting 'monoclinic'
loop_
_space_group_symop_operation_xyz
x,y,z
-x,y,-z
1/2+x,1/2+y,z
1/2-x,1/2+y,-z
loop_
_atom_site_type_symbol
_atom_site_label
_atom_site_fract_x
_atom_site_fract_y
_atom_site_fract_z
Si Si1 0.091268 0.142240 0.338602
Si Si2 0.593884 0.175781 0.848344
Si Si3 0.246496 0.952066 0.847585
Si Si4 0.865108 0.937894 0.711456
Si Si5 0.795207 0.159026 0.136149
Si Si6 0.566322 0.980895 0.772433
Si Si7 0.000000 0.813978 0.500000
O O1 0.120831 0.173466 0.051381
O O2 0.000000 0.154882 0.500000
O O3 0.102592 0.038108 0.310973
O O4 0.171853 0.183383 0.557945
O O5 0.693107 0.196372 0.026830
O O6 0.598888 0.079571 0.716918
O O7 0.579978 0.248669 0.627456
O O8 0.500000 0.178102 0.000000
O O9 0.165850 0.916644 0.005421
O O10 0.228787 0.055906 0.856199
O O11 0.343542 0.933634 0.051100
O O12 0.222746 0.926676 0.535558
O O13 0.952070 0.877186 0.686019
O O14 0.500000 0.947901 0.500000
O O15 0.500000 0.990539 0.000000
#
# Coordination Sequence:
#
# PCOD9120602 Si02
#       7
#     4   4   4   4   4   4   2
#     4  10  18  35  56  84 110 144 185 241 285 323
#     4  10  23  36  53  82 120 156 189 223 279 345
#     4   9  19  34  51  77 111 144 184 231 276 323
#     4  10  21  34  51  78 114 150 181 219 275 340
#     4   9  20  33  56  78 113 147 187 233 284 328
#     4  10  18  33  57  83 110 143 185 236 282 321
#     4  12  24  36  56  80 120 160 180 214 278 352
#
# _framework density 23.873479
#
# number of rings (size 3 to 8) (size 9 to 14) (size 15 to 20)
#    0.000    2.154    1.538    1.385    4.308    3.692 
#    0.000    0.000    0.000    0.000    0.000   10.769 
#    0.000    0.000    0.000    0.000    0.000    0.000 
#
# Total GULP energy -72470.109785 kJ/mol
# GULP energy per Si atom -5574.623830 kJ/mol
# Density = 2.381914 g / cm^3
# Si number density = 23.873479 Si / 1000 Ang^3
#
#
#
# Elastic Constant Matrix: (Units=GPa)
#
#
# Indices 1 2 3 4 5 6 
#
# 1 55.5638 6.3050 -5.3860 0.0000 0.6077 0.0000
# 2 6.3050 12.5855 1.1315 0.0000 1.9487 0.0000
# 3 -5.3860 1.1315 110.2751 0.0000 -1.1021 0.0000
# 4 0.0000 0.0000 0.0000 -29.0779 0.0000 0.1989
# 5 0.6077 1.9487 -1.1021 0.0000 38.7205 0.0000
# 6 0.0000 0.0000 0.0000 0.1989 0.0000 -0.2001
#
#
#
# Elastic Compliance Matrix: (Units=1/GPa)
#
#
# Indices 1 2 3 4 5 6 
#
# 1 0.019202 -0.009747 0.001040 0.000000 0.000219 0.000000
# 2 -0.009747 0.085110 -0.001391 0.000000 -0.004170 0.000000
# 3 0.001040 -0.001391 0.009136 0.000000 0.000314 0.000000
# 4 0.000000 0.000000 0.000000 -0.034626 0.000000 -0.034404
# 5 0.000219 -0.004170 0.000314 0.000000 0.026041 0.000000
# 6 0.000000 0.000000 0.000000 -0.034404 0.000000 -5.030819
#
#
# Mechanical properties :
#
#
# Convention : Reuss Voigt Hill
#
# Bulk Modulus (GPa) = 10.72354 20.28060 15.50207
# Shear Modulus (GPa) = -1.02571 13.64675 6.31052
#
# Velocity S-wave (km/s) = -0.65618 2.39347 1.62759
# Velocity P-wave (km/s) = 1.98179 4.01892 3.16853
#
# Compressibility (1/GPa) = 0.09325275
#
# Stress axis : x y z
#
# Youngs Moduli (GPa) = 52.07862 11.74945 109.45185
#
# Poissons Ratio (x) = 0.11452 -0.11383
# Poissons Ratio (y) = 0.50760 0.15225
# Poissons Ratio (z) = -0.05416 0.01634
#
# Static dielectric constant tensor:
#      x y z
#    x 1.810090 0.000000 0.021300 
#    y 0.000000 1.897010 0.000000 
#    z 0.021300 0.000000 1.936170 
# 
# From -- ./inp_files/7094.got.cif
#   From: 2010.05.17/outbox.cif.g08.bks.cpg/sg5_4_cif.got.tgz:7094.got - 2010.06.03 18:56:24.
