data_PCOD9120900
_publ_section_title
;
Structure prediction by ZEFSAII (Michael W. Deem and Ramdas Pophale) SiO2 
 PCOD9120900
Probable space group: C 2
;
_chemical_formula_sum "Si O2"
_cell_formula_units_Z 32
_cell_length_a 21.456505
_cell_length_b 9.155278
_cell_length_c 14.758554
_cell_angle_alpha 90.000000
_cell_angle_beta 32.623367
_cell_angle_gamma 90.000000
_cell_volume 1562.986380
_symmetry_space_group_name_H-M "C 2"
_symmetry_group_IT_number 5
_symmetry_cell_setting 'monoclinic'
loop_
_space_group_symop_operation_xyz
x,y,z
-x,y,-z
1/2+x,1/2+y,z
1/2-x,1/2+y,-z
loop_
_atom_site_type_symbol
_atom_site_label
_atom_site_fract_x
_atom_site_fract_y
_atom_site_fract_z
Si Si1 0.207836 0.878660 0.855422
Si Si2 0.380399 0.848243 0.175864
Si Si3 0.103608 0.603150 0.301698
Si Si4 0.992408 0.084879 0.149029
Si Si5 0.177376 0.297690 0.954689
Si Si6 0.283628 0.374394 0.367559
Si Si7 0.160604 0.576665 0.632436
Si Si8 0.094842 0.614674 0.103042
O O1 0.216844 0.835801 0.738338
O O2 0.320935 0.962609 0.755947
O O3 0.169629 0.748917 0.970652
O O4 0.102048 0.993738 0.979620
O O5 0.424475 0.703403 0.172175
O O6 0.321760 0.802412 0.155613
O O7 0.312964 0.958182 0.322076
O O8 0.500000 0.925959 0.000000
O O9 0.201094 0.728133 0.171969
O O10 0.061447 0.603913 0.249740
O O11 0.000000 0.628176 0.500000
O O12 0.896081 0.956945 0.273598
O O13 0.067031 0.197609 0.121999
O O14 0.160207 0.462697 0.005944
O O15 0.185630 0.492159 0.509264
O O16 0.267823 0.222546 0.439294
O O17 0.026484 0.616939 0.801227
#
# Coordination Sequence:
#
# PCOD9120900 Si02
#       8
#     4   4   4   4   4   4   4   4
#     4  11  23  42  67  94 124 176 220 264 316 387
#     4  10  18  36  62  92 127 168 212 260 311 382
#     4  11  25  45  66  91 128 169 214 274 332 375
#     4  10  19  35  62  90 127 169 209 250 316 384
#     4  10  21  39  67  88 122 167 220 262 312 385
#     4  12  24  38  59  98 141 169 208 268 325 381
#     4  12  25  36  63  97 138 168 210 263 330 378
#     4  12  23  42  68  95 124 172 226 261 310 391
#
# _framework density 20.473625999999999
#
# number of rings (size 3 to 8) (size 9 to 14) (size 15 to 20)
#    0.000    1.000    3.750    6.375    0.000    1.000 
#    0.000    0.625    0.000    0.000    0.000    0.000 
#    0.000    0.000    0.000    0.000    0.000    0.000 
#
# Total GULP energy -89070.015555 kJ/mol
# GULP energy per Si atom -5566.875972 kJ/mol
# Density = 2.042703 g / cm^3
# Si number density = 20.473626 Si / 1000 Ang^3
#
#
#
# Elastic Constant Matrix: (Units=GPa)
#
#
# Indices 1 2 3 4 5 6 
#
# 1 46.5161 25.6377 8.9473 0.0002 10.1656 0.0003
# 2 25.6377 120.2368 36.3947 0.0009 17.7095 0.0013
# 3 8.9473 36.3947 54.9783 0.0004 18.3667 0.0007
# 4 0.0002 0.0009 0.0004 -65.1964 -0.0001 -159.4409
# 5 10.1656 17.7095 18.3667 -0.0001 27.2837 -0.0002
# 6 0.0003 0.0013 0.0007 -159.4409 -0.0002 -256.6027
#
#
#
# Elastic Compliance Matrix: (Units=1/GPa)
#
#
# Indices 1 2 3 4 5 6 
#
# 1 0.025467 -0.004796 0.001497 0.000000 -0.007383 0.000000
# 2 -0.004796 0.011464 -0.006347 0.000000 -0.001382 0.000000
# 3 0.001497 -0.006347 0.027037 0.000000 -0.014639 0.000000
# 4 0.000000 0.000000 0.000000 0.029522 0.000000 -0.018344
# 5 -0.007383 -0.001382 -0.014639 0.000000 0.050154 0.000000
# 6 0.000000 0.000000 0.000000 -0.018344 0.000000 0.007501
#
#
# Mechanical properties :
#
#
# Convention : Reuss Voigt Hill
#
# Bulk Modulus (GPa) = 22.38321 40.41007 31.39664
# Shear Modulus (GPa) = 26.97890 -48.85298 -10.93704
#
# Velocity S-wave (km/s) = 3.63401 -4.89011 -2.31379
# Velocity P-wave (km/s) = 5.34457 3.47905 2.86885
#
# Compressibility (1/GPa) = 0.04467635
#
# Stress axis : x y z
#
# Youngs Moduli (GPa) = 39.26681 87.22783 36.98575
#
# Poissons Ratio (x) = 0.41833 -0.05536
# Poissons Ratio (y) = 0.18832 0.23475
# Poissons Ratio (z) = -0.05877 0.55364
#
# Static dielectric constant tensor:
#      x y z
#    x 5.231660 0.000000 1.214520 
#    y 0.000000 1.744670 0.000000 
#    z 1.214520 0.000000 2.197410 
# 
# From -- ./inp_files/57670.got.cif
#   From: 2010.05.17/outbox.cif.g08.bks.cpg/sg5_29_cif.got.tgz:57670.got - 2010.06.03 18:56:24.
