data_PCOD9120733
_publ_section_title
;
Structure prediction by ZEFSAII (Michael W. Deem and Ramdas Pophale) SiO2 
 PCOD9120733
Probable space group: C 2
;
_chemical_formula_sum "Si O2"
_cell_formula_units_Z 30
_cell_length_a 16.297001
_cell_length_b 13.737121
_cell_length_c 10.150492
_cell_angle_alpha 90.000000
_cell_angle_beta 133.938237
_cell_angle_gamma 90.000000
_cell_volume 1636.350013
_symmetry_space_group_name_H-M "C 2"
_symmetry_group_IT_number 5
_symmetry_cell_setting 'monoclinic'
loop_
_space_group_symop_operation_xyz
x,y,z
-x,y,-z
1/2+x,1/2+y,z
1/2-x,1/2+y,-z
loop_
_atom_site_type_symbol
_atom_site_label
_atom_site_fract_x
_atom_site_fract_y
_atom_site_fract_z
Si Si1 0.599942 0.743510 0.519179
Si Si2 0.000000 0.667701 0.000000
Si Si3 0.670382 0.505262 0.947277
Si Si4 0.265563 0.072403 0.774116
Si Si5 0.018098 0.156724 0.170289
Si Si6 0.210984 0.994795 0.437834
Si Si7 0.016312 0.860056 0.165873
Si Si8 0.370005 0.968160 0.380492
O O1 0.500000 0.702047 0.500000
O O2 0.705130 0.673678 0.664961
O O3 0.554021 0.736905 0.318520
O O4 0.625364 0.851573 0.595332
O O5 0.896640 0.600101 0.926186
O O6 0.984764 0.744707 0.861660
O O7 0.713803 0.527676 0.848910
O O8 0.593968 0.597205 0.908694
O O9 0.584845 0.411426 0.864110
O O10 0.778858 0.491604 0.164271
O O11 0.244365 0.004560 0.625691
O O12 0.119874 0.077695 0.295275
O O13 0.000000 0.189536 0.000000
O O14 0.316369 0.005041 0.457241
O O15 0.140809 0.894929 0.345728
O O16 0.000000 0.902881 0.000000
O O17 0.500000 0.001251 0.500000
#
# Coordination Sequence:
#
# PCOD9120733 Si02
#       8
#     4   2   4   4   4   4   4   4
#     4  10  20  37  56  87 115 151 189 240 297 340
#     4  10  22  40  58  86 122 162 192 230 308 364
#     4  11  19  36  60  90 111 151 208 240 281 354
#     4  11  23  33  60  90 124 144 195 253 296 337
#     4  10  18  34  62  87 110 144 203 255 275 330
#     4  10  19  35  57  89 113 152 200 242 291 341
#     4   9  17  36  67  81 104 159 214 233 272 361
#     4  11  22  36  58  79 120 161 188 225 299 373
#
# _framework density 18.333485
#
# number of rings (size 3 to 8) (size 9 to 14) (size 15 to 20)
#    0.400    1.333    4.000    2.400    1.867    0.000 
#    0.000    2.667    0.000    1.600    0.000    0.000 
#    0.000    0.000    0.000    0.000    0.000    0.000 
#
# Total GULP energy -83589.688056 kJ/mol
# GULP energy per Si atom -5572.645870 kJ/mol
# Density = 1.829176 g / cm^3
# Si number density = 18.333485 Si / 1000 Ang^3
#
#
#
# Elastic Constant Matrix: (Units=GPa)
#
#
# Indices 1 2 3 4 5 6 
#
# 1 160.6842 21.0529 72.1726 0.0000 -3.1332 0.0000
# 2 21.0529 28.3053 25.3463 0.0000 -0.9274 0.0000
# 3 72.1726 25.3463 83.7164 0.0000 -18.3906 0.0000
# 4 0.0000 0.0000 0.0000 147.5858 0.0000 -34.4228
# 5 -3.1332 -0.9274 -18.3906 0.0000 39.5838 0.0000
# 6 0.0000 0.0000 0.0000 -34.4228 0.0000 23.2137
#
#
#
# Elastic Compliance Matrix: (Units=1/GPa)
#
#
# Indices 1 2 3 4 5 6 
#
# 1 0.010683 0.001312 -0.010485 0.000000 -0.003995 0.000000
# 2 0.001312 0.050097 -0.017839 0.000000 -0.007010 0.000000
# 3 -0.010485 -0.017839 0.029079 0.000000 0.012262 0.000000
# 4 0.000000 0.000000 0.000000 0.010358 0.000000 0.015360
# 5 -0.003995 -0.007010 0.012262 0.000000 0.030479 0.000000
# 6 0.000000 0.000000 0.000000 0.015360 0.000000 0.065855
#
#
# Mechanical properties :
#
#
# Convention : Reuss Voigt Hill
#
# Bulk Modulus (GPa) = 27.90479 56.64995 42.27737
# Shear Modulus (GPa) = 19.04624 52.35227 35.69925
#
# Velocity S-wave (km/s) = 3.22666 5.34954 4.41751
# Velocity P-wave (km/s) = 5.39773 8.31406 7.00924
#
# Compressibility (1/GPa) = 0.03583614
#
# Stress axis : x y z
#
# Youngs Moduli (GPa) = 93.60836 19.96109 34.38965
#
# Poissons Ratio (x) = -0.02619 0.36056
# Poissons Ratio (y) = -0.12281 0.61347
# Poissons Ratio (z) = 0.98144 0.35608
#
# Static dielectric constant tensor:
#      x y z
#    x 1.560010 0.000000 0.047790 
#    y 0.000000 1.633400 0.000000 
#    z 0.047790 0.000000 1.653830 
# 
# From -- ./inp_files/25106.got.cif
#   From: 2010.05.17/outbox.cif.g08.bks.cpg/sg5_13_cif.got.tgz:25106.got - 2010.06.03 18:56:24.
