data_PCOD9120402
_publ_section_title
;
Structure prediction by ZEFSAII (Michael W. Deem and Ramdas Pophale) SiO2 
 PCOD9120402
Probable space group: C 2
;
_chemical_formula_sum "Si O2"
_cell_formula_units_Z 32
_cell_length_a 12.169576
_cell_length_b 21.188549
_cell_length_c 8.589767
_cell_angle_alpha 90.000000
_cell_angle_beta 32.642575
_cell_angle_gamma 90.000000
_cell_volume 1194.720416
_symmetry_space_group_name_H-M "C 2"
_symmetry_group_IT_number 5
_symmetry_cell_setting 'monoclinic'
loop_
_space_group_symop_operation_xyz
x,y,z
-x,y,-z
1/2+x,1/2+y,z
1/2-x,1/2+y,-z
loop_
_atom_site_type_symbol
_atom_site_label
_atom_site_fract_x
_atom_site_fract_y
_atom_site_fract_z
Si Si1 0.077152 0.657140 0.074688
Si Si2 0.726629 0.300429 0.891940
Si Si3 0.779390 0.013947 0.244396
Si Si4 0.758615 0.022727 0.938231
Si Si5 0.259446 0.343695 0.463481
Si Si6 0.252773 0.784542 0.197988
Si Si7 0.235874 0.984611 0.409226
Si Si8 0.279733 0.153021 0.688289
O O1 0.198988 0.723679 0.919108
O O2 0.206809 0.597135 0.980438
O O3 0.000000 0.636696 0.000000
O O4 0.861059 0.669901 0.420555
O O5 0.815210 0.326412 0.622646
O O6 0.498104 0.327128 0.168364
O O7 0.807462 0.317508 0.969700
O O8 0.820475 0.087223 0.162003
O O9 0.682483 0.020074 0.532715
O O10 0.682416 0.993563 0.195308
O O11 0.000000 0.980534 0.000000
O O12 0.688948 0.990092 0.858865
O O13 0.002333 0.009611 0.666192
O O14 0.183550 0.306686 0.706941
O O15 0.246014 0.414672 0.542892
O O16 0.319339 0.711751 0.109817
O O17 0.000000 0.784837 0.500000
O O18 0.500000 0.144150 0.500000
#
# Coordination Sequence:
#
# PCOD9120402 Si02
#       8
#     4   4   4   4   4   4   4   4
#     4  12  19  34  56  84 119 137 193 241 298 342
#     4  10  18  28  49  81 105 139 168 242 301 322
#     4  10  21  36  53  77 115 157 186 226 285 350
#     4  10  22  35  52  75 114 160 181 234 280 349
#     4  10  19  30  48  77 111 140 181 233 287 334
#     4   9  16  28  47  77 107 137 165 231 300 316
#     4  10  23  36  49  77 119 152 195 219 283 358
#     4  11  17  33  54  82 115 139 189 237 286 347
#
# _framework density 26.784509
#
# number of rings (size 3 to 8) (size 9 to 14) (size 15 to 20)
#    0.000    1.750    6.250    0.750   10.500    0.000 
#    0.000    0.000    0.000    0.000    0.000    2.625 
#   26.250    0.250    0.000    0.000    0.000    0.000 
#
# Total GULP energy -89227.828648 kJ/mol
# GULP energy per Si atom -5576.739291 kJ/mol
# Density = 2.672355 g / cm^3
# Si number density = 26.784509 Si / 1000 Ang^3
#
#
#
# Elastic Constant Matrix: (Units=GPa)
#
#
# Indices 1 2 3 4 5 6 
#
# 1 218.9691 23.7404 60.5388 -0.0001 76.6348 0.0004
# 2 23.7404 128.5622 7.5665 0.0001 26.9245 -0.0002
# 3 60.5388 7.5665 159.3557 -0.0001 59.5088 0.0003
# 4 -0.0001 0.0001 -0.0001 22.0766 0.0002 35.4805
# 5 76.6348 26.9245 59.5088 0.0002 71.4691 -0.0005
# 6 0.0004 -0.0002 0.0003 35.4805 -0.0005 11.1315
#
#
#
# Elastic Compliance Matrix: (Units=1/GPa)
#
#
# Indices 1 2 3 4 5 6 
#
# 1 0.007330 0.000351 0.000266 0.000000 -0.008213 0.000000
# 2 0.000351 0.008607 0.001175 0.000000 -0.004597 0.000000
# 3 0.000266 0.001175 0.009274 0.000000 -0.008449 0.000000
# 4 0.000000 0.000000 0.000000 -0.010987 0.000001 0.035021
# 5 -0.008213 -0.004597 -0.008449 0.000001 0.031566 -0.000001
# 6 0.000000 0.000000 0.000000 0.035021 -0.000001 -0.021791
#
#
# Mechanical properties :
#
#
# Convention : Reuss Voigt Hill
#
# Bulk Modulus (GPa) = 34.73030 76.73094 55.73062
# Shear Modulus (GPa) = 166.59118 48.60487 107.59802
#
# Velocity S-wave (km/s) = 7.89505 4.26451 6.34499
# Velocity P-wave (km/s) = 9.80326 7.27721 8.63312
#
# Compressibility (1/GPa) = 0.02879330
#
# Stress axis : x y z
#
# Youngs Moduli (GPa) = 136.43117 116.18294 107.83056
#
# Poissons Ratio (x) = -0.04077 -0.02866
# Poissons Ratio (y) = -0.04787 -0.12666
# Poissons Ratio (z) = -0.03627 -0.13647
#
# Static dielectric constant tensor:
#      x y z
#    x 2.256840 0.000000 0.242230 
#    y 0.000000 2.106870 0.000000 
#    z 0.242230 0.000000 2.187690 
# 
# From -- ./inp_files/25422.got.cif
#   From: 2010.05.17/outbox.cif.g08.bks.cpg/sg5_13_cif.got.tgz:25422.got - 2010.06.03 18:56:24.
