data_PCOD9120880
_publ_section_title
;
Structure prediction by ZEFSAII (Michael W. Deem and Ramdas Pophale) SiO2 
 PCOD9120880
Probable space group: C 2
;
_chemical_formula_sum "Si O2"
_cell_formula_units_Z 30
_cell_length_a 13.809831
_cell_length_b 13.532549
_cell_length_c 9.379615
_cell_angle_alpha 90.000000
_cell_angle_beta 63.855092
_cell_angle_gamma 90.000000
_cell_volume 1573.532558
_symmetry_space_group_name_H-M "C 2"
_symmetry_group_IT_number 5
_symmetry_cell_setting 'monoclinic'
loop_
_space_group_symop_operation_xyz
x,y,z
-x,y,-z
1/2+x,1/2+y,z
1/2-x,1/2+y,-z
loop_
_atom_site_type_symbol
_atom_site_label
_atom_site_fract_x
_atom_site_fract_y
_atom_site_fract_z
Si Si1 0.128583 0.620260 0.378709
Si Si2 0.280503 0.913174 0.581911
Si Si3 0.730074 0.902314 0.880799
Si Si4 0.951438 0.402425 0.216516
Si Si5 0.795969 0.625242 0.999170
Si Si6 0.668721 0.792927 0.170643
Si Si7 0.876118 0.839383 0.535547
Si Si8 0.000000 0.589510 0.000000
O O1 0.197886 0.524742 0.379085
O O2 0.156267 0.723096 0.439983
O O3 0.000000 0.601379 0.500000
O O4 0.162567 0.636842 0.190486
O O5 0.369735 0.900676 0.400726
O O6 0.303992 0.836243 0.693388
O O7 0.166129 0.889257 0.581954
O O8 0.619424 0.867653 0.873189
O O9 0.816354 0.895694 0.701998
O O10 0.716306 0.009986 0.954922
O O11 0.753635 0.834323 0.999271
O O12 0.054370 0.339774 0.198738
O O13 0.981022 0.514526 0.146835
O O14 0.687878 0.678336 0.125930
O O15 0.896112 0.654327 0.035630
O O16 0.000000 0.841748 0.500000
#
# Coordination Sequence:
#
# PCOD9120880 Si02
#       8
#     4   4   4   4   4   4   4   2
#     4  11  21  39  65  92 120 157 214 259 307 353
#     4  11  23  37  64  95 122 155 210 269 297 349
#     4  10  20  41  62  87 123 164 202 246 306 369
#     4  10  19  37  65  87 122 159 198 251 313 353
#     4  11  22  34  63  93 124 161 205 257 301 370
#     4  12  20  36  59  97 124 151 201 260 307 357
#     4  10  24  43  64  85 127 171 202 244 318 376
#     4  10  18  36  60  90 116 162 206 250 308 346
#
# _framework density 19.065383000000001
#
# number of rings (size 3 to 8) (size 9 to 14) (size 15 to 20)
#    0.000    1.333    5.333    2.000    0.000    5.333 
#    0.000    4.000    0.000    0.800    0.000    0.000 
#    0.000    0.000    0.000    0.000    0.000    0.000 
#
# Total GULP energy -83516.527947 kJ/mol
# GULP energy per Si atom -5567.768530 kJ/mol
# Density = 1.902199 g / cm^3
# Si number density = 19.065383 Si / 1000 Ang^3
#
#
#
# Elastic Constant Matrix: (Units=GPa)
#
#
# Indices 1 2 3 4 5 6 
#
# 1 92.8889 40.7014 33.5434 0.0000 5.4006 0.0000
# 2 40.7014 61.0491 21.4294 0.0000 8.9821 0.0000
# 3 33.5434 21.4294 94.8903 0.0000 15.7491 0.0000
# 4 0.0000 0.0000 0.0000 20.3822 0.0000 -6.5296
# 5 5.4006 8.9821 15.7491 0.0000 18.5344 0.0000
# 6 0.0000 0.0000 0.0000 -6.5296 0.0000 29.7179
#
#
#
# Elastic Compliance Matrix: (Units=1/GPa)
#
#
# Indices 1 2 3 4 5 6 
#
# 1 0.016454 -0.010044 -0.004145 0.000000 0.003595 0.000000
# 2 -0.010044 0.024527 -0.000584 0.000000 -0.008463 0.000000
# 3 -0.004145 -0.000584 0.013840 0.000000 -0.010269 0.000000
# 4 0.000000 0.000000 0.000000 0.052777 0.000000 0.011596
# 5 0.003595 -0.008463 -0.010269 0.000000 0.065734 0.000000
# 6 0.000000 0.000000 0.000000 0.011596 0.000000 0.036198
#
#
# Mechanical properties :
#
#
# Convention : Reuss Voigt Hill
#
# Bulk Modulus (GPa) = 39.56390 48.90851 44.23621
# Shear Modulus (GPa) = 20.20197 23.93719 22.06958
#
# Velocity S-wave (km/s) = 3.25870 3.54719 3.40600
# Velocity P-wave (km/s) = 5.91233 6.51809 6.22258
#
# Compressibility (1/GPa) = 0.02527557
#
# Stress axis : x y z
#
# Youngs Moduli (GPa) = 60.77405 40.77175 72.25440
#
# Poissons Ratio (x) = 0.40952 0.29949
# Poissons Ratio (y) = 0.61042 0.04218
# Poissons Ratio (z) = 0.25191 0.02380
#
# Static dielectric constant tensor:
#      x y z
#    x 1.756090 0.000000 -0.022900 
#    y 0.000000 1.700790 0.000000 
#    z -0.022900 0.000000 1.692940 
# 
# From -- ./inp_files/20612.got.cif
#   From: 2010.05.17/outbox.cif.g08.bks.cpg/sg5_11_cif.got.tgz:20612.got - 2010.06.03 18:56:24.
