data_PCOD9120470
_publ_section_title
;
Structure prediction by ZEFSAII (Michael W. Deem and Ramdas Pophale) SiO2 
 PCOD9120470
Probable space group: C 2
;
_chemical_formula_sum "Si O2"
_cell_formula_units_Z 30
_cell_length_a 17.340287
_cell_length_b 14.046033
_cell_length_c 7.367580
_cell_angle_alpha 90.000000
_cell_angle_beta 125.839986
_cell_angle_gamma 90.000000
_cell_volume 1454.692162
_symmetry_space_group_name_H-M "C 2"
_symmetry_group_IT_number 5
_symmetry_cell_setting 'monoclinic'
loop_
_space_group_symop_operation_xyz
x,y,z
-x,y,-z
1/2+x,1/2+y,z
1/2-x,1/2+y,-z
loop_
_atom_site_type_symbol
_atom_site_label
_atom_site_fract_x
_atom_site_fract_y
_atom_site_fract_z
Si Si1 0.888124 0.506390 0.162792
Si Si2 0.731063 0.108978 0.535743
Si Si3 0.838215 0.257966 0.445963
Si Si4 0.404146 0.954659 0.618695
Si Si5 0.589961 0.641019 0.986130
Si Si6 0.286064 0.821749 0.982908
Si Si7 0.000000 0.128522 0.500000
Si Si8 0.389090 0.203867 0.328952
O O1 0.896741 0.474669 0.388706
O O2 0.813630 0.430331 0.983828
O O3 0.870425 0.619658 0.153660
O O4 0.987641 0.485351 0.199591
O O5 0.768004 0.186546 0.447487
O O6 0.822527 0.088841 0.790639
O O7 0.648325 0.157685 0.537847
O O8 0.678073 0.014931 0.397496
O O9 0.881973 0.344335 0.621135
O O10 0.791583 0.303254 0.205298
O O11 0.925134 0.194938 0.498099
O O12 0.500000 0.649925 0.000000
O O13 0.639032 0.743484 0.998813
O O14 0.556998 0.587881 0.754070
O O15 0.179517 0.793086 0.786745
O O16 0.500000 0.223067 0.500000
#
# Coordination Sequence:
#
# PCOD9120470 Si02
#       8
#     4   4   4   4   4   4   2   4
#     4   9  15  32  58  85 107 149 209 240 301 365
#     4  10  19  31  55  87 114 160 200 249 303 365
#     4  10  18  32  53  84 120 147 200 252 305 354
#     4   9  16  30  55  85 108 154 199 248 297 359
#     4  10  18  31  51  86 121 153 199 241 302 359
#     4   9  20  31  56  88 114 156 194 254 303 357
#     4  10  18  32  56  86 116 158 186 252 304 354
#     4  10  18  36  58  83 115 157 204 247 307 369
#
# _framework density 20.622921000000002
#
# number of rings (size 3 to 8) (size 9 to 14) (size 15 to 20)
#    0.000    2.400    4.000    2.400    0.000    0.000 
#    0.000    3.333    0.000    8.000   52.000    0.000 
#    0.000    0.000    0.000    0.000    0.000    0.000 
#
# Total GULP energy -83554.883742 kJ/mol
# GULP energy per Si atom -5570.325583 kJ/mol
# Density = 2.057598 g / cm^3
# Si number density = 20.622921 Si / 1000 Ang^3
#
#
#
# Elastic Constant Matrix: (Units=GPa)
#
#
# Indices 1 2 3 4 5 6 
#
# 1 140.6920 50.8138 37.9265 0.0000 24.0917 0.0000
# 2 50.8138 72.7253 28.5944 0.0000 12.2973 0.0000
# 3 37.9265 28.5944 76.3726 0.0000 14.7979 0.0000
# 4 0.0000 0.0000 0.0000 25.4669 0.0000 -3.5250
# 5 24.0917 12.2973 14.7979 0.0000 37.6041 0.0000
# 6 0.0000 0.0000 0.0000 -3.5250 0.0000 25.3364
#
#
#
# Elastic Compliance Matrix: (Units=1/GPa)
#
#
# Indices 1 2 3 4 5 6 
#
# 1 0.010476 -0.005756 -0.002286 0.000000 -0.003930 0.000000
# 2 -0.005756 0.019636 -0.004291 0.000000 -0.001045 0.000000
# 3 -0.002286 -0.004291 0.016541 0.000000 -0.003642 0.000000
# 4 0.000000 0.000000 0.000000 0.040038 0.000000 0.005570
# 5 -0.003930 -0.001045 -0.003642 0.000000 0.030885 0.000000
# 6 0.000000 0.000000 0.000000 0.005570 0.000000 0.040244
#
#
# Mechanical properties :
#
#
# Convention : Reuss Voigt Hill
#
# Bulk Modulus (GPa) = 45.48117 58.27326 51.87721
# Shear Modulus (GPa) = 26.34152 29.17849 27.76001
#
# Velocity S-wave (km/s) = 3.57780 3.76554 3.67287
# Velocity P-wave (km/s) = 6.25852 6.87194 6.57239
#
# Compressibility (1/GPa) = 0.02198712
#
# Stress axis : x y z
#
# Youngs Moduli (GPa) = 95.45820 50.92638 60.45637
#
# Poissons Ratio (x) = 0.29315 0.13818
# Poissons Ratio (y) = 0.54949 0.25941
# Poissons Ratio (z) = 0.21818 0.21852
#
# Static dielectric constant tensor:
#      x y z
#    x 1.717990 0.000000 -0.054220 
#    y 0.000000 1.808800 0.000000 
#    z -0.054220 0.000000 1.862770 
# 
# From -- ./inp_files/27632.got.cif
#   From: 2010.05.17/outbox.cif.g08.bks.cpg/sg5_14_cif.got.tgz:27632.got - 2010.06.03 18:56:24.
