data_PCOD9120393
_publ_section_title
;
Structure prediction by ZEFSAII (Michael W. Deem and Ramdas Pophale) SiO2 
 PCOD9120393
Probable space group: C 2
;
_chemical_formula_sum "Si O2"
_cell_formula_units_Z 24
_cell_length_a 7.341523
_cell_length_b 17.355075
_cell_length_c 8.011883
_cell_angle_alpha 90.000000
_cell_angle_beta 103.542064
_cell_angle_gamma 90.000000
_cell_volume 992.435069
_symmetry_space_group_name_H-M "C 2"
_symmetry_group_IT_number 5
_symmetry_cell_setting 'monoclinic'
loop_
_space_group_symop_operation_xyz
x,y,z
-x,y,-z
1/2+x,1/2+y,z
1/2-x,1/2+y,-z
loop_
_atom_site_type_symbol
_atom_site_label
_atom_site_fract_x
_atom_site_fract_y
_atom_site_fract_z
Si Si1 0.931384 0.497810 0.747019
Si Si2 0.802026 0.817794 0.660208
Si Si3 0.306246 0.485462 0.653099
Si Si4 0.000000 0.106416 0.500000
Si Si5 0.500000 0.708585 0.000000
Si Si6 0.210289 0.662781 0.210756
Si Si7 0.620140 0.831041 0.272442
O O1 0.818242 0.489812 0.545324
O O2 0.888982 0.580647 0.814698
O O3 0.870939 0.415713 0.809478
O O4 0.153065 0.499286 0.760737
O O5 0.894699 0.901861 0.700894
O O6 0.889746 0.744961 0.776363
O O7 0.765348 0.814913 0.453035
O O8 0.590803 0.827360 0.692560
O O9 0.453787 0.551701 0.646629
O O10 0.829419 0.158349 0.408972
O O11 0.645769 0.666733 0.911019
O O12 0.374424 0.763570 0.857905
#
# Coordination Sequence:
#
# PCOD9120393 Si02
#       7
#     4   4   4   2   2   4   4
#     4   8  15  29  48  69  95 124 155 191 231 275
#     4   8  14  28  49  68  90 118 156 194 230 277
#     4   8  15  29  49  72  94 120 153 188 233 286
#     4  10  18  30  50  74  96 120 152 194 236 276
#     4  10  18  28  44  70  96 126 164 194 224 270
#     4  10  18  29  48  74  97 121 156 199 232 265
#     4   8  14  27  47  68  90 126 160 185 226 288
#
# _framework density 24.182941
#
# number of rings (size 3 to 8) (size 9 to 14) (size 15 to 20)
#    0.000    3.333    0.000    4.000    0.000    0.000 
#    0.000    8.333    0.000    4.000    0.000   14.000 
#    0.000    0.000    0.000    0.000    0.000    0.000 
#
# Total GULP energy -66926.570499 kJ/mol
# GULP energy per Si atom -5577.214208 kJ/mol
# Density = 2.412790 g / cm^3
# Si number density = 24.182941 Si / 1000 Ang^3
#
#
#
# Elastic Constant Matrix: (Units=GPa)
#
#
# Indices 1 2 3 4 5 6 
#
# 1 44.1846 30.4370 14.5008 0.0000 -8.8969 0.0000
# 2 30.4370 192.6740 71.6099 0.0000 -32.4062 0.0000
# 3 14.5008 71.6099 73.6245 0.0000 -10.5448 0.0000
# 4 0.0000 0.0000 0.0000 -16.2862 0.0000 -29.8467
# 5 -8.8969 -32.4062 -10.5448 0.0000 23.1638 0.0000
# 6 0.0000 0.0000 0.0000 -29.8467 0.0000 15.3588
#
#
#
# Elastic Compliance Matrix: (Units=1/GPa)
#
#
# Indices 1 2 3 4 5 6 
#
# 1 0.026104 -0.002434 -0.001953 0.000000 0.005732 0.000000
# 2 -0.002434 0.010190 -0.008049 0.000000 0.009658 0.000000
# 3 -0.001953 -0.008049 0.021476 0.000000 -0.002234 0.000000
# 4 0.000000 0.000000 0.000000 -0.013461 0.000000 -0.026159
# 5 0.005732 0.009658 -0.002234 0.000000 0.057866 0.000000
# 6 0.000000 0.000000 0.000000 -0.026159 0.000000 0.014274
#
#
# Mechanical properties :
#
#
# Convention : Reuss Voigt Hill
#
# Bulk Modulus (GPa) = 30.39661 60.39761 45.39711
# Shear Modulus (GPa) = 32.83260 17.37630 25.10445
#
# Velocity S-wave (km/s) = 3.68866 2.68346 3.22546
# Velocity P-wave (km/s) = 5.54422 5.88479 5.71704
#
# Compressibility (1/GPa) = 0.03289840
#
# Stress axis : x y z
#
# Youngs Moduli (GPa) = 38.30828 98.13144 46.56375
#
# Poissons Ratio (x) = 0.23881 0.09096
# Poissons Ratio (y) = 0.09323 0.37479
# Poissons Ratio (z) = 0.07483 0.78987
#
# Static dielectric constant tensor:
#      x y z
#    x 2.006150 0.000000 0.010990 
#    y 0.000000 1.962530 0.000000 
#    z 0.010990 0.000000 1.977960 
# 
# From -- ./inp_files/15696.got.cif
#   From: 2010.05.17/outbox.cif.g08.bks.cpg/sg5_8_cif.got.tgz:15696.got - 2010.06.03 18:56:24.
