data_PCOD9120200
_publ_section_title
;
Structure prediction by ZEFSAII (Michael W. Deem and Ramdas Pophale) SiO2 
 PCOD9120200
Probable space group: C 2
;
_chemical_formula_sum "Si O2"
_cell_formula_units_Z 26
_cell_length_a 26.675535
_cell_length_b 8.048024
_cell_length_c 8.116179
_cell_angle_alpha 90.000000
_cell_angle_beta 36.429121
_cell_angle_gamma 90.000000
_cell_volume 1034.700404
_symmetry_space_group_name_H-M "C 2"
_symmetry_group_IT_number 5
_symmetry_cell_setting 'monoclinic'
loop_
_space_group_symop_operation_xyz
x,y,z
-x,y,-z
1/2+x,1/2+y,z
1/2-x,1/2+y,-z
loop_
_atom_site_type_symbol
_atom_site_label
_atom_site_fract_x
_atom_site_fract_y
_atom_site_fract_z
Si Si1 0.310884 0.748150 0.174386
Si Si2 0.680700 0.021762 0.627144
Si Si3 0.982998 0.170349 0.851761
Si Si4 0.047434 0.530161 0.547881
Si Si5 0.782596 0.360184 0.792525
Si Si6 0.358380 0.557082 0.715028
Si Si7 0.000000 0.607518 0.000000
O O1 0.219867 0.699048 0.485300
O O2 0.318121 0.943091 0.195981
O O3 0.383512 0.657939 0.088617
O O4 0.333879 0.678974 0.934302
O O5 0.731529 0.915943 0.357680
O O6 0.586193 0.012640 0.810643
O O7 0.009590 0.350022 0.705627
O O8 0.043303 0.048920 0.586140
O O9 0.000000 0.154650 0.000000
O O10 0.147584 0.484523 0.305219
O O11 0.000000 0.565935 0.500000
O O12 0.022133 0.666622 0.755302
O O13 0.818218 0.175407 0.683224
O O14 0.694411 0.390626 0.119250
#
# Coordination Sequence:
#
# PCOD9120200 Si02
#       7
#     4   4   4   4   4   4   2
#     4  11  21  37  60  90 114 158 199 247 298 361
#     4  10  22  37  60  85 125 147 201 252 297 350
#     4  11  19  33  54  83 115 149 200 247 286 350
#     4  10  17  31  55  81 110 145 197 241 283 345
#     4   9  20  36  53  85 116 150 192 249 296 346
#     4  10  21  35  59  82 118 153 197 245 295 358
#     4  10  18  36  56  84 116 154 192 250 286 352
#
# _framework density 25.128046000000001
#
# number of rings (size 3 to 8) (size 9 to 14) (size 15 to 20)
#    0.000    1.846    2.308    4.154    0.000    2.462 
#    0.000    0.000   11.846    0.000    0.000    0.000 
#    0.000    0.000    0.000    0.000    0.000    0.000 
#
# Total GULP energy -72375.538836 kJ/mol
# GULP energy per Si atom -5567.349141 kJ/mol
# Density = 2.507085 g / cm^3
# Si number density = 25.128046 Si / 1000 Ang^3
#
#
#
# Elastic Constant Matrix: (Units=GPa)
#
#
# Indices 1 2 3 4 5 6 
#
# 1 103.4441 -0.6305 14.0922 0.0000 22.5790 0.0000
# 2 -0.6305 26.7169 2.6499 0.0000 5.6687 0.0000
# 3 14.0922 2.6499 113.2392 0.0000 8.2913 0.0000
# 4 0.0000 0.0000 0.0000 28.7152 0.0000 1.8323
# 5 22.5790 5.6687 8.2913 0.0000 26.8435 0.0000
# 6 0.0000 0.0000 0.0000 1.8323 0.0000 8.0075
#
#
#
# Elastic Compliance Matrix: (Units=1/GPa)
#
#
# Indices 1 2 3 4 5 6 
#
# 1 0.012073 0.002582 -0.000797 0.000000 -0.010454 0.000000
# 2 0.002582 0.039749 -0.000489 0.000000 -0.010415 0.000000
# 3 -0.000797 -0.000489 0.009090 0.000000 -0.002034 0.000000
# 4 0.000000 0.000000 0.000000 0.035341 0.000000 -0.008087
# 5 -0.010454 -0.010415 -0.002034 0.000000 0.048874 0.000000
# 6 0.000000 0.000000 0.000000 -0.008087 0.000000 0.126734
#
#
# Mechanical properties :
#
#
# Convention : Reuss Voigt Hill
#
# Bulk Modulus (GPa) = 15.74698 30.62482 23.18590
# Shear Modulus (GPa) = 17.21539 27.86581 22.54060
#
# Velocity S-wave (km/s) = 2.62029 3.33371 2.99829
# Velocity P-wave (km/s) = 3.92873 5.19924 4.60798
#
# Compressibility (1/GPa) = 0.06350422
#
# Stress axis : x y z
#
# Youngs Moduli (GPa) = 82.82724 25.15798 110.00547
#
# Poissons Ratio (x) = -0.06496 0.08772
# Poissons Ratio (y) = -0.21387 0.05378
# Poissons Ratio (z) = 0.06605 0.01230
#
# Static dielectric constant tensor:
#      x y z
#    x 2.052310 0.000000 0.056160 
#    y 0.000000 2.108100 0.000000 
#    z 0.056160 0.000000 2.076970 
# 
# From -- ./inp_files/31906.got.cif
#   From: 2010.05.17/outbox.cif.g08.bks.cpg/sg5_16_cif.got.tgz:31906.got - 2010.06.03 18:56:24.
