data_PCOD9120318
_publ_section_title
;
Structure prediction by ZEFSAII (Michael W. Deem and Ramdas Pophale) SiO2 
 PCOD9120318
Probable space group: C 2
;
_chemical_formula_sum "Si O2"
_cell_formula_units_Z 32
_cell_length_a 22.594709
_cell_length_b 7.923219
_cell_length_c 20.118591
_cell_angle_alpha 90.000000
_cell_angle_beta 23.842456
_cell_angle_gamma 90.000000
_cell_volume 1455.885349
_symmetry_space_group_name_H-M "C 2"
_symmetry_group_IT_number 5
_symmetry_cell_setting 'monoclinic'
loop_
_space_group_symop_operation_xyz
x,y,z
-x,y,-z
1/2+x,1/2+y,z
1/2-x,1/2+y,-z
loop_
_atom_site_type_symbol
_atom_site_label
_atom_site_fract_x
_atom_site_fract_y
_atom_site_fract_z
Si Si1 0.020986 0.267680 0.296016
Si Si2 0.539319 0.656708 0.136758
Si Si3 0.244025 0.926619 0.854942
Si Si4 0.728046 0.438908 0.582201
Si Si5 0.155478 0.924945 0.506090
Si Si6 0.071381 0.338774 0.861987
Si Si7 0.716063 0.471773 0.738316
Si Si8 0.003945 0.678604 0.425512
O O1 0.093616 0.224031 0.150767
O O2 0.143201 0.302326 0.225273
O O3 0.904342 0.419572 0.402412
O O4 0.578403 0.606696 0.584594
O O5 0.364937 0.613459 0.321078
O O6 0.550776 0.792933 0.066982
O O7 0.615590 0.484160 0.035761
O O8 0.191129 0.884056 0.834736
O O9 0.340275 0.096912 0.747145
O O10 0.681169 0.376486 0.557263
O O11 0.685373 0.374691 0.700720
O O12 0.299867 0.928972 0.311208
O O13 0.050774 0.791073 0.578180
O O14 0.133859 0.153769 0.821303
O O15 0.000000 0.421464 0.000000
O O16 0.886536 0.527440 0.557958
O O17 0.000000 0.775837 0.500000
#
# Coordination Sequence:
#
# PCOD9120318 Si02
#       8
#     4   4   4   4   4   4   4   4
#     4  11  23  39  61  93 127 170 200 255 325 384
#     4  10  22  37  62  96 120 158 214 265 315 361
#     4  11  21  38  65  91 127 159 211 263 308 379
#     4  10  20  37  61  86 119 162 214 254 305 375
#     4  10  22  38  62  90 126 162 211 260 316 379
#     4  10  17  35  67  91 119 155 216 274 304 361
#     4   9  18  34  62  93 109 163 219 255 298 366
#     4   9  19  36  59  87 119 167 209 245 303 384
#
# _framework density 21.979752999999999
#
# number of rings (size 3 to 8) (size 9 to 14) (size 15 to 20)
#    0.000    2.000    3.750    0.000    1.750    2.000 
#    2.250    0.000    5.500    0.000    0.000    0.000 
#    0.000    0.000    0.000    0.000    0.000    0.000 
#
# Total GULP energy -89098.565122 kJ/mol
# GULP energy per Si atom -5568.660320 kJ/mol
# Density = 2.192973 g / cm^3
# Si number density = 21.979753 Si / 1000 Ang^3
#
#
#
# Elastic Constant Matrix: (Units=GPa)
#
#
# Indices 1 2 3 4 5 6 
#
# 1 192.6043 37.2602 48.1227 0.0003 48.0245 -0.0001
# 2 37.2602 39.1593 22.7735 0.0006 7.4258 -0.0002
# 3 48.1227 22.7735 90.1321 0.0007 19.8800 -0.0002
# 4 0.0003 0.0006 0.0007 25.0796 -0.0003 -2.7947
# 5 48.0245 7.4258 19.8800 -0.0003 40.4904 0.0001
# 6 -0.0001 -0.0002 -0.0002 -2.7947 0.0001 25.1077
#
#
#
# Elastic Compliance Matrix: (Units=1/GPa)
#
#
# Indices 1 2 3 4 5 6 
#
# 1 0.008868 -0.006031 -0.001273 0.000000 -0.008787 0.000000
# 2 -0.006031 0.034182 -0.006293 0.000000 0.003974 0.000000
# 3 -0.001273 -0.006293 0.014329 0.000000 -0.004372 0.000000
# 4 0.000000 0.000000 0.000000 0.040374 0.000001 0.004494
# 5 -0.008787 0.003974 -0.004372 0.000001 0.036536 0.000000
# 6 0.000000 0.000000 0.000000 0.004494 0.000000 0.040329
#
#
# Mechanical properties :
#
#
# Convention : Reuss Voigt Hill
#
# Bulk Modulus (GPa) = 33.13021 59.80094 46.46557
# Shear Modulus (GPa) = 23.59920 32.38484 27.99202
#
# Velocity S-wave (km/s) = 3.28026 3.84265 3.57254
# Velocity P-wave (km/s) = 5.42702 6.85232 6.18089
#
# Compressibility (1/GPa) = 0.03018393
#
# Stress axis : x y z
#
# Youngs Moduli (GPa) = 112.76966 29.25553 69.79082
#
# Poissons Ratio (x) = 0.17645 0.08882
# Poissons Ratio (y) = 0.68014 0.43920
# Poissons Ratio (z) = 0.14351 0.18411
#
# Static dielectric constant tensor:
#      x y z
#    x 1.881040 0.000000 0.026650 
#    y 0.000000 1.827420 0.000000 
#    z 0.026650 0.000000 1.875830 
# 
# From -- ./inp_files/62832.got.cif
#   From: 2010.05.17/outbox.cif.g08.bks.cpg/sg5_32_cif.got.tgz:62832.got - 2010.06.03 18:56:24.
