data_PCOD9120773
_publ_section_title
;
Structure prediction by ZEFSAII (Michael W. Deem and Ramdas Pophale) SiO2 
 PCOD9120773
Probable space group: C 2
;
_chemical_formula_sum "Si O2"
_cell_formula_units_Z 32
_cell_length_a 7.706406
_cell_length_b 18.666161
_cell_length_c 11.537386
_cell_angle_alpha 90.000000
_cell_angle_beta 89.334950
_cell_angle_gamma 90.000000
_cell_volume 1659.529813
_symmetry_space_group_name_H-M "C 2"
_symmetry_group_IT_number 5
_symmetry_cell_setting 'monoclinic'
loop_
_space_group_symop_operation_xyz
x,y,z
-x,y,-z
1/2+x,1/2+y,z
1/2-x,1/2+y,-z
loop_
_atom_site_type_symbol
_atom_site_label
_atom_site_fract_x
_atom_site_fract_y
_atom_site_fract_z
Si Si1 0.341761 0.702780 0.142590
Si Si2 0.781555 0.650784 0.380546
Si Si3 0.794801 0.346442 0.012086
Si Si4 0.106271 0.981740 0.119399
Si Si5 0.256025 0.744218 0.822970
Si Si6 0.179590 0.610228 0.954796
Si Si7 0.674038 0.130644 0.356784
Si Si8 0.014047 0.028100 0.634584
O O1 0.268119 0.773901 0.084693
O O2 0.546420 0.718482 0.150294
O O3 0.250079 0.684847 0.262486
O O4 0.298929 0.635716 0.060527
O O5 0.764108 0.725326 0.311109
O O6 0.792744 0.662781 0.516870
O O7 0.621769 0.595860 0.361374
O O8 0.969080 0.617368 0.345085
O O9 0.706575 0.409882 0.082413
O O10 0.730342 0.321148 0.883793
O O11 0.000000 0.361074 0.000000
O O12 0.227856 0.051476 0.122150
O O13 0.023198 0.980679 0.249432
O O14 0.000000 0.993547 0.000000
O O15 0.140514 0.683396 0.886010
O O16 0.000000 0.579124 0.000000
O O17 0.793115 0.060029 0.350356
O O18 0.000000 0.999898 0.500000
#
# Coordination Sequence:
#
# PCOD9120773 Si02
#       8
#     4   4   4   4   4   4   4   4
#     4  10  19  34  57  82 116 149 189 243 296 345
#     4  10  19  32  56  91 118 150 190 239 298 352
#     4   9  22  39  56  80 116 157 196 242 295 349
#     4  12  23  37  56  83 117 155 201 243 296 354
#     4  10  18  35  56  81 114 150 187 239 296 347
#     4  11  20  30  53  85 112 143 187 240 291 346
#     4  10  19  32  56  90 119 146 192 243 288 356
#     4  10  21  39  60  87 123 156 191 245 302 347
#
# _framework density 19.282568000000001
#
# number of rings (size 3 to 8) (size 9 to 14) (size 15 to 20)
#    0.000    1.750    2.500    3.750    0.000    3.000 
#    2.250    0.000    5.500    0.000    0.000    0.000 
#    0.000    0.000    0.000    0.000    0.000    0.000 
#
# Total GULP energy -89132.066470 kJ/mol
# GULP energy per Si atom -5570.754154 kJ/mol
# Density = 1.923868 g / cm^3
# Si number density = 19.282568 Si / 1000 Ang^3
#
#
#
# Elastic Constant Matrix: (Units=GPa)
#
#
# Indices 1 2 3 4 5 6 
#
# 1 63.5050 15.0945 33.2581 0.0000 -8.5381 0.0000
# 2 15.0945 68.6086 45.6842 0.0000 -7.3628 0.0000
# 3 33.2581 45.6842 144.6934 0.0000 -20.5674 0.0000
# 4 0.0000 0.0000 0.0000 25.8163 0.0000 -11.4434
# 5 -8.5381 -7.3628 -20.5674 0.0000 28.8510 0.0000
# 6 0.0000 0.0000 0.0000 -11.4434 0.0000 21.4535
#
#
#
# Elastic Compliance Matrix: (Units=1/GPa)
#
#
# Indices 1 2 3 4 5 6 
#
# 1 0.018204 -0.001501 -0.003337 0.000000 0.002625 0.000000
# 2 -0.001501 0.018589 -0.005467 0.000000 0.000402 0.000000
# 3 -0.003337 -0.005467 0.010088 0.000000 0.004809 0.000000
# 4 0.000000 0.000000 0.000000 0.050730 0.000000 0.027059
# 5 0.002625 0.000402 0.004809 0.000000 0.038969 0.000000
# 6 0.000000 0.000000 0.000000 0.027059 0.000000 0.061046
#
#
# Mechanical properties :
#
#
# Convention : Reuss Voigt Hill
#
# Bulk Modulus (GPa) = 38.06537 51.65340 44.85938
# Shear Modulus (GPa) = 22.02712 27.40883 24.71798
#
# Velocity S-wave (km/s) = 3.38351 3.77428 3.58422
# Velocity P-wave (km/s) = 5.92012 6.77047 6.35953
#
# Compressibility (1/GPa) = 0.02627060
#
# Stress axis : x y z
#
# Youngs Moduli (GPa) = 54.93221 53.79492 99.12966
#
# Poissons Ratio (x) = 0.08076 0.33081
# Poissons Ratio (y) = 0.08247 0.54193
# Poissons Ratio (z) = 0.18332 0.29409
#
# Static dielectric constant tensor:
#      x y z
#    x 1.747050 0.000000 0.020640 
#    y 0.000000 1.648170 0.000000 
#    z 0.020640 0.000000 1.743160 
# 
# From -- ./inp_files/36842.got.cif
#   From: 2010.05.17/outbox.cif.g08.bks.cpg/sg5_19_cif.got.tgz:36842.got - 2010.06.03 18:56:24.
