data_PCOD9120669
_publ_section_title
;
Structure prediction by ZEFSAII (Michael W. Deem and Ramdas Pophale) SiO2 
 PCOD9120669
Probable space group: C 2
;
_chemical_formula_sum "Si O2"
_cell_formula_units_Z 28
_cell_length_a 8.997831
_cell_length_b 12.578353
_cell_length_c 17.268909
_cell_angle_alpha 90.000000
_cell_angle_beta 144.608731
_cell_angle_gamma 90.000000
_cell_volume 1131.938381
_symmetry_space_group_name_H-M "C 2"
_symmetry_group_IT_number 5
_symmetry_cell_setting 'monoclinic'
loop_
_space_group_symop_operation_xyz
x,y,z
-x,y,-z
1/2+x,1/2+y,z
1/2-x,1/2+y,-z
loop_
_atom_site_type_symbol
_atom_site_label
_atom_site_fract_x
_atom_site_fract_y
_atom_site_fract_z
Si Si1 0.500000 0.211170 0.500000
Si Si2 0.261876 0.963119 0.838712
Si Si3 0.205113 0.665545 0.243427
Si Si4 0.239654 0.521373 0.686070
Si Si5 0.968535 0.392504 0.179188
Si Si6 0.124904 0.349711 0.414684
Si Si7 0.242591 0.606778 0.859938
Si Si8 0.000000 0.739101 0.000000
O O1 0.707860 0.128406 0.622236
O O2 0.388666 0.283825 0.522185
O O3 0.195195 0.050054 0.741520
O O4 0.994583 0.956340 0.770519
O O5 0.369723 0.871561 0.828941
O O6 0.500000 0.984605 0.000000
O O7 0.415196 0.756670 0.337312
O O8 0.024579 0.667384 0.241639
O O9 0.023494 0.684335 0.092289
O O10 0.277407 0.562828 0.789186
O O11 0.982342 0.447111 0.579265
O O12 0.810585 0.503038 0.107881
O O13 0.118013 0.394858 0.323697
O O14 0.757179 0.304777 0.102030
O O15 0.500000 0.660669 0.000000
#
# Coordination Sequence:
#
# PCOD9120669 Si02
#       8
#     2   4   4   4   4   4   4   2
#     4  12  26  52  76  94 140 192 242 308 352 402
#     4  11  21  37  67 104 142 186 223 281 357 434
#     4  10  20  37  61  93 138 174 227 276 346 413
#     4  11  25  47  71 103 138 182 242 288 356 423
#     4   9  20  36  64  90 136 179 225 279 347 412
#     4  10  24  47  68  94 132 182 237 300 351 410
#     4  10  20  38  65 100 138 181 218 280 350 434
#     4  10  18  34  56  94 134 184 220 274 330 422
#
# _framework density 24.736328
#
# number of rings (size 3 to 8) (size 9 to 14) (size 15 to 20)
#    0.000    1.714    2.857    1.714    4.000    1.143 
#   10.286    0.000    0.000    0.000    0.000    0.000 
#    0.000    0.000    0.000    0.000    0.000    0.000 
#
# Total GULP energy -78087.255468 kJ/mol
# GULP energy per Si atom -5577.661105 kJ/mol
# Density = 2.468003 g / cm^3
# Si number density = 24.736328 Si / 1000 Ang^3
#
#
#
# Elastic Constant Matrix: (Units=GPa)
#
#
# Indices 1 2 3 4 5 6 
#
# 1 189.7835 25.7211 27.9965 0.0001 15.5793 0.0000
# 2 25.7211 50.9662 7.4974 0.0003 9.1643 0.0004
# 3 27.9965 7.4974 39.2069 -0.0008 11.5949 -0.0009
# 4 0.0001 0.0003 -0.0008 156.3570 -0.0001 166.6921
# 5 15.5793 9.1643 11.5949 -0.0001 31.3869 -0.0002
# 6 0.0000 0.0004 -0.0009 166.6921 -0.0002 222.0005
#
#
#
# Elastic Compliance Matrix: (Units=1/GPa)
#
#
# Indices 1 2 3 4 5 6 
#
# 1 0.006223 -0.002415 -0.003679 0.000000 -0.001025 0.000000
# 2 -0.002415 0.021855 -0.001035 0.000000 -0.004800 0.000000
# 3 -0.003679 -0.001035 0.031099 0.000000 -0.009360 0.000000
# 4 0.000000 0.000000 0.000000 0.032058 0.000000 -0.024071
# 5 -0.001025 -0.004800 -0.009360 0.000000 0.037228 0.000000
# 6 0.000000 0.000000 0.000000 -0.024071 0.000000 0.022578
#
#
# Mechanical properties :
#
#
# Convention : Reuss Voigt Hill
#
# Bulk Modulus (GPa) = 22.26244 44.70964 33.48604
# Shear Modulus (GPa) = 27.73567 96.53166 62.13367
#
# Velocity S-wave (km/s) = 3.35214 6.25372 5.01726
# Velocity P-wave (km/s) = 4.89918 8.38206 6.86516
#
# Compressibility (1/GPa) = 0.04491870
#
# Stress axis : x y z
#
# Youngs Moduli (GPa) = 160.68545 45.75582 32.15551
#
# Poissons Ratio (x) = 0.11051 0.11830
# Poissons Ratio (y) = 0.38810 0.03328
# Poissons Ratio (z) = 0.59116 0.04736
#
# Static dielectric constant tensor:
#      x y z
#    x 0.582420 0.000000 0.545230 
#    y 0.000000 2.071780 0.000000 
#    z 0.545230 0.000000 1.785890 
# 
# From -- ./inp_files/50998.got.cif
#   From: 2010.05.17/outbox.cif.g08.bks.cpg/sg5_26_cif.got.tgz:50998.got - 2010.06.03 18:56:24.
