data_PCOD9120001
_publ_section_title
;
Structure prediction by ZEFSAII (Michael W. Deem and Ramdas Pophale) SiO2 
 PCOD9120001
Probable space group: C 2
;
_chemical_formula_sum "Si O2"
_cell_formula_units_Z 30
_cell_length_a 15.290706
_cell_length_b 12.309131
_cell_length_c 11.929472
_cell_angle_alpha 90.000000
_cell_angle_beta 49.569323
_cell_angle_gamma 90.000000
_cell_volume 1709.109564
_symmetry_space_group_name_H-M "C 2"
_symmetry_group_IT_number 5
_symmetry_cell_setting 'monoclinic'
loop_
_space_group_symop_operation_xyz
x,y,z
-x,y,-z
1/2+x,1/2+y,z
1/2-x,1/2+y,-z
loop_
_atom_site_type_symbol
_atom_site_label
_atom_site_fract_x
_atom_site_fract_y
_atom_site_fract_z
Si Si1 0.894087 0.024700 0.668632
Si Si2 0.053232 0.308243 0.838186
Si Si3 0.307548 0.382465 0.376344
Si Si4 0.070801 0.482870 0.644048
Si Si5 0.760684 0.641433 0.370283
Si Si6 0.827793 0.810931 0.612752
Si Si7 0.500000 0.116164 0.500000
Si Si8 0.943368 0.086799 0.278239
O O1 0.787597 0.089505 0.703860
O O2 0.000000 0.054893 0.500000
O O3 0.942718 0.053468 0.748674
O O4 0.872410 0.897470 0.665917
O O5 0.018662 0.390929 0.767679
O O6 0.191197 0.307575 0.733475
O O7 0.024778 0.185484 0.827993
O O8 0.000000 0.340840 0.000000
O O9 0.177603 0.426538 0.490958
O O10 0.299639 0.265455 0.326114
O O11 0.349447 0.359479 0.470089
O O12 0.387787 0.480032 0.268006
O O13 0.133661 0.571325 0.670530
O O14 0.993292 0.541772 0.616206
O O15 0.658220 0.629331 0.550242
O O16 0.891303 0.696649 0.574202
#
# Coordination Sequence:
#
# PCOD9120001 Si02
#       8
#     4   4   4   4   4   4   2   4
#     4  10  17  27  52  84 112 135 167 220 280 335
#     4  11  23  41  56  70 111 164 193 205 258 348
#     4  10  16  31  51  79 115 133 171 227 287 334
#     4  10  20  31  51  86 110 142 176 225 286 323
#     4  10  16  30  52  82 115 135 166 227 293 326
#     4  11  17  33  55  85 111 146 173 217 287 334
#     4  12  20  30  58  94 118 124 174 256 292 310
#     4  10  18  31  51  81 103 139 187 222 268 321
#
# _framework density 17.552999
#
# number of rings (size 3 to 8) (size 9 to 14) (size 15 to 20)
#    0.000    1.600   10.000    0.800    0.000    1.067 
#    0.000    1.333    0.000    0.800    0.000    0.000 
#    0.000    0.000    0.000    0.000    0.000    0.000 
#
# Total GULP energy -83595.329401 kJ/mol
# GULP energy per Si atom -5573.021960 kJ/mol
# Density = 1.751305 g / cm^3
# Si number density = 17.552999 Si / 1000 Ang^3
#
#
#
# Elastic Constant Matrix: (Units=GPa)
#
#
# Indices 1 2 3 4 5 6 
#
# 1 60.2782 27.0520 11.6535 0.0000 6.0043 0.0000
# 2 27.0520 123.1236 16.3372 0.0000 9.7278 0.0000
# 3 11.6535 16.3372 20.6135 0.0000 7.1406 0.0000
# 4 0.0000 0.0000 0.0000 6.8029 0.0000 3.9240
# 5 6.0043 9.7278 7.1406 0.0000 7.3213 0.0000
# 6 0.0000 0.0000 0.0000 3.9240 0.0000 44.3600
#
#
#
# Elastic Compliance Matrix: (Units=1/GPa)
#
#
# Indices 1 2 3 4 5 6 
#
# 1 0.019824 -0.003002 -0.006914 0.000000 -0.005527 0.000000
# 2 -0.003002 0.009821 -0.003654 0.000000 -0.007024 0.000000
# 3 -0.006914 -0.003654 0.078035 0.000000 -0.065585 0.000000
# 4 0.000000 0.000000 0.000000 0.154899 0.000000 -0.013702
# 5 -0.005527 -0.007024 -0.065585 0.000000 0.214420 0.000000
# 6 0.000000 0.000000 0.000000 -0.013702 0.000000 0.023755
#
#
# Mechanical properties :
#
#
# Convention : Reuss Voigt Hill
#
# Bulk Modulus (GPa) = 12.41580 34.90007 23.65794
# Shear Modulus (GPa) = 9.01322 21.62834 15.32078
#
# Velocity S-wave (km/s) = 2.26848 3.51404 2.95757
# Velocity P-wave (km/s) = 3.73497 6.03245 5.01700
#
# Compressibility (1/GPa) = 0.08054251
#
# Stress axis : x y z
#
# Youngs Moduli (GPa) = 50.44402 101.82080 12.81468
#
# Poissons Ratio (x) = 0.30562 0.08860
# Poissons Ratio (y) = 0.15141 0.04682
# Poissons Ratio (z) = 0.34876 0.37202
#
# Static dielectric constant tensor:
#      x y z
#    x 1.621800 0.000000 -0.005040 
#    y 0.000000 1.634120 0.000000 
#    z -0.005040 0.000000 1.581190 
# 
# From -- ./inp_files/42443.got.cif
#   From: 2010.05.17/outbox.cif.g08.bks.cpg/sg5_22_cif.got.tgz:42443.got - 2010.06.03 18:56:24.
