data_PCOD9120014
_publ_section_title
;
Structure prediction by ZEFSAII (Michael W. Deem and Ramdas Pophale) SiO2 
 PCOD9120014
Probable space group: C 2
;
_chemical_formula_sum "Si O2"
_cell_formula_units_Z 26
_cell_length_a 7.836407
_cell_length_b 18.343421
_cell_length_c 9.034169
_cell_angle_alpha 90.000000
_cell_angle_beta 132.062257
_cell_angle_gamma 90.000000
_cell_volume 964.125614
_symmetry_space_group_name_H-M "C 2"
_symmetry_group_IT_number 5
_symmetry_cell_setting 'monoclinic'
loop_
_space_group_symop_operation_xyz
x,y,z
-x,y,-z
1/2+x,1/2+y,z
1/2-x,1/2+y,-z
loop_
_atom_site_type_symbol
_atom_site_label
_atom_site_fract_x
_atom_site_fract_y
_atom_site_fract_z
Si Si1 0.000000 0.848351 0.000000
Si Si2 0.874210 0.417565 0.684209
Si Si3 0.596848 0.598894 0.272125
Si Si4 0.994058 0.736862 0.750063
Si Si5 0.129757 0.257832 0.271857
Si Si6 0.956909 0.946067 0.241030
Si Si7 0.523198 0.077790 0.746723
O O1 0.908878 0.791273 0.825611
O O2 0.103066 0.906246 0.943948
O O3 0.979951 0.336236 0.754592
O O4 0.721655 0.428471 0.445346
O O5 0.695943 0.416169 0.716193
O O6 0.999670 0.494597 0.782907
O O7 0.500770 0.680544 0.212799
O O8 0.428963 0.532959 0.211286
O O9 0.801053 0.589528 0.510819
O O10 0.739030 0.583856 0.205306
O O11 0.821802 0.747206 0.511793
O O12 0.006185 0.654826 0.819828
O O13 0.238513 0.756283 0.811117
#
# Coordination Sequence:
#
# PCOD9120014 Si02
#       7
#     2   4   4   4   4   4   4
#     4  12  18  28  48  76 104 124 170 200 236 282
#     4  10  16  31  53  76  96 124 169 203 241 284
#     4   8  16  30  50  74 101 124 161 202 249 286
#     4   9  16  28  47  74  94 128 164 203 230 286
#     4   9  14  30  52  70  92 126 169 198 238 287
#     4  10  19  29  50  76 101 129 160 204 242 288
#     4   8  16  29  52  73  98 125 161 208 246 282
#
# _framework density 26.967441000000001
#
# number of rings (size 3 to 8) (size 9 to 14) (size 15 to 20)
#    0.000    2.769    3.077    2.769    0.000    0.000 
#    0.000    3.077    3.385    3.692    0.000    0.000 
#    0.000    0.000    0.000    0.000    0.000    0.000 
#
# Total GULP energy -72602.604521 kJ/mol
# GULP energy per Si atom -5584.815732 kJ/mol
# Density = 2.690606 g / cm^3
# Si number density = 26.967441 Si / 1000 Ang^3
#
#
#
# Elastic Constant Matrix: (Units=GPa)
#
#
# Indices 1 2 3 4 5 6 
#
# 1 45.8896 56.0853 44.2783 0.0000 9.5403 0.0000
# 2 56.0853 327.7864 52.1299 0.0000 -2.9364 0.0000
# 3 44.2783 52.1299 107.3777 0.0000 -3.8071 0.0000
# 4 0.0000 0.0000 0.0000 41.3573 0.0000 -6.0554
# 5 9.5403 -2.9364 -3.8071 0.0000 32.1081 0.0000
# 6 0.0000 0.0000 0.0000 -6.0554 0.0000 37.5528
#
#
#
# Elastic Compliance Matrix: (Units=1/GPa)
#
#
# Indices 1 2 3 4 5 6 
#
# 1 0.050690 -0.005861 -0.018689 0.000000 -0.017814 0.000000
# 2 -0.005861 0.003984 0.000560 0.000000 0.002172 0.000000
# 3 -0.018689 0.000560 0.017018 0.000000 0.007622 0.000000
# 4 0.000000 0.000000 0.000000 0.024764 0.000000 0.003993
# 5 -0.017814 0.002172 0.007622 0.000000 0.037540 0.000000
# 6 0.000000 0.000000 0.000000 0.003993 0.000000 0.027273
#
#
# Mechanical properties :
#
#
# Convention : Reuss Voigt Hill
#
# Bulk Modulus (GPa) = 42.17231 87.33786 64.75509
# Shear Modulus (GPa) = 23.02508 44.10765 33.56637
#
# Velocity S-wave (km/s) = 2.92517 4.04863 3.53186
# Velocity P-wave (km/s) = 5.20394 7.36966 6.37938
#
# Compressibility (1/GPa) = 0.02371224
#
# Stress axis : x y z
#
# Youngs Moduli (GPa) = 19.72759 251.00339 58.76073
#
# Poissons Ratio (x) = 1.47104 1.09818
# Poissons Ratio (y) = 0.11562 -0.03288
# Poissons Ratio (z) = 0.36869 -0.14045
#
# Static dielectric constant tensor:
#      x y z
#    x 2.143370 0.000000 0.087660 
#    y 0.000000 2.085260 0.000000 
#    z 0.087660 0.000000 2.121000 
# 
# From -- ./inp_files/21041.got.cif
#   From: 2010.05.17/outbox.cif.g08.bks.cpg/sg5_11_cif.got.tgz:21041.got - 2010.06.03 18:56:24.
