data_PCOD9120650
_publ_section_title
;
Structure prediction by ZEFSAII (Michael W. Deem and Ramdas Pophale) SiO2 
 PCOD9120650
Probable space group: C 2
;
_chemical_formula_sum "Si O2"
_cell_formula_units_Z 24
_cell_length_a 18.852873
_cell_length_b 5.386869
_cell_length_c 8.932579
_cell_angle_alpha 90.000000
_cell_angle_beta 73.498095
_cell_angle_gamma 90.000000
_cell_volume 869.808223
_symmetry_space_group_name_H-M "C 2"
_symmetry_group_IT_number 5
_symmetry_cell_setting 'monoclinic'
loop_
_space_group_symop_operation_xyz
x,y,z
-x,y,-z
1/2+x,1/2+y,z
1/2-x,1/2+y,-z
loop_
_atom_site_type_symbol
_atom_site_label
_atom_site_fract_x
_atom_site_fract_y
_atom_site_fract_z
Si Si1 0.500000 0.894930 0.000000
Si Si2 0.703390 0.677778 0.690903
Si Si3 0.039815 0.239651 0.269733
Si Si4 0.788006 0.610268 0.917852
Si Si5 0.369695 0.178940 0.150098
Si Si6 0.889929 0.031728 0.501884
Si Si7 0.000000 0.636405 0.500000
O O1 0.456821 0.724985 0.908377
O O2 0.549186 0.077780 0.873092
O O3 0.777704 0.636174 0.744590
O O4 0.678575 0.957600 0.744636
O O5 0.687243 0.613222 0.525945
O O6 0.651519 0.454155 0.787518
O O7 0.954468 0.505593 0.658638
O O8 0.099714 0.085743 0.328133
O O9 0.956156 0.182232 0.378241
O O10 0.735947 0.830501 0.019263
O O11 0.859196 0.659773 0.976593
O O12 0.930051 0.769079 0.460616
#
# Coordination Sequence:
#
# PCOD9120650 Si02
#       7
#     2   4   4   4   4   4   2
#     4  12  20  34  50  80 118 146 164 212 278 332
#     4  10  18  34  55  78 102 138 182 224 259 299
#     4   9  19  31  45  72 105 139 172 212 261 318
#     4   8  16  31  50  75 103 131 176 225 256 294
#     4  10  21  32  51  81 110 139 172 214 270 318
#     4   9  17  31  50  71  97 138 182 221 248 309
#     4   8  16  32  46  64 102 132 180 216 250 304
#
# _framework density 27.592289999999998
#
# number of rings (size 3 to 8) (size 9 to 14) (size 15 to 20)
#    0.000    3.000    1.667    1.000    2.333    0.667 
#    6.000    0.000    0.000    0.000    4.333    0.000 
#    0.000    0.000    0.000    0.000    0.000    0.000 
#
# Total GULP energy -66870.913822 kJ/mol
# GULP energy per Si atom -5572.576152 kJ/mol
# Density = 2.752949 g / cm^3
# Si number density = 27.592290 Si / 1000 Ang^3
#
#
#
# Elastic Constant Matrix: (Units=GPa)
#
#
# Indices 1 2 3 4 5 6 
#
# 1 77.1069 20.3023 36.9777 0.0000 21.2223 0.0000
# 2 20.3023 97.1355 48.9263 0.0000 -4.9250 0.0000
# 3 36.9777 48.9263 151.5664 0.0000 45.2426 0.0000
# 4 0.0000 0.0000 0.0000 15.6268 0.0000 15.3094
# 5 21.2223 -4.9250 45.2426 0.0000 56.9220 0.0000
# 6 0.0000 0.0000 0.0000 15.3094 0.0000 21.7578
#
#
#
# Elastic Compliance Matrix: (Units=1/GPa)
#
#
# Indices 1 2 3 4 5 6 
#
# 1 0.015776 -0.002815 -0.001458 0.000000 -0.004967 0.000000
# 2 -0.002815 0.014285 -0.006039 0.000000 0.007086 0.000000
# 3 -0.001458 -0.006039 0.011664 0.000000 -0.009250 0.000000
# 4 0.000000 0.000000 0.000000 0.205986 0.000000 -0.144938
# 5 -0.004967 0.007086 -0.009250 0.000000 0.027385 0.000000
# 6 0.000000 0.000000 0.000000 -0.144938 0.000000 0.147943
#
#
# Mechanical properties :
#
#
# Convention : Reuss Voigt Hill
#
# Bulk Modulus (GPa) = 47.39175 59.80236 53.59706
# Shear Modulus (GPa) = 11.09393 33.50149 22.29771
#
# Velocity S-wave (km/s) = 2.00733 3.48826 2.84582
# Velocity P-wave (km/s) = 4.75242 6.15992 5.50137
#
# Compressibility (1/GPa) = 0.02110072
#
# Stress axis : x y z
#
# Youngs Moduli (GPa) = 63.38630 70.00587 85.73389
#
# Poissons Ratio (x) = 0.19707 0.12497
# Poissons Ratio (y) = 0.17844 0.51778
# Poissons Ratio (z) = 0.09239 0.42279
#
# Static dielectric constant tensor:
#      x y z
#    x 2.152030 0.000000 0.069130 
#    y 0.000000 2.262700 0.000000 
#    z 0.069130 0.000000 2.262940 
# 
# From -- ./inp_files/30309.got.cif
#   From: 2010.05.17/outbox.cif.g08.bks.cpg/sg5_16_cif.got.tgz:30309.got - 2010.06.03 18:56:24.
