data_PCOD9120416
_publ_section_title
;
Structure prediction by ZEFSAII (Michael W. Deem and Ramdas Pophale) SiO2 
 PCOD9120416
Probable space group: C 2
;
_chemical_formula_sum "Si O2"
_cell_formula_units_Z 28
_cell_length_a 15.195128
_cell_length_b 20.445856
_cell_length_c 14.609087
_cell_angle_alpha 90.000000
_cell_angle_beta 160.421926
_cell_angle_gamma 90.000000
_cell_volume 1520.882100
_symmetry_space_group_name_H-M "C 2"
_symmetry_group_IT_number 5
_symmetry_cell_setting 'monoclinic'
loop_
_space_group_symop_operation_xyz
x,y,z
-x,y,-z
1/2+x,1/2+y,z
1/2-x,1/2+y,-z
loop_
_atom_site_type_symbol
_atom_site_label
_atom_site_fract_x
_atom_site_fract_y
_atom_site_fract_z
Si Si1 0.000000 0.037261 0.500000
Si Si2 0.427767 0.638654 0.267622
Si Si3 0.939524 0.811715 0.720681
Si Si4 0.066450 0.291848 0.671417
Si Si5 0.554336 0.157560 0.317983
Si Si6 0.676359 0.341235 0.766607
Si Si7 0.500000 0.946661 0.000000
Si Si8 0.747030 0.194420 0.807586
O O1 0.019383 0.084827 0.605340
O O2 0.746221 0.991926 0.263536
O O3 0.448828 0.712846 0.327555
O O4 0.648532 0.633753 0.403897
O O5 0.130790 0.630357 0.942836
O O6 0.931294 0.735804 0.680874
O O7 0.013676 0.849227 0.700604
O O8 0.657724 0.825428 0.487066
O O9 0.156915 0.814420 0.014422
O O10 0.000000 0.303953 0.500000
O O11 0.377655 0.149987 0.235326
O O12 0.500000 0.345192 0.500000
O O13 0.808208 0.268723 0.901200
O O14 0.896295 0.396624 0.975403
O O15 0.500000 0.203544 0.500000
O O16 0.000000 0.170135 0.000000
#
# Coordination Sequence:
#
# PCOD9120416 Si02
#       8
#     2   4   4   4   4   4   2   4
#     4  12  24  36  52  74  98 146 186 214 248 300
#     4  10  19  34  48  68 102 138 171 212 254 292
#     4   9  20  29  51  75 100 139 179 199 255 327
#     4  10  18  32  50  76 107 138 170 207 255 318
#     4   9  18  30  48  72  99 135 170 202 249 317
#     4  10  21  36  52  72 109 145 173 218 262 299
#     4  12  24  36  52  74 102 140 188 216 246 300
#     4  10  18  29  50  76 106 138 167 197 254 320
#
# _framework density 18.410367999999998
#
# number of rings (size 3 to 8) (size 9 to 14) (size 15 to 20)
#    0.000    2.000    2.143    2.143    2.000    3.429 
#    0.000    0.000    0.000    0.000    0.000    0.000 
#    0.000   40.000    0.000    0.000    0.000    0.000 
#
# Total GULP energy -78017.492809 kJ/mol
# GULP energy per Si atom -5572.678058 kJ/mol
# Density = 1.836847 g / cm^3
# Si number density = 18.410368 Si / 1000 Ang^3
#
#
#
# Elastic Constant Matrix: (Units=GPa)
#
#
# Indices 1 2 3 4 5 6 
#
# 1 53.3069 8.4430 -6.8417 -0.0016 1.3005 0.0011
# 2 8.4430 39.4154 12.3643 -0.0010 -1.9109 0.0004
# 3 -6.8417 12.3643 67.1414 -0.0113 12.3654 0.0015
# 4 -0.0016 -0.0010 -0.0113 13.1556 -0.0009 9.3512
# 5 1.3005 -1.9109 12.3654 -0.0009 25.6937 0.0003
# 6 0.0011 0.0004 0.0015 9.3512 0.0003 7.0509
#
#
#
# Elastic Compliance Matrix: (Units=1/GPa)
#
#
# Indices 1 2 3 4 5 6 
#
# 1 0.020205 -0.005642 0.003691 0.000129 -0.003218 -0.000175
# 2 -0.005642 0.029056 -0.006996 -0.000076 0.005814 0.000102
# 3 0.003691 -0.006996 0.018312 0.000309 -0.009520 -0.000413
# 4 0.000129 -0.000076 0.000309 1.327089 -0.000098 -1.760054
# 5 -0.003218 0.005814 -0.009520 -0.000098 0.044097 0.000131
# 6 -0.000175 0.000102 -0.000413 -1.760054 0.000131 2.476102
#
#
# Mechanical properties :
#
#
# Convention : Reuss Voigt Hill
#
# Bulk Modulus (GPa) = 20.12978 20.86610 20.49794
# Shear Modulus (GPa) = 1.26604 18.90658 10.08631
#
# Velocity S-wave (km/s) = 0.83016 3.20809 2.34318
# Velocity P-wave (km/s) = 3.44624 5.00809 4.29869
#
# Compressibility (1/GPa) = 0.04967763
#
# Stress axis : x y z
#
# Youngs Moduli (GPa) = 49.49251 34.41648 54.60970
#
# Poissons Ratio (x) = 0.19417 -0.20154
# Poissons Ratio (y) = 0.27923 0.38207
# Poissons Ratio (z) = -0.18266 0.24079
#
# Static dielectric constant tensor:
#      x y z
#    x 1.700280 0.000000 0.002690 
#    y 0.000000 1.612580 0.000000 
#    z 0.002690 0.000000 1.653520 
# 
# From -- ./inp_files/54980.got.cif
#   From: 2010.05.17/outbox.cif.g08.bks.cpg/sg5_28_cif.got.tgz:54980.got - 2010.06.03 18:56:24.
