data_PCOD9120197
_publ_section_title
;
Structure prediction by ZEFSAII (Michael W. Deem and Ramdas Pophale) SiO2 
 PCOD9120197
Probable space group: C 2
;
_chemical_formula_sum "Si O2"
_cell_formula_units_Z 30
_cell_length_a 8.555828
_cell_length_b 30.402226
_cell_length_c 5.461101
_cell_angle_alpha 90.000000
_cell_angle_beta 73.383550
_cell_angle_gamma 90.000000
_cell_volume 1361.200703
_symmetry_space_group_name_H-M "C 2"
_symmetry_group_IT_number 5
_symmetry_cell_setting 'monoclinic'
loop_
_space_group_symop_operation_xyz
x,y,z
-x,y,-z
1/2+x,1/2+y,z
1/2-x,1/2+y,-z
loop_
_atom_site_type_symbol
_atom_site_label
_atom_site_fract_x
_atom_site_fract_y
_atom_site_fract_z
Si Si1 0.691831 0.910000 0.686358
Si Si2 0.197250 0.234312 0.875051
Si Si3 0.902436 0.085160 0.794531
Si Si4 0.311173 0.774737 0.622520
Si Si5 0.184948 0.375175 0.195930
Si Si6 0.650864 0.147710 0.081404
Si Si7 0.500000 0.074429 0.500000
Si Si8 0.330791 0.012987 0.220273
O O1 0.766224 0.899997 0.387785
O O2 0.501931 0.893538 0.746656
O O3 0.699988 0.961916 0.724161
O O4 0.757760 0.884438 0.895230
O O5 0.253955 0.264745 0.621668
O O6 0.259000 0.184924 0.803694
O O7 0.261333 0.248608 0.114750
O O8 0.000000 0.236090 0.000000
O O9 0.810022 0.038611 0.856807
O O10 0.000000 0.084424 0.500000
O O11 0.775188 0.125211 0.837857
O O12 0.000000 0.092745 0.000000
O O13 0.500000 0.761282 0.500000
O O14 0.315296 0.824839 0.716760
O O15 0.582679 0.107027 0.269360
O O16 0.500000 0.166837 0.000000
O O17 0.365062 0.042043 0.446038
O O18 0.500000 0.016117 0.000000
#
# Coordination Sequence:
#
# PCOD9120197 Si02
#       8
#     4   4   4   4   4   4   2   4
#     4  10  20  29  57  93 131 160 211 274 315 385
#     4  10  24  38  59  93 127 166 205 283 329 403
#     4  12  27  45  67  96 136 185 224 275 338 409
#     4  10  19  34  57  84 134 160 204 257 351 383
#     4  10  17  31  52  91 130 162 201 268 335 380
#     4  12  26  45  69  95 125 182 235 281 338 399
#     4  12  22  42  70  92 136 176 232 282 326 396
#     4  12  23  40  64 102 137 177 226 276 336 385
#
# _framework density 22.039363000000002
#
# number of rings (size 3 to 8) (size 9 to 14) (size 15 to 20)
#    0.000    1.067    5.333    2.800    5.600    1.600 
#    0.000    0.000    0.000    0.000    0.000    9.333 
#    0.000    0.000    0.000    0.000    0.000    0.000 
#
# Total GULP energy -83737.039951 kJ/mol
# GULP energy per Si atom -5582.469330 kJ/mol
# Density = 2.198920 g / cm^3
# Si number density = 22.039363 Si / 1000 Ang^3
#
#
#
# Elastic Constant Matrix: (Units=GPa)
#
#
# Indices 1 2 3 4 5 6 
#
# 1 39.5325 17.8886 35.6641 0.0000 8.0422 0.0000
# 2 17.8886 108.5615 41.1641 0.0000 14.1725 0.0000
# 3 35.6641 41.1641 154.2344 0.0000 33.3419 0.0000
# 4 0.0000 0.0000 0.0000 29.1312 0.0000 15.9707
# 5 8.0422 14.1725 33.3419 0.0000 21.5547 0.0000
# 6 0.0000 0.0000 0.0000 15.9707 0.0000 24.3202
#
#
#
# Elastic Compliance Matrix: (Units=1/GPa)
#
#
# Indices 1 2 3 4 5 6 
#
# 1 0.032715 -0.002821 -0.006872 0.000000 0.000279 0.000000
# 2 -0.002821 0.010700 -0.001367 0.000000 -0.003868 0.000000
# 3 -0.006872 -0.001367 0.011552 0.000000 -0.014406 0.000000
# 4 0.000000 0.000000 0.000000 0.053638 0.000000 -0.035224
# 5 0.000279 -0.003868 -0.014406 0.000000 0.071117 0.000000
# 6 0.000000 0.000000 0.000000 -0.035224 0.000000 0.064249
#
#
# Mechanical properties :
#
#
# Convention : Reuss Voigt Hill
#
# Bulk Modulus (GPa) = 30.44574 54.64021 42.54298
# Shear Modulus (GPa) = 18.04790 28.84196 23.44493
#
# Velocity S-wave (km/s) = 2.86474 3.62146 3.26510
# Velocity P-wave (km/s) = 4.97861 6.50635 5.79306
#
# Compressibility (1/GPa) = 0.03284532
#
# Stress axis : x y z
#
# Youngs Moduli (GPa) = 30.56675 93.46152 86.56627
#
# Poissons Ratio (x) = 0.26369 0.59490
# Poissons Ratio (y) = 0.08624 0.11835
# Poissons Ratio (z) = 0.21006 0.12777
#
# Static dielectric constant tensor:
#      x y z
#    x 1.834180 0.000000 0.098760 
#    y 0.000000 1.807490 0.000000 
#    z 0.098760 0.000000 1.534790 
# 
# From -- ./inp_files/3933.got.cif
#   From: 2010.05.17/outbox.cif.g08.bks.cpg/sg5_2_cif.got.tgz:3933.got - 2010.06.03 18:56:24.
