data_PCOD9120225
_publ_section_title
;
Structure prediction by ZEFSAII (Michael W. Deem and Ramdas Pophale) SiO2 
 PCOD9120225
Probable space group: C 2
;
_chemical_formula_sum "Si O2"
_cell_formula_units_Z 20
_cell_length_a 16.077354
_cell_length_b 18.586612
_cell_length_c 13.575461
_cell_angle_alpha 90.000000
_cell_angle_beta 17.366183
_cell_angle_gamma 90.000000
_cell_volume 1210.824044
_symmetry_space_group_name_H-M "C 2"
_symmetry_group_IT_number 5
_symmetry_cell_setting 'monoclinic'
loop_
_space_group_symop_operation_xyz
x,y,z
-x,y,-z
1/2+x,1/2+y,z
1/2-x,1/2+y,-z
loop_
_atom_site_type_symbol
_atom_site_label
_atom_site_fract_x
_atom_site_fract_y
_atom_site_fract_z
Si Si1 0.000000 0.713950 0.000000
Si Si2 0.706358 0.486052 0.132188
Si Si3 0.663877 0.891761 0.720773
Si Si4 0.795634 0.840299 0.365826
Si Si5 0.337710 0.934634 0.777703
Si Si6 0.500000 0.612389 0.500000
O O1 0.900864 0.766991 0.199285
O O2 0.749516 0.663165 0.250978
O O3 0.455633 0.427784 0.422021
O O4 0.601344 0.559352 0.298537
O O5 0.785477 0.488316 0.927511
O O6 0.968650 0.454970 0.896114
O O7 0.716028 0.838057 0.571043
O O8 0.500000 0.861947 0.000000
O O9 0.533659 0.871487 0.601403
O O10 0.046161 0.898536 0.076341
O O11 0.500000 0.964534 0.500000
#
# Coordination Sequence:
#
# PCOD9120225 Si02
#       6
#     2   4   4   4   4   2
#     4  12  22  34  50  70 110 140 166 200 236 312
#     4  10  20  31  49  78  98 131 169 197 263 290
#     4  10  17  32  54  73 103 121 160 228 249 292
#     4  10  20  31  49  78  98 131 169 197 263 290
#     4  10  17  32  54  73 103 121 160 228 249 292
#     4  12  22  34  50  70 110 140 166 200 236 312
#
# _framework density 16.517676999999999
#
# number of rings (size 3 to 8) (size 9 to 14) (size 15 to 20)
#    0.000    1.600    4.000    2.400    0.000    0.000 
#    0.000    0.000    0.000    2.400    0.000    0.000 
#    0.000    0.000    0.000    0.000    0.000    0.000 
#
# Total GULP energy -55803.270875 kJ/mol
# GULP energy per Si atom -5580.327087 kJ/mol
# Density = 1.648008 g / cm^3
# Si number density = 16.517677 Si / 1000 Ang^3
#
#
#
# Elastic Constant Matrix: (Units=GPa)
#
#
# Indices 1 2 3 4 5 6 
#
# 1 71.8757 34.2560 43.8819 -0.1591 20.6469 -0.0407
# 2 34.2560 81.0097 32.9790 0.1074 19.2262 -0.0906
# 3 43.8819 32.9790 98.3675 -0.4001 28.2172 0.0787
# 4 -0.1591 0.1074 -0.4001 26.2984 0.0140 3.1581
# 5 20.6469 19.2262 28.2172 0.0140 62.2902 -0.0134
# 6 -0.0407 -0.0906 0.0787 3.1581 -0.0134 19.9477
#
#
#
# Elastic Compliance Matrix: (Units=1/GPa)
#
#
# Indices 1 2 3 4 5 6 
#
# 1 0.021598 -0.005730 -0.007088 0.000043 -0.002179 0.000038
# 2 -0.005730 0.016185 -0.002279 -0.000145 -0.002064 0.000092
# 3 -0.007088 -0.002279 0.015191 0.000214 -0.003829 -0.000121
# 4 0.000043 -0.000145 0.000214 0.038766 -0.000076 -0.006139
# 5 -0.002179 -0.002064 -0.003829 -0.000076 0.019148 0.000026
# 6 0.000038 0.000092 -0.000121 -0.006139 0.000026 0.051104
#
#
# Mechanical properties :
#
#
# Convention : Reuss Voigt Hill
#
# Bulk Modulus (GPa) = 43.89848 52.60964 48.25406
# Shear Modulus (GPa) = 25.02758 31.04965 28.03862
#
# Velocity S-wave (km/s) = 3.89678 4.34035 4.12453
# Velocity P-wave (km/s) = 6.84696 7.55234 7.20828
#
# Compressibility (1/GPa) = 0.02277983
#
# Stress axis : x y z
#
# Youngs Moduli (GPa) = 46.30153 61.78562 65.82696
#
# Poissons Ratio (x) = 0.35403 0.46661
# Poissons Ratio (y) = 0.26531 0.15000
# Poissons Ratio (z) = 0.32820 0.14079
#
# Static dielectric constant tensor:
#      x y z
#    x 1.578050 -0.000040 0.024160 
#    y -0.000040 1.498230 0.000020 
#    z 0.024160 0.000020 1.582800 
# 
# From -- ./inp_files/2426.got.cif
#   From: 2010.05.17/outbox.cif.g08.bks.cpg/sg5_2_cif.got.tgz:2426.got - 2010.06.03 18:56:24.
