data_PCOD9120289
_publ_section_title
;
Structure prediction by ZEFSAII (Michael W. Deem and Ramdas Pophale) SiO2 
 PCOD9120289
Probable space group: C 2
;
_chemical_formula_sum "Si O2"
_cell_formula_units_Z 32
_cell_length_a 8.443356
_cell_length_b 15.544469
_cell_length_c 11.454161
_cell_angle_alpha 90.000000
_cell_angle_beta 92.733833
_cell_angle_gamma 90.000000
_cell_volume 1501.618868
_symmetry_space_group_name_H-M "C 2"
_symmetry_group_IT_number 5
_symmetry_cell_setting 'monoclinic'
loop_
_space_group_symop_operation_xyz
x,y,z
-x,y,-z
1/2+x,1/2+y,z
1/2-x,1/2+y,-z
loop_
_atom_site_type_symbol
_atom_site_label
_atom_site_fract_x
_atom_site_fract_y
_atom_site_fract_z
Si Si1 0.322899 0.153500 0.937115
Si Si2 0.190031 0.456467 0.019187
Si Si3 0.350769 0.862014 0.761571
Si Si4 0.034420 0.504756 0.633264
Si Si5 0.976082 0.691611 0.713360
Si Si6 0.537416 0.371662 0.627660
Si Si7 0.166650 0.187572 0.159742
Si Si8 0.647679 0.496496 0.218519
O O1 0.347526 0.193223 0.812058
O O2 0.500000 0.156911 0.000000
O O3 0.199954 0.194684 0.022752
O O4 0.283374 0.052395 0.930149
O O5 0.278292 0.455870 0.897827
O O6 0.234408 0.388096 0.119450
O O7 0.000000 0.446084 0.000000
O O8 0.423462 0.768710 0.789844
O O9 0.222234 0.856478 0.655047
O O10 0.462211 0.938594 0.724423
O O11 0.963734 0.600426 0.648150
O O12 0.000000 0.477015 0.500000
O O13 0.216951 0.507467 0.677950
O O14 0.959051 0.777634 0.638311
O O15 0.154473 0.690528 0.776795
O O16 0.500000 0.408339 0.500000
O O17 0.478768 0.434904 0.726961
O O18 0.096780 0.093655 0.183839
#
# Coordination Sequence:
#
# PCOD9120289 Si02
#       8
#     4   4   4   4   4   4   4   4
#     4   8  13  28  52  81 108 138 176 227 278 332
#     4  10  17  34  61  87 113 138 186 243 284 328
#     4  11  21  36  60  86 113 146 191 235 282 330
#     4  11  20  36  61  84 108 151 199 230 269 335
#     4   9  17  33  55  83 107 143 192 234 274 325
#     4  11  24  39  54  83 122 152 187 233 279 334
#     4   8  18  32  55  79 113 148 178 227 290 340
#     4  10  21  39  58  81 116 155 186 230 291 333
#
# _framework density 21.310334999999998
#
# number of rings (size 3 to 8) (size 9 to 14) (size 15 to 20)
#    0.000    2.250    2.500    2.625    1.750    0.500 
#    0.000    1.875    5.500    0.000    0.000    0.000 
#    0.000    0.000    0.000    0.000    0.000    0.000 
#
# Total GULP energy -89287.369605 kJ/mol
# GULP energy per Si atom -5580.460600 kJ/mol
# Density = 2.126183 g / cm^3
# Si number density = 21.310335 Si / 1000 Ang^3
#
#
#
# Elastic Constant Matrix: (Units=GPa)
#
#
# Indices 1 2 3 4 5 6 
#
# 1 24.3833 18.3203 6.9573 0.0000 -2.3963 0.0000
# 2 18.3203 98.8911 21.5600 0.0000 -19.6164 0.0000
# 3 6.9573 21.5600 90.1174 0.0000 -7.3894 0.0000
# 4 0.0000 0.0000 0.0000 25.4353 0.0000 -1.2984
# 5 -2.3963 -19.6164 -7.3894 0.0000 25.0399 0.0000
# 6 0.0000 0.0000 0.0000 -1.2984 0.0000 13.3366
#
#
#
# Elastic Compliance Matrix: (Units=1/GPa)
#
#
# Indices 1 2 3 4 5 6 
#
# 1 0.048076 -0.009128 -0.001780 0.000000 -0.003076 0.000000
# 2 -0.009128 0.014126 -0.001885 0.000000 0.009636 0.000000
# 3 -0.001780 -0.001885 0.011836 0.000000 0.001846 0.000000
# 4 0.000000 0.000000 0.000000 0.039512 0.000000 0.003847
# 5 -0.003076 0.009636 0.001846 0.000000 0.047736 0.000000
# 6 0.000000 0.000000 0.000000 0.003847 0.000000 0.075356
#
#
# Mechanical properties :
#
#
# Convention : Reuss Voigt Hill
#
# Bulk Modulus (GPa) = 20.63898 34.11855 27.37877
# Shear Modulus (GPa) = 17.96118 23.86597 20.91357
#
# Velocity S-wave (km/s) = 2.90632 3.35016 3.13610
# Velocity P-wave (km/s) = 4.57911 5.56865 5.09794
#
# Compressibility (1/GPa) = 0.04845200
#
# Stress axis : x y z
#
# Youngs Moduli (GPa) = 20.80043 70.79334 84.48578
#
# Poissons Ratio (x) = 0.64624 0.15037
# Poissons Ratio (y) = 0.18988 0.15922
# Poissons Ratio (z) = 0.03702 0.13341
#
# Static dielectric constant tensor:
#      x y z
#    x 1.780360 0.000000 0.005600 
#    y 0.000000 1.784920 0.000000 
#    z 0.005600 0.000000 1.751350 
# 
# From -- ./inp_files/36404.got.cif
#   From: 2010.05.17/outbox.cif.g08.bks.cpg/sg5_19_cif.got.tgz:36404.got - 2010.06.03 18:56:24.
