data_PCOD9120577
_publ_section_title
;
Structure prediction by ZEFSAII (Michael W. Deem and Ramdas Pophale) SiO2 
 PCOD9120577
Probable space group: C 2
;
_chemical_formula_sum "Si O2"
_cell_formula_units_Z 28
_cell_length_a 12.711226
_cell_length_b 25.084969
_cell_length_c 5.186190
_cell_angle_alpha 90.000000
_cell_angle_beta 114.578732
_cell_angle_gamma 90.000000
_cell_volume 1503.833926
_symmetry_space_group_name_H-M "C 2"
_symmetry_group_IT_number 5
_symmetry_cell_setting 'monoclinic'
loop_
_space_group_symop_operation_xyz
x,y,z
-x,y,-z
1/2+x,1/2+y,z
1/2-x,1/2+y,-z
loop_
_atom_site_type_symbol
_atom_site_label
_atom_site_fract_x
_atom_site_fract_y
_atom_site_fract_z
Si Si1 0.128222 0.645450 0.325827
Si Si2 0.217262 0.536891 0.220768
Si Si3 0.367168 0.917749 0.881068
Si Si4 0.071791 0.805653 0.821487
Si Si5 0.864929 0.015694 0.861865
Si Si6 0.866687 0.689645 0.161664
Si Si7 0.273676 0.397169 0.764276
O O1 0.137257 0.586955 0.213230
O O2 0.184423 0.654215 0.662034
O O3 0.997686 0.666917 0.245984
O O4 0.189104 0.681844 0.173421
O O5 0.147565 0.481504 0.171438
O O6 0.311736 0.535834 0.541927
O O7 0.285970 0.536554 0.019469
O O8 0.283849 0.891557 0.577464
O O9 0.500000 0.901832 0.000000
O O10 0.325647 0.906312 0.126853
O O11 0.129490 0.751862 0.769245
O O12 0.000000 0.827635 0.500000
O O13 0.152377 0.849334 0.038768
O O14 0.000000 0.786156 0.000000
O O15 0.849504 0.951221 0.843614
O O16 0.000000 0.028914 0.000000
#
# Coordination Sequence:
#
# PCOD9120577 Si02
#       7
#     4   4   4   4   4   4   4
#     4  10  18  33  48  78 115 139 176 224 265 352
#     4  10  21  33  55  82 107 154 190 216 291 328
#     4  10  21  38  53  79 114 149 193 236 266 342
#     4  12  20  35  55  84 117 150 175 230 291 348
#     4  10  20  37  52  78 113 147 193 233 260 338
#     4  10  19  32  50  78 117 139 176 217 292 332
#     4  10  22  35  55  83 109 151 196 225 286 332
#
# _framework density 18.619077000000001
#
# number of rings (size 3 to 8) (size 9 to 14) (size 15 to 20)
#    0.000    1.714    2.857    3.000    2.000    2.286 
#    5.143    0.000    0.000    0.000    0.000   15.000 
#    0.000    0.000    0.000    0.000    0.000    0.000 
#
# Total GULP energy -77954.632599 kJ/mol
# GULP energy per Si atom -5568.188043 kJ/mol
# Density = 1.857670 g / cm^3
# Si number density = 18.619077 Si / 1000 Ang^3
#
#
#
# Elastic Constant Matrix: (Units=GPa)
#
#
# Indices 1 2 3 4 5 6 
#
# 1 28.6947 0.6964 13.0850 0.0000 0.0879 0.0000
# 2 0.6964 70.9870 -3.4635 0.0000 10.7446 0.0000
# 3 13.0850 -3.4635 89.6422 0.0000 -17.7433 0.0000
# 4 0.0000 0.0000 0.0000 26.0402 0.0000 -3.4027
# 5 0.0879 10.7446 -17.7433 0.0000 28.3651 0.0000
# 6 0.0000 0.0000 0.0000 -3.4027 0.0000 13.4851
#
#
#
# Elastic Compliance Matrix: (Units=1/GPa)
#
#
# Indices 1 2 3 4 5 6 
#
# 1 0.037742 -0.000067 -0.006311 0.000000 -0.004040 0.000000
# 2 -0.000067 0.014974 -0.000610 0.000000 -0.006054 0.000000
# 3 -0.006311 -0.000610 0.013813 0.000000 0.008891 0.000000
# 4 0.000000 0.000000 0.000000 0.039712 0.000000 0.010020
# 5 -0.004040 -0.006054 0.008891 0.000000 0.043122 0.000000
# 6 0.000000 0.000000 0.000000 0.010020 0.000000 0.076684
#
#
# Mechanical properties :
#
#
# Convention : Reuss Voigt Hill
#
# Bulk Modulus (GPa) = 19.02841 23.32886 21.17863
# Shear Modulus (GPa) = 19.41448 25.51184 22.46316
#
# Velocity S-wave (km/s) = 3.23262 3.70564 3.47718
# Velocity P-wave (km/s) = 4.91682 5.55569 5.24599
#
# Compressibility (1/GPa) = 0.05255301
#
# Stress axis : x y z
#
# Youngs Moduli (GPa) = 26.49599 66.78134 72.39562
#
# Poissons Ratio (x) = 0.00446 0.45691
# Poissons Ratio (y) = 0.00177 0.04415
# Poissons Ratio (z) = 0.16722 0.04073
#
# Static dielectric constant tensor:
#      x y z
#    x 1.651460 0.000000 0.017230 
#    y 0.000000 1.698860 0.000000 
#    z 0.017230 0.000000 1.832590 
# 
# From -- ./inp_files/5668.got.cif
#   From: 2010.05.17/outbox.cif.g08.bks.cpg/sg5_3_cif.got.tgz:5668.got - 2010.06.03 18:56:24.
