data_PCOD9120422
_publ_section_title
;
Structure prediction by ZEFSAII (Michael W. Deem and Ramdas Pophale) SiO2 
 PCOD9120422
Probable space group: C 2
;
_chemical_formula_sum "Si O2"
_cell_formula_units_Z 20
_cell_length_a 7.849626
_cell_length_b 22.326811
_cell_length_c 5.408843
_cell_angle_alpha 90.000000
_cell_angle_beta 58.056679
_cell_angle_gamma 90.000000
_cell_volume 804.393737
_symmetry_space_group_name_H-M "C 2"
_symmetry_group_IT_number 5
_symmetry_cell_setting 'monoclinic'
loop_
_space_group_symop_operation_xyz
x,y,z
-x,y,-z
1/2+x,1/2+y,z
1/2-x,1/2+y,-z
loop_
_atom_site_type_symbol
_atom_site_label
_atom_site_fract_x
_atom_site_fract_y
_atom_site_fract_z
Si Si1 0.243861 0.250000 0.838423
Si Si2 0.260733 0.061805 0.421001
Si Si3 0.367233 0.929253 0.353190
Si Si4 0.257070 0.808571 0.655977
Si Si5 0.784525 0.611998 0.906469
O O1 0.311871 0.263267 0.505481
O O2 0.298514 0.183087 0.874360
O O3 0.309337 0.294781 0.011702
O O4 0.000000 0.253464 0.000000
O O5 0.186654 0.085647 0.737350
O O6 0.496493 0.081181 0.249745
O O7 0.250505 0.990655 0.396866
O O8 0.183327 0.094043 0.238241
O O9 0.500000 0.940732 0.500000
O O10 0.232413 0.873404 0.545614
O O11 0.500000 0.916104 0.000000
O O12 0.500000 0.803574 0.500000
#
# Coordination Sequence:
#
# PCOD9120422 Si02
#       5
#     4   4   4   4   4
#     4  10  19  32  44  67 100 131 160 185 229 292
#     4  10  18  30  46  75  94 123 153 201 246 276
#     4  11  16  28  46  69 101 117 152 198 249 290
#     4   9  18  28  44  65  94 130 150 191 237 282
#     4  10  18  30  46  66 104 122 157 193 233 294
#
# _framework density 24.863447000000001
#
# number of rings (size 3 to 8) (size 9 to 14) (size 15 to 20)
#    0.000    2.000    4.000    4.200    0.000    0.000 
#    0.000    0.000    0.000    0.000    0.000    0.000 
#   60.000    0.000    0.000    0.000    0.000    0.000 
#
# Total GULP energy -55895.379337 kJ/mol
# GULP energy per Si atom -5589.537934 kJ/mol
# Density = 2.480686 g / cm^3
# Si number density = 24.863447 Si / 1000 Ang^3
#
#
#
# Elastic Constant Matrix: (Units=GPa)
#
#
# Indices 1 2 3 4 5 6 
#
# 1 87.3673 11.8848 45.9631 0.0000 20.7237 0.0000
# 2 11.8848 199.2236 82.6232 0.0000 28.5054 0.0000
# 3 45.9631 82.6232 244.5829 0.0000 17.4932 0.0000
# 4 0.0000 0.0000 0.0000 46.9944 0.0000 24.6776
# 5 20.7237 28.5054 17.4932 0.0000 46.7994 0.0000
# 6 0.0000 0.0000 0.0000 24.6776 0.0000 -100.0513
#
#
#
# Elastic Compliance Matrix: (Units=1/GPa)
#
#
# Indices 1 2 3 4 5 6 
#
# 1 0.014062 0.001080 -0.002584 0.000000 -0.005919 0.000000
# 2 0.001080 0.006329 -0.002087 0.000000 -0.003553 0.000000
# 3 -0.002584 -0.002087 0.005247 0.000000 0.000454 0.000000
# 4 0.000000 0.000000 0.000000 0.018839 0.000000 0.004647
# 5 -0.005919 -0.003553 0.000454 0.000000 0.025983 0.000000
# 6 0.000000 0.000000 0.000000 0.004647 0.000000 -0.008849
#
#
# Mechanical properties :
#
#
# Convention : Reuss Voigt Hill
#
# Bulk Modulus (GPa) = 54.18390 90.23512 72.20951
# Shear Modulus (GPa) = 66.71501 24.79535 45.75518
#
# Velocity S-wave (km/s) = 5.18564 3.16137 4.29448
# Velocity P-wave (km/s) = 7.59568 7.04959 7.32772
#
# Compressibility (1/GPa) = 0.01845567
#
# Stress axis : x y z
#
# Youngs Moduli (GPa) = 71.11126 158.00589 190.59780
#
# Poissons Ratio (x) = -0.17059 0.49252
# Poissons Ratio (y) = -0.07678 0.39773
# Poissons Ratio (z) = 0.18376 0.32972
#
# Static dielectric constant tensor:
#      x y z
#    x 2.046750 0.000000 -0.011200 
#    y 0.000000 1.906590 0.000000 
#    z -0.011200 0.000000 2.003010 
# 
# From -- ./inp_files/2671.got.cif
#   From: 2010.05.17/outbox.cif.g08.bks.cpg/sg5_2_cif.got.tgz:2671.got - 2010.06.03 18:56:24.
