data_PCOD9120501
_publ_section_title
;
Structure prediction by ZEFSAII (Michael W. Deem and Ramdas Pophale) SiO2 
 PCOD9120501
Probable space group: C 2
;
_chemical_formula_sum "Si O2"
_cell_formula_units_Z 28
_cell_length_a 5.106753
_cell_length_b 23.725849
_cell_length_c 13.538207
_cell_angle_alpha 90.000000
_cell_angle_beta 97.155633
_cell_angle_gamma 90.000000
_cell_volume 1627.541240
_symmetry_space_group_name_H-M "C 2"
_symmetry_group_IT_number 5
_symmetry_cell_setting 'monoclinic'
loop_
_space_group_symop_operation_xyz
x,y,z
-x,y,-z
1/2+x,1/2+y,z
1/2-x,1/2+y,-z
loop_
_atom_site_type_symbol
_atom_site_label
_atom_site_fract_x
_atom_site_fract_y
_atom_site_fract_z
Si Si1 0.229332 0.538320 0.930090
Si Si2 0.033303 0.654638 0.883014
Si Si3 0.485826 0.702026 0.781498
Si Si4 0.730957 0.911452 0.929295
Si Si5 0.885415 0.332099 0.259974
Si Si6 0.593309 0.331832 0.608646
Si Si7 0.242194 0.203197 0.435421
O O1 0.139023 0.591783 0.862414
O O2 0.256030 0.475579 0.888466
O O3 0.500000 0.552648 0.000000
O O4 0.000000 0.532720 0.000000
O O5 0.260958 0.695724 0.853805
O O6 0.752275 0.669470 0.822634
O O7 0.000000 0.658080 0.000000
O O8 0.559604 0.767457 0.768833
O O9 0.359210 0.679252 0.673325
O O10 0.679977 0.868624 0.838740
O O11 0.500000 0.908775 0.000000
O O12 0.000000 0.898940 0.000000
O O13 0.645395 0.331991 0.325738
O O14 0.145567 0.355648 0.327360
O O15 0.500000 0.357458 0.500000
O O16 0.673755 0.267226 0.587504
O O17 0.500000 0.177102 0.500000
O O18 0.000000 0.204673 0.500000
#
# Coordination Sequence:
#
# PCOD9120501 Si02
#       7
#     4   4   4   4   4   4   4
#     4   9  18  35  54  70  91 128 179 217 235 268
#     4  11  21  34  50  73 103 135 167 204 244 289
#     4  11  21  32  49  77 106 132 162 199 252 309
#     4  10  21  36  53  73 101 135 169 205 242 288
#     4  11  21  33  49  77 107 132 164 198 249 310
#     4  10  18  32  51  72 100 132 168 208 244 285
#     4  10  18  32  50  70  98 134 171 207 242 283
#
# _framework density 17.203865
#
# number of rings (size 3 to 8) (size 9 to 14) (size 15 to 20)
#    0.000    1.714    0.000    9.429    0.000    1.714 
#    0.000    0.000    0.000    0.000    0.000   10.000 
#    0.000    0.000    0.000    0.000    0.000    0.000 
#
# Total GULP energy -78068.726677 kJ/mol
# GULP energy per Si atom -5576.337620 kJ/mol
# Density = 1.716471 g / cm^3
# Si number density = 17.203865 Si / 1000 Ang^3
#
#
#
# Elastic Constant Matrix: (Units=GPa)
#
#
# Indices 1 2 3 4 5 6 
#
# 1 165.8088 33.8886 72.7871 0.0000 10.4703 0.0000
# 2 33.8886 46.3997 53.8443 0.0000 13.2450 0.0000
# 3 72.7871 53.8443 117.2111 0.0000 13.9695 0.0000
# 4 0.0000 0.0000 0.0000 2.4966 0.0000 25.4011
# 5 10.4703 13.2450 13.9695 0.0000 47.3617 0.0000
# 6 0.0000 0.0000 0.0000 25.4011 0.0000 116.6789
#
#
#
# Elastic Compliance Matrix: (Units=1/GPa)
#
#
# Indices 1 2 3 4 5 6 
#
# 1 0.008296 -0.000074 -0.005080 0.000000 -0.000315 0.000000
# 2 -0.000074 0.048440 -0.021344 0.000000 -0.007235 0.000000
# 3 -0.005080 -0.021344 0.021399 0.000000 0.000781 0.000000
# 4 0.000000 0.000000 0.000000 -0.329677 0.000000 0.071771
# 5 -0.000315 -0.007235 0.000781 0.000000 0.022977 0.000000
# 6 0.000000 0.000000 0.000000 0.071771 0.000000 -0.007054
#
#
# Mechanical properties :
#
#
# Convention : Reuss Voigt Hill
#
# Bulk Modulus (GPa) = 39.78083 72.27329 56.02706
# Shear Modulus (GPa) = -28.69539 44.56740 7.93601
#
# Velocity S-wave (km/s) = -4.08850 5.09526 2.15010
# Velocity P-wave (km/s) = 0.94108 8.75881 6.22906
#
# Compressibility (1/GPa) = 0.02513773
#
# Stress axis : x y z
#
# Youngs Moduli (GPa) = 120.53654 20.64426 46.73213
#
# Poissons Ratio (x) = 0.00152 0.23742
# Poissons Ratio (y) = 0.00889 0.99746
# Poissons Ratio (z) = 0.61238 0.44063
#
# Static dielectric constant tensor:
#      x y z
#    x 1.500070 0.000000 0.014320 
#    y 0.000000 1.599250 0.000000 
#    z 0.014320 0.000000 1.595450 
# 
# From -- ./inp_files/34115.got.cif
#   From: 2010.05.17/outbox.cif.g08.bks.cpg/sg5_18_cif.got.tgz:34115.got - 2010.06.03 18:56:24.
