data_PCOD9120955
_publ_section_title
;
Structure prediction by ZEFSAII (Michael W. Deem and Ramdas Pophale) SiO2 
 PCOD9120955
Probable space group: C 2
;
_chemical_formula_sum "Si O2"
_cell_formula_units_Z 32
_cell_length_a 19.682258
_cell_length_b 18.766973
_cell_length_c 11.783648
_cell_angle_alpha 90.000000
_cell_angle_beta 23.975074
_cell_angle_gamma 90.000000
_cell_volume 1768.632515
_symmetry_space_group_name_H-M "C 2"
_symmetry_group_IT_number 5
_symmetry_cell_setting 'monoclinic'
loop_
_space_group_symop_operation_xyz
x,y,z
-x,y,-z
1/2+x,1/2+y,z
1/2-x,1/2+y,-z
loop_
_atom_site_type_symbol
_atom_site_label
_atom_site_fract_x
_atom_site_fract_y
_atom_site_fract_z
Si Si1 0.965257 0.183140 0.245098
Si Si2 0.015200 0.036059 0.660423
Si Si3 0.233350 0.533920 0.912178
Si Si4 0.253392 0.648645 0.358737
Si Si5 0.360765 0.485782 0.124506
Si Si6 0.012714 0.433186 0.605674
Si Si7 0.409485 0.772729 0.753997
Si Si8 0.083670 0.676379 0.247372
O O1 0.000926 0.117795 0.275674
O O2 0.806836 0.164837 0.406957
O O3 0.980051 0.249479 0.305956
O O4 0.115113 0.186148 0.926038
O O5 0.192722 0.032012 0.326706
O O6 0.880246 0.012044 0.773996
O O7 0.965251 0.995370 0.849790
O O8 0.181388 0.609920 0.043050
O O9 0.080059 0.481515 0.161966
O O10 0.284607 0.563808 0.281378
O O11 0.074755 0.679852 0.595769
O O12 0.207230 0.432756 0.339921
O O13 0.500000 0.462481 0.000000
O O14 0.000000 0.468906 0.500000
O O15 0.918964 0.358169 0.738179
O O16 0.500000 0.747334 0.500000
O O17 0.222723 0.739060 0.044797
O O18 0.000000 0.663565 0.500000
#
# Coordination Sequence:
#
# PCOD9120955 Si02
#       8
#     4   4   4   4   4   4   4   4
#     4  10  18  37  58  87 123 151 193 247 304 357
#     4  10  19  33  58  92 118 151 191 263 300 349
#     4  11  20  33  61  92 119 146 205 260 308 345
#     4  10  19  32  64  94 113 151 202 250 297 361
#     4  11  19  38  63  91 121 157 201 244 309 373
#     4  11  23  40  60  87 122 164 207 249 304 367
#     4  11  24  41  58  84 124 167 202 255 307 355
#     4  12  20  36  62  93 117 156 212 249 297 370
#
# _framework density 18.093074999999999
#
# number of rings (size 3 to 8) (size 9 to 14) (size 15 to 20)
#    0.000    1.250    7.500    1.875    0.000    0.000 
#    2.250    6.875    5.500    0.000    0.000    0.000 
#    0.000    0.000    0.000    0.000    0.000    0.000 
#
# Total GULP energy -89075.459719 kJ/mol
# GULP energy per Si atom -5567.216232 kJ/mol
# Density = 1.805189 g / cm^3
# Si number density = 18.093075 Si / 1000 Ang^3
#
#
#
# Elastic Constant Matrix: (Units=GPa)
#
#
# Indices 1 2 3 4 5 6 
#
# 1 94.5062 9.4035 39.4463 0.0005 -15.3610 0.0000
# 2 9.4035 41.3786 32.5541 -0.0021 -0.7478 -0.0020
# 3 39.4463 32.5541 119.3958 -0.0007 -0.8058 -0.0007
# 4 0.0005 -0.0021 -0.0007 19.6775 0.0004 -3.7180
# 5 -15.3610 -0.7478 -0.8058 0.0004 32.0278 0.0004
# 6 0.0000 -0.0020 -0.0007 -3.7180 0.0004 9.5044
#
#
#
# Elastic Compliance Matrix: (Units=1/GPa)
#
#
# Indices 1 2 3 4 5 6 
#
# 1 0.013463 0.000663 -0.004586 -0.000001 0.006357 -0.000001
# 2 0.000663 0.030808 -0.008614 0.000004 0.000821 0.000008
# 3 -0.004586 -0.008614 0.012225 -0.000001 -0.002093 -0.000001
# 4 -0.000001 0.000004 -0.000001 0.054876 -0.000001 0.021467
# 5 0.006357 0.000821 -0.002093 -0.000001 0.034238 -0.000002
# 6 -0.000001 0.000008 -0.000001 0.021467 -0.000002 0.113613
#
#
# Mechanical properties :
#
#
# Convention : Reuss Voigt Hill
#
# Bulk Modulus (GPa) = 31.82356 46.45426 39.13891
# Shear Modulus (GPa) = 16.96245 23.83370 20.39808
#
# Velocity S-wave (km/s) = 3.06520 3.63338 3.36132
# Velocity P-wave (km/s) = 5.49129 6.58277 6.06164
#
# Compressibility (1/GPa) = 0.03142326
#
# Stress axis : x y z
#
# Youngs Moduli (GPa) = 74.27953 32.45935 81.79976
#
# Poissons Ratio (x) = -0.02153 0.37511
# Poissons Ratio (y) = -0.04926 0.70459
# Poissons Ratio (z) = 0.34063 0.27959
#
# Static dielectric constant tensor:
#      x y z
#    x 1.677550 0.000000 -0.013880 
#    y 0.000000 1.644190 0.000000 
#    z -0.013880 0.000000 1.685230 
# 
# From -- ./inp_files/46665.got.cif
#   From: 2010.05.17/outbox.cif.g08.bks.cpg/sg5_24_cif.got.tgz:46665.got - 2010.06.03 18:56:24.
