data_PCOD9120734
_publ_section_title
;
Structure prediction by ZEFSAII (Michael W. Deem and Ramdas Pophale) SiO2 
 PCOD9120734
Probable space group: C 2
;
_chemical_formula_sum "Si O2"
_cell_formula_units_Z 28
_cell_length_a 13.900203
_cell_length_b 7.074788
_cell_length_c 22.394927
_cell_angle_alpha 90.000000
_cell_angle_beta 30.269208
_cell_angle_gamma 90.000000
_cell_volume 1110.118940
_symmetry_space_group_name_H-M "C 2"
_symmetry_group_IT_number 5
_symmetry_cell_setting 'monoclinic'
loop_
_space_group_symop_operation_xyz
x,y,z
-x,y,-z
1/2+x,1/2+y,z
1/2-x,1/2+y,-z
loop_
_atom_site_type_symbol
_atom_site_label
_atom_site_fract_x
_atom_site_fract_y
_atom_site_fract_z
Si Si1 0.729406 0.195460 0.769951
Si Si2 0.500000 0.238281 0.000000
Si Si3 0.877351 0.841987 0.365500
Si Si4 0.283073 0.994429 0.334895
Si Si5 0.500000 0.186699 0.500000
Si Si6 0.488197 0.015566 0.385664
Si Si7 0.777547 0.510747 0.925146
Si Si8 0.090409 0.902986 0.142162
O O1 0.619019 0.123840 0.887210
O O2 0.574223 0.310679 0.812396
O O3 0.891570 0.340940 0.703011
O O4 0.805551 0.041600 0.682601
O O5 0.640925 0.376282 0.961086
O O6 0.769742 0.682266 0.382552
O O7 0.729924 0.955857 0.484937
O O8 0.003969 0.702497 0.337823
O O9 0.988643 0.969527 0.257314
O O10 0.503777 0.948043 0.202681
O O11 0.172830 0.824262 0.424098
O O12 0.564547 0.061131 0.410557
O O13 0.779624 0.728872 0.905063
O O14 0.714451 0.519785 0.028763
#
# Coordination Sequence:
#
# PCOD9120734 Si02
#       8
#     4   2   4   4   2   4   4   4
#     4   9  19  36  59  83 115 152 194 243 290 342
#     4  10  18  34  62  88 112 156 196 236 296 348
#     4  10  22  39  58  84 118 152 195 247 293 345
#     4  10  21  40  59  87 120 155 197 245 288 347
#     4  12  24  38  60  86 116 160 202 240 294 350
#     4  12  23  39  59  86 115 155 199 243 296 351
#     4   9  19  35  58  84 116 152 194 240 290 346
#     4   9  19  36  56  84 116 151 190 237 288 343
#
# _framework density 25.222522000000001
#
# number of rings (size 3 to 8) (size 9 to 14) (size 15 to 20)
#    0.000    2.286    0.000    5.143    0.000    3.429 
#    0.000    7.143    0.000    3.429    0.000    0.000 
#    0.000    0.000    0.000    0.000    0.000    0.000 
#
# Total GULP energy -78278.148661 kJ/mol
# GULP energy per Si atom -5591.296333 kJ/mol
# Density = 2.516511 g / cm^3
# Si number density = 25.222522 Si / 1000 Ang^3
#
#
#
# Elastic Constant Matrix: (Units=GPa)
#
#
# Indices 1 2 3 4 5 6 
#
# 1 73.2976 16.0459 28.4422 0.0000 18.6651 0.0000
# 2 16.0459 37.2128 20.3468 0.0000 -3.5258 0.0001
# 3 28.4422 20.3468 122.0934 -0.0004 20.8983 0.0000
# 4 0.0000 0.0000 -0.0004 33.9533 0.0000 -3.8207
# 5 18.6651 -3.5258 20.8983 0.0000 45.4722 0.0000
# 6 0.0000 0.0001 0.0000 -3.8207 0.0000 38.7728
#
#
#
# Elastic Compliance Matrix: (Units=1/GPa)
#
#
# Indices 1 2 3 4 5 6 
#
# 1 0.017714 -0.007386 -0.001686 0.000000 -0.007069 0.000000
# 2 -0.007386 0.033708 -0.005278 0.000000 0.008071 0.000000
# 3 -0.001686 -0.005278 0.010218 0.000000 -0.004413 0.000000
# 4 0.000000 0.000000 0.000000 0.029782 0.000000 0.002935
# 5 -0.007069 0.008071 -0.004413 0.000000 0.027547 0.000000
# 6 0.000000 0.000000 0.000000 0.002935 0.000000 0.026080
#
#
# Mechanical properties :
#
#
# Convention : Reuss Voigt Hill
#
# Bulk Modulus (GPa) = 30.35829 40.25262 35.30545
# Shear Modulus (GPa) = 27.06630 34.82427 30.94529
#
# Velocity S-wave (km/s) = 3.27938 3.71978 3.50650
# Velocity P-wave (km/s) = 5.13823 5.86879 5.51562
#
# Compressibility (1/GPa) = 0.03293993
#
# Stress axis : x y z
#
# Youngs Moduli (GPa) = 56.45168 29.66640 97.86463
#
# Poissons Ratio (x) = 0.21913 0.16497
# Poissons Ratio (y) = 0.41697 0.51656
# Poissons Ratio (z) = 0.09516 0.15659
#
# Static dielectric constant tensor:
#      x y z
#    x 2.041350 0.000000 -0.005650 
#    y 0.000000 1.953010 0.000000 
#    z -0.005650 0.000000 1.983370 
# 
# From -- ./inp_files/68643.got.cif
#   From: 2010.05.17/outbox.cif.g08.bks.cpg/sg5_35_cif.got.tgz:68643.got - 2010.06.03 18:56:24.
