data_PCOD9120660
_publ_section_title
;
Structure prediction by ZEFSAII (Michael W. Deem and Ramdas Pophale) SiO2 
 PCOD9120660
Probable space group: C 2
;
_chemical_formula_sum "Si O2"
_cell_formula_units_Z 30
_cell_length_a 21.566833
_cell_length_b 7.831987
_cell_length_c 9.232001
_cell_angle_alpha 90.000000
_cell_angle_beta 127.691619
_cell_angle_gamma 90.000000
_cell_volume 1233.963926
_symmetry_space_group_name_H-M "C 2"
_symmetry_group_IT_number 5
_symmetry_cell_setting 'monoclinic'
loop_
_space_group_symop_operation_xyz
x,y,z
-x,y,-z
1/2+x,1/2+y,z
1/2-x,1/2+y,-z
loop_
_atom_site_type_symbol
_atom_site_label
_atom_site_fract_x
_atom_site_fract_y
_atom_site_fract_z
Si Si1 0.500000 0.870311 0.500000
Si Si2 0.028758 0.799265 0.305317
Si Si3 0.768264 0.033708 0.943829
Si Si4 0.672327 0.632047 0.255289
Si Si5 0.103899 0.684173 0.698367
Si Si6 0.938539 0.176158 0.675083
Si Si7 0.719528 0.667581 0.742958
Si Si8 0.675292 0.233406 0.355185
O O1 0.495373 0.771981 0.645035
O O2 0.572678 0.998166 0.607157
O O3 0.073965 0.802015 0.524930
O O4 0.088356 0.692868 0.289398
O O5 0.943201 0.730408 0.222900
O O6 0.024303 0.991186 0.244799
O O7 0.829520 0.114565 0.919422
O O8 0.694389 0.159855 0.842332
O O9 0.738548 0.854703 0.836161
O O10 0.794899 0.037412 0.147161
O O11 0.599737 0.730155 0.225969
O O12 0.672791 0.435307 0.314004
O O13 0.756893 0.704971 0.427523
O O14 0.857835 0.168927 0.465499
O O15 0.792482 0.633431 0.739063
#
# Coordination Sequence:
#
# PCOD9120660 Si02
#       8
#     2   4   4   4   4   4   4   4
#     4  10  18  34  56  78 114 130 182 230 268 312
#     4   9  18  31  55  82 107 133 180 221 271 312
#     4  11  21  39  51  82 112 147 178 220 268 332
#     4   9  19  31  57  75 109 134 183 225 267 306
#     4  10  20  32  54  83 107 146 171 228 268 319
#     4  10  19  36  56  88 100 139 181 231 268 316
#     4  10  23  34  56  78 115 143 181 219 275 317
#     4   9  17  33  51  82 103 139 179 229 260 316
#
# _framework density 24.311895
#
# number of rings (size 3 to 8) (size 9 to 14) (size 15 to 20)
#    0.000    2.400    2.667    0.800    1.867    1.067 
#    0.000    0.667    0.000    0.800    0.000    0.000 
#    0.000    0.000    0.000    0.000    0.000    0.000 
#
# Total GULP energy -83742.662616 kJ/mol
# GULP energy per Si atom -5582.844174 kJ/mol
# Density = 2.425656 g / cm^3
# Si number density = 24.311895 Si / 1000 Ang^3
#
#
#
# Elastic Constant Matrix: (Units=GPa)
#
#
# Indices 1 2 3 4 5 6 
#
# 1 95.1209 25.2667 29.5307 0.0000 -33.7474 0.0000
# 2 25.2667 44.3351 1.4148 0.0000 -14.9520 0.0000
# 3 29.5307 1.4148 46.2187 0.0000 -19.2066 0.0000
# 4 0.0000 0.0000 0.0000 19.6209 0.0000 0.2688
# 5 -33.7474 -14.9520 -19.2066 0.0000 28.8938 0.0000
# 6 0.0000 0.0000 0.0000 0.2688 0.0000 21.3484
#
#
#
# Elastic Compliance Matrix: (Units=1/GPa)
#
#
# Indices 1 2 3 4 5 6 
#
# 1 0.019412 -0.005420 -0.005500 0.000000 0.016212 0.000000
# 2 -0.005420 0.030561 0.008938 0.000000 0.015426 0.000000
# 3 -0.005500 0.008938 0.033339 0.000000 0.020363 0.000000
# 4 0.000000 0.000000 0.000000 0.050975 0.000000 -0.000642
# 5 0.016212 0.015426 0.020363 0.000000 0.075063 0.000000
# 6 0.000000 0.000000 0.000000 -0.000642 0.000000 0.046850
#
#
# Mechanical properties :
#
#
# Convention : Reuss Voigt Hill
#
# Bulk Modulus (GPa) = 12.60275 33.12215 22.86245
# Shear Modulus (GPa) = 17.44511 22.60344 20.02428
#
# Velocity S-wave (km/s) = 2.68163 3.05245 2.87303
# Velocity P-wave (km/s) = 3.84489 5.10654 4.51995
#
# Compressibility (1/GPa) = 0.07934778
#
# Stress axis : x y z
#
# Youngs Moduli (GPa) = 51.51493 32.72101 29.99523
#
# Poissons Ratio (x) = 0.17734 0.16497
# Poissons Ratio (y) = 0.27921 -0.26809
# Poissons Ratio (z) = 0.28333 -0.29245
#
# Static dielectric constant tensor:
#      x y z
#    x 2.012240 0.000000 -0.045040 
#    y 0.000000 1.931390 0.000000 
#    z -0.045040 0.000000 2.023160 
# 
# From -- ./inp_files/30603.got.cif
#   From: 2010.05.17/outbox.cif.g08.bks.cpg/sg5_16_cif.got.tgz:30603.got - 2010.06.03 18:56:24.
