data_PCOD9120555
_publ_section_title
;
Structure prediction by ZEFSAII (Michael W. Deem and Ramdas Pophale) SiO2 
 PCOD9120555
Probable space group: C 2
;
_chemical_formula_sum "Si O2"
_cell_formula_units_Z 30
_cell_length_a 15.795150
_cell_length_b 13.413682
_cell_length_c 15.694904
_cell_angle_alpha 90.000000
_cell_angle_beta 27.096211
_cell_angle_gamma 90.000000
_cell_volume 1514.626293
_symmetry_space_group_name_H-M "C 2"
_symmetry_group_IT_number 5
_symmetry_cell_setting 'monoclinic'
loop_
_space_group_symop_operation_xyz
x,y,z
-x,y,-z
1/2+x,1/2+y,z
1/2-x,1/2+y,-z
loop_
_atom_site_type_symbol
_atom_site_label
_atom_site_fract_x
_atom_site_fract_y
_atom_site_fract_z
Si Si1 0.321105 0.540300 0.798611
Si Si2 0.902017 0.333799 0.313529
Si Si3 0.556038 0.035120 0.184359
Si Si4 0.823316 0.756510 0.100874
Si Si5 0.680682 0.652865 0.492139
Si Si6 0.514748 0.350350 0.577270
Si Si7 0.212815 0.742609 0.070069
Si Si8 0.500000 0.757512 0.500000
O O1 0.221352 0.637923 0.850901
O O2 0.507932 0.583953 0.675290
O O3 0.397702 0.452794 0.671761
O O4 0.176418 0.498925 0.996211
O O5 0.819480 0.251301 0.450727
O O6 0.730634 0.366338 0.407432
O O7 0.982421 0.431879 0.289119
O O8 0.074435 0.278595 0.113093
O O9 0.371678 0.095166 0.323659
O O10 0.681621 0.123542 0.111319
O O11 0.643669 0.808539 0.305762
O O12 0.837814 0.768674 0.984858
O O13 0.000000 0.782130 0.000000
O O14 0.627421 0.689706 0.446377
O O15 0.500000 0.295281 0.500000
O O16 0.416516 0.296126 0.744910
#
# Coordination Sequence:
#
# PCOD9120555 Si02
#       8
#     4   4   4   4   4   4   4   2
#     4  10  21  37  58  95 133 157 209 267 335 395
#     4  12  23  40  65  93 127 174 219 271 327 386
#     4  11  21  38  68  91 125 178 211 262 330 394
#     4  10  21  34  62  96 129 164 194 262 340 398
#     4  11  21  36  59  96 130 166 197 268 330 392
#     4  12  27  40  62  94 132 175 230 268 325 394
#     4  11  23  43  59  93 135 174 217 267 322 390
#     4  10  18  32  58  88 130 154 200 252 338 388
#
# _framework density 19.806865999999999
#
# number of rings (size 3 to 8) (size 9 to 14) (size 15 to 20)
#    0.000    1.067    8.000    1.600    3.733    2.667 
#    0.000    0.000    1.467    0.000    6.933    0.000 
#    0.000    0.000    0.000    0.000    0.000    0.000 
#
# Total GULP energy -83539.888911 kJ/mol
# GULP energy per Si atom -5569.325927 kJ/mol
# Density = 1.976178 g / cm^3
# Si number density = 19.806866 Si / 1000 Ang^3
#
#
#
# Elastic Constant Matrix: (Units=GPa)
#
#
# Indices 1 2 3 4 5 6 
#
# 1 65.7189 22.4867 56.1131 -0.0007 11.0704 0.0001
# 2 22.4867 65.1317 38.5970 -0.0023 0.4245 0.0018
# 3 56.1131 38.5970 132.6771 -0.0014 2.0494 0.0011
# 4 -0.0007 -0.0023 -0.0014 30.3485 0.0015 -1.4679
# 5 11.0704 0.4245 2.0494 0.0015 30.8836 -0.0009
# 6 0.0001 0.0018 0.0011 -1.4679 -0.0009 11.5562
#
#
#
# Elastic Compliance Matrix: (Units=1/GPa)
#
#
# Indices 1 2 3 4 5 6 
#
# 1 0.026389 -0.003045 -0.010140 0.000000 -0.008745 0.000000
# 2 -0.003045 0.018903 -0.004229 0.000001 0.001112 -0.000002
# 3 -0.010140 -0.004229 0.013012 0.000000 0.002829 0.000000
# 4 0.000000 0.000001 0.000000 0.033154 -0.000002 0.004211
# 5 -0.008745 0.001112 0.002829 -0.000002 0.035311 0.000002
# 6 0.000000 -0.000002 0.000000 0.004211 0.000002 0.087068
#
#
# Mechanical properties :
#
#
# Convention : Reuss Voigt Hill
#
# Bulk Modulus (GPa) = 42.59366 55.32457 48.95912
# Shear Modulus (GPa) = 19.49391 24.31305 21.90348
#
# Velocity S-wave (km/s) = 3.14060 3.50738 3.32904
# Velocity P-wave (km/s) = 5.89087 6.66295 6.28877
#
# Compressibility (1/GPa) = 0.02347767
#
# Stress axis : x y z
#
# Youngs Moduli (GPa) = 37.89472 52.90065 76.85259
#
# Poissons Ratio (x) = 0.16108 0.77927
# Poissons Ratio (y) = 0.11539 0.32497
# Poissons Ratio (z) = 0.38424 0.22369
#
# Static dielectric constant tensor:
#      x y z
#    x 1.697780 0.000000 0.005550 
#    y 0.000000 1.732970 0.000000 
#    z 0.005550 0.000000 1.764980 
# 
# From -- ./inp_files/54765.got.cif
#   From: 2010.05.17/outbox.cif.g08.bks.cpg/sg5_28_cif.got.tgz:54765.got - 2010.06.03 18:56:24.
