data_PCOD9120564
_publ_section_title
;
Structure prediction by ZEFSAII (Michael W. Deem and Ramdas Pophale) SiO2 
 PCOD9120564
Probable space group: C 2
;
_chemical_formula_sum "Si O2"
_cell_formula_units_Z 32
_cell_length_a 15.642100
_cell_length_b 8.234508
_cell_length_c 11.368186
_cell_angle_alpha 90.000000
_cell_angle_beta 89.634243
_cell_angle_gamma 90.000000
_cell_volume 1464.249335
_symmetry_space_group_name_H-M "C 2"
_symmetry_group_IT_number 5
_symmetry_cell_setting 'monoclinic'
loop_
_space_group_symop_operation_xyz
x,y,z
-x,y,-z
1/2+x,1/2+y,z
1/2-x,1/2+y,-z
loop_
_atom_site_type_symbol
_atom_site_label
_atom_site_fract_x
_atom_site_fract_y
_atom_site_fract_z
Si Si1 0.824222 0.324490 0.286770
Si Si2 0.111036 0.015773 0.842829
Si Si3 0.349563 0.035395 0.055522
Si Si4 0.736668 0.808992 0.281118
Si Si5 0.176289 0.197722 0.056626
Si Si6 0.875232 0.621019 0.415010
Si Si7 0.148115 0.641632 0.324826
Si Si8 0.489131 0.221471 0.192555
O O1 0.881189 0.174152 0.239720
O O2 0.819728 0.449470 0.177742
O O3 0.862500 0.428997 0.392648
O O4 0.731524 0.253364 0.314317
O O5 0.189063 0.897157 0.799923
O O6 0.026402 0.910868 0.829039
O O7 0.123452 0.075889 0.975940
O O8 0.274306 0.156563 0.015819
O O9 0.435622 0.126744 0.092816
O O10 0.354455 0.880470 0.971133
O O11 0.681403 0.693416 0.196830
O O12 0.786296 0.709379 0.379602
O O13 0.680072 0.956612 0.325427
O O14 0.894989 0.667128 0.547834
O O15 0.941782 0.678512 0.315903
O O16 0.085877 0.672503 0.215441
#
# Coordination Sequence:
#
# PCOD9120564 Si02
#       8
#     4   4   4   4   4   4   4   4
#     4   9  19  34  56  87 108 141 193 238 275 336
#     4   9  18  32  59  86 109 143 192 232 282 348
#     4  10  18  32  61  80 106 144 193 231 274 344
#     4  10  19  33  57  86 111 143 196 233 274 340
#     4  11  16  32  61  84 105 146 196 234 275 337
#     4  10  19  38  59  82 108 153 196 232 274 346
#     4  11  22  35  57  81 120 149 184 239 295 323
#     4  10  20  38  55  84 114 148 188 234 288 352
#
# _framework density 21.854202999999998
#
# number of rings (size 3 to 8) (size 9 to 14) (size 15 to 20)
#    0.000    2.000    5.000    1.125    0.000    0.000 
#    0.000    4.375    2.750   12.000    0.000    0.000 
#    0.000    0.000    0.000    0.000    0.000    0.000 
#
# Total GULP energy -89317.916601 kJ/mol
# GULP energy per Si atom -5582.369788 kJ/mol
# Density = 2.180446 g / cm^3
# Si number density = 21.854203 Si / 1000 Ang^3
#
#
#
# Elastic Constant Matrix: (Units=GPa)
#
#
# Indices 1 2 3 4 5 6 
#
# 1 51.7614 32.7324 32.5093 0.0000 14.7832 0.0000
# 2 32.7324 107.2262 20.0311 0.0000 14.8647 0.0000
# 3 32.5093 20.0311 56.3535 0.0000 15.3140 0.0000
# 4 0.0000 0.0000 0.0000 17.2251 0.0000 2.6265
# 5 14.7832 14.8647 15.3140 0.0000 35.9333 0.0000
# 6 0.0000 0.0000 0.0000 2.6265 0.0000 8.7078
#
#
#
# Elastic Compliance Matrix: (Units=1/GPa)
#
#
# Indices 1 2 3 4 5 6 
#
# 1 0.035688 -0.007119 -0.016815 0.000000 -0.004571 0.000000
# 2 -0.007119 0.011696 0.000530 0.000000 -0.002135 0.000000
# 3 -0.016815 0.000530 0.028768 0.000000 -0.005562 0.000000
# 4 0.000000 0.000000 0.000000 0.060853 0.000000 -0.018355
# 5 -0.004571 -0.002135 -0.005562 0.000000 0.032964 0.000000
# 6 0.000000 0.000000 0.000000 -0.018355 0.000000 0.120375
#
#
# Mechanical properties :
#
#
# Convention : Reuss Voigt Hill
#
# Bulk Modulus (GPa) = 34.07884 42.87630 38.47757
# Shear Modulus (GPa) = 14.41193 21.04447 17.72820
#
# Velocity S-wave (km/s) = 2.57078 3.10651 2.85125
# Velocity P-wave (km/s) = 4.94363 5.70342 5.33706
#
# Compressibility (1/GPa) = 0.02934372
#
# Stress axis : x y z
#
# Youngs Moduli (GPa) = 28.02083 85.49633 34.76035
#
# Poissons Ratio (x) = 0.60868 0.58449
# Poissons Ratio (y) = 0.19949 -0.01841
# Poissons Ratio (z) = 0.47117 -0.04529
#
# Static dielectric constant tensor:
#      x y z
#    x 1.812920 0.000000 -0.010960 
#    y 0.000000 1.807170 0.000000 
#    z -0.010960 0.000000 1.825440 
# 
# From -- ./inp_files/41974.got.cif
#   From: 2010.05.17/outbox.cif.g08.bks.cpg/sg5_21_cif.got.tgz:41974.got - 2010.06.03 18:56:24.
