data_PCOD9120636
_publ_section_title
;
Structure prediction by ZEFSAII (Michael W. Deem and Ramdas Pophale) SiO2 
 PCOD9120636
Probable space group: C 2
;
_chemical_formula_sum "Si O2"
_cell_formula_units_Z 32
_cell_length_a 11.593913
_cell_length_b 15.030464
_cell_length_c 15.046597
_cell_angle_alpha 90.000000
_cell_angle_beta 142.066746
_cell_angle_gamma 90.000000
_cell_volume 1611.886132
_symmetry_space_group_name_H-M "C 2"
_symmetry_group_IT_number 5
_symmetry_cell_setting 'monoclinic'
loop_
_space_group_symop_operation_xyz
x,y,z
-x,y,-z
1/2+x,1/2+y,z
1/2-x,1/2+y,-z
loop_
_atom_site_type_symbol
_atom_site_label
_atom_site_fract_x
_atom_site_fract_y
_atom_site_fract_z
Si Si1 0.843468 0.879930 0.082678
Si Si2 0.953900 0.078231 0.182714
Si Si3 0.488830 0.090552 0.746873
Si Si4 0.034230 0.448381 0.116283
Si Si5 0.093834 0.021788 0.462464
Si Si6 0.083790 0.849813 0.678541
Si Si7 0.189590 0.168917 0.176912
Si Si8 0.406238 0.205133 0.035620
O O1 0.946540 0.848328 0.234437
O O2 0.623122 0.872794 0.974244
O O3 0.878132 0.810571 0.026989
O O4 0.897510 0.982884 0.105413
O O5 0.993933 0.055199 0.310760
O O6 0.118322 0.120371 0.222767
O O7 0.785849 0.149314 0.075073
O O8 0.298205 0.066531 0.580834
O O9 0.669138 0.108171 0.795557
O O10 0.505797 0.008557 0.824620
O O11 0.473602 0.172233 0.806788
O O12 0.243027 0.414061 0.240992
O O13 0.000000 0.493523 0.000000
O O14 0.000000 0.049585 0.500000
O O15 0.088101 0.912087 0.460302
O O16 0.175812 0.753304 0.714777
O O17 0.000000 0.187332 0.000000
O O18 0.500000 0.185640 0.000000
#
# Coordination Sequence:
#
# PCOD9120636 Si02
#       8
#     4   4   4   4   4   4   4   4
#     4  10  20  37  60  96 133 165 221 287 345 395
#     4  11  24  43  67  97 137 182 227 279 351 408
#     4  12  23  39  64  98 134 178 221 285 340 406
#     4  10  18  33  64  95 123 170 230 282 331 384
#     4  11  24  44  64  94 134 182 229 278 337 405
#     4  10  20  38  65  91 129 172 225 285 329 397
#     4  12  22  43  71 105 139 172 228 294 347 404
#     4  12  23  39  66 100 133 180 233 286 342 406
#
# _framework density 19.852518
#
# number of rings (size 3 to 8) (size 9 to 14) (size 15 to 20)
#    0.000    1.000    5.000    3.000    1.750    2.000 
#    2.250    0.000    0.000    1.500    0.000    0.000 
#    0.000    0.000    0.000    0.000    0.000    0.000 
#
# Total GULP energy -89094.326104 kJ/mol
# GULP energy per Si atom -5568.395382 kJ/mol
# Density = 1.980733 g / cm^3
# Si number density = 19.852518 Si / 1000 Ang^3
#
#
#
# Elastic Constant Matrix: (Units=GPa)
#
#
# Indices 1 2 3 4 5 6 
#
# 1 133.1821 61.0252 14.6101 0.0005 -2.3066 0.0002
# 2 61.0252 115.9437 36.6385 0.0006 -2.4649 0.0003
# 3 14.6101 36.6385 72.1262 0.0013 2.4692 0.0007
# 4 0.0005 0.0006 0.0013 12.1126 0.0006 -10.4334
# 5 -2.3066 -2.4649 2.4692 0.0006 27.3082 0.0003
# 6 0.0002 0.0003 0.0007 -10.4334 0.0003 30.4117
#
#
#
# Elastic Compliance Matrix: (Units=1/GPa)
#
#
# Indices 1 2 3 4 5 6 
#
# 1 0.009932 -0.005459 0.000752 0.000000 0.000278 0.000000
# 2 -0.005459 0.013329 -0.005708 0.000000 0.001258 0.000000
# 3 0.000752 -0.005708 0.016679 -0.000002 -0.001960 -0.000001
# 4 0.000000 0.000000 -0.000002 0.117190 -0.000003 0.040205
# 5 0.000278 0.001258 -0.001960 -0.000003 0.036933 -0.000001
# 6 0.000000 0.000000 -0.000001 0.040205 -0.000001 0.046675
#
#
# Mechanical properties :
#
#
# Convention : Reuss Voigt Hill
#
# Bulk Modulus (GPa) = 52.33133 60.64441 56.48787
# Shear Modulus (GPa) = 18.66092 27.89836 23.27964
#
# Velocity S-wave (km/s) = 3.06923 3.75277 3.42808
# Velocity P-wave (km/s) = 6.24320 7.02791 6.64714
#
# Compressibility (1/GPa) = 0.01910901
#
# Stress axis : x y z
#
# Youngs Moduli (GPa) = 100.68034 75.02526 59.95601
#
# Poissons Ratio (x) = 0.40960 -0.04508
# Poissons Ratio (y) = 0.54966 0.34223
# Poissons Ratio (z) = -0.07569 0.42824
#
# Static dielectric constant tensor:
#      x y z
#    x 1.687820 0.000000 0.006000 
#    y 0.000000 1.766890 0.000000 
#    z 0.006000 0.000000 1.819730 
# 
# From -- ./inp_files/53205.got.cif
#   From: 2010.05.17/outbox.cif.g08.bks.cpg/sg5_27_cif.got.tgz:53205.got - 2010.06.03 18:56:24.
