data_PCOD9120266
_publ_section_title
;
Structure prediction by ZEFSAII (Michael W. Deem and Ramdas Pophale) SiO2 
 PCOD9120266
Probable space group: C 2
;
_chemical_formula_sum "Si O2"
_cell_formula_units_Z 32
_cell_length_a 11.025730
_cell_length_b 11.883041
_cell_length_c 10.465724
_cell_angle_alpha 90.000000
_cell_angle_beta 69.573297
_cell_angle_gamma 90.000000
_cell_volume 1284.988292
_symmetry_space_group_name_H-M "C 2"
_symmetry_group_IT_number 5
_symmetry_cell_setting 'monoclinic'
loop_
_space_group_symop_operation_xyz
x,y,z
-x,y,-z
1/2+x,1/2+y,z
1/2-x,1/2+y,-z
loop_
_atom_site_type_symbol
_atom_site_label
_atom_site_fract_x
_atom_site_fract_y
_atom_site_fract_z
Si Si1 0.854908 0.109340 0.530437
Si Si2 0.862303 0.169560 0.257120
Si Si3 0.923287 0.756873 0.246958
Si Si4 0.280148 0.915101 0.534379
Si Si5 0.041136 0.401057 0.783168
Si Si6 0.551609 0.477002 0.123711
Si Si7 0.707835 0.085256 0.849699
Si Si8 0.387129 0.072146 0.720446
O O1 0.810010 0.178925 0.422283
O O2 0.786796 0.112275 0.690813
O O3 0.000000 0.146079 0.500000
O O4 0.833566 0.980243 0.498800
O O5 0.952507 0.271885 0.182266
O O6 0.948967 0.059314 0.228275
O O7 0.738270 0.149731 0.215061
O O8 0.798147 0.821499 0.354718
O O9 0.881280 0.697057 0.127528
O O10 0.988163 0.655182 0.308314
O O11 0.032154 0.853409 0.190283
O O12 0.386844 0.899380 0.382753
O O13 0.351692 0.001818 0.605526
O O14 0.121911 0.476481 0.850549
O O15 0.910573 0.470336 0.810632
O O16 0.686975 0.542228 0.088625
O O17 0.500000 0.468906 0.000000
#
# Coordination Sequence:
#
# PCOD9120266 Si02
#       8
#     4   4   4   4   4   4   4   4
#     4  10  17  33  59  93 134 166 206 251 321 395
#     4  11  22  39  65  96 135 178 212 270 331 390
#     4  11  22  44  68  92 136 175 217 271 326 389
#     4  10  20  35  60 101 135 175 206 250 324 401
#     4  10  22  36  64  99 138 171 207 263 326 401
#     4  12  26  47  68  92 127 176 233 285 326 378
#     4  10  22  41  65  98 125 168 222 263 331 404
#     4  10  22  40  63  96 137 167 222 264 319 401
#
# _framework density 24.902951000000002
#
# number of rings (size 3 to 8) (size 9 to 14) (size 15 to 20)
#    0.000    1.500    3.750    1.875    1.750    5.000 
#    4.500    6.250    0.000    0.000    0.000    0.000 
#    0.000    0.000    0.000    0.000    0.000    0.000 
#
# Total GULP energy -89193.254950 kJ/mol
# GULP energy per Si atom -5574.578434 kJ/mol
# Density = 2.484627 g / cm^3
# Si number density = 24.902951 Si / 1000 Ang^3
#
#
#
# Elastic Constant Matrix: (Units=GPa)
#
#
# Indices 1 2 3 4 5 6 
#
# 1 121.7243 39.9664 28.7152 0.0000 22.7582 0.0000
# 2 39.9664 144.9803 21.4078 0.0000 7.9511 0.0000
# 3 28.7152 21.4078 73.9946 0.0000 -3.8487 0.0000
# 4 0.0000 0.0000 0.0000 -6.6096 0.0000 -1.0135
# 5 22.7582 7.9511 -3.8487 0.0000 30.8812 0.0000
# 6 0.0000 0.0000 0.0000 -1.0135 0.0000 8.7893
#
#
#
# Elastic Compliance Matrix: (Units=1/GPa)
#
#
# Indices 1 2 3 4 5 6 
#
# 1 0.011494 -0.002068 -0.004303 0.000000 -0.008474 0.000000
# 2 -0.002068 0.007719 -0.001464 0.000000 -0.000646 0.000000
# 3 -0.004303 -0.001464 0.015895 0.000000 0.005529 0.000000
# 4 0.000000 0.000000 0.000000 -0.148666 0.000000 -0.017143
# 5 -0.008474 -0.000646 0.005529 0.000000 0.039483 0.000000
# 6 0.000000 0.000000 0.000000 -0.017143 0.000000 0.111798
#
#
# Mechanical properties :
#
#
# Convention : Reuss Voigt Hill
#
# Bulk Modulus (GPa) = 51.44599 57.87530 54.66065
# Shear Modulus (GPa) = 83.50872 23.31950 53.41411
#
# Velocity S-wave (km/s) = 5.79711 3.06341 4.63632
# Velocity P-wave (km/s) = 8.09395 5.98360 7.11743
#
# Compressibility (1/GPa) = 0.01943786
#
# Stress axis : x y z
#
# Youngs Moduli (GPa) = 87.00323 129.54554 62.91089
#
# Poissons Ratio (x) = 0.26795 0.27069
# Poissons Ratio (y) = 0.17996 0.09212
# Poissons Ratio (z) = 0.37436 0.18968
#
# Static dielectric constant tensor:
#      x y z
#    x 2.030380 0.000000 -0.020820 
#    y 0.000000 2.070230 0.000000 
#    z -0.020820 0.000000 2.077660 
# 
# From -- ./inp_files/39187.got.cif
#   From: 2010.05.17/outbox.cif.g08.bks.cpg/sg5_20_cif.got.tgz:39187.got - 2010.06.03 18:56:24.
