data_PCOD9120803
_publ_section_title
;
Structure prediction by ZEFSAII (Michael W. Deem and Ramdas Pophale) SiO2 
 PCOD9120803
Probable space group: C 2
;
_chemical_formula_sum "Si O2"
_cell_formula_units_Z 16
_cell_length_a 18.422279
_cell_length_b 7.227509
_cell_length_c 6.654503
_cell_angle_alpha 90.000000
_cell_angle_beta 133.363293
_cell_angle_gamma 90.000000
_cell_volume 644.155649
_symmetry_space_group_name_H-M "C 2"
_symmetry_group_IT_number 5
_symmetry_cell_setting 'monoclinic'
loop_
_space_group_symop_operation_xyz
x,y,z
-x,y,-z
1/2+x,1/2+y,z
1/2-x,1/2+y,-z
loop_
_atom_site_type_symbol
_atom_site_label
_atom_site_fract_x
_atom_site_fract_y
_atom_site_fract_z
Si Si1 0.541670 0.245150 0.370905
Si Si2 0.664334 0.598585 0.758656
Si Si3 0.413858 0.559100 0.977832
Si Si4 0.298930 0.977340 0.360190
O O1 0.500000 0.166753 0.500000
O O2 0.615857 0.416736 0.568425
O O3 0.451231 0.349769 0.092924
O O4 0.605602 0.089029 0.386545
O O5 0.594188 0.652760 0.817580
O O6 0.680022 0.763391 0.635012
O O7 0.765404 0.546390 0.071372
O O8 0.500000 0.639718 0.000000
O O9 0.298812 0.531340 0.697460
#
# Coordination Sequence:
#
# PCOD9120803 Si02
#       4
#     4   4   4   4
#     4  10  19  35  60  83 115 156 197 236 286 346
#     4   9  17  33  60  83 109 154 197 234 277 353
#     4   9  20  38  56  86 126 147 188 257 291 335
#     4  10  18  35  61  83 112 153 196 234 285 352
#
# _framework density 24.838716000000002
#
# number of rings (size 3 to 8) (size 9 to 14) (size 15 to 20)
#    1.500    1.000    2.500    0.000    0.000    3.000 
#    4.500    0.000    0.000   19.500    0.000    0.000 
#    0.000    0.000    0.000    0.000    0.000    0.000 
#
# Total GULP energy -44623.801946 kJ/mol
# GULP energy per Si atom -5577.975243 kJ/mol
# Density = 2.478218 g / cm^3
# Si number density = 24.838716 Si / 1000 Ang^3
#
#
#
# Elastic Constant Matrix: (Units=GPa)
#
#
# Indices 1 2 3 4 5 6 
#
# 1 146.6393 46.1617 17.6829 0.0000 11.5063 0.0000
# 2 46.1617 93.7550 27.6459 0.0000 7.4817 0.0000
# 3 17.6829 27.6459 36.7810 0.0000 18.7443 0.0000
# 4 0.0000 0.0000 0.0000 37.2668 0.0000 14.2604
# 5 11.5063 7.4817 18.7443 0.0000 34.3295 0.0000
# 6 0.0000 0.0000 0.0000 14.2604 0.0000 28.0233
#
#
#
# Elastic Compliance Matrix: (Units=1/GPa)
#
#
# Indices 1 2 3 4 5 6 
#
# 1 0.008190 -0.003857 -0.000094 0.000000 -0.001853 0.000000
# 2 -0.003857 0.015859 -0.012419 0.000000 0.004617 0.000000
# 3 -0.000094 -0.012419 0.048732 0.000000 -0.023870 0.000000
# 4 0.000000 0.000000 0.000000 0.033322 0.000000 -0.016957
# 5 -0.001853 0.004617 -0.023870 0.000000 0.041778 0.000000
# 6 0.000000 0.000000 0.000000 -0.016957 0.000000 0.044314
#
#
# Mechanical properties :
#
#
# Convention : Reuss Voigt Hill
#
# Bulk Modulus (GPa) = 24.97402 51.12849 38.05126
# Shear Modulus (GPa) = 20.98359 32.30291 26.64325
#
# Velocity S-wave (km/s) = 2.90969 3.61017 3.27869
# Velocity P-wave (km/s) = 4.62219 6.16495 5.44845
#
# Compressibility (1/GPa) = 0.04004161
#
# Stress axis : x y z
#
# Youngs Moduli (GPa) = 122.09416 63.05707 20.52032
#
# Poissons Ratio (x) = 0.24321 0.00193
# Poissons Ratio (y) = 0.47092 0.25483
# Poissons Ratio (z) = 0.01149 0.78308
#
# Static dielectric constant tensor:
#      x y z
#    x 2.031150 0.000000 -0.062310 
#    y 0.000000 1.915940 0.000000 
#    z -0.062310 0.000000 2.075020 
# 
# From -- ./inp_files/18084.got.cif
#   From: 2010.05.17/outbox.cif.g08.bks.cpg/sg5_10_cif.got.tgz:18084.got - 2010.06.03 18:56:24.
