data_PCOD9120132
_publ_section_title
;
Structure prediction by ZEFSAII (Michael W. Deem and Ramdas Pophale) SiO2 
 PCOD9120132
Probable space group: C 2
;
_chemical_formula_sum "Si O2"
_cell_formula_units_Z 28
_cell_length_a 5.951944
_cell_length_b 29.384495
_cell_length_c 6.711431
_cell_angle_alpha 90.000000
_cell_angle_beta 76.649105
_cell_angle_gamma 90.000000
_cell_volume 1142.072027
_symmetry_space_group_name_H-M "C 2"
_symmetry_group_IT_number 5
_symmetry_cell_setting 'monoclinic'
loop_
_space_group_symop_operation_xyz
x,y,z
-x,y,-z
1/2+x,1/2+y,z
1/2-x,1/2+y,-z
loop_
_atom_site_type_symbol
_atom_site_label
_atom_site_fract_x
_atom_site_fract_y
_atom_site_fract_z
Si Si1 0.164164 0.239310 0.271124
Si Si2 0.574000 0.650863 0.708182
Si Si3 0.500000 0.210469 0.500000
Si Si4 0.178855 0.518417 0.739428
Si Si5 0.000000 0.859246 0.500000
Si Si6 0.737940 0.334239 0.834069
Si Si7 0.416955 0.914260 0.288409
Si Si8 0.321112 0.549628 0.255693
O O1 0.108572 0.189927 0.185293
O O2 0.412458 0.237525 0.325796
O O3 0.142803 0.285509 0.153841
O O4 0.000000 0.241983 0.500000
O O5 0.500000 0.637238 0.500000
O O6 0.805421 0.678660 0.629374
O O7 0.633002 0.603074 0.790889
O O8 0.249931 0.534202 0.497939
O O9 0.416827 0.528992 0.812590
O O10 0.127064 0.464888 0.775647
O O11 0.918200 0.538842 0.813526
O O12 0.829354 0.833612 0.386921
O O13 0.830355 0.889948 0.665009
O O14 0.893385 0.378923 0.834497
O O15 0.500000 0.336257 0.000000
O O16 0.500000 0.920242 0.500000
#
# Coordination Sequence:
#
# PCOD9120132 Si02
#       8
#     4   4   2   4   2   4   4   4
#     4   9  18  32  51  77 113 155 198 254 313 364
#     4   9  16  25  44  74 115 146 195 247 304 365
#     4   8  15  26  48  72 108 150 186 242 303 360
#     4  10  18  27  49  78 123 156 204 256 319 375
#     4  10  21  38  66  84 124 164 202 268 321 374
#     4  11  24  40  60  89 124 166 213 259 320 387
#     4  10  20  35  56  85 119 160 208 262 315 381
#     4  10  17  26  46  80 120 160 197 262 313 384
#
# _framework density 24.516843000000001
#
# number of rings (size 3 to 8) (size 9 to 14) (size 15 to 20)
#    0.000    2.571    2.857    3.429    4.000    1.714 
#    0.000    0.000    0.000    0.000    0.000    2.000 
#    0.000    0.000    0.000    0.000    0.000    0.000 
#
# Total GULP energy -78058.672089 kJ/mol
# GULP energy per Si atom -5575.619435 kJ/mol
# Density = 2.446104 g / cm^3
# Si number density = 24.516843 Si / 1000 Ang^3
#
#
#
# Elastic Constant Matrix: (Units=GPa)
#
#
# Indices 1 2 3 4 5 6 
#
# 1 184.8510 80.3692 34.9719 0.0000 -0.3240 0.0000
# 2 80.3692 252.2218 28.2201 0.0000 -23.9169 0.0000
# 3 34.9719 28.2201 75.8149 0.0000 -20.0213 0.0000
# 4 0.0000 0.0000 0.0000 -32.7174 0.0000 17.6229
# 5 -0.3240 -23.9169 -20.0213 0.0000 52.6662 0.0000
# 6 0.0000 0.0000 0.0000 17.6229 0.0000 -314.9067
#
#
#
# Elastic Compliance Matrix: (Units=1/GPa)
#
#
# Indices 1 2 3 4 5 6 
#
# 1 0.006849 -0.002044 -0.002926 0.000000 -0.001999 0.000000
# 2 -0.002044 0.004848 -0.000315 0.000000 0.002069 0.000000
# 3 -0.002926 -0.000315 0.016245 0.000000 0.006015 0.000000
# 4 0.000000 0.000000 0.000000 -0.031515 0.000000 -0.001764
# 5 -0.001999 0.002069 0.006015 0.000000 0.022201 0.000000
# 6 0.000000 0.000000 0.000000 -0.001764 0.000000 -0.003274
#
#
# Mechanical properties :
#
#
# Convention : Reuss Voigt Hill
#
# Bulk Modulus (GPa) = 57.56732 88.89001 73.22867
# Shear Modulus (GPa) = 157.65358 -34.36981 61.64189
#
# Velocity S-wave (km/s) = 8.02769 -3.74824 5.01969
# Velocity P-wave (km/s) = 10.46216 4.19560 7.97056
#
# Compressibility (1/GPa) = 0.01737097
#
# Stress axis : x y z
#
# Youngs Moduli (GPa) = 146.01300 206.28516 61.55623
#
# Poissons Ratio (x) = 0.42174 0.18011
# Poissons Ratio (y) = 0.29852 0.01939
# Poissons Ratio (z) = 0.42723 0.06497
#
# Static dielectric constant tensor:
#      x y z
#    x 2.008880 0.000000 0.040250 
#    y 0.000000 1.912420 0.000000 
#    z 0.040250 0.000000 2.060060 
# 
# From -- ./inp_files/13305.got.cif
#   From: 2010.05.17/outbox.cif.g08.bks.cpg/sg5_7_cif.got.tgz:13305.got - 2010.06.03 18:56:24.
