data_PCOD9120699
_publ_section_title
;
Structure prediction by ZEFSAII (Michael W. Deem and Ramdas Pophale) SiO2 
 PCOD9120699
Probable space group: C 2
;
_chemical_formula_sum "Si O2"
_cell_formula_units_Z 32
_cell_length_a 20.836742
_cell_length_b 8.784165
_cell_length_c 20.339272
_cell_angle_alpha 90.000000
_cell_angle_beta 153.701104
_cell_angle_gamma 90.000000
_cell_volume 1649.385923
_symmetry_space_group_name_H-M "C 2"
_symmetry_group_IT_number 5
_symmetry_cell_setting 'monoclinic'
loop_
_space_group_symop_operation_xyz
x,y,z
-x,y,-z
1/2+x,1/2+y,z
1/2-x,1/2+y,-z
loop_
_atom_site_type_symbol
_atom_site_label
_atom_site_fract_x
_atom_site_fract_y
_atom_site_fract_z
Si Si1 0.734133 0.346570 0.871760
Si Si2 0.763023 0.975066 0.907158
Si Si3 0.092973 0.954249 0.237554
Si Si4 0.207199 0.288058 0.356568
Si Si5 0.173188 0.811525 0.668590
Si Si6 0.049531 0.789935 0.319060
Si Si7 0.952195 0.470951 0.177087
Si Si8 0.828659 0.987535 0.826846
O O1 0.755457 0.161406 0.896509
O O2 0.719928 0.382759 0.781334
O O3 0.583675 0.380286 0.770830
O O4 0.858879 0.432042 0.026461
O O5 0.640895 0.918866 0.844922
O O6 0.761430 0.915699 0.830798
O O7 0.920736 0.931611 0.078148
O O8 0.121013 0.133956 0.262363
O O9 0.163428 0.896480 0.234320
O O10 0.141536 0.883553 0.350475
O O11 0.251863 0.369433 0.329512
O O12 0.350288 0.242629 0.528084
O O13 0.104058 0.389409 0.306254
O O14 0.232430 0.637920 0.727285
O O15 0.000000 0.814888 0.500000
O O16 0.984835 0.646505 0.220983
O O17 0.000000 0.025665 0.000000
#
# Coordination Sequence:
#
# PCOD9120699 Si02
#       8
#     4   4   4   4   4   4   4   4
#     4  10  19  35  57  82 112 148 194 239 281 338
#     4   9  17  33  56  82 108 141 191 239 273 328
#     4  10  18  34  59  81 112 145 186 235 282 330
#     4  11  22  37  58  88 113 151 191 241 289 340
#     4  10  19  33  56  84 115 144 190 247 288 324
#     4  11  22  36  55  86 121 150 185 234 295 349
#     4  11  22  35  58  85 118 153 190 230 293 351
#     4   8  17  31  55  84 107 142 189 241 280 322
#
# _framework density 19.401160999999998
#
# number of rings (size 3 to 8) (size 9 to 14) (size 15 to 20)
#    0.000    2.000    3.750    0.750    1.750    0.000 
#    0.000    0.000    8.250    0.000    0.000    0.000 
#    0.000    0.000    0.000    0.000    0.000    0.000 
#
# Total GULP energy -89126.658635 kJ/mol
# GULP energy per Si atom -5570.416165 kJ/mol
# Density = 1.935700 g / cm^3
# Si number density = 19.401161 Si / 1000 Ang^3
#
#
#
# Elastic Constant Matrix: (Units=GPa)
#
#
# Indices 1 2 3 4 5 6 
#
# 1 171.8308 26.4937 37.0351 -0.0001 -14.8412 0.0000
# 2 26.4937 13.8896 3.8357 -0.0001 -2.6706 -0.0001
# 3 37.0351 3.8357 69.9399 -0.0001 -4.4175 -0.0001
# 4 -0.0001 -0.0001 -0.0001 15.2107 -0.0001 1.1903
# 5 -14.8412 -2.6706 -4.4175 -0.0001 30.3625 0.0000
# 6 0.0000 -0.0001 -0.0001 1.1903 0.0000 22.9319
#
#
#
# Elastic Compliance Matrix: (Units=1/GPa)
#
#
# Indices 1 2 3 4 5 6 
#
# 1 0.009414 -0.016375 -0.003923 0.000000 0.002590 0.000000
# 2 -0.016375 0.102649 0.003135 0.000001 0.001481 0.000000
# 3 -0.003923 0.003135 0.016249 0.000000 0.000722 0.000000
# 4 0.000000 0.000001 0.000000 0.066011 0.000000 -0.003426
# 5 0.002590 0.001481 0.000722 0.000000 0.034437 0.000000
# 6 0.000000 0.000000 0.000000 -0.003426 0.000000 0.043785
#
#
# Mechanical properties :
#
#
# Convention : Reuss Voigt Hill
#
# Bulk Modulus (GPa) = 10.63989 43.37659 27.00824
# Shear Modulus (GPa) = 14.78414 26.25407 20.51911
#
# Velocity S-wave (km/s) = 2.76347 3.68261 3.25564
# Velocity P-wave (km/s) = 3.95960 6.36305 5.29938
#
# Compressibility (1/GPa) = 0.09398596
#
# Stress axis : x y z
#
# Youngs Moduli (GPa) = 106.22809 9.74191 61.54186
#
# Poissons Ratio (x) = 0.15952 0.24144
# Poissons Ratio (y) = 1.73945 -0.19292
# Poissons Ratio (z) = 0.41675 -0.03054
#
# Static dielectric constant tensor:
#      x y z
#    x 1.748670 0.000000 -0.025720 
#    y 0.000000 1.669560 0.000000 
#    z -0.025720 0.000000 1.690790 
# 
# From -- ./inp_files/29454.got.cif
#   From: 2010.05.17/outbox.cif.g08.bks.cpg/sg5_15_cif.got.tgz:29454.got - 2010.06.03 18:56:24.
