data_PCOD9120115
_publ_section_title
;
Structure prediction by ZEFSAII (Michael W. Deem and Ramdas Pophale) SiO2 
 PCOD9120115
Probable space group: C 2
;
_chemical_formula_sum "Si O2"
_cell_formula_units_Z 26
_cell_length_a 15.051536
_cell_length_b 8.850396
_cell_length_c 18.438792
_cell_angle_alpha 90.000000
_cell_angle_beta 154.897168
_cell_angle_gamma 90.000000
_cell_volume 1042.057985
_symmetry_space_group_name_H-M "C 2"
_symmetry_group_IT_number 5
_symmetry_cell_setting 'monoclinic'
loop_
_space_group_symop_operation_xyz
x,y,z
-x,y,-z
1/2+x,1/2+y,z
1/2-x,1/2+y,-z
loop_
_atom_site_type_symbol
_atom_site_label
_atom_site_fract_x
_atom_site_fract_y
_atom_site_fract_z
Si Si1 0.500000 0.346210 0.500000
Si Si2 0.152665 0.504503 0.749553
Si Si3 0.212250 0.813228 0.859851
Si Si4 0.403867 0.859974 0.155917
Si Si5 0.500000 0.065788 0.000000
Si Si6 0.000000 0.337118 0.500000
Si Si7 0.327174 0.100321 0.728569
Si Si8 0.680962 0.211092 0.490594
O O1 0.691877 0.456842 0.656344
O O2 0.572321 0.248366 0.487170
O O3 0.133057 0.434999 0.655679
O O4 0.228465 0.398355 0.870687
O O5 0.906060 0.543617 0.586978
O O6 0.263424 0.664150 0.849279
O O7 0.286918 0.799295 0.998194
O O8 0.325212 0.956132 0.907497
O O9 0.959101 0.814933 0.666736
O O10 0.580030 0.745928 0.317372
O O11 0.511489 0.016611 0.205384
O O12 0.578806 0.158917 0.126952
O O13 0.161526 0.223404 0.577765
#
# Coordination Sequence:
#
# PCOD9120115 Si02
#       8
#     2   4   4   4   2   2   4   4
#     4   9  13  32  58  84 111 149 212 246 294 363
#     4  10  23  41  59  93 127 169 206 264 324 373
#     4   9  21  38  63  89 120 159 220 261 300 379
#     4  10  21  41  62  91 122 168 221 251 314 378
#     4  10  16  38  64  88 118 158 216 256 304 374
#     4  11  23  38  62  94 135 159 202 260 330 379
#     4   9  19  33  59  90 117 161 198 255 307 374
#     4   9  19  36  62  87 115 166 208 258 303 369
#
# _framework density 24.950628999999999
#
# number of rings (size 3 to 8) (size 9 to 14) (size 15 to 20)
#    0.923    1.538    1.538    0.462    2.154    0.000 
#    8.308    2.308    0.000    0.000    0.000    0.000 
#    0.000    0.000    0.000    0.000    0.000    0.000 
#
# Total GULP energy -72431.341190 kJ/mol
# GULP energy per Si atom -5571.641630 kJ/mol
# Density = 2.489384 g / cm^3
# Si number density = 24.950629 Si / 1000 Ang^3
#
#
#
# Elastic Constant Matrix: (Units=GPa)
#
#
# Indices 1 2 3 4 5 6 
#
# 1 30.2873 5.0779 9.7505 0.0003 -13.0751 -0.0003
# 2 5.0779 65.8262 22.5006 0.0006 1.6298 0.0001
# 3 9.7505 22.5006 126.8768 0.0007 -25.8165 0.0007
# 4 0.0003 0.0006 0.0007 45.5882 0.0012 -5.3438
# 5 -13.0751 1.6298 -25.8165 0.0012 39.0638 0.0004
# 6 -0.0003 0.0001 0.0007 -5.3438 0.0004 19.0174
#
#
#
# Elastic Compliance Matrix: (Units=1/GPa)
#
#
# Indices 1 2 3 4 5 6 
#
# 1 0.039336 -0.003490 0.000352 -0.000001 0.013544 0.000000
# 2 -0.003490 0.016785 -0.003569 0.000000 -0.004227 0.000000
# 3 0.000352 -0.003569 0.009869 0.000000 0.006789 -0.000001
# 4 -0.000001 0.000000 0.000000 0.022683 -0.000001 0.006374
# 5 0.013544 -0.004227 0.006789 -0.000001 0.034796 -0.000001
# 6 0.000000 0.000000 -0.000001 0.006374 -0.000001 0.054375
#
#
# Mechanical properties :
#
#
# Convention : Reuss Voigt Hill
#
# Bulk Modulus (GPa) = 19.01980 33.07203 26.04592
# Shear Modulus (GPa) = 23.94843 33.11130 28.52986
#
# Velocity S-wave (km/s) = 3.10148 3.64685 3.38517
# Velocity P-wave (km/s) = 4.52383 5.56924 5.07354
#
# Compressibility (1/GPa) = 0.05257678
#
# Stress axis : x y z
#
# Youngs Moduli (GPa) = 25.42188 59.57627 101.32908
#
# Poissons Ratio (x) = 0.20793 -0.03566
# Poissons Ratio (y) = 0.08872 0.36160
# Poissons Ratio (z) = -0.00895 0.21260
#
# Static dielectric constant tensor:
#      x y z
#    x 2.002450 0.000000 0.048270 
#    y 0.000000 2.146410 0.000000 
#    z 0.048270 0.000000 2.203260 
# 
# From -- ./inp_files/62194.got.cif
#   From: 2010.05.17/outbox.cif.g08.bks.cpg/sg5_32_cif.got.tgz:62194.got - 2010.06.03 18:56:24.
