data_PCOD9120918
_publ_section_title
;
Structure prediction by ZEFSAII (Michael W. Deem and Ramdas Pophale) SiO2 
 PCOD9120918
Probable space group: C 2
;
_chemical_formula_sum "Si O2"
_cell_formula_units_Z 22
_cell_length_a 12.232399
_cell_length_b 8.781221
_cell_length_c 15.325773
_cell_angle_alpha 90.000000
_cell_angle_beta 29.007926
_cell_angle_gamma 90.000000
_cell_volume 798.304412
_symmetry_space_group_name_H-M "C 2"
_symmetry_group_IT_number 5
_symmetry_cell_setting 'monoclinic'
loop_
_space_group_symop_operation_xyz
x,y,z
-x,y,-z
1/2+x,1/2+y,z
1/2-x,1/2+y,-z
loop_
_atom_site_type_symbol
_atom_site_label
_atom_site_fract_x
_atom_site_fract_y
_atom_site_fract_z
Si Si1 0.311779 0.034720 0.372438
Si Si2 0.733671 0.717824 0.178206
Si Si3 0.500000 0.780160 0.500000
Si Si4 0.209289 0.430432 0.968359
Si Si5 0.250700 0.712144 0.419719
Si Si6 0.496504 0.599086 0.902553
O O1 0.499149 0.002007 0.168851
O O2 0.362904 0.096800 0.433717
O O3 0.169966 0.171096 0.432745
O O4 0.163295 0.882602 0.484933
O O5 0.648826 0.830358 0.315509
O O6 0.518156 0.741053 0.262602
O O7 0.747340 0.532471 0.148105
O O8 0.000000 0.744792 0.000000
O O9 0.163353 0.252791 0.985458
O O10 0.404821 0.466840 0.902315
O O11 0.274702 0.652335 0.305070
O O12 0.500000 0.558199 0.000000
#
# Coordination Sequence:
#
# PCOD9120918 Si02
#       6
#     4   4   2   4   4   4
#     4  10  20  40  59  95 130 166 220 274 326 396
#     4  10  18  36  63  97 125 169 219 270 329 392
#     4  10  20  32  66  90 122 168 220 254 324 394
#     4  10  21  38  67  96 131 172 220 284 329 402
#     4   9  22  38  64  94 132 167 223 275 327 401
#     4  10  22  42  66  93 134 175 228 272 342 405
#
# _framework density 27.558411
#
# number of rings (size 3 to 8) (size 9 to 14) (size 15 to 20)
#    0.000    2.182    1.818    0.545    2.545    4.364 
#    0.000    9.091   40.000    0.000    0.000    0.000 
#    0.000    0.000    0.000    0.000    0.000    0.000 
#
# Total GULP energy -61270.735625 kJ/mol
# GULP energy per Si atom -5570.066875 kJ/mol
# Density = 2.749569 g / cm^3
# Si number density = 27.558411 Si / 1000 Ang^3
#
#
#
# Elastic Constant Matrix: (Units=GPa)
#
#
# Indices 1 2 3 4 5 6 
#
# 1 100.0503 28.0073 27.9489 -0.0007 26.1195 0.0001
# 2 28.0073 100.9148 17.0107 -0.0020 12.0166 0.0003
# 3 27.9489 17.0107 124.1713 -0.0078 11.0583 0.0020
# 4 -0.0007 -0.0020 -0.0078 34.1103 0.0027 -4.6395
# 5 26.1195 12.0166 11.0583 0.0027 51.9354 -0.0004
# 6 0.0001 0.0003 0.0020 -4.6395 -0.0004 17.9694
#
#
#
# Elastic Compliance Matrix: (Units=1/GPa)
#
#
# Indices 1 2 3 4 5 6 
#
# 1 0.012669 -0.002537 -0.002027 0.000000 -0.005353 0.000000
# 2 -0.002537 0.010879 -0.000824 0.000000 -0.001066 0.000000
# 3 -0.002027 -0.000824 0.008679 0.000002 -0.000638 0.000000
# 4 0.000000 0.000000 0.000002 0.030384 -0.000002 0.007845
# 5 -0.005353 -0.001066 -0.000638 -0.000002 0.022329 0.000000
# 6 0.000000 0.000000 0.000000 0.007845 0.000000 0.057675
#
#
# Mechanical properties :
#
#
# Convention : Reuss Voigt Hill
#
# Bulk Modulus (GPa) = 46.61944 52.34113 49.48029
# Shear Modulus (GPa) = 31.14424 37.61433 34.37928
#
# Velocity S-wave (km/s) = 3.36537 3.69846 3.53584
# Velocity P-wave (km/s) = 5.66165 6.10509 5.88755
#
# Compressibility (1/GPa) = 0.02145028
#
# Stress axis : x y z
#
# Youngs Moduli (GPa) = 78.93345 91.91749 115.21477
#
# Poissons Ratio (x) = 0.23319 0.23358
# Poissons Ratio (y) = 0.20025 0.09499
# Poissons Ratio (z) = 0.16002 0.07578
#
# Static dielectric constant tensor:
#      x y z
#    x 2.137810 0.000000 0.066700 
#    y 0.000000 2.236170 0.000000 
#    z 0.066700 0.000000 2.604420 
# 
# From -- ./inp_files/61367.got.cif
#   From: 2010.05.17/outbox.cif.g08.bks.cpg/sg5_31_cif.got.tgz:61367.got - 2010.06.03 18:56:24.
