data_PCOD9120131
_publ_section_title
;
Structure prediction by ZEFSAII (Michael W. Deem and Ramdas Pophale) SiO2 
 PCOD9120131
Probable space group: C 2
;
_chemical_formula_sum "Si O2"
_cell_formula_units_Z 26
_cell_length_a 22.890568
_cell_length_b 7.992512
_cell_length_c 7.071061
_cell_angle_alpha 90.000000
_cell_angle_beta 110.781338
_cell_angle_gamma 90.000000
_cell_volume 1209.508125
_symmetry_space_group_name_H-M "C 2"
_symmetry_group_IT_number 5
_symmetry_cell_setting 'monoclinic'
loop_
_space_group_symop_operation_xyz
x,y,z
-x,y,-z
1/2+x,1/2+y,z
1/2-x,1/2+y,-z
loop_
_atom_site_type_symbol
_atom_site_label
_atom_site_fract_x
_atom_site_fract_y
_atom_site_fract_z
Si Si1 0.680410 0.608660 0.466857
Si Si2 0.500000 0.086675 0.500000
Si Si3 0.182839 0.733646 0.478102
Si Si4 0.119883 0.748968 0.815019
Si Si5 0.684567 0.563536 0.927616
Si Si6 0.393416 0.918442 0.574113
Si Si7 0.320840 0.930037 0.091579
O O1 0.745488 0.685149 0.469891
O O2 0.671376 0.419300 0.383839
O O3 0.688026 0.592795 0.704118
O O4 0.624599 0.739147 0.363133
O O5 0.551273 0.200610 0.664411
O O6 0.464097 0.970865 0.610931
O O7 0.163717 0.751119 0.677051
O O8 0.140732 0.575950 0.368209
O O9 0.149010 0.595444 0.966492
O O10 0.129207 0.933554 0.906158
O O11 0.677767 0.749194 0.004090
O O12 0.749378 0.474657 0.056292
O O13 0.361784 0.911685 0.328554
#
# Coordination Sequence:
#
# PCOD9120131 Si02
#       7
#     4   2   4   4   4   4   4
#     4  10  17  26  43  66  92 120 148 184 233 268
#     4   8  16  32  46  60  94 130 152 174 222 278
#     4   9  16  27  41  63  93 117 147 187 226 270
#     4   9  18  30  44  65  91 126 146 184 224 271
#     4  10  17  26  43  66  92 120 148 184 233 268
#     4   9  18  30  44  65  91 126 146 184 224 271
#     4   9  16  27  41  63  93 117 147 187 226 270
#
# _framework density 21.496341999999999
#
# number of rings (size 3 to 8) (size 9 to 14) (size 15 to 20)
#    0.000    3.077    3.077    0.000    0.000    0.000 
#    0.000   19.231    0.000    0.000    0.000   17.231 
#    0.000    0.000   29.538    0.000    0.000    0.000 
#
# Total GULP energy -72437.959376 kJ/mol
# GULP energy per Si atom -5572.150721 kJ/mol
# Density = 2.144742 g / cm^3
# Si number density = 21.496342 Si / 1000 Ang^3
#
#
#
# Elastic Constant Matrix: (Units=GPa)
#
#
# Indices 1 2 3 4 5 6 
#
# 1 99.5932 55.3241 27.1865 0.0000 18.5436 0.0000
# 2 55.3241 216.3488 1.8427 0.0000 20.8252 0.0000
# 3 27.1865 1.8427 45.0147 0.0000 -11.7363 0.0000
# 4 0.0000 0.0000 0.0000 25.2215 0.0000 26.8267
# 5 18.5436 20.8252 -11.7363 0.0000 33.7711 0.0000
# 6 0.0000 0.0000 0.0000 26.8267 0.0000 33.5482
#
#
#
# Elastic Compliance Matrix: (Units=1/GPa)
#
#
# Indices 1 2 3 4 5 6 
#
# 1 0.018117 -0.003276 -0.014158 0.000000 -0.012849 0.000000
# 2 -0.003276 0.005555 0.001459 0.000000 -0.001120 0.000000
# 3 -0.014158 0.001459 0.035736 0.000000 0.019294 0.000000
# 4 0.000000 0.000000 0.000000 0.265278 0.000000 -0.212128
# 5 -0.012849 -0.001120 0.019294 0.000000 0.044062 0.000000
# 6 0.000000 0.000000 0.000000 -0.212128 0.000000 0.199435
#
#
# Mechanical properties :
#
#
# Convention : Reuss Voigt Hill
#
# Bulk Modulus (GPa) = 36.41704 58.85146 47.63425
# Shear Modulus (GPa) = 8.20632 36.94839 22.57735
#
# Velocity S-wave (km/s) = 1.95597 4.15037 3.24433
# Velocity P-wave (km/s) = 4.69882 7.09959 6.02010
#
# Compressibility (1/GPa) = 0.02745967
#
# Stress axis : x y z
#
# Youngs Moduli (GPa) = 55.19531 180.01221 27.98295
#
# Poissons Ratio (x) = 0.58965 0.39618
# Poissons Ratio (y) = 0.18080 -0.04082
# Poissons Ratio (z) = 0.78144 -0.26261
#
# Static dielectric constant tensor:
#      x y z
#    x 1.748910 0.000000 -0.028950 
#    y 0.000000 1.935500 0.000000 
#    z -0.028950 0.000000 1.760640 
# 
# From -- ./inp_files/30491.got.cif
#   From: 2010.05.17/outbox.cif.g08.bks.cpg/sg5_16_cif.got.tgz:30491.got - 2010.06.03 18:56:24.
