data_PCOD9120778
_publ_section_title
;
Structure prediction by ZEFSAII (Michael W. Deem and Ramdas Pophale) SiO2 
 PCOD9120778
Probable space group: C 2
;
_chemical_formula_sum "Si O2"
_cell_formula_units_Z 28
_cell_length_a 11.463180
_cell_length_b 9.196808
_cell_length_c 19.170287
_cell_angle_alpha 90.000000
_cell_angle_beta 136.443068
_cell_angle_gamma 90.000000
_cell_volume 1392.635120
_symmetry_space_group_name_H-M "C 2"
_symmetry_group_IT_number 5
_symmetry_cell_setting 'monoclinic'
loop_
_space_group_symop_operation_xyz
x,y,z
-x,y,-z
1/2+x,1/2+y,z
1/2-x,1/2+y,-z
loop_
_atom_site_type_symbol
_atom_site_label
_atom_site_fract_x
_atom_site_fract_y
_atom_site_fract_z
Si Si1 0.176337 0.093050 0.824313
Si Si2 0.500000 0.647340 0.500000
Si Si3 0.303964 0.076368 0.730124
Si Si4 0.375116 0.826953 0.675415
Si Si5 0.500000 0.279722 0.000000
Si Si6 0.037728 0.891335 0.168918
Si Si7 0.302163 0.065383 0.354644
Si Si8 0.841005 0.413671 0.506834
O O1 0.249435 0.031679 0.783797
O O2 0.032024 0.213326 0.740468
O O3 0.102695 0.969348 0.843535
O O4 0.332114 0.180233 0.925581
O O5 0.633295 0.574710 0.609316
O O6 0.387607 0.754647 0.498936
O O7 0.389953 0.235732 0.772202
O O8 0.424877 0.961394 0.745319
O O9 0.226694 0.734036 0.647283
O O10 0.303985 0.888066 0.571334
O O11 0.493347 0.369371 0.069058
O O12 0.193576 0.002021 0.244988
O O13 0.236249 0.988481 0.398909
O O14 0.490981 0.013338 0.422848
#
# Coordination Sequence:
#
# PCOD9120778 Si02
#       8
#     4   2   4   4   2   4   4   4
#     4  10  23  43  60  89 120 147 196 250 298 358
#     4  10  18  36  56  84 122 160 196 234 276 334
#     4  11  22  38  60  89 121 160 199 238 285 348
#     4  11  23  35  60  89 119 158 201 236 287 344
#     4  10  22  40  66  88 112 146 196 252 302 366
#     4  10  20  40  65  83 115 157 188 241 309 350
#     4   9  20  36  56  85 119 155 194 240 278 345
#     4  10  18  35  57  80 126 158 195 232 282 329
#
# _framework density 20.105768999999999
#
# number of rings (size 3 to 8) (size 9 to 14) (size 15 to 20)
#    0.000    2.000    4.286    0.857    2.000    4.571 
#    0.000    2.857    0.000    1.714    0.000    0.000 
#    0.000    0.000    0.000    0.000    0.000    0.000 
#
# Total GULP energy -78027.578689 kJ/mol
# GULP energy per Si atom -5573.398478 kJ/mol
# Density = 2.006001 g / cm^3
# Si number density = 20.105769 Si / 1000 Ang^3
#
#
#
# Elastic Constant Matrix: (Units=GPa)
#
#
# Indices 1 2 3 4 5 6 
#
# 1 69.9923 36.0815 35.7488 0.0000 -30.9774 0.0000
# 2 36.0815 76.0569 23.6757 0.0000 -22.6245 0.0000
# 3 35.7488 23.6757 111.2669 0.0000 -23.9857 0.0000
# 4 0.0000 0.0000 0.0000 5.2182 0.0000 5.2460
# 5 -30.9774 -22.6245 -23.9857 0.0000 34.8985 0.0000
# 6 0.0000 0.0000 0.0000 5.2460 0.0000 41.3190
#
#
#
# Elastic Compliance Matrix: (Units=1/GPa)
#
#
# Indices 1 2 3 4 5 6 
#
# 1 0.027247 -0.006626 -0.003588 0.000000 0.017424 0.000000
# 2 -0.006626 0.018088 -0.000540 0.000000 0.005473 0.000000
# 3 -0.003588 -0.000540 0.011144 0.000000 0.004124 0.000000
# 4 0.000000 0.000000 0.000000 0.219675 0.000000 -0.027891
# 5 0.017424 0.005473 0.004124 0.000000 0.050504 0.000000
# 6 0.000000 0.000000 0.000000 -0.027891 0.000000 0.027743
#
#
# Mechanical properties :
#
#
# Convention : Reuss Voigt Hill
#
# Bulk Modulus (GPa) = 28.59539 49.81424 39.20481
# Shear Modulus (GPa) = 12.90099 27.07449 19.98774
#
# Velocity S-wave (km/s) = 2.53584 3.67359 3.15640
# Velocity P-wave (km/s) = 4.77780 6.54397 5.72935
#
# Compressibility (1/GPa) = 0.03497068
#
# Stress axis : x y z
#
# Youngs Moduli (GPa) = 36.70071 55.28605 89.73254
#
# Poissons Ratio (x) = 0.36633 0.32198
# Poissons Ratio (y) = 0.24318 0.04845
# Poissons Ratio (z) = 0.13169 0.02985
#
# Static dielectric constant tensor:
#      x y z
#    x 1.745450 0.000000 0.002960 
#    y 0.000000 1.723950 0.000000 
#    z 0.002960 0.000000 1.744250 
# 
# From -- ./inp_files/47963.got.cif
#   From: 2010.05.17/outbox.cif.g08.bks.cpg/sg5_24_cif.got.tgz:47963.got - 2010.06.03 18:56:24.
