data_PCOD9120984
_publ_section_title
;
Structure prediction by ZEFSAII (Michael W. Deem and Ramdas Pophale) SiO2 
 PCOD9120984
Probable space group: C 2
;
_chemical_formula_sum "Si O2"
_cell_formula_units_Z 32
_cell_length_a 22.869875
_cell_length_b 8.269639
_cell_length_c 8.045032
_cell_angle_alpha 90.000000
_cell_angle_beta 114.319342
_cell_angle_gamma 90.000000
_cell_volume 1386.508311
_symmetry_space_group_name_H-M "C 2"
_symmetry_group_IT_number 5
_symmetry_cell_setting 'monoclinic'
loop_
_space_group_symop_operation_xyz
x,y,z
-x,y,-z
1/2+x,1/2+y,z
1/2-x,1/2+y,-z
loop_
_atom_site_type_symbol
_atom_site_label
_atom_site_fract_x
_atom_site_fract_y
_atom_site_fract_z
Si Si1 0.230381 0.838050 0.774922
Si Si2 0.195515 0.097773 0.955588
Si Si3 0.568782 0.777488 0.934510
Si Si4 0.348238 0.942763 0.721152
Si Si5 0.963997 0.061635 0.635841
Si Si6 0.338737 0.767638 0.397165
Si Si7 0.567384 0.015165 0.653248
Si Si8 0.390682 0.254350 0.562339
O O1 0.294679 0.938177 0.802377
O O2 0.176834 0.832568 0.571133
O O3 0.199986 0.913773 0.906563
O O4 0.254228 0.658799 0.850321
O O5 0.127241 0.165872 0.935012
O O6 0.205848 0.184507 0.788878
O O7 0.508449 0.668020 0.810187
O O8 0.563643 0.953324 0.836757
O O9 0.592265 0.835775 0.142335
O O10 0.312332 0.840937 0.534709
O O11 0.374865 0.108701 0.672372
O O12 0.941232 0.888690 0.681679
O O13 0.000000 0.043068 0.500000
O O14 0.897448 0.150272 0.513017
O O15 0.373208 0.914642 0.345820
O O16 0.500000 0.954971 0.500000
O O17 0.579618 0.185442 0.577718
#
# Coordination Sequence:
#
# PCOD9120984 Si02
#       8
#     4   4   4   4   4   4   4   4
#     4  11  24  42  65  95 137 174 226 283 334 388
#     4  10  22  39  66  97 122 174 230 277 322 400
#     4  10  20  42  71  92 129 181 228 263 350 412
#     4  10  26  41  62  95 141 187 213 267 350 419
#     4  12  19  40  76  97 126 171 233 291 320 393
#     4  10  19  39  63  91 126 175 222 253 340 410
#     4  10  18  37  65  94 123 170 213 276 328 394
#     4  11  25  39  66 104 134 169 231 282 343 391
#
# _framework density 23.079557999999999
#
# number of rings (size 3 to 8) (size 9 to 14) (size 15 to 20)
#    0.000    1.500    5.000    0.375    8.750    0.500 
#    0.000    2.500   11.000    0.000    0.000    0.000 
#    0.000    0.000    0.000    0.000    0.000    0.000 
#
# Total GULP energy -89174.503279 kJ/mol
# GULP energy per Si atom -5573.406455 kJ/mol
# Density = 2.302703 g / cm^3
# Si number density = 23.079558 Si / 1000 Ang^3
#
#
#
# Elastic Constant Matrix: (Units=GPa)
#
#
# Indices 1 2 3 4 5 6 
#
# 1 90.1697 48.9533 33.7862 0.0000 8.3060 0.0000
# 2 48.9533 91.3823 26.1094 0.0000 6.6991 0.0000
# 3 33.7862 26.1094 78.6591 0.0000 18.6395 0.0000
# 4 0.0000 0.0000 0.0000 35.0131 0.0000 0.0559
# 5 8.3060 6.6991 18.6395 0.0000 23.8530 0.0000
# 6 0.0000 0.0000 0.0000 0.0559 0.0000 27.9179
#
#
#
# Elastic Compliance Matrix: (Units=1/GPa)
#
#
# Indices 1 2 3 4 5 6 
#
# 1 0.017112 -0.007807 -0.004745 0.000000 -0.000058 0.000000
# 2 -0.007807 0.015653 -0.001773 0.000000 -0.000292 0.000000
# 3 -0.004745 -0.001773 0.018200 0.000000 -0.012072 0.000000
# 4 0.000000 0.000000 0.000000 0.028561 0.000000 -0.000057
# 5 -0.000058 -0.000292 -0.012072 0.000000 0.051459 0.000000
# 6 0.000000 0.000000 0.000000 -0.000057 0.000000 0.035819
#
#
# Mechanical properties :
#
#
# Convention : Reuss Voigt Hill
#
# Bulk Modulus (GPa) = 44.81208 53.10100 48.95654
# Shear Modulus (GPa) = 24.64349 27.44762 26.04556
#
# Velocity S-wave (km/s) = 3.27121 3.45231 3.36298
# Velocity P-wave (km/s) = 5.80743 6.24091 6.02807
#
# Compressibility (1/GPa) = 0.02231541
#
# Stress axis : x y z
#
# Youngs Moduli (GPa) = 58.43930 63.88469 54.94377
#
# Poissons Ratio (x) = 0.49873 0.26070
# Poissons Ratio (y) = 0.45622 0.09744
# Poissons Ratio (z) = 0.27728 0.11329
#
# Static dielectric constant tensor:
#      x y z
#    x 1.901950 0.000000 -0.044560 
#    y 0.000000 1.959150 0.000000 
#    z -0.044560 0.000000 1.890800 
# 
# From -- ./inp_files/31578.got.cif
#   From: 2010.05.17/outbox.cif.g08.bks.cpg/sg5_16_cif.got.tgz:31578.got - 2010.06.03 18:56:24.
