data_PCOD9120183
_publ_section_title
;
Structure prediction by ZEFSAII (Michael W. Deem and Ramdas Pophale) SiO2 
 PCOD9120183
Probable space group: C 2
;
_chemical_formula_sum "Si O2"
_cell_formula_units_Z 24
_cell_length_a 16.955783
_cell_length_b 9.727176
_cell_length_c 17.917897
_cell_angle_alpha 90.000000
_cell_angle_beta 161.046322
_cell_angle_gamma 90.000000
_cell_volume 959.870236
_symmetry_space_group_name_H-M "C 2"
_symmetry_group_IT_number 5
_symmetry_cell_setting 'monoclinic'
loop_
_space_group_symop_operation_xyz
x,y,z
-x,y,-z
1/2+x,1/2+y,z
1/2-x,1/2+y,-z
loop_
_atom_site_type_symbol
_atom_site_label
_atom_site_fract_x
_atom_site_fract_y
_atom_site_fract_z
Si Si1 0.220224 0.140830 0.743931
Si Si2 0.845570 0.361102 0.769590
Si Si3 0.459161 0.058157 0.251962
Si Si4 0.757839 0.813664 0.491752
Si Si5 0.233070 0.580717 0.755802
Si Si6 0.179965 0.001868 0.861085
O O1 0.131905 0.101636 0.748000
O O2 0.000000 0.211146 0.500000
O O3 0.259093 0.997428 0.733846
O O4 0.500000 0.196965 0.000000
O O5 0.725219 0.338878 0.581838
O O6 0.789448 0.226823 0.766817
O O7 0.122478 0.395370 0.996595
O O8 0.695680 0.154735 0.452537
O O9 0.347407 0.094934 0.230819
O O10 0.525409 0.896771 0.311295
O O11 0.296583 0.084220 0.034141
O O12 0.980700 0.904263 0.719996
O O13 0.000000 0.525267 0.500000
O O14 0.500000 0.510172 0.000000
#
# Coordination Sequence:
#
# PCOD9120183 Si02
#       6
#     4   4   4   4   4   4
#     4  10  17  30  55  93 128 173 226 293 349 408
#     4  10  19  35  64 101 134 178 246 310 353 417
#     4  11  26  41  69 113 148 199 237 321 376 454
#     4  11  22  43  66 105 151 188 247 305 385 443
#     4  12  24  40  70 108 140 187 261 311 363 427
#     4  10  22  36  62 101 149 187 235 309 380 430
#
# _framework density 25.00338
#
# number of rings (size 3 to 8) (size 9 to 14) (size 15 to 20)
#    0.000    1.333    3.333    4.000    2.333    2.667 
#    0.000    0.000    0.000    0.000   47.667    1.167 
#    0.000    0.000    0.000    0.000    0.000    0.000 
#
# Total GULP energy -67055.818824 kJ/mol
# GULP energy per Si atom -5587.984902 kJ/mol
# Density = 2.494647 g / cm^3
# Si number density = 25.003380 Si / 1000 Ang^3
#
#
#
# Elastic Constant Matrix: (Units=GPa)
#
#
# Indices 1 2 3 4 5 6 
#
# 1 109.2173 16.2670 30.4482 -0.0066 -17.9502 -0.0023
# 2 16.2670 112.0091 16.9028 -0.0251 -9.8931 -0.0023
# 3 30.4482 16.9028 156.9084 -0.0114 -11.1178 0.0006
# 4 -0.0066 -0.0251 -0.0114 -11.5663 -0.0035 -14.1764
# 5 -17.9502 -9.8931 -11.1178 -0.0035 49.3672 0.0002
# 6 -0.0023 -0.0023 0.0006 -14.1764 0.0002 17.2240
#
#
#
# Elastic Compliance Matrix: (Units=1/GPa)
#
#
# Indices 1 2 3 4 5 6 
#
# 1 0.010285 -0.000962 -0.001668 -0.000002 0.003172 -0.000001
# 2 -0.000962 0.009295 -0.000719 -0.000010 0.001351 -0.000007
# 3 -0.001668 -0.000719 0.006830 -0.000002 0.000788 -0.000002
# 4 -0.000002 -0.000010 -0.000002 -0.043040 -0.000006 -0.035424
# 5 0.003172 0.001351 0.000788 -0.000006 0.021858 -0.000005
# 6 -0.000001 -0.000007 -0.000002 -0.035424 -0.000005 0.028902
#
#
# Mechanical properties :
#
#
# Convention : Reuss Voigt Hill
#
# Bulk Modulus (GPa) = 50.72562 56.15231 53.43897
# Shear Modulus (GPa) = 105.48675 31.97276 68.72976
#
# Velocity S-wave (km/s) = 6.50235 3.57982 5.24861
# Velocity P-wave (km/s) = 8.75818 6.29234 7.62559
#
# Compressibility (1/GPa) = 0.01971390
#
# Stress axis : x y z
#
# Youngs Moduli (GPa) = 97.22443 107.58041 146.41289
#
# Poissons Ratio (x) = 0.10349 0.24415
# Poissons Ratio (y) = 0.09353 0.10526
# Poissons Ratio (z) = 0.16213 0.07734
#
# Static dielectric constant tensor:
#      x y z
#    x 1.913910 0.000000 0.038970 
#    y 0.000000 1.922830 0.000000 
#    z 0.038970 0.000000 2.157900 
# 
# From -- ./inp_files/62419.got.cif
#   From: 2010.05.17/outbox.cif.g08.bks.cpg/sg5_32_cif.got.tgz:62419.got - 2010.06.03 18:56:24.
