data_PCOD9120121
_publ_section_title
;
Structure prediction by ZEFSAII (Michael W. Deem and Ramdas Pophale) SiO2 
 PCOD9120121
Probable space group: C 2
;
_chemical_formula_sum "Si O2"
_cell_formula_units_Z 28
_cell_length_a 11.946451
_cell_length_b 20.825282
_cell_length_c 7.990096
_cell_angle_alpha 90.000000
_cell_angle_beta 50.870062
_cell_angle_gamma 90.000000
_cell_volume 1542.002120
_symmetry_space_group_name_H-M "C 2"
_symmetry_group_IT_number 5
_symmetry_cell_setting 'monoclinic'
loop_
_space_group_symop_operation_xyz
x,y,z
-x,y,-z
1/2+x,1/2+y,z
1/2-x,1/2+y,-z
loop_
_atom_site_type_symbol
_atom_site_label
_atom_site_fract_x
_atom_site_fract_y
_atom_site_fract_z
Si Si1 0.000000 0.513561 0.500000
Si Si2 0.581925 0.228300 0.257240
Si Si3 0.850779 0.193074 0.230070
Si Si4 0.883098 0.421862 0.850549
Si Si5 0.134226 0.613218 0.628306
Si Si6 0.646882 0.340218 0.938197
Si Si7 0.500000 0.024490 0.000000
Si Si8 0.100342 0.307339 0.556156
O O1 0.116523 0.465467 0.314831
O O2 0.077708 0.559419 0.555133
O O3 0.500000 0.256102 0.500000
O O4 0.731078 0.203141 0.197467
O O5 0.479895 0.171599 0.283271
O O6 0.609127 0.276928 0.080867
O O7 0.784795 0.141394 0.421983
O O8 0.872195 0.257729 0.320179
O O9 0.000000 0.175911 0.000000
O O10 0.733916 0.384246 0.987510
O O11 0.920009 0.474341 0.953992
O O12 0.010618 0.368611 0.711856
O O13 0.118340 0.574279 0.814723
O O14 0.754354 0.325855 0.680922
O O15 0.500000 0.367367 0.000000
O O16 0.000000 0.279752 0.500000
#
# Coordination Sequence:
#
# PCOD9120121 Si02
#       8
#     2   4   4   4   4   4   2   4
#     4  10  16  42  62  70 116 154 214 228 272 382
#     4  10  21  37  58  90 123 158 197 243 303 364
#     4  11  21  36  60  91 126 153 192 256 306 354
#     4  10  21  39  62  87 111 159 204 241 299 347
#     4  10  21  39  62  87 111 159 204 241 299 347
#     4  11  21  36  60  91 126 153 192 256 306 354
#     4  10  24  38  68  84 112 162 216 254 256 382
#     4  10  21  37  58  90 123 158 197 243 303 364
#
# _framework density 18.158213
#
# number of rings (size 3 to 8) (size 9 to 14) (size 15 to 20)
#    0.000    1.714    4.286    3.429    6.000    0.000 
#    0.000    0.714    0.000    1.714    0.000    0.000 
#    0.000    0.000    0.000    0.000    0.000    0.000 
#
# Total GULP energy -77955.243899 kJ/mol
# GULP energy per Si atom -5568.231707 kJ/mol
# Density = 1.811688 g / cm^3
# Si number density = 18.158213 Si / 1000 Ang^3
#
#
#
# Elastic Constant Matrix: (Units=GPa)
#
#
# Indices 1 2 3 4 5 6 
#
# 1 54.4680 24.2243 45.0580 0.0000 -16.8951 0.0000
# 2 24.2243 110.5440 52.7855 0.0000 0.0820 0.0000
# 3 45.0580 52.7855 101.9867 0.0000 -20.7125 0.0000
# 4 0.0000 0.0000 0.0000 30.1984 0.0000 13.4592
# 5 -16.8951 0.0820 -20.7125 0.0000 30.7215 0.0000
# 6 0.0000 0.0000 0.0000 13.4592 0.0000 37.9859
#
#
#
# Elastic Compliance Matrix: (Units=1/GPa)
#
#
# Indices 1 2 3 4 5 6 
#
# 1 0.031162 -0.001604 -0.010956 0.000000 0.009755 0.000000
# 2 -0.001604 0.012769 -0.007052 0.000000 -0.005671 0.000000
# 3 -0.010956 -0.007052 0.019785 0.000000 0.007332 0.000000
# 4 0.000000 0.000000 0.000000 0.039324 0.000000 -0.013933
# 5 0.009755 -0.005671 0.007332 0.000000 0.042874 0.000000
# 6 0.000000 0.000000 0.000000 -0.013933 0.000000 0.031262
#
#
# Mechanical properties :
#
#
# Convention : Reuss Voigt Hill
#
# Bulk Modulus (GPa) = 40.83059 56.79270 48.81164
# Shear Modulus (GPa) = 22.26530 29.44322 25.85426
#
# Velocity S-wave (km/s) = 3.50549 4.03113 3.77746
# Velocity P-wave (km/s) = 6.23854 7.28088 6.77977
#
# Compressibility (1/GPa) = 0.02449144
#
# Stress axis : x y z
#
# Youngs Moduli (GPa) = 32.09038 78.31294 50.54459
#
# Poissons Ratio (x) = 0.12565 0.55376
# Poissons Ratio (y) = 0.05149 0.35643
# Poissons Ratio (z) = 0.35158 0.55225
#
# Static dielectric constant tensor:
#      x y z
#    x 1.619770 0.000000 0.027730 
#    y 0.000000 1.618320 0.000000 
#    z 0.027730 0.000000 1.707800 
# 
# From -- ./inp_files/21753.got.cif
#   From: 2010.05.17/outbox.cif.g08.bks.cpg/sg5_11_cif.got.tgz:21753.got - 2010.06.03 18:56:24.
