data_PCOD9120056
_publ_section_title
;
Structure prediction by ZEFSAII (Michael W. Deem and Ramdas Pophale) SiO2 
 PCOD9120056
Probable space group: C 2
;
_chemical_formula_sum "Si O2"
_cell_formula_units_Z 24
_cell_length_a 14.054758
_cell_length_b 7.726843
_cell_length_c 10.433137
_cell_angle_alpha 90.000000
_cell_angle_beta 57.082589
_cell_angle_gamma 90.000000
_cell_volume 951.125159
_symmetry_space_group_name_H-M "C 2"
_symmetry_group_IT_number 5
_symmetry_cell_setting 'monoclinic'
loop_
_space_group_symop_operation_xyz
x,y,z
-x,y,-z
1/2+x,1/2+y,z
1/2-x,1/2+y,-z
loop_
_atom_site_type_symbol
_atom_site_label
_atom_site_fract_x
_atom_site_fract_y
_atom_site_fract_z
Si Si1 0.668404 0.845730 0.406232
Si Si2 0.579913 0.123511 0.053726
Si Si3 0.878225 0.730942 0.507458
Si Si4 0.530904 0.809818 0.257889
Si Si5 0.954173 0.945145 0.770314
Si Si6 0.740974 0.510402 0.271597
O O1 0.633258 0.859558 0.280682
O O2 0.569939 0.772897 0.569750
O O3 0.757328 0.689110 0.335163
O O4 0.674183 0.039327 0.454173
O O5 0.613879 0.291367 0.109857
O O6 0.514211 0.980845 0.185768
O O7 0.500000 0.192309 0.000000
O O8 0.679018 0.020534 0.909688
O O9 0.000000 0.702770 0.500000
O O10 0.930443 0.850972 0.356400
O O11 0.769235 0.840206 0.637481
O O12 0.540825 0.633556 0.167927
O O13 0.886468 0.000885 0.692546
#
# Coordination Sequence:
#
# PCOD9120056 Si02
#       6
#     4   4   4   4   4   4
#     4  10  17  35  67  97 118 153 217 268 303 361
#     4  12  27  44  59  93 140 173 202 260 331 381
#     4  10  16  33  63  94 122 153 203 268 311 355
#     4  10  19  37  65  91 123 166 208 260 316 370
#     4  10  21  38  67  91 126 166 212 259 314 374
#     4  10  23  36  63 100 120 158 220 262 304 376
#
# _framework density 25.233271999999999
#
# number of rings (size 3 to 8) (size 9 to 14) (size 15 to 20)
#    0.000    1.667    5.000    1.000    4.667    2.000 
#    0.000    1.667    0.000    0.000    0.000    0.000 
#    0.000    0.000    0.000    0.000    0.000    0.000 
#
# Total GULP energy -66868.380668 kJ/mol
# GULP energy per Si atom -5572.365056 kJ/mol
# Density = 2.517584 g / cm^3
# Si number density = 25.233272 Si / 1000 Ang^3
#
#
#
# Elastic Constant Matrix: (Units=GPa)
#
#
# Indices 1 2 3 4 5 6 
#
# 1 49.2778 43.7496 5.7768 0.0000 17.3278 0.0000
# 2 43.7496 188.2814 37.1532 0.0000 -3.4313 0.0000
# 3 5.7768 37.1532 95.7673 0.0000 -20.1027 0.0000
# 4 0.0000 0.0000 0.0000 24.6857 0.0000 0.0683
# 5 17.3278 -3.4313 -20.1027 0.0000 10.4934 0.0000
# 6 0.0000 0.0000 0.0000 0.0683 0.0000 28.2654
#
#
#
# Elastic Compliance Matrix: (Units=1/GPa)
#
#
# Indices 1 2 3 4 5 6 
#
# 1 -0.093882 0.015718 0.055508 0.000000 0.266506 0.000000
# 2 0.015718 0.003222 -0.012420 0.000000 -0.048695 0.000000
# 3 0.055508 -0.012420 -0.013684 0.000000 -0.121936 0.000000
# 4 0.000000 0.000000 0.000000 0.040510 0.000000 -0.000098
# 5 0.266506 -0.048695 -0.121936 0.000000 -0.594307 0.000000
# 6 0.000000 0.000000 0.000000 -0.000098 0.000000 0.035379
#
#
# Mechanical properties :
#
#
# Convention : Reuss Voigt Hill
#
# Bulk Modulus (GPa) = 75.36403 56.29841 65.83122
# Shear Modulus (GPa) = -6.79394 29.13201 11.16904
#
# Velocity S-wave (km/s) = -1.64265 3.40149 2.10616
# Velocity P-wave (km/s) = 5.13167 6.14707 5.66218
#
# Compressibility (1/GPa) = 0.01326893
#
# Stress axis : x y z
#
# Youngs Moduli (GPa) = -10.65171 310.34188 -73.07909
#
# Poissons Ratio (x) = -4.87801 4.05646
# Poissons Ratio (y) = 0.16743 -0.90764
# Poissons Ratio (z) = 0.59125 3.85443
#
# Static dielectric constant tensor:
#      x y z
#    x 2.151020 0.000000 0.039980 
#    y 0.000000 2.116710 0.000000 
#    z 0.039980 0.000000 2.028940 
# 
# From -- ./inp_files/44104.got.cif
#   From: 2010.05.17/outbox.cif.g08.bks.cpg/sg5_23_cif.got.tgz:44104.got - 2010.06.03 18:56:24.
