data_PCOD9120904
_publ_section_title
;
Structure prediction by ZEFSAII (Michael W. Deem and Ramdas Pophale) SiO2 
 PCOD9120904
Probable space group: C 2
;
_chemical_formula_sum "Si O2"
_cell_formula_units_Z 30
_cell_length_a 13.713290
_cell_length_b 19.110755
_cell_length_c 10.344123
_cell_angle_alpha 90.000000
_cell_angle_beta 148.360982
_cell_angle_gamma 90.000000
_cell_volume 1422.044402
_symmetry_space_group_name_H-M "C 2"
_symmetry_group_IT_number 5
_symmetry_cell_setting 'monoclinic'
loop_
_space_group_symop_operation_xyz
x,y,z
-x,y,-z
1/2+x,1/2+y,z
1/2-x,1/2+y,-z
loop_
_atom_site_type_symbol
_atom_site_label
_atom_site_fract_x
_atom_site_fract_y
_atom_site_fract_z
Si Si1 0.532646 0.503370 0.813393
Si Si2 0.997013 0.859922 0.652624
Si Si3 0.377666 0.101576 0.230999
Si Si4 0.280780 0.168745 0.776522
Si Si5 0.260656 0.620898 0.554620
Si Si6 0.299993 0.745468 0.065860
Si Si7 0.631514 0.769503 0.265234
Si Si8 0.500000 0.557627 0.500000
O O1 0.528131 0.419847 0.797945
O O2 0.388326 0.553548 0.727570
O O3 0.466279 0.516228 0.591018
O O4 0.734529 0.536978 0.067228
O O5 0.804513 0.820778 0.466142
O O6 0.000000 0.877874 0.500000
O O7 0.156621 0.802998 0.855200
O O8 0.500000 0.103635 0.500000
O O9 0.545208 0.099510 0.316211
O O10 0.260993 0.172517 0.073057
O O11 0.199598 0.153158 0.542647
O O12 0.182935 0.103282 0.736690
O O13 0.500000 0.171658 0.000000
O O14 0.221714 0.231256 0.805129
O O15 0.299440 0.689657 0.683732
O O16 0.501002 0.768993 0.243834
O O17 0.500000 0.791326 0.000000
#
# Coordination Sequence:
#
# PCOD9120904 Si02
#       8
#     4   4   4   4   4   4   4   2
#     4  11  24  41  66 100 137 180 227 289 348 403
#     4  12  25  44  66 100 144 183 229 290 353 415
#     4  12  23  42  72  99 137 181 236 288 339 420
#     4  11  19  36  62  98 134 170 229 281 333 399
#     4  11  23  39  70 104 133 179 234 288 344 405
#     4  12  22  39  68 102 137 179 232 285 348 409
#     4  12  23  40  69 103 138 181 231 282 346 416
#     4  10  18  36  62  94 132 174 222 284 330 398
#
# _framework density 21.096388999999999
#
# number of rings (size 3 to 8) (size 9 to 14) (size 15 to 20)
#    0.000    0.533    7.333    2.000    0.000    1.067 
#    0.000    0.667   13.200    0.000    0.000    0.000 
#    0.000    0.000    0.000    0.000    0.000    0.000 
#
# Total GULP energy -83603.710695 kJ/mol
# GULP energy per Si atom -5573.580713 kJ/mol
# Density = 2.104837 g / cm^3
# Si number density = 21.096389 Si / 1000 Ang^3
#
#
#
# Elastic Constant Matrix: (Units=GPa)
#
#
# Indices 1 2 3 4 5 6 
#
# 1 101.8626 25.1307 33.9550 0.0000 21.9514 0.0000
# 2 25.1307 118.5614 56.1193 0.0000 16.7742 0.0000
# 3 33.9550 56.1193 93.9078 0.0000 27.8036 0.0000
# 4 0.0000 0.0000 0.0000 23.9987 0.0000 6.0321
# 5 21.9514 16.7742 27.8036 0.0000 49.0359 0.0000
# 6 0.0000 0.0000 0.0000 6.0321 0.0000 -8.1195
#
#
#
# Elastic Compliance Matrix: (Units=1/GPa)
#
#
# Indices 1 2 3 4 5 6 
#
# 1 0.011649 -0.000657 -0.002815 0.000000 -0.003394 0.000000
# 2 -0.000657 0.011798 -0.006856 0.000000 0.000146 0.000000
# 3 -0.002815 -0.006856 0.017661 0.000000 -0.006409 0.000000
# 4 0.000000 0.000000 0.000000 0.035112 0.000000 0.026086
# 5 -0.003394 0.000146 -0.006409 0.000000 0.025497 0.000000
# 6 0.000000 0.000000 0.000000 0.026086 0.000000 -0.103781
#
#
# Mechanical properties :
#
#
# Convention : Reuss Voigt Hill
#
# Bulk Modulus (GPa) = 48.89225 60.52685 54.70955
# Shear Modulus (GPa) = 196.77489 26.25813 111.51651
#
# Velocity S-wave (km/s) = 9.66833 3.53182 7.27841
# Velocity P-wave (km/s) = 12.15983 6.73681 9.82970
#
# Compressibility (1/GPa) = 0.02045314
#
# Stress axis : x y z
#
# Youngs Moduli (GPa) = 85.84562 84.75712 56.62109
#
# Poissons Ratio (x) = 0.05566 0.15937
# Poissons Ratio (y) = 0.05637 0.38822
# Poissons Ratio (z) = 0.24162 0.58113
#
# Static dielectric constant tensor:
#      x y z
#    x 1.897670 0.000000 -0.036420 
#    y 0.000000 1.801880 0.000000 
#    z -0.036420 0.000000 1.794760 
# 
# From -- ./inp_files/43312.got.cif
#   From: 2010.05.17/outbox.cif.g08.bks.cpg/sg5_22_cif.got.tgz:43312.got - 2010.06.03 18:56:24.
