data_PCOD9120552
_publ_section_title
;
Structure prediction by ZEFSAII (Michael W. Deem and Ramdas Pophale) SiO2 
 PCOD9120552
Probable space group: C 2
;
_chemical_formula_sum "Si O2"
_cell_formula_units_Z 30
_cell_length_a 12.213240
_cell_length_b 16.463756
_cell_length_c 11.663721
_cell_angle_alpha 90.000000
_cell_angle_beta 43.711089
_cell_angle_gamma 90.000000
_cell_volume 1620.649169
_symmetry_space_group_name_H-M "C 2"
_symmetry_group_IT_number 5
_symmetry_cell_setting 'monoclinic'
loop_
_space_group_symop_operation_xyz
x,y,z
-x,y,-z
1/2+x,1/2+y,z
1/2-x,1/2+y,-z
loop_
_atom_site_type_symbol
_atom_site_label
_atom_site_fract_x
_atom_site_fract_y
_atom_site_fract_z
Si Si1 0.178829 0.858940 0.399110
Si Si2 0.330527 0.691054 0.309471
Si Si3 0.126650 0.945607 0.674444
Si Si4 0.163465 0.522155 0.804327
Si Si5 0.609390 0.597924 0.190864
Si Si6 0.500000 0.435184 0.000000
Si Si7 0.741263 0.578894 0.848429
Si Si8 0.392009 0.066690 0.419554
O O1 0.296887 0.783355 0.304664
O O2 0.160785 0.888157 0.543089
O O3 0.000000 0.836253 0.500000
O O4 0.247026 0.935217 0.275435
O O5 0.482714 0.670416 0.272568
O O6 0.335058 0.638791 0.188089
O O7 0.183058 0.652800 0.489819
O O8 0.287421 0.998744 0.565084
O O9 0.998140 0.015914 0.740158
O O10 0.058364 0.897808 0.836337
O O11 0.282313 0.583600 0.780351
O O12 0.129514 0.549579 0.699702
O O13 0.000000 0.515399 0.000000
O O14 0.718059 0.607751 0.996331
O O15 0.353628 0.494891 0.084521
O O16 0.925423 0.566943 0.687383
#
# Coordination Sequence:
#
# PCOD9120552 Si02
#       8
#     4   4   4   4   4   2   4   4
#     4  11  22  37  59  87 129 157 198 250 315 358
#     4  11  22  35  57  91 116 157 192 253 308 352
#     4   9  19  34  55  85 111 159 192 246 300 365
#     4  11  22  38  61  91 116 161 203 250 297 366
#     4  10  19  37  59  85 118 155 204 242 301 360
#     4  10  18  32  58  80 114 156 204 246 298 358
#     4  11  17  32  56  85 116 146 194 254 296 345
#     4  10  20  32  57  85 114 148 206 242 288 360
#
# _framework density 18.511099999999999
#
# number of rings (size 3 to 8) (size 9 to 14) (size 15 to 20)
#    0.000    1.600    6.667    1.200    0.000    1.067 
#    0.000    0.000    1.467    6.400    0.000    0.000 
#    0.000    0.000    0.000    0.000    0.000    0.000 
#
# Total GULP energy -83595.865687 kJ/mol
# GULP energy per Si atom -5573.057712 kJ/mol
# Density = 1.846897 g / cm^3
# Si number density = 18.511100 Si / 1000 Ang^3
#
#
#
# Elastic Constant Matrix: (Units=GPa)
#
#
# Indices 1 2 3 4 5 6 
#
# 1 95.4723 29.8328 41.5100 -0.0001 -6.6079 0.0000
# 2 29.8328 50.9656 5.8528 -0.0001 2.6227 0.0000
# 3 41.5100 5.8528 105.8255 -0.0002 -4.2096 0.0000
# 4 -0.0001 -0.0001 -0.0002 2.6325 0.0001 -4.9410
# 5 -6.6079 2.6227 -4.2096 0.0001 38.4699 0.0000
# 6 0.0000 0.0000 0.0000 -4.9410 0.0000 18.1711
#
#
#
# Elastic Compliance Matrix: (Units=1/GPa)
#
#
# Indices 1 2 3 4 5 6 
#
# 1 0.015846 -0.008769 -0.005623 0.000000 0.002704 0.000000
# 2 -0.008769 0.024683 0.001956 0.000001 -0.002975 0.000000
# 3 -0.005623 0.001956 0.011554 0.000001 0.000165 0.000000
# 4 0.000000 0.000001 0.000001 0.775789 -0.000002 0.210949
# 5 0.002704 -0.002975 0.000165 -0.000002 0.026680 0.000000
# 6 0.000000 0.000000 0.000000 0.210949 0.000000 0.112393
#
#
# Mechanical properties :
#
#
# Convention : Reuss Voigt Hill
#
# Bulk Modulus (GPa) = 36.75066 45.18383 40.96725
# Shear Modulus (GPa) = 4.99557 23.52589 14.26073
#
# Velocity S-wave (km/s) = 1.64455 3.56885 2.77860
# Velocity P-wave (km/s) = 4.84794 6.43772 5.69854
#
# Compressibility (1/GPa) = 0.02721040
#
# Stress axis : x y z
#
# Youngs Moduli (GPa) = 63.10560 40.51449 86.55322
#
# Poissons Ratio (x) = 0.35528 0.48671
# Poissons Ratio (y) = 0.55338 -0.16932
# Poissons Ratio (z) = 0.35486 -0.07926
#
# Static dielectric constant tensor:
#      x y z
#    x 1.671740 0.000000 0.019360 
#    y 0.000000 1.616560 0.000000 
#    z 0.019360 0.000000 1.675460 
# 
# From -- ./inp_files/40445.got.cif
#   From: 2010.05.17/outbox.cif.g08.bks.cpg/sg5_21_cif.got.tgz:40445.got - 2010.06.03 18:56:24.
