data_PCOD9120209
_publ_section_title
;
Structure prediction by ZEFSAII (Michael W. Deem and Ramdas Pophale) SiO2 
 PCOD9120209
Probable space group: C 2
;
_chemical_formula_sum "Si O2"
_cell_formula_units_Z 32
_cell_length_a 14.613487
_cell_length_b 20.510839
_cell_length_c 8.065811
_cell_angle_alpha 90.000000
_cell_angle_beta 41.247243
_cell_angle_gamma 90.000000
_cell_volume 1593.950198
_symmetry_space_group_name_H-M "C 2"
_symmetry_group_IT_number 5
_symmetry_cell_setting 'monoclinic'
loop_
_space_group_symop_operation_xyz
x,y,z
-x,y,-z
1/2+x,1/2+y,z
1/2-x,1/2+y,-z
loop_
_atom_site_type_symbol
_atom_site_label
_atom_site_fract_x
_atom_site_fract_y
_atom_site_fract_z
Si Si1 0.572780 0.217470 0.218222
Si Si2 0.787809 0.316397 0.057009
Si Si3 0.599597 0.969609 0.709154
Si Si4 0.907461 0.949297 0.376167
Si Si5 0.074954 0.570141 0.221065
Si Si6 0.306726 0.458883 0.894233
Si Si7 0.926320 0.333689 0.424416
Si Si8 0.155767 0.806500 0.604772
O O1 0.500000 0.216795 0.500000
O O2 0.706013 0.263275 0.060713
O O3 0.612417 0.143608 0.121848
O O4 0.459253 0.250372 0.251787
O O5 0.760525 0.386475 0.003144
O O6 0.725013 0.313099 0.327158
O O7 0.950769 0.306457 0.858079
O O8 0.764711 0.978241 0.501046
O O9 0.584453 0.911215 0.597345
O O10 0.536926 0.038427 0.747073
O O11 0.500000 0.947814 0.000000
O O12 0.867377 0.952852 0.625659
O O13 0.916827 0.876827 0.288309
O O14 0.065494 0.973502 0.156363
O O15 0.000000 0.571702 0.500000
O O16 0.198205 0.517344 0.053791
O O17 0.778396 0.303538 0.573162
O O18 0.000000 0.321835 0.500000
#
# Coordination Sequence:
#
# PCOD9120209 Si02
#       8
#     4   4   4   4   4   4   4   4
#     4   9  19  36  59  84 113 152 197 235 283 349
#     4  10  17  33  59  83 109 148 193 234 283 349
#     4  11  19  35  55  84 111 153 201 237 283 353
#     4   9  17  30  57  86 105 136 196 246 276 332
#     4  11  22  36  56  85 120 154 189 240 302 346
#     4  10  17  31  57  86 111 139 188 247 291 329
#     4  11  21  32  54  85 118 145 185 248 300 334
#     4   9  17  34  57  84 107 145 195 240 281 346
#
# _framework density 20.075911000000001
#
# number of rings (size 3 to 8) (size 9 to 14) (size 15 to 20)
#    0.000    2.000    3.750    2.250    0.000    0.000 
#    0.000    3.750    2.750    3.000    0.000    0.000 
#    0.000    0.000    0.000    0.000    0.000    0.000 
#
# Total GULP energy -89121.883591 kJ/mol
# GULP energy per Si atom -5570.117724 kJ/mol
# Density = 2.003022 g / cm^3
# Si number density = 20.075911 Si / 1000 Ang^3
#
#
#
# Elastic Constant Matrix: (Units=GPa)
#
#
# Indices 1 2 3 4 5 6 
#
# 1 138.1242 63.2965 29.4623 0.0000 -35.7360 0.0000
# 2 63.2965 137.8463 27.1069 0.0000 -27.5691 0.0000
# 3 29.4623 27.1069 37.8920 0.0000 -10.6068 0.0000
# 4 0.0000 0.0000 0.0000 30.7365 0.0000 0.6841
# 5 -35.7360 -27.5691 -10.6068 0.0000 40.9882 0.0000
# 6 0.0000 0.0000 0.0000 0.6841 0.0000 23.8997
#
#
#
# Elastic Compliance Matrix: (Units=1/GPa)
#
#
# Indices 1 2 3 4 5 6 
#
# 1 0.011338 -0.002917 -0.004864 0.000000 0.006665 0.000000
# 2 -0.002917 0.010014 -0.004013 0.000000 0.003154 0.000000
# 3 -0.004864 -0.004013 0.033529 0.000000 0.001737 0.000000
# 4 0.000000 0.000000 0.000000 0.032555 0.000000 -0.000932
# 5 0.006665 0.003154 0.001737 0.000000 0.032779 0.000000
# 6 0.000000 0.000000 0.000000 -0.000932 0.000000 0.041868
#
#
# Mechanical properties :
#
#
# Convention : Reuss Voigt Hill
#
# Bulk Modulus (GPa) = 31.95419 61.51045 46.73232
# Shear Modulus (GPa) = 25.49696 32.05801 28.77749
#
# Velocity S-wave (km/s) = 3.56761 4.00038 3.79018
# Velocity P-wave (km/s) = 5.73774 7.21407 6.51784
#
# Compressibility (1/GPa) = 0.03129480
#
# Stress axis : x y z
#
# Youngs Moduli (GPa) = 88.19592 99.86316 29.82476
#
# Poissons Ratio (x) = 0.29130 0.14506
# Poissons Ratio (y) = 0.25727 0.11968
# Poissons Ratio (z) = 0.42895 0.40072
#
# Static dielectric constant tensor:
#      x y z
#    x 1.739320 0.000000 -0.001740 
#    y 0.000000 1.681010 0.000000 
#    z -0.001740 0.000000 1.833900 
# 
# From -- ./inp_files/25430.got.cif
#   From: 2010.05.17/outbox.cif.g08.bks.cpg/sg5_13_cif.got.tgz:25430.got - 2010.06.03 18:56:24.
