data_PCOD9120730
_publ_section_title
;
Structure prediction by ZEFSAII (Michael W. Deem and Ramdas Pophale) SiO2 
 PCOD9120730
Probable space group: C 2
;
_chemical_formula_sum "Si O2"
_cell_formula_units_Z 32
_cell_length_a 14.717987
_cell_length_b 12.135572
_cell_length_c 16.860476
_cell_angle_alpha 90.000000
_cell_angle_beta 153.788330
_cell_angle_gamma 90.000000
_cell_volume 1330.131826
_symmetry_space_group_name_H-M "C 2"
_symmetry_group_IT_number 5
_symmetry_cell_setting 'monoclinic'
loop_
_space_group_symop_operation_xyz
x,y,z
-x,y,-z
1/2+x,1/2+y,z
1/2-x,1/2+y,-z
loop_
_atom_site_type_symbol
_atom_site_label
_atom_site_fract_x
_atom_site_fract_y
_atom_site_fract_z
Si Si1 0.202442 0.258940 0.050531
Si Si2 0.351131 0.707997 0.316450
Si Si3 0.179312 0.459575 0.718137
Si Si4 0.435514 0.946334 0.145414
Si Si5 0.058287 0.692434 0.220093
Si Si6 0.531337 0.191143 0.435002
Si Si7 0.105434 0.254145 0.388134
Si Si8 0.548694 0.520214 0.921144
O O1 0.340452 0.240934 0.078441
O O2 0.367654 0.253758 0.250344
O O3 0.063948 0.150232 0.948741
O O4 0.068104 0.367435 0.933946
O O5 0.500000 0.655099 0.500000
O O6 0.128410 0.703418 0.183583
O O7 0.421498 0.678794 0.282298
O O8 0.403168 0.837865 0.351311
O O9 0.329710 0.465112 0.910702
O O10 0.033665 0.563113 0.617366
O O11 0.317994 0.480724 0.748764
O O12 0.524215 0.868322 0.285505
O O13 0.553991 0.061820 0.235755
O O14 0.196210 0.984010 0.966265
O O15 0.226052 0.751813 0.408180
O O16 0.500000 0.230380 0.500000
O O17 0.757766 0.203022 0.575819
#
# Coordination Sequence:
#
# PCOD9120730 Si02
#       8
#     4   4   4   4   4   4   4   4
#     4   9  20  38  63  96 135 176 230 278 353 416
#     4  10  19  36  62  96 126 174 216 281 333 412
#     4  10  18  34  61  95 126 161 223 287 345 385
#     4  11  20  40  66  95 141 192 216 291 357 403
#     4   9  21  41  64  99 145 173 232 289 341 425
#     4  10  22  40  61  96 133 174 226 298 336 412
#     4  10  22  38  65  95 135 181 230 275 345 418
#     4   9  19  33  59  96 127 167 220 286 333 404
#
# _framework density 24.057766000000001
#
# number of rings (size 3 to 8) (size 9 to 14) (size 15 to 20)
#    0.000    2.250    1.250    1.875    1.750    0.000 
#    0.000    6.875    0.000    3.000    0.000    0.000 
#    0.000    0.000    0.000    0.000    0.000    0.000 
#
# Total GULP energy -89241.662927 kJ/mol
# GULP energy per Si atom -5577.603933 kJ/mol
# Density = 2.400301 g / cm^3
# Si number density = 24.057766 Si / 1000 Ang^3
#
#
#
# Elastic Constant Matrix: (Units=GPa)
#
#
# Indices 1 2 3 4 5 6 
#
# 1 138.7248 20.6898 25.5066 -0.0017 9.9117 -0.0015
# 2 20.6898 107.7210 24.6716 0.0010 4.6616 0.0003
# 3 25.5066 24.6716 57.4852 0.0001 -14.1704 -0.0001
# 4 -0.0017 0.0010 0.0001 26.9552 0.0009 -8.2530
# 5 9.9117 4.6616 -14.1704 0.0009 43.6240 -0.0003
# 6 -0.0015 0.0003 -0.0001 -8.2530 -0.0003 13.4362
#
#
#
# Elastic Compliance Matrix: (Units=1/GPa)
#
#
# Indices 1 2 3 4 5 6 
#
# 1 0.008295 -0.000476 -0.004270 0.000001 -0.003221 0.000002
# 2 -0.000476 0.010637 -0.005009 -0.000001 -0.002655 -0.000001
# 3 -0.004270 -0.005009 0.023710 -0.000001 0.009207 0.000000
# 4 0.000001 -0.000001 -0.000001 0.045692 -0.000001 0.028066
# 5 -0.003221 -0.002655 0.009207 -0.000001 0.026929 0.000000
# 6 0.000002 -0.000001 0.000000 0.028066 0.000000 0.091665
#
#
# Mechanical properties :
#
#
# Convention : Reuss Voigt Hill
#
# Bulk Modulus (GPa) = 43.23010 49.51855 46.37432
# Shear Modulus (GPa) = 21.35413 32.34061 26.84737
#
# Velocity S-wave (km/s) = 2.98253 3.67043 3.34421
# Velocity P-wave (km/s) = 5.46525 6.21214 5.85062
#
# Compressibility (1/GPa) = 0.02313203
#
# Stress axis : x y z
#
# Youngs Moduli (GPa) = 120.55826 94.01456 42.17688
#
# Poissons Ratio (x) = 0.04473 0.18010
# Poissons Ratio (y) = 0.05736 0.21124
# Poissons Ratio (z) = 0.51481 0.47088
#
# Static dielectric constant tensor:
#      x y z
#    x 2.128900 0.000000 0.011800 
#    y 0.000000 1.885790 0.000000 
#    z 0.011800 0.000000 1.966550 
# 
# From -- ./inp_files/61724.got.cif
#   From: 2010.05.17/outbox.cif.g08.bks.cpg/sg5_31_cif.got.tgz:61724.got - 2010.06.03 18:56:24.
