data_PCOD9120219
_publ_section_title
;
Structure prediction by ZEFSAII (Michael W. Deem and Ramdas Pophale) SiO2 
 PCOD9120219
Probable space group: C 2
;
_chemical_formula_sum "Si O2"
_cell_formula_units_Z 20
_cell_length_a 24.920072
_cell_length_b 4.985631
_cell_length_c 8.940704
_cell_angle_alpha 90.000000
_cell_angle_beta 78.060448
_cell_angle_gamma 90.000000
_cell_volume 1086.782594
_symmetry_space_group_name_H-M "C 2"
_symmetry_group_IT_number 5
_symmetry_cell_setting 'monoclinic'
loop_
_space_group_symop_operation_xyz
x,y,z
-x,y,-z
1/2+x,1/2+y,z
1/2-x,1/2+y,-z
loop_
_atom_site_type_symbol
_atom_site_label
_atom_site_fract_x
_atom_site_fract_y
_atom_site_fract_z
Si Si1 0.988205 0.164620 0.179633
Si Si2 0.245696 0.211052 0.604359
Si Si3 0.362541 0.331360 0.576823
Si Si4 0.030499 0.653055 0.326678
Si Si5 0.371547 0.831089 0.362171
O O1 0.926603 0.270634 0.241581
O O2 0.027599 0.394393 0.223892
O O3 0.998049 0.895454 0.267788
O O4 0.000000 0.116471 0.000000
O O5 0.251070 0.406964 0.455769
O O6 0.299946 0.283417 0.665645
O O7 0.184616 0.272993 0.695547
O O8 0.408917 0.254650 0.667789
O O9 0.370058 0.627601 0.505262
O O10 0.370259 0.127680 0.431975
O O11 0.000000 0.583741 0.500000
#
# Coordination Sequence:
#
# PCOD9120219 Si02
#       5
#     4   4   4   4   4
#     4  12  24  36  52  79 112 144 170 209 269 321
#     4   8  16  27  46  74 100 126 163 215 259 292
#     4  10  18  30  53  78  99 127 175 221 255 292
#     4  12  21  36  57  78 106 138 178 223 257 300
#     4  10  17  32  50  74 105 134 168 211 256 309
#
# _framework density 18.402944999999999
#
# number of rings (size 3 to 8) (size 9 to 14) (size 15 to 20)
#    0.000    1.600    4.000    2.400    0.000    0.000 
#    0.000    0.000    0.000    2.400    0.000    0.000 
#    0.000    0.000    0.000    0.000    0.000    0.000 
#
# Total GULP energy -55798.227634 kJ/mol
# GULP energy per Si atom -5579.822763 kJ/mol
# Density = 1.836106 g / cm^3
# Si number density = 18.402945 Si / 1000 Ang^3
#
#
#
# Elastic Constant Matrix: (Units=GPa)
#
#
# Indices 1 2 3 4 5 6 
#
# 1 117.5975 -19.5134 21.9026 0.0000 -8.6333 0.0000
# 2 -19.5134 58.8244 -9.7764 0.0000 3.6786 0.0000
# 3 21.9026 -9.7764 31.7519 0.0000 0.8498 0.0000
# 4 0.0000 0.0000 0.0000 7.8720 0.0000 1.2287
# 5 -8.6333 3.6786 0.8498 0.0000 12.3575 0.0000
# 6 0.0000 0.0000 0.0000 1.2287 0.0000 25.2985
#
#
#
# Elastic Compliance Matrix: (Units=1/GPa)
#
#
# Indices 1 2 3 4 5 6 
#
# 1 0.010658 0.001919 -0.006958 0.000000 0.007353 0.000000
# 2 0.001919 0.018676 0.004548 0.000000 -0.004531 0.000000
# 3 -0.006958 0.004548 0.037930 0.000000 -0.008823 0.000000
# 4 0.000000 0.000000 0.000000 0.128003 0.000000 -0.006217
# 5 0.007353 -0.004531 -0.008823 0.000000 0.088015 0.000000
# 6 0.000000 0.000000 0.000000 -0.006217 0.000000 0.039830
#
#
# Mechanical properties :
#
#
# Convention : Reuss Voigt Hill
#
# Bulk Modulus (GPa) = 15.08714 21.48881 18.28798
# Shear Modulus (GPa) = 14.44307 23.47633 18.95970
#
# Velocity S-wave (km/s) = 2.80451 3.57555 3.21324
# Velocity P-wave (km/s) = 4.32470 5.36174 4.87090
#
# Compressibility (1/GPa) = 0.06628162
#
# Stress axis : x y z
#
# Youngs Moduli (GPa) = 93.82874 53.54593 26.36443
#
# Poissons Ratio (x) = -0.10277 0.18343
# Poissons Ratio (y) = -0.18008 -0.11989
# Poissons Ratio (z) = 0.65282 -0.24350
#
# Static dielectric constant tensor:
#      x y z
#    x 1.717100 0.000000 -0.015330 
#    y 0.000000 1.632990 0.000000 
#    z -0.015330 0.000000 1.582670 
# 
# From -- ./inp_files/28319.got.cif
#   From: 2010.05.17/outbox.cif.g08.bks.cpg/sg5_15_cif.got.tgz:28319.got - 2010.06.03 18:56:24.
