data_PCOD9120218
_publ_section_title
;
Structure prediction by ZEFSAII (Michael W. Deem and Ramdas Pophale) SiO2 
 PCOD9120218
Probable space group: C 2
;
_chemical_formula_sum "Si O2"
_cell_formula_units_Z 24
_cell_length_a 7.758437
_cell_length_b 17.540356
_cell_length_c 11.730925
_cell_angle_alpha 90.000000
_cell_angle_beta 75.732178
_cell_angle_gamma 90.000000
_cell_volume 1547.169249
_symmetry_space_group_name_H-M "C 2"
_symmetry_group_IT_number 5
_symmetry_cell_setting 'monoclinic'
loop_
_space_group_symop_operation_xyz
x,y,z
-x,y,-z
1/2+x,1/2+y,z
1/2-x,1/2+y,-z
loop_
_atom_site_type_symbol
_atom_site_label
_atom_site_fract_x
_atom_site_fract_y
_atom_site_fract_z
Si Si1 0.313542 0.797050 0.596583
Si Si2 0.406948 0.110180 0.710273
Si Si3 0.275827 0.468365 0.340613
Si Si4 0.500000 0.227267 0.500000
Si Si5 0.792606 0.142074 0.723635
Si Si6 0.543813 0.569069 0.862166
Si Si7 0.500000 0.543930 0.500000
O O1 0.500000 0.794412 0.500000
O O2 0.279987 0.881421 0.648931
O O3 0.312723 0.731329 0.692654
O O4 0.152703 0.775441 0.536995
O O5 0.412042 0.172389 0.609200
O O6 0.586127 0.119857 0.751694
O O7 0.227795 0.115762 0.813730
O O8 0.387033 0.026673 0.656011
O O9 0.412923 0.492189 0.217120
O O10 0.370722 0.493486 0.442468
O O11 0.889766 0.114074 0.821097
O O12 0.888225 0.097699 0.603194
O O13 0.500000 0.555951 0.000000
#
# Coordination Sequence:
#
# PCOD9120218 Si02
#       7
#     4   4   4   2   4   4   2
#     4  11  20  30  49  81 112 135 161 208 269 311
#     4   9  19  32  55  76 100 138 172 210 252 305
#     4   9  20  31  50  78 104 137 169 212 254 302
#     4  10  19  34  51  78 114 134 162 208 263 322
#     4  10  19  33  55  76 105 136 171 212 258 308
#     4   9  20  38  57  72 100 139 186 212 247 302
#     4  10  17  32  49  78 108 142 164 204 259 312
#
# _framework density 15.512200999999999
#
# number of rings (size 3 to 8) (size 9 to 14) (size 15 to 20)
#    1.000    1.333    0.833    3.500    3.500    0.667 
#    0.000    0.000    7.333    0.000    0.000    0.000 
#    0.000    0.000    0.000    0.000    0.000    0.000 
#
# Total GULP energy -66822.389934 kJ/mol
# GULP energy per Si atom -5568.532495 kJ/mol
# Density = 1.547689 g / cm^3
# Si number density = 15.512201 Si / 1000 Ang^3
#
#
#
# Elastic Constant Matrix: (Units=GPa)
#
#
# Indices 1 2 3 4 5 6 
#
# 1 87.7839 52.0077 30.8133 0.0000 6.7429 0.0000
# 2 52.0077 123.6567 33.2259 0.0000 8.9505 0.0000
# 3 30.8133 33.2259 81.7852 0.0000 9.5387 0.0000
# 4 0.0000 0.0000 0.0000 4.3020 0.0000 -1.8290
# 5 6.7429 8.9505 9.5387 0.0000 17.8812 0.0000
# 6 0.0000 0.0000 0.0000 -1.8290 0.0000 18.8372
#
#
#
# Elastic Compliance Matrix: (Units=1/GPa)
#
#
# Indices 1 2 3 4 5 6 
#
# 1 0.016152 -0.005730 -0.003606 0.000000 -0.001299 0.000000
# 2 -0.005730 0.011239 -0.002136 0.000000 -0.002326 0.000000
# 3 -0.003606 -0.002136 0.015110 0.000000 -0.005632 0.000000
# 4 0.000000 0.000000 0.000000 0.242461 0.000000 0.023542
# 5 -0.001299 -0.002326 -0.005632 0.000000 0.060583 0.000000
# 6 0.000000 0.000000 0.000000 0.023542 0.000000 0.055372
#
#
# Mechanical properties :
#
#
# Convention : Reuss Voigt Hill
#
# Bulk Modulus (GPa) = 51.13180 58.36883 54.75032
# Shear Modulus (GPa) = 11.61761 20.01601 15.81681
#
# Velocity S-wave (km/s) = 2.73963 3.59603 3.19664
# Velocity P-wave (km/s) = 6.56059 7.41291 6.99974
#
# Compressibility (1/GPa) = 0.01955730
#
# Stress axis : x y z
#
# Youngs Moduli (GPa) = 61.91161 88.97439 66.18026
#
# Poissons Ratio (x) = 0.50985 0.23864
# Poissons Ratio (y) = 0.35477 0.14135
# Poissons Ratio (z) = 0.22325 0.19003
#
# Static dielectric constant tensor:
#      x y z
#    x 1.531200 0.000000 -0.006190 
#    y 0.000000 1.505010 0.000000 
#    z -0.006190 0.000000 1.494130 
# 
# From -- ./inp_files/35819.got.cif
#   From: 2010.05.17/outbox.cif.g08.bks.cpg/sg5_18_cif.got.tgz:35819.got - 2010.06.03 18:56:24.
