data_PCOD9120320
_publ_section_title
;
Structure prediction by ZEFSAII (Michael W. Deem and Ramdas Pophale) SiO2 
 PCOD9120320
Probable space group: C 2
;
_chemical_formula_sum "Si O2"
_cell_formula_units_Z 28
_cell_length_a 18.467225
_cell_length_b 6.812399
_cell_length_c 15.637367
_cell_angle_alpha 90.000000
_cell_angle_beta 148.699663
_cell_angle_gamma 90.000000
_cell_volume 1022.047490
_symmetry_space_group_name_H-M "C 2"
_symmetry_group_IT_number 5
_symmetry_cell_setting 'monoclinic'
loop_
_space_group_symop_operation_xyz
x,y,z
-x,y,-z
1/2+x,1/2+y,z
1/2-x,1/2+y,-z
loop_
_atom_site_type_symbol
_atom_site_label
_atom_site_fract_x
_atom_site_fract_y
_atom_site_fract_z
Si Si1 0.318049 0.957980 0.223071
Si Si2 0.219785 0.986257 0.478878
Si Si3 0.570611 0.499746 0.869975
Si Si4 0.223650 0.987288 0.852898
Si Si5 0.029399 0.606231 0.160097
Si Si6 0.369747 0.898113 0.461466
Si Si7 0.202083 0.971155 0.645299
O O1 0.301522 0.726089 0.180986
O O2 0.296012 0.979067 0.302233
O O3 0.481350 0.995871 0.373795
O O4 0.206330 0.080377 0.056066
O O5 0.365906 0.082898 0.654732
O O6 0.188776 0.870615 0.538242
O O7 0.075011 0.096652 0.307319
O O8 0.269519 0.900087 0.439915
O O9 0.637990 0.424473 0.849436
O O10 0.520868 0.329782 0.885231
O O11 0.174509 0.897210 0.712488
O O12 0.391391 0.977159 0.031634
O O13 0.134447 0.543563 0.190122
O O14 0.388384 0.667441 0.459057
#
# Coordination Sequence:
#
# PCOD9120320 Si02
#       7
#     4   4   4   4   4   4   4
#     4   9  21  32  55  82 110 143 193 237 284 341
#     4  10  19  31  53  76 113 147 190 228 284 330
#     4  11  20  34  54  87 116 152 186 239 294 331
#     4  10  19  34  57  81 116 144 187 242 282 335
#     4   9  20  35  52  84 117 145 194 234 279 344
#     4  10  17  36  54  79 110 148 185 241 287 334
#     4   9  19  33  57  83 110 145 194 234 276 347
#
# _framework density 27.395987000000002
#
# number of rings (size 3 to 8) (size 9 to 14) (size 15 to 20)
#    0.857    1.429    1.429    2.143    0.000    2.286 
#    0.000    0.000    0.000   17.143    0.000    0.000 
#    0.000    0.000    0.000    0.000    0.000    0.000 
#
# Total GULP energy -78112.173293 kJ/mol
# GULP energy per Si atom -5579.440950 kJ/mol
# Density = 2.733363 g / cm^3
# Si number density = 27.395987 Si / 1000 Ang^3
#
#
#
# Elastic Constant Matrix: (Units=GPa)
#
#
# Indices 1 2 3 4 5 6 
#
# 1 180.2401 4.6196 73.1417 0.0000 -21.2217 0.0000
# 2 4.6196 60.1279 14.3333 0.0000 0.8873 0.0000
# 3 73.1417 14.3333 222.1207 0.0000 5.2609 0.0000
# 4 0.0000 0.0000 0.0000 36.9813 0.0000 0.0176
# 5 -21.2217 0.8873 5.2609 0.0000 53.9212 0.0000
# 6 0.0000 0.0000 0.0000 0.0176 0.0000 25.8235
#
#
#
# Elastic Compliance Matrix: (Units=1/GPa)
#
#
# Indices 1 2 3 4 5 6 
#
# 1 0.006832 -0.000015 -0.002318 0.000000 0.002915 0.000000
# 2 -0.000015 0.016893 -0.001081 0.000000 -0.000179 0.000000
# 3 -0.002318 -0.001081 0.005369 0.000000 -0.001418 0.000000
# 4 0.000000 0.000000 0.000000 0.027041 0.000000 -0.000018
# 5 0.002915 -0.000179 -0.001418 0.000000 0.019834 0.000000
# 6 0.000000 0.000000 0.000000 -0.000018 0.000000 0.038724
#
#
# Mechanical properties :
#
#
# Convention : Reuss Voigt Hill
#
# Bulk Modulus (GPa) = 44.91238 71.85309 58.38273
# Shear Modulus (GPa) = 38.77679 48.03815 43.40747
#
# Velocity S-wave (km/s) = 3.76629 4.19199 3.98483
# Velocity P-wave (km/s) = 5.94496 7.05088 6.52141
#
# Compressibility (1/GPa) = 0.02226558
#
# Stress axis : x y z
#
# Youngs Moduli (GPa) = 146.36099 59.19733 186.26678
#
# Poissons Ratio (x) = 0.00091 0.43175
# Poissons Ratio (y) = 0.00226 0.20131
# Poissons Ratio (z) = 0.33925 0.06398
#
# Static dielectric constant tensor:
#      x y z
#    x 2.059060 0.000000 -0.018160 
#    y 0.000000 2.399800 0.000000 
#    z -0.018160 0.000000 2.118570 
# 
# From -- ./inp_files/55926.got.cif
#   From: 2010.05.17/outbox.cif.g08.bks.cpg/sg5_28_cif.got.tgz:55926.got - 2010.06.03 18:56:24.
