data_PCOD9120472
_publ_section_title
;
Structure prediction by ZEFSAII (Michael W. Deem and Ramdas Pophale) SiO2 
 PCOD9120472
Probable space group: C 2
;
_chemical_formula_sum "Si O2"
_cell_formula_units_Z 16
_cell_length_a 7.863663
_cell_length_b 16.365216
_cell_length_c 6.885910
_cell_angle_alpha 90.000000
_cell_angle_beta 140.300110
_cell_angle_gamma 90.000000
_cell_volume 566.043751
_symmetry_space_group_name_H-M "C 2"
_symmetry_group_IT_number 5
_symmetry_cell_setting 'monoclinic'
loop_
_space_group_symop_operation_xyz
x,y,z
-x,y,-z
1/2+x,1/2+y,z
1/2-x,1/2+y,-z
loop_
_atom_site_type_symbol
_atom_site_label
_atom_site_fract_x
_atom_site_fract_y
_atom_site_fract_z
Si Si1 0.095054 0.220090 0.357469
Si Si2 0.515018 0.492365 0.739497
Si Si3 0.022278 0.567451 0.255446
Si Si4 0.082290 0.809461 0.845927
O O1 0.295588 0.143049 0.515076
O O2 0.302613 0.292646 0.496297
O O3 0.000000 0.216631 0.500000
O O4 0.817075 0.244586 0.012193
O O5 0.500000 0.515926 0.500000
O O6 0.199900 0.493787 0.499970
O O7 0.647727 0.403999 0.873665
O O8 0.710349 0.554227 0.023331
O O9 0.000000 0.571533 0.000000
O O10 0.000000 0.800024 0.000000
#
# Coordination Sequence:
#
# PCOD9120472 Si02
#       4
#     4   4   4   4
#     4  10  18  31  52  78 103 130 173 221 256 292
#     4  10  20  33  52  78 106 136 169 211 260 308
#     4  10  18  31  52  78 103 130 173 221 256 292
#     4  10  20  33  52  78 106 136 169 211 260 308
#
# _framework density 28.266365
#
# number of rings (size 3 to 8) (size 9 to 14) (size 15 to 20)
#    0.000    2.000    0.000    7.500    0.000    0.000 
#    0.000    0.000    0.000    6.000    0.000   14.000 
#    0.000    0.000    0.000    0.000    0.000    0.000 
#
# Total GULP energy -44653.798696 kJ/mol
# GULP energy per Si atom -5581.724837 kJ/mol
# Density = 2.820203 g / cm^3
# Si number density = 28.266365 Si / 1000 Ang^3
#
#
#
# Elastic Constant Matrix: (Units=GPa)
#
#
# Indices 1 2 3 4 5 6 
#
# 1 94.6815 3.6534 68.4746 0.0000 1.4950 0.0000
# 2 3.6534 158.0406 82.4702 0.0000 36.3849 0.0000
# 3 68.4746 82.4702 250.5780 0.0000 50.8184 0.0000
# 4 0.0000 0.0000 0.0000 45.3545 0.0000 4.0605
# 5 1.4950 36.3849 50.8184 0.0000 69.4783 0.0000
# 6 0.0000 0.0000 0.0000 4.0605 0.0000 11.3357
#
#
#
# Elastic Compliance Matrix: (Units=1/GPa)
#
#
# Indices 1 2 3 4 5 6 
#
# 1 0.013962 0.001658 -0.004842 0.000000 0.002373 0.000000
# 2 0.001658 0.008238 -0.002680 0.000000 -0.002390 0.000000
# 3 -0.004842 -0.002680 0.006916 0.000000 -0.003551 0.000000
# 4 0.000000 0.000000 0.000000 0.022779 0.000000 -0.008160
# 5 0.002373 -0.002390 -0.003551 0.000000 0.018191 0.000000
# 6 0.000000 0.000000 0.000000 -0.008160 0.000000 0.091140
#
#
# Mechanical properties :
#
#
# Convention : Reuss Voigt Hill
#
# Bulk Modulus (GPa) = 57.51169 90.27737 73.89453
# Shear Modulus (GPa) = 27.97202 48.48049 38.22626
#
# Velocity S-wave (km/s) = 3.14918 4.14591 3.68143
# Velocity P-wave (km/s) = 5.79773 7.41117 6.65354
#
# Compressibility (1/GPa) = 0.01738777
#
# Stress axis : x y z
#
# Youngs Moduli (GPa) = 71.62143 121.39477 144.59012
#
# Poissons Ratio (x) = -0.20124 0.70015
# Poissons Ratio (y) = -0.11873 0.38743
# Poissons Ratio (z) = 0.34681 0.32528
#
# Static dielectric constant tensor:
#      x y z
#    x 2.418600 0.000000 -0.042340 
#    y 0.000000 2.246260 0.000000 
#    z -0.042340 0.000000 2.111420 
# 
# From -- ./inp_files/43199.got.cif
#   From: 2010.05.17/outbox.cif.g08.bks.cpg/sg5_22_cif.got.tgz:43199.got - 2010.06.03 18:56:24.
