data_PCOD9120571
_publ_section_title
;
Structure prediction by ZEFSAII (Michael W. Deem and Ramdas Pophale) SiO2 
 PCOD9120571
Probable space group: C 2
;
_chemical_formula_sum "Si O2"
_cell_formula_units_Z 26
_cell_length_a 8.895396
_cell_length_b 19.900137
_cell_length_c 7.410939
_cell_angle_alpha 90.000000
_cell_angle_beta 55.959865
_cell_angle_gamma 90.000000
_cell_volume 1087.084872
_symmetry_space_group_name_H-M "C 2"
_symmetry_group_IT_number 5
_symmetry_cell_setting 'monoclinic'
loop_
_space_group_symop_operation_xyz
x,y,z
-x,y,-z
1/2+x,1/2+y,z
1/2-x,1/2+y,-z
loop_
_atom_site_type_symbol
_atom_site_label
_atom_site_fract_x
_atom_site_fract_y
_atom_site_fract_z
Si Si1 0.795779 0.208170 0.050293
Si Si2 0.799998 0.387560 0.593367
Si Si3 0.199368 0.444334 0.810725
Si Si4 0.500000 0.135439 0.500000
Si Si5 0.054738 0.831577 0.252240
Si Si6 0.663346 0.576520 0.141875
Si Si7 0.723915 0.535935 0.687430
O O1 0.639597 0.179649 0.291869
O O2 0.709602 0.281341 0.077867
O O3 0.809085 0.156977 0.870356
O O4 0.000000 0.210878 0.000000
O O5 0.782717 0.415750 0.401418
O O6 0.634727 0.336290 0.726965
O O7 0.773979 0.459748 0.703660
O O8 0.000000 0.360692 0.500000
O O9 0.355625 0.405506 0.814196
O O10 0.219437 0.523610 0.826523
O O11 0.000000 0.423083 0.000000
O O12 0.374403 0.080421 0.484169
O O13 0.000000 0.817446 0.500000
O O14 0.457986 0.550651 0.300452
O O15 0.698947 0.565660 0.904371
#
# Coordination Sequence:
#
# PCOD9120571 Si02
#       7
#     4   4   4   2   4   4   4
#     4  11  20  37  64  97 136 180 222 265 338 408
#     4  11  22  39  64  97 131 180 226 275 345 397
#     4  11  23  38  60  98 137 168 226 287 330 388
#     4  10  18  32  62  96 126 172 220 264 320 410
#     4  10  22  39  62  95 134 177 226 275 331 402
#     4  10  20  36  61  97 133 165 222 274 335 394
#     4  10  18  34  61  98 124 171 216 270 334 395
#
# _framework density 23.917176000000001
#
# number of rings (size 3 to 8) (size 9 to 14) (size 15 to 20)
#    0.000    1.538    6.154    1.385    2.154    0.000 
#    0.000    0.000    0.000    9.231    0.000    0.000 
#    0.000    0.000    0.000    0.000    0.000    0.000 
#
# Total GULP energy -72493.157447 kJ/mol
# GULP energy per Si atom -5576.396727 kJ/mol
# Density = 2.386274 g / cm^3
# Si number density = 23.917176 Si / 1000 Ang^3
#
#
#
# Elastic Constant Matrix: (Units=GPa)
#
#
# Indices 1 2 3 4 5 6 
#
# 1 105.8178 39.8134 38.2972 0.0000 -39.1337 0.0000
# 2 39.8134 106.6545 26.9415 0.0000 -16.6858 0.0000
# 3 38.2972 26.9415 74.5743 0.0000 -30.5494 0.0000
# 4 0.0000 0.0000 0.0000 43.9674 0.0000 -16.7543
# 5 -39.1337 -16.6858 -30.5494 0.0000 46.1613 0.0000
# 6 0.0000 0.0000 0.0000 -16.7543 0.0000 30.7556
#
#
#
# Elastic Compliance Matrix: (Units=1/GPa)
#
#
# Indices 1 2 3 4 5 6 
#
# 1 0.015444 -0.003547 -0.002485 0.000000 0.010166 0.000000
# 2 -0.003547 0.011234 -0.002477 0.000000 -0.000585 0.000000
# 3 -0.002485 -0.002477 0.019688 0.000000 0.010027 0.000000
# 4 0.000000 0.000000 0.000000 0.028702 0.000000 0.015636
# 5 0.010166 -0.000585 0.010027 0.000000 0.036706 0.000000
# 6 0.000000 0.000000 0.000000 0.015636 0.000000 0.041032
#
#
# Mechanical properties :
#
#
# Convention : Reuss Voigt Hill
#
# Bulk Modulus (GPa) = 34.07361 55.23900 44.65630
# Shear Modulus (GPa) = 27.83857 36.30983 32.07420
#
# Velocity S-wave (km/s) = 3.41538 3.90057 3.66601
# Velocity P-wave (km/s) = 5.46174 6.59030 6.05238
#
# Compressibility (1/GPa) = 0.02934822
#
# Stress axis : x y z
#
# Youngs Moduli (GPa) = 64.75163 89.01398 50.79161
#
# Poissons Ratio (x) = 0.31572 0.12623
# Poissons Ratio (y) = 0.22966 0.12581
# Poissons Ratio (z) = 0.16092 0.22048
#
# Static dielectric constant tensor:
#      x y z
#    x 1.431750 0.000000 -0.215310 
#    y 0.000000 2.031340 0.000000 
#    z -0.215310 0.000000 2.104030 
# 
# From -- ./inp_files/16545.got.cif
#   From: 2010.05.17/outbox.cif.g08.bks.cpg/sg5_9_cif.got.tgz:16545.got - 2010.06.03 18:56:24.
