data_PCOD9120781
_publ_section_title
;
Structure prediction by ZEFSAII (Michael W. Deem and Ramdas Pophale) SiO2 
 PCOD9120781
Probable space group: C 2
;
_chemical_formula_sum "Si O2"
_cell_formula_units_Z 20
_cell_length_a 13.808975
_cell_length_b 9.246473
_cell_length_c 7.255200
_cell_angle_alpha 90.000000
_cell_angle_beta 128.018735
_cell_angle_gamma 90.000000
_cell_volume 729.807119
_symmetry_space_group_name_H-M "C 2"
_symmetry_group_IT_number 5
_symmetry_cell_setting 'monoclinic'
loop_
_space_group_symop_operation_xyz
x,y,z
-x,y,-z
1/2+x,1/2+y,z
1/2-x,1/2+y,-z
loop_
_atom_site_type_symbol
_atom_site_label
_atom_site_fract_x
_atom_site_fract_y
_atom_site_fract_z
Si Si1 0.729434 0.282920 0.561055
Si Si2 0.444046 0.645876 0.651687
Si Si3 0.594185 0.925324 0.965364
Si Si4 0.709644 0.828728 0.774611
Si Si5 0.527209 0.325930 0.815389
O O1 0.824225 0.151441 0.648308
O O2 0.748684 0.360607 0.384440
O O3 0.586780 0.245471 0.415835
O O4 0.784903 0.390926 0.775490
O O5 0.522785 0.776714 0.830647
O O6 0.381733 0.696139 0.384655
O O7 0.507422 0.491865 0.732975
O O8 0.643103 0.954237 0.814664
O O9 0.500000 0.002105 0.000000
O O10 0.831035 0.779610 0.027726
O O11 0.500000 0.319377 0.000000
#
# Coordination Sequence:
#
# PCOD9120781 Si02
#       5
#     4   4   4   4   4
#     4   8  19  33  56  84 123 160 197 254 300 357
#     4   9  19  35  63  85 118 161 204 244 309 362
#     4  10  18  35  57  83 122 161 198 261 303 352
#     4   9  20  34  55  90 123 154 211 253 298 368
#     4  10  18  37  63  91 125 164 202 251 310 367
#
# _framework density 27.404502999999998
#
# number of rings (size 3 to 8) (size 9 to 14) (size 15 to 20)
#    1.200    1.600    0.000    2.400    0.000    0.800 
#    7.200    0.000   13.200    0.000    5.200    0.000 
#    0.000    0.000    0.000    0.000    0.000    0.000 
#
# Total GULP energy -55710.511296 kJ/mol
# GULP energy per Si atom -5571.051130 kJ/mol
# Density = 2.734213 g / cm^3
# Si number density = 27.404503 Si / 1000 Ang^3
#
#
#
# Elastic Constant Matrix: (Units=GPa)
#
#
# Indices 1 2 3 4 5 6 
#
# 1 100.7439 3.8753 39.4662 0.0000 -7.1188 0.0000
# 2 3.8753 105.6558 40.7053 0.0000 3.5588 0.0000
# 3 39.4662 40.7053 175.4213 0.0000 38.8106 0.0000
# 4 0.0000 0.0000 0.0000 9.9594 0.0000 -2.2166
# 5 -7.1188 3.5588 38.8106 0.0000 62.7023 0.0000
# 6 0.0000 0.0000 0.0000 -2.2166 0.0000 1.4767
#
#
#
# Elastic Compliance Matrix: (Units=1/GPa)
#
#
# Indices 1 2 3 4 5 6 
#
# 1 0.011530 0.000829 -0.003552 0.000000 0.003461 0.000000
# 2 0.000829 0.010513 -0.002914 0.000000 0.001301 0.000000
# 3 -0.003552 -0.002914 0.008375 0.000000 -0.005422 0.000000
# 4 0.000000 0.000000 0.000000 0.150781 0.000000 0.226331
# 5 0.003461 0.001301 -0.005422 0.000000 0.019623 0.000000
# 6 0.000000 0.000000 0.000000 0.226331 0.000000 1.016914
#
#
# Mechanical properties :
#
#
# Convention : Reuss Voigt Hill
#
# Bulk Modulus (GPa) = 52.23301 61.10163 56.66732
# Shear Modulus (GPa) = 4.04729 34.67930 19.36330
#
# Velocity S-wave (km/s) = 1.21658 3.56119 2.66103
# Velocity P-wave (km/s) = 4.59073 6.26530 5.49222
#
# Compressibility (1/GPa) = 0.01914498
#
# Stress axis : x y z
#
# Youngs Moduli (GPa) = 86.72777 95.11983 119.39704
#
# Poissons Ratio (x) = -0.07886 0.42411
# Poissons Ratio (y) = -0.07190 0.34790
# Poissons Ratio (z) = 0.30807 0.27716
#
# Static dielectric constant tensor:
#      x y z
#    x 2.389690 0.000000 0.042430 
#    y 0.000000 2.085250 0.000000 
#    z 0.042430 0.000000 2.131270 
# 
# From -- ./inp_files/27135.got.cif
#   From: 2010.05.17/outbox.cif.g08.bks.cpg/sg5_14_cif.got.tgz:27135.got - 2010.06.03 18:56:24.
