data_PCOD9120466
_publ_section_title
;
Structure prediction by ZEFSAII (Michael W. Deem and Ramdas Pophale) SiO2 
 PCOD9120466
Probable space group: C 2
;
_chemical_formula_sum "Si O2"
_cell_formula_units_Z 28
_cell_length_a 22.510616
_cell_length_b 5.444451
_cell_length_c 30.710205
_cell_angle_alpha 90.000000
_cell_angle_beta 160.567820
_cell_angle_gamma 90.000000
_cell_volume 1252.175001
_symmetry_space_group_name_H-M "C 2"
_symmetry_group_IT_number 5
_symmetry_cell_setting 'monoclinic'
loop_
_space_group_symop_operation_xyz
x,y,z
-x,y,-z
1/2+x,1/2+y,z
1/2-x,1/2+y,-z
loop_
_atom_site_type_symbol
_atom_site_label
_atom_site_fract_x
_atom_site_fract_y
_atom_site_fract_z
Si Si1 0.719211 0.430270 0.650708
Si Si2 0.469102 0.963512 0.908307
Si Si3 0.484577 0.466210 0.041467
Si Si4 0.396948 0.986421 0.336087
Si Si5 0.369711 0.483880 0.270533
Si Si6 0.325841 0.394996 0.574773
Si Si7 0.231148 0.428105 0.611290
O O1 0.500000 0.428551 0.500000
O O2 0.823999 0.455790 0.769024
O O3 0.779996 0.671025 0.666353
O O4 0.781293 0.176672 0.670869
O O5 0.585283 0.209501 0.989815
O O6 0.589777 0.722287 0.993679
O O7 0.339407 0.969731 0.861791
O O8 0.687480 0.476783 0.199330
O O9 0.500000 0.466081 0.000000
O O10 0.444629 0.256561 0.351500
O O11 0.425348 0.758532 0.322968
O O12 0.514648 0.932803 0.458850
O O13 0.463717 0.427839 0.290271
O O14 0.234704 0.625149 0.485238
O O15 0.287704 0.427230 0.599546
#
# Coordination Sequence:
#
# PCOD9120466 Si02
#       7
#     4   4   4   4   4   4   4
#     4  12  23  34  51  71 109 146 183 198 237 323
#     4  10  21  35  53  73 109 137 166 213 258 308
#     4  10  19  33  53  76 100 130 170 217 269 311
#     4  10  18  31  49  68 105 129 169 206 253 302
#     4  10  18  33  47  70  97 140 166 206 264 286
#     4  12  21  32  52  70 106 140 179 222 248 294
#     4  12  22  34  50  77 104 149 180 197 253 301
#
# _framework density 22.361091999999999
#
# number of rings (size 3 to 8) (size 9 to 14) (size 15 to 20)
#    0.000    1.143    2.857    6.857    0.000    0.000 
#    0.000    0.000    0.000    0.000    0.000    0.000 
#    0.000   91.429    0.000    0.000    0.000    0.000 
#
# Total GULP energy -78110.648612 kJ/mol
# GULP energy per Si atom -5579.332044 kJ/mol
# Density = 2.231020 g / cm^3
# Si number density = 22.361092 Si / 1000 Ang^3
#
#
#
# Elastic Constant Matrix: (Units=GPa)
#
#
# Indices 1 2 3 4 5 6 
#
# 1 91.1576 44.2793 22.8925 0.1092 -23.0976 -0.0189
# 2 44.2793 233.2848 37.3759 0.1720 -33.0378 -0.1922
# 3 22.8925 37.3759 78.8868 0.1249 -20.0113 -0.0629
# 4 0.1092 0.1720 0.1249 28.5332 -0.0579 -16.7780
# 5 -23.0976 -33.0378 -20.0113 -0.0579 25.5161 0.0306
# 6 -0.0189 -0.1922 -0.0629 -16.7780 0.0306 28.5273
#
#
#
# Elastic Compliance Matrix: (Units=1/GPa)
#
#
# Indices 1 2 3 4 5 6 
#
# 1 0.014510 -0.001040 -0.000908 -0.000045 0.011075 -0.000038
# 2 -0.001040 0.005382 -0.000898 0.000004 0.005322 0.000030
# 3 -0.000908 -0.000898 0.016056 -0.000045 0.010608 -0.000009
# 4 -0.000045 0.000004 -0.000045 0.053575 0.000013 0.031510
# 5 0.011075 0.005322 0.010608 0.000013 0.064427 0.000005
# 6 -0.000038 0.000030 -0.000009 0.031510 0.000005 0.053586
#
#
# Mechanical properties :
#
#
# Convention : Reuss Voigt Hill
#
# Bulk Modulus (GPa) = 33.05207 68.04719 50.54963
# Shear Modulus (GPa) = 22.39001 36.43408 29.41205
#
# Velocity S-wave (km/s) = 3.16775 4.04090 3.63067
# Velocity P-wave (km/s) = 5.30968 7.22973 6.34278
#
# Compressibility (1/GPa) = 0.03025529
#
# Stress axis : x y z
#
# Youngs Moduli (GPa) = 68.91965 185.81685 62.28106
#
# Poissons Ratio (x) = 0.19325 0.05657
# Poissons Ratio (y) = 0.07168 0.05592
# Poissons Ratio (z) = 0.06260 0.16682
#
# Static dielectric constant tensor:
#      x y z
#    x 1.856110 -0.000010 0.010750 
#    y -0.000010 2.002650 0.000070 
#    z 0.010750 0.000070 1.870600 
# 
# From -- ./inp_files/69340.got.cif
#   From: 2010.05.17/outbox.cif.g08.bks.cpg/sg5_35_cif.got.tgz:69340.got - 2010.06.03 18:56:24.
