data_PCOD9120259
_publ_section_title
;
Structure prediction by ZEFSAII (Michael W. Deem and Ramdas Pophale) SiO2 
 PCOD9120259
Probable space group: C 2
;
_chemical_formula_sum "Si O2"
_cell_formula_units_Z 28
_cell_length_a 20.656531
_cell_length_b 18.223622
_cell_length_c 9.437244
_cell_angle_alpha 90.000000
_cell_angle_beta 154.183300
_cell_angle_gamma 90.000000
_cell_volume 1547.101993
_symmetry_space_group_name_H-M "C 2"
_symmetry_group_IT_number 5
_symmetry_cell_setting 'monoclinic'
loop_
_space_group_symop_operation_xyz
x,y,z
-x,y,-z
1/2+x,1/2+y,z
1/2-x,1/2+y,-z
loop_
_atom_site_type_symbol
_atom_site_label
_atom_site_fract_x
_atom_site_fract_y
_atom_site_fract_z
Si Si1 0.888566 0.678360 0.603999
Si Si2 0.283786 0.115820 0.668671
Si Si3 0.577139 0.853756 0.802036
Si Si4 0.332659 0.254949 0.212592
Si Si5 0.671983 0.746489 0.597818
Si Si6 0.661674 0.329326 0.321407
Si Si7 0.367637 0.956700 0.847387
O O1 0.791203 0.626482 0.513592
O O2 0.845678 0.691037 0.356697
O O3 0.865005 0.758216 0.630977
O O4 0.057558 0.648729 0.958406
O O5 0.163100 0.169153 0.500081
O O6 0.275097 0.030675 0.686133
O O7 0.500000 0.866638 0.500000
O O8 0.482846 0.788831 0.690744
O O9 0.741752 0.822707 0.100085
O O10 0.571349 0.925728 0.885214
O O11 0.500000 0.274938 0.500000
O O12 0.243510 0.235222 0.893790
O O13 0.778015 0.797735 0.708865
O O14 0.777728 0.387936 0.607486
O O15 0.500000 0.365581 0.000000
O O16 0.500000 0.975309 0.000000
#
# Coordination Sequence:
#
# PCOD9120259 Si02
#       7
#     4   4   4   4   4   4   4
#     4  10  17  33  57  83 107 142 200 232 267 336
#     4  10  20  37  57  87 116 147 189 246 279 349
#     4  10  23  38  55  90 119 150 195 244 288 347
#     4  11  19  33  60  89 104 150 202 238 277 339
#     4  10  20  36  58  82 116 147 195 241 278 335
#     4  11  19  35  60  83 111 151 193 238 281 345
#     4  12  22  37  60  86 120 154 188 239 306 333
#
# _framework density 18.098354
#
# number of rings (size 3 to 8) (size 9 to 14) (size 15 to 20)
#    0.000    1.429    8.571    0.000    0.000    0.000 
#    2.571    1.429    0.000    2.571    0.000    0.000 
#    0.000    0.000    0.000    0.000    0.000    0.000 
#
# Total GULP energy -78059.968553 kJ/mol
# GULP energy per Si atom -5575.712039 kJ/mol
# Density = 1.805716 g / cm^3
# Si number density = 18.098354 Si / 1000 Ang^3
#
#
#
# Elastic Constant Matrix: (Units=GPa)
#
#
# Indices 1 2 3 4 5 6 
#
# 1 92.8820 31.1105 22.0307 0.0000 -8.6309 0.0000
# 2 31.1105 94.4781 15.9779 0.0000 -9.2067 0.0000
# 3 22.0307 15.9779 37.9171 0.0000 -7.2288 0.0000
# 4 0.0000 0.0000 0.0000 25.1411 0.0000 1.9871
# 5 -8.6309 -9.2067 -7.2288 0.0000 28.6700 0.0000
# 6 0.0000 0.0000 0.0000 1.9871 0.0000 10.7170
#
#
#
# Elastic Compliance Matrix: (Units=1/GPa)
#
#
# Indices 1 2 3 4 5 6 
#
# 1 0.013452 -0.003244 -0.006172 0.000000 0.001452 0.000000
# 2 -0.003244 0.012363 -0.002893 0.000000 0.002264 0.000000
# 3 -0.006172 -0.002893 0.032195 0.000000 0.005330 0.000000
# 4 0.000000 0.000000 0.000000 0.040367 0.000000 -0.007485
# 5 0.001452 0.002264 0.005330 0.000000 0.037388 0.000000
# 6 0.000000 0.000000 0.000000 -0.007485 0.000000 0.094698
#
#
# Mechanical properties :
#
#
# Convention : Reuss Voigt Hill
#
# Bulk Modulus (GPa) = 29.94836 40.39061 35.16949
# Shear Modulus (GPa) = 18.78217 23.31615 21.04916
#
# Velocity S-wave (km/s) = 3.22496 3.59319 3.41404
# Velocity P-wave (km/s) = 5.51821 6.29129 5.91739
#
# Compressibility (1/GPa) = 0.03339081
#
# Stress axis : x y z
#
# Youngs Moduli (GPa) = 74.33936 80.88901 31.06108
#
# Poissons Ratio (x) = 0.26243 0.19171
# Poissons Ratio (y) = 0.24118 0.08986
# Poissons Ratio (z) = 0.45882 0.23400
#
# Static dielectric constant tensor:
#      x y z
#    x 1.655310 0.000000 -0.006240 
#    y 0.000000 1.591710 0.000000 
#    z -0.006240 0.000000 1.650540 
# 
# From -- ./inp_files/29994.got.cif
#   From: 2010.05.17/outbox.cif.g08.bks.cpg/sg5_15_cif.got.tgz:29994.got - 2010.06.03 18:56:24.
