data_PCOD9120453
_publ_section_title
;
Structure prediction by ZEFSAII (Michael W. Deem and Ramdas Pophale) SiO2 
 PCOD9120453
Probable space group: C 2
;
_chemical_formula_sum "Si O2"
_cell_formula_units_Z 28
_cell_length_a 10.065137
_cell_length_b 9.966203
_cell_length_c 14.846737
_cell_angle_alpha 90.000000
_cell_angle_beta 71.090525
_cell_angle_gamma 90.000000
_cell_volume 1408.919437
_symmetry_space_group_name_H-M "C 2"
_symmetry_group_IT_number 5
_symmetry_cell_setting 'monoclinic'
loop_
_space_group_symop_operation_xyz
x,y,z
-x,y,-z
1/2+x,1/2+y,z
1/2-x,1/2+y,-z
loop_
_atom_site_type_symbol
_atom_site_label
_atom_site_fract_x
_atom_site_fract_y
_atom_site_fract_z
Si Si1 0.592488 0.934490 0.781087
Si Si2 0.648551 0.865206 0.386375
Si Si3 0.455542 0.200900 0.104911
Si Si4 0.737668 0.917498 0.178897
Si Si5 0.900490 0.667573 0.599626
Si Si6 0.856937 0.300897 0.412771
Si Si7 0.694718 0.228745 0.188081
O O1 0.426048 0.898692 0.813132
O O2 0.649616 0.909696 0.666814
O O3 0.681970 0.834277 0.823249
O O4 0.604742 0.084033 0.817135
O O5 0.752956 0.873283 0.280563
O O6 0.520381 0.765154 0.391323
O O7 0.698042 0.843384 0.476706
O O8 0.571792 0.010026 0.399131
O O9 0.346631 0.319859 0.107408
O O10 0.592573 0.254601 0.127232
O O11 0.500000 0.137665 0.000000
O O12 0.757100 0.077501 0.166819
O O13 0.740858 0.682522 0.600722
O O14 0.900662 0.727472 0.699478
O O15 0.000000 0.725669 0.500000
#
# Coordination Sequence:
#
# PCOD9120453 Si02
#       7
#     4   4   4   4   4   4   4
#     4   9  20  40  59  82 118 150 186 235 287 340
#     4   9  17  32  52  78 110 151 181 221 273 326
#     4  11  24  39  60  87 111 147 197 242 287 334
#     4   9  20  37  59  83 116 151 190 233 283 340
#     4  10  18  30  55  78 110 149 182 222 272 329
#     4   9  17  30  54  80 108 147 185 216 272 333
#     4   9  21  39  56  84 116 149 188 235 283 338
#
# _framework density 19.873384999999999
#
# number of rings (size 3 to 8) (size 9 to 14) (size 15 to 20)
#    0.000    2.571    1.429    0.857    2.000    3.429 
#    0.000    0.714    3.143    0.000    0.000    0.000 
#    0.000    0.000    0.000    0.000    0.000    0.000 
#
# Total GULP energy -77934.542076 kJ/mol
# GULP energy per Si atom -5566.753005 kJ/mol
# Density = 1.982815 g / cm^3
# Si number density = 19.873385 Si / 1000 Ang^3
#
#
#
# Elastic Constant Matrix: (Units=GPa)
#
#
# Indices 1 2 3 4 5 6 
#
# 1 89.5212 47.1350 12.7156 0.0000 19.3807 0.0000
# 2 47.1350 64.2583 5.5197 0.0000 -5.5159 0.0000
# 3 12.7156 5.5197 48.6883 0.0000 11.7126 0.0000
# 4 0.0000 0.0000 0.0000 13.7913 0.0000 2.7988
# 5 19.3807 -5.5159 11.7126 0.0000 20.1963 0.0000
# 6 0.0000 0.0000 0.0000 2.7988 0.0000 27.2874
#
#
#
# Elastic Compliance Matrix: (Units=1/GPa)
#
#
# Indices 1 2 3 4 5 6 
#
# 1 0.038036 -0.032533 0.005430 0.000000 -0.048534 0.000000
# 2 -0.032533 0.044236 -0.008059 0.000000 0.047974 0.000000
# 3 0.005430 -0.008059 0.025355 0.000000 -0.022116 0.000000
# 4 0.000000 0.000000 0.000000 0.074051 0.000000 -0.007595
# 5 -0.048534 0.047974 -0.022116 0.000000 0.122016 0.000000
# 6 0.000000 0.000000 0.000000 -0.007595 0.000000 0.037426
#
#
# Mechanical properties :
#
#
# Convention : Reuss Voigt Hill
#
# Bulk Modulus (GPa) = 26.80800 37.02316 31.91558
# Shear Modulus (GPa) = 11.79590 21.39486 16.59538
#
# Velocity S-wave (km/s) = 2.43894 3.28465 2.89287
# Velocity P-wave (km/s) = 4.63140 5.74937 5.22040
#
# Compressibility (1/GPa) = 0.03730230
#
# Stress axis : x y z
#
# Youngs Moduli (GPa) = 26.29116 22.60606 39.44059
#
# Poissons Ratio (x) = 0.73543 -0.21416
# Poissons Ratio (y) = 0.85532 0.31787
# Poissons Ratio (z) = -0.14276 0.18219
#
# Static dielectric constant tensor:
#      x y z
#    x 1.698960 0.000000 -0.008520 
#    y 0.000000 1.670810 0.000000 
#    z -0.008520 0.000000 1.768380 
# 
# From -- ./inp_files/50267.got.cif
#   From: 2010.05.17/outbox.cif.g08.bks.cpg/sg5_26_cif.got.tgz:50267.got - 2010.06.03 18:56:24.
