data_PCOD9120613
_publ_section_title
;
Structure prediction by ZEFSAII (Michael W. Deem and Ramdas Pophale) SiO2 
 PCOD9120613
Probable space group: C 2
;
_chemical_formula_sum "Si O2"
_cell_formula_units_Z 24
_cell_length_a 17.043983
_cell_length_b 8.116708
_cell_length_c 9.437204
_cell_angle_alpha 90.000000
_cell_angle_beta 88.605014
_cell_angle_gamma 90.000000
_cell_volume 1305.165617
_symmetry_space_group_name_H-M "C 2"
_symmetry_group_IT_number 5
_symmetry_cell_setting 'monoclinic'
loop_
_space_group_symop_operation_xyz
x,y,z
-x,y,-z
1/2+x,1/2+y,z
1/2-x,1/2+y,-z
loop_
_atom_site_type_symbol
_atom_site_label
_atom_site_fract_x
_atom_site_fract_y
_atom_site_fract_z
Si Si1 0.684155 0.074440 0.646221
Si Si2 0.922194 0.145659 0.668033
Si Si3 0.783797 0.253932 0.871028
Si Si4 0.597809 0.753460 0.644368
Si Si5 0.669103 0.341516 0.406933
Si Si6 0.240845 0.129462 0.813836
O O1 0.718691 0.149756 0.788233
O O2 0.661705 0.220289 0.540257
O O3 0.615988 0.943231 0.679137
O O4 0.756324 0.965900 0.577134
O O5 0.866073 0.198130 0.798360
O O6 0.896578 0.241110 0.526137
O O7 0.012337 0.188733 0.689664
O O8 0.904488 0.956399 0.626942
O O9 0.767224 0.444181 0.840180
O O10 0.779067 0.214503 0.036345
O O11 0.664636 0.645206 0.716532
O O12 0.692372 0.230778 0.271325
#
# Coordination Sequence:
#
# PCOD9120613 Si02
#       6
#     4   4   4   4   4   4
#     4  10  18  33  58  84 109 143 184 226 267 318
#     4  10  21  37  55  80 112 145 178 222 275 321
#     4  11  21  36  57  81 108 144 185 225 268 323
#     4  10  21  37  55  80 112 145 178 222 275 321
#     4  10  18  33  58  84 109 143 184 226 267 318
#     4  11  21  36  57  81 108 144 185 225 268 323
#
# _framework density 18.388470999999999
#
# number of rings (size 3 to 8) (size 9 to 14) (size 15 to 20)
#    0.000    1.667    0.000   10.000    0.000    0.667 
#    0.000   11.667    0.000    2.000    0.000    0.000 
#    0.000    0.000    0.000    0.000    0.000    0.000 
#
# Total GULP energy -67021.884663 kJ/mol
# GULP energy per Si atom -5585.157055 kJ/mol
# Density = 1.834662 g / cm^3
# Si number density = 18.388471 Si / 1000 Ang^3
#
#
#
# Elastic Constant Matrix: (Units=GPa)
#
#
# Indices 1 2 3 4 5 6 
#
# 1 72.3250 34.2993 12.4913 0.0000 4.6202 0.0000
# 2 34.2993 95.7303 -9.5483 0.0000 12.0525 0.0000
# 3 12.4913 -9.5483 55.5625 0.0000 -0.6201 0.0000
# 4 0.0000 0.0000 0.0000 38.5477 0.0000 1.4753
# 5 4.6202 12.0525 -0.6201 0.0000 7.5657 0.0000
# 6 0.0000 0.0000 0.0000 1.4753 0.0000 29.0131
#
#
#
# Elastic Compliance Matrix: (Units=1/GPa)
#
#
# Indices 1 2 3 4 5 6 
#
# 1 0.018052 -0.006942 -0.005256 0.000000 -0.000395 0.000000
# 2 -0.006942 0.015966 0.004072 0.000000 -0.020861 0.000000
# 3 -0.005256 0.004072 0.019861 0.000000 -0.001649 0.000000
# 4 0.000000 0.000000 0.000000 0.025992 0.000000 -0.001322
# 5 -0.000395 -0.020861 -0.001649 0.000000 0.165515 0.000000
# 6 0.000000 0.000000 0.000000 -0.001322 0.000000 0.034534
#
#
# Mechanical properties :
#
#
# Convention : Reuss Voigt Hill
#
# Bulk Modulus (GPa) = 26.57765 33.12249 29.85007
# Shear Modulus (GPa) = 16.19618 27.45034 21.82326
#
# Velocity S-wave (km/s) = 2.97101 3.86787 3.44872
# Velocity P-wave (km/s) = 5.12387 6.16433 5.66802
#
# Compressibility (1/GPa) = 0.03762560
#
# Stress axis : x y z
#
# Youngs Moduli (GPa) = 55.39639 62.63331 50.35093
#
# Poissons Ratio (x) = 0.43482 0.26463
# Poissons Ratio (y) = 0.38457 -0.20501
# Poissons Ratio (z) = 0.29115 -0.25502
#
# Static dielectric constant tensor:
#      x y z
#    x 1.634840 0.000000 -0.005450 
#    y 0.000000 1.651440 0.000000 
#    z -0.005450 0.000000 1.623450 
# 
# From -- ./inp_files/15750.got.cif
#   From: 2010.05.17/outbox.cif.g08.bks.cpg/sg5_8_cif.got.tgz:15750.got - 2010.06.03 18:56:24.
