data_PCOD9120537
_publ_section_title
;
Structure prediction by ZEFSAII (Michael W. Deem and Ramdas Pophale) SiO2 
 PCOD9120537
Probable space group: C 2
;
_chemical_formula_sum "Si O2"
_cell_formula_units_Z 30
_cell_length_a 21.589798
_cell_length_b 16.850640
_cell_length_c 8.649819
_cell_angle_alpha 90.000000
_cell_angle_beta 32.432735
_cell_angle_gamma 90.000000
_cell_volume 1687.668582
_symmetry_space_group_name_H-M "C 2"
_symmetry_group_IT_number 5
_symmetry_cell_setting 'monoclinic'
loop_
_space_group_symop_operation_xyz
x,y,z
-x,y,-z
1/2+x,1/2+y,z
1/2-x,1/2+y,-z
loop_
_atom_site_type_symbol
_atom_site_label
_atom_site_fract_x
_atom_site_fract_y
_atom_site_fract_z
Si Si1 0.709343 0.000000 0.273690
Si Si2 0.363812 0.233851 0.813649
Si Si3 0.374834 0.059406 0.853173
Si Si4 0.697057 0.180201 0.397290
Si Si5 0.879351 0.283100 0.180203
Si Si6 0.812169 0.851651 0.182977
Si Si7 0.529901 0.942402 0.116240
Si Si8 0.000000 0.770219 0.000000
O O1 0.803260 0.944090 0.156575
O O2 0.591523 0.949736 0.540817
O O3 0.714777 0.021777 0.080477
O O4 0.694916 0.085227 0.386492
O O5 0.500000 0.248438 0.500000
O O6 0.349972 0.151301 0.936703
O O7 0.309660 0.216451 0.760942
O O8 0.311405 0.303840 0.023954
O O9 0.500000 0.061022 0.500000
O O10 0.389217 0.007706 0.975327
O O11 0.809601 0.213865 0.244632
O O12 0.587389 0.214683 0.720360
O O13 0.795263 0.322900 0.485305
O O14 0.913173 0.356002 0.996230
O O15 0.000000 0.256545 0.000000
O O16 0.924847 0.824203 0.041543
O O17 0.500000 0.957891 0.000000
#
# Coordination Sequence:
#
# PCOD9120537 Si02
#       8
#     4   4   4   4   4   4   4   2
#     4  10  20  36  56  87 113 147 194 237 284 336
#     4  10  19  37  56  85 117 149 192 235 289 343
#     4   8  18  32  53  83 112 142 186 239 284 332
#     4  10  22  37  61  85 115 153 190 243 285 344
#     4  10  21  39  54  85 119 151 192 232 289 352
#     4  11  21  36  58  86 115 152 189 239 287 347
#     4  10  18  32  56  82 117 138 184 239 284 326
#     4  10  22  36  60  86 114 148 198 230 302 334
#
# _framework density 17.776001999999998
#
# number of rings (size 3 to 8) (size 9 to 14) (size 15 to 20)
#    0.000    2.133    4.000    0.800    2.800    1.067 
#    1.200    0.667    0.000    3.200    0.000    0.000 
#    0.000    0.000    0.000    0.000    0.000    0.000 
#
# Total GULP energy -83616.526051 kJ/mol
# GULP energy per Si atom -5574.435070 kJ/mol
# Density = 1.773554 g / cm^3
# Si number density = 17.776002 Si / 1000 Ang^3
#
#
#
# Elastic Constant Matrix: (Units=GPa)
#
#
# Indices 1 2 3 4 5 6 
#
# 1 74.7652 49.0075 15.9113 0.0000 -15.9409 0.0000
# 2 49.0075 103.1223 34.2686 0.0000 -5.5589 0.0000
# 3 15.9113 34.2686 39.5479 0.0000 -10.2955 0.0000
# 4 0.0000 0.0000 0.0000 19.8142 0.0000 1.4739
# 5 -15.9409 -5.5589 -10.2955 0.0000 20.9565 0.0000
# 6 0.0000 0.0000 0.0000 1.4739 0.0000 24.4759
#
#
#
# Elastic Compliance Matrix: (Units=1/GPa)
#
#
# Indices 1 2 3 4 5 6 
#
# 1 0.024070 -0.012361 0.005664 0.000000 0.017813 0.000000
# 2 -0.012361 0.020082 -0.015468 0.000000 -0.011675 0.000000
# 3 0.005664 -0.015468 0.041811 0.000000 0.020746 0.000000
# 4 0.000000 0.000000 0.000000 0.050696 0.000000 -0.003053
# 5 0.017813 -0.011675 0.020746 0.000000 0.068363 0.000000
# 6 0.000000 0.000000 0.000000 -0.003053 0.000000 0.041040
#
#
# Mechanical properties :
#
#
# Convention : Reuss Voigt Hill
#
# Bulk Modulus (GPa) = 24.01870 46.20116 35.10993
# Shear Modulus (GPa) = 16.43276 20.93250 18.68263
#
# Velocity S-wave (km/s) = 3.04375 3.43530 3.24543
# Velocity P-wave (km/s) = 5.08859 6.46392 5.81704
#
# Compressibility (1/GPa) = 0.04163423
#
# Stress axis : x y z
#
# Youngs Moduli (GPa) = 41.54496 49.79497 23.91738
#
# Poissons Ratio (x) = 0.61552 -0.13547
# Poissons Ratio (y) = 0.51354 0.36994
# Poissons Ratio (z) = -0.23531 0.77021
#
# Static dielectric constant tensor:
#      x y z
#    x 1.638820 0.000000 -0.001800 
#    y 0.000000 1.608550 0.000000 
#    z -0.001800 0.000000 1.609590 
# 
# From -- ./inp_files/21007.got.cif
#   From: 2010.05.17/outbox.cif.g08.bks.cpg/sg5_11_cif.got.tgz:21007.got - 2010.06.03 18:56:24.
