data_PCOD9120263
_publ_section_title
;
Structure prediction by ZEFSAII (Michael W. Deem and Ramdas Pophale) SiO2 
 PCOD9120263
Probable space group: C 2
;
_chemical_formula_sum "Si O2"
_cell_formula_units_Z 24
_cell_length_a 29.004597
_cell_length_b 7.918106
_cell_length_c 21.330776
_cell_angle_alpha 90.000000
_cell_angle_beta 168.128298
_cell_angle_gamma 90.000000
_cell_volume 1007.797271
_symmetry_space_group_name_H-M "C 2"
_symmetry_group_IT_number 5
_symmetry_cell_setting 'monoclinic'
loop_
_space_group_symop_operation_xyz
x,y,z
-x,y,-z
1/2+x,1/2+y,z
1/2-x,1/2+y,-z
loop_
_atom_site_type_symbol
_atom_site_label
_atom_site_fract_x
_atom_site_fract_y
_atom_site_fract_z
Si Si1 0.520487 0.314150 0.725259
Si Si2 0.356534 0.844477 0.065290
Si Si3 0.766350 0.552100 0.721134
Si Si4 0.241886 0.510003 0.662187
Si Si5 0.901861 0.202973 0.302873
Si Si6 0.236127 0.734916 0.777283
O O1 0.408050 0.490427 0.563105
O O2 0.313557 0.185970 0.450223
O O3 0.679313 0.257802 0.877613
O O4 0.702409 0.327680 0.021226
O O5 0.569250 0.897601 0.390307
O O6 0.398140 0.751651 0.054250
O O7 0.224060 0.021817 0.873250
O O8 0.635462 0.707900 0.576094
O O9 0.773882 0.402965 0.784039
O O10 0.000000 0.578875 0.000000
O O11 0.226308 0.580370 0.714264
O O12 0.500000 0.458761 0.000000
O O13 0.000000 0.225586 0.500000
O O14 0.000000 0.742326 0.500000
#
# Coordination Sequence:
#
# PCOD9120263 Si02
#       6
#     4   4   4   4   4   4
#     4   9  18  32  59  79 106 153 186 228 285 345
#     4  10  18  35  60  82 110 155 190 226 289 351
#     4  10  18  32  56  81 106 138 188 236 280 335
#     4  10  21  35  60  88 118 148 188 248 295 332
#     4  10  17  33  58  79 105 148 192 224 279 350
#     4  11  16  34  61  84 104 157 197 226 284 360
#
# _framework density 23.814315000000001
#
# number of rings (size 3 to 8) (size 9 to 14) (size 15 to 20)
#    0.000    2.000    6.667    2.000    0.000    0.000 
#    0.000    3.333   18.333    0.000    0.000    0.000 
#    0.000    0.000    0.000    0.000    0.000    0.000 
#
# Total GULP energy -66828.131399 kJ/mol
# GULP energy per Si atom -5569.010950 kJ/mol
# Density = 2.376011 g / cm^3
# Si number density = 23.814315 Si / 1000 Ang^3
#
#
#
# Elastic Constant Matrix: (Units=GPa)
#
#
# Indices 1 2 3 4 5 6 
#
# 1 120.3481 39.7260 102.0050 0.0011 -26.7115 0.0007
# 2 39.7260 57.3716 35.8732 0.0009 -15.6234 0.0006
# 3 102.0050 35.8732 206.8590 0.0019 -20.6414 0.0014
# 4 0.0011 0.0009 0.0019 29.7904 0.0014 -12.1676
# 5 -26.7115 -15.6234 -20.6414 0.0014 52.0486 0.0011
# 6 0.0007 0.0006 0.0014 -12.1676 0.0011 22.4742
#
#
#
# Elastic Compliance Matrix: (Units=1/GPa)
#
#
# Indices 1 2 3 4 5 6 
#
# 1 0.017294 -0.006471 -0.006990 0.000000 0.004161 0.000000
# 2 -0.006471 0.023147 -0.000480 -0.000001 0.003437 -0.000001
# 3 -0.006990 -0.000480 0.008322 0.000000 -0.000432 0.000000
# 4 0.000000 -0.000001 0.000000 0.043098 -0.000002 0.023333
# 5 0.004161 0.003437 -0.000432 -0.000002 0.022208 -0.000003
# 6 0.000000 -0.000001 0.000000 0.023333 -0.000003 0.057128
#
#
# Mechanical properties :
#
#
# Convention : Reuss Voigt Hill
#
# Bulk Modulus (GPa) = 47.89478 82.19859 65.04668
# Shear Modulus (GPa) = 24.26719 34.66095 29.46407
#
# Velocity S-wave (km/s) = 3.19567 3.81920 3.52126
# Velocity P-wave (km/s) = 5.81135 7.35117 6.62614
#
# Compressibility (1/GPa) = 0.02087910
#
# Stress axis : x y z
#
# Youngs Moduli (GPa) = 57.82514 43.20211 120.17058
#
# Poissons Ratio (x) = 0.27955 0.84004
# Poissons Ratio (y) = 0.37417 0.05773
# Poissons Ratio (z) = 0.40422 0.02075
#
# Static dielectric constant tensor:
#      x y z
#    x 1.987240 0.000000 -0.020030 
#    y 0.000000 2.018240 0.000000 
#    z -0.020030 0.000000 1.928240 
# 
# From -- ./inp_files/23447.got.cif
#   From: 2010.05.17/outbox.cif.g08.bks.cpg/sg5_12_cif.got.tgz:23447.got - 2010.06.03 18:56:24.
