data_PCOD9120865
_publ_section_title
;
Structure prediction by ZEFSAII (Michael W. Deem and Ramdas Pophale) SiO2 
 PCOD9120865
Probable space group: C 2
;
_chemical_formula_sum "Si O2"
_cell_formula_units_Z 18
_cell_length_a 5.284245
_cell_length_b 20.295039
_cell_length_c 7.042798
_cell_angle_alpha 90.000000
_cell_angle_beta 105.616240
_cell_angle_gamma 90.000000
_cell_volume 727.416713
_symmetry_space_group_name_H-M "C 2"
_symmetry_group_IT_number 5
_symmetry_cell_setting 'monoclinic'
loop_
_space_group_symop_operation_xyz
x,y,z
-x,y,-z
1/2+x,1/2+y,z
1/2-x,1/2+y,-z
loop_
_atom_site_type_symbol
_atom_site_label
_atom_site_fract_x
_atom_site_fract_y
_atom_site_fract_z
Si Si1 0.000705 0.428420 0.716638
Si Si2 0.573962 0.625479 0.234992
Si Si3 0.579995 0.207745 0.238818
Si Si4 0.996851 0.976307 0.714351
Si Si5 0.500000 0.804184 0.500000
O O1 0.309091 0.435201 0.811813
O O2 0.930627 0.352257 0.664017
O O3 0.000000 0.457540 0.500000
O O4 0.806746 0.468378 0.810249
O O5 0.313605 0.653859 0.279819
O O6 0.605634 0.550880 0.308060
O O7 0.500000 0.619530 0.000000
O O8 0.823308 0.674996 0.285636
O O9 0.739598 0.265678 0.377940
O O10 0.500000 0.222892 0.000000
O O11 0.000000 0.948193 0.500000
#
# Coordination Sequence:
#
# PCOD9120865 Si02
#       5
#     4   4   4   4   2
#     4   8  19  33  58  86 119 154 204 260 298 358
#     4  10  22  39  60  91 132 163 203 263 319 377
#     4  10  23  41  62  92 129 167 208 260 310 374
#     4  10  18  36  59  88 121 154 204 263 307 366
#     4  10  22  42  64  94 126 170 216 254 312 374
#
# _framework density 24.745101999999999
#
# number of rings (size 3 to 8) (size 9 to 14) (size 15 to 20)
#    0.667    1.778    0.000    1.333    1.556    4.444 
#    0.000    1.111    0.000    0.000    0.000    0.000 
#    0.000    0.000    0.000    0.000    0.000    0.000 
#
# Total GULP energy -50151.301269 kJ/mol
# GULP energy per Si atom -5572.366808 kJ/mol
# Density = 2.468878 g / cm^3
# Si number density = 24.745102 Si / 1000 Ang^3
#
#
#
# Elastic Constant Matrix: (Units=GPa)
#
#
# Indices 1 2 3 4 5 6 
#
# 1 182.4052 59.5141 48.0396 0.0000 9.8607 0.0000
# 2 59.5141 136.5403 27.1198 0.0000 17.2397 0.0000
# 3 48.0396 27.1198 99.3571 0.0000 22.8996 0.0000
# 4 0.0000 0.0000 0.0000-1785.9608 0.0000 -40.5584
# 5 9.8607 17.2397 22.8996 0.0000 43.4987 0.0000
# 6 0.0000 0.0000 0.0000 -40.5584 0.0000 39.9675
#
#
#
# Elastic Compliance Matrix: (Units=1/GPa)
#
#
# Indices 1 2 3 4 5 6 
#
# 1 0.007053 -0.002617 -0.002921 0.000000 0.000976 0.000000
# 2 -0.002617 0.008909 -0.000557 0.000000 -0.002644 0.000000
# 3 -0.002921 -0.000557 0.013003 0.000000 -0.005963 0.000000
# 4 0.000000 0.000000 0.000000 -0.000547 0.000000 -0.000555
# 5 0.000976 -0.002644 -0.005963 0.000000 0.026955 0.000000
# 6 0.000000 0.000000 0.000000 -0.000555 0.000000 0.024457
#
#
# Mechanical properties :
#
#
# Convention : Reuss Voigt Hill
#
# Bulk Modulus (GPa) = 59.61044 76.40550 68.00797
# Shear Modulus (GPa) = 51.22414 -321.59030 -135.18308
#
# Velocity S-wave (km/s) = 4.55474 -11.41242 -7.39925
# Velocity P-wave (km/s) = 7.19743 11.94628 6.74206
#
# Compressibility (1/GPa) = 0.01677558
#
# Stress axis : x y z
#
# Youngs Moduli (GPa) = 141.79094 112.24475 76.90506
#
# Poissons Ratio (x) = 0.29377 0.22461
# Poissons Ratio (y) = 0.37109 0.04282
# Poissons Ratio (z) = 0.41411 0.06250
#
# Static dielectric constant tensor:
#      x y z
#    x 2.164600 0.000000 0.131420 
#    y 0.000000 1.938930 0.000000 
#    z 0.131420 0.000000 2.118970 
# 
# From -- ./inp_files/11954.got.cif
#   From: 2010.05.17/outbox.cif.g08.bks.cpg/sg5_6_cif.got.tgz:11954.got - 2010.06.03 18:56:24.
