data_PCOD9120456
_publ_section_title
;
Structure prediction by ZEFSAII (Michael W. Deem and Ramdas Pophale) SiO2 
 PCOD9120456
Probable space group: C 2
;
_chemical_formula_sum "Si O2"
_cell_formula_units_Z 26
_cell_length_a 10.759608
_cell_length_b 15.480657
_cell_length_c 14.478698
_cell_angle_alpha 90.000000
_cell_angle_beta 147.385858
_cell_angle_gamma 90.000000
_cell_volume 1299.831193
_symmetry_space_group_name_H-M "C 2"
_symmetry_group_IT_number 5
_symmetry_cell_setting 'monoclinic'
loop_
_space_group_symop_operation_xyz
x,y,z
-x,y,-z
1/2+x,1/2+y,z
1/2-x,1/2+y,-z
loop_
_atom_site_type_symbol
_atom_site_label
_atom_site_fract_x
_atom_site_fract_y
_atom_site_fract_z
Si Si1 0.500000 0.654990 0.000000
Si Si2 0.500000 0.456110 0.500000
Si Si3 0.166293 0.821207 0.020731
Si Si4 0.395137 0.281674 0.227902
Si Si5 0.765485 0.982859 0.180024
Si Si6 0.000000 0.443238 0.500000
Si Si7 0.161820 0.340676 0.416270
Si Si8 0.493324 0.510536 0.852179
O O1 0.284466 0.715200 0.842848
O O2 0.558059 0.591497 0.953374
O O3 0.359399 0.509823 0.337486
O O4 0.309906 0.400164 0.437870
O O5 0.430196 0.812159 0.219076
O O6 0.114341 0.777184 0.889611
O O7 0.000000 0.792750 0.000000
O O8 0.108137 0.922920 0.965059
O O9 0.308199 0.378889 0.198241
O O10 0.649252 0.272135 0.429461
O O11 0.500000 0.000761 0.000000
O O12 0.913563 0.022857 0.191776
O O13 0.087997 0.389035 0.465646
O O14 0.219678 0.495589 0.674503
#
# Coordination Sequence:
#
# PCOD9120456 Si02
#       8
#     2   2   4   4   4   2   4   4
#     4  12  24  44  58  92 144 170 208 266 350 378
#     4  10  18  30  55  94 127 150 204 280 312 356
#     4  11  19  37  67  94 121 168 220 262 317 383
#     4  10  22  37  58  91 132 164 210 272 311 390
#     4  10  19  37  62  94 123 163 218 263 313 379
#     4  12  18  40  63  98 133 162 232 270 304 388
#     4  11  20  33  63  95 128 161 219 268 320 367
#     4  11  22  38  63  97 133 176 210 270 324 393
#
# _framework density 20.002597999999999
#
# number of rings (size 3 to 8) (size 9 to 14) (size 15 to 20)
#    0.000    1.231    7.692    1.846    2.154    0.000 
#    2.769    0.769    0.000    0.000    4.000    0.000 
#    0.000    0.000    0.000    0.000    0.000    0.000 
#
# Total GULP energy -72573.369846 kJ/mol
# GULP energy per Si atom -5582.566911 kJ/mol
# Density = 1.995707 g / cm^3
# Si number density = 20.002598 Si / 1000 Ang^3
#
#
#
# Elastic Constant Matrix: (Units=GPa)
#
#
# Indices 1 2 3 4 5 6 
#
# 1 95.9195 2.4950 23.5607 0.0022 -0.9068 0.0007
# 2 2.4950 25.5176 3.3393 0.0031 0.3370 0.0017
# 3 23.5607 3.3393 169.9896 0.0056 15.4066 0.0031
# 4 0.0022 0.0031 0.0056 4.3960 0.0015 2.7074
# 5 -0.9068 0.3370 15.4066 0.0015 46.2096 0.0003
# 6 0.0007 0.0017 0.0031 2.7074 0.0003 14.3418
#
#
#
# Elastic Compliance Matrix: (Units=1/GPa)
#
#
# Indices 1 2 3 4 5 6 
#
# 1 0.010836 -0.000866 -0.001552 -0.000004 0.000736 0.000001
# 2 -0.000866 0.039359 -0.000645 -0.000027 -0.000089 0.000001
# 3 -0.001552 -0.000645 0.006303 -0.000006 -0.002127 0.000000
# 4 -0.000004 -0.000027 -0.000006 0.257409 -0.000006 -0.048593
# 5 0.000736 -0.000089 -0.002127 -0.000006 0.022365 0.000001
# 6 0.000001 0.000001 0.000000 -0.048593 0.000001 0.078900
#
#
# Mechanical properties :
#
#
# Convention : Reuss Voigt Hill
#
# Bulk Modulus (GPa) = 19.85207 38.91295 29.38251
# Shear Modulus (GPa) = 11.41324 30.45825 20.93574
#
# Velocity S-wave (km/s) = 2.39129 3.90643 3.23871
# Velocity P-wave (km/s) = 4.19174 6.31214 5.35788
#
# Compressibility (1/GPa) = 0.05037258
#
# Stress axis : x y z
#
# Youngs Moduli (GPa) = 92.28481 25.40716 158.64855
#
# Poissons Ratio (x) = 0.02201 0.24616
# Poissons Ratio (y) = 0.07994 0.10234
# Poissons Ratio (z) = 0.14319 0.01639
#
# Static dielectric constant tensor:
#      x y z
#    x 1.722740 0.000000 -0.013560 
#    y 0.000000 1.679360 0.000000 
#    z -0.013560 0.000000 1.721160 
# 
# From -- ./inp_files/53255.got.cif
#   From: 2010.05.17/outbox.cif.g08.bks.cpg/sg5_27_cif.got.tgz:53255.got - 2010.06.03 18:56:24.
