data_PCOD9120186
_publ_section_title
;
Structure prediction by ZEFSAII (Michael W. Deem and Ramdas Pophale) SiO2 
 PCOD9120186
Probable space group: C 2
;
_chemical_formula_sum "Si O2"
_cell_formula_units_Z 30
_cell_length_a 16.201491
_cell_length_b 21.686617
_cell_length_c 8.611849
_cell_angle_alpha 90.000000
_cell_angle_beta 147.162521
_cell_angle_gamma 90.000000
_cell_volume 1640.775325
_symmetry_space_group_name_H-M "C 2"
_symmetry_group_IT_number 5
_symmetry_cell_setting 'monoclinic'
loop_
_space_group_symop_operation_xyz
x,y,z
-x,y,-z
1/2+x,1/2+y,z
1/2-x,1/2+y,-z
loop_
_atom_site_type_symbol
_atom_site_label
_atom_site_fract_x
_atom_site_fract_y
_atom_site_fract_z
Si Si1 0.166786 0.651160 0.333069
Si Si2 0.430006 0.081039 0.554026
Si Si3 0.456237 0.720783 0.751323
Si Si4 0.000000 0.148461 0.500000
Si Si5 0.482008 0.865463 0.150534
Si Si6 0.843073 0.453693 0.350185
Si Si7 0.827747 0.923697 0.220590
Si Si8 0.251003 0.056777 0.782230
O O1 0.146823 0.637902 0.482248
O O2 0.276607 0.706529 0.465041
O O3 0.237421 0.588666 0.368136
O O4 0.000000 0.660583 0.000000
O O5 0.500000 0.098053 0.500000
O O6 0.317445 0.022941 0.367905
O O7 0.575719 0.057585 0.883115
O O8 0.515009 0.686342 0.686683
O O9 0.493424 0.792598 0.794365
O O10 0.500000 0.701347 0.000000
O O11 0.853334 0.104282 0.286297
O O12 0.608443 0.903721 0.446438
O O13 0.500000 0.883030 0.000000
O O14 0.311881 0.882616 0.937644
O O15 0.000000 0.460312 0.500000
O O16 0.714142 0.435471 0.025659
O O17 0.000000 0.899949 0.500000
O O18 0.814320 0.988683 0.293413
#
# Coordination Sequence:
#
# PCOD9120186 Si02
#       8
#     4   4   4   2   4   4   4   4
#     4   9  21  36  58  88 123 161 199 253 312 360
#     4  10  17  30  57  87 118 152 197 238 308 378
#     4  10  23  41  61  88 118 163 218 253 294 378
#     4  10  22  36  62  84 128 164 194 246 330 354
#     4  10  22  40  65  83 116 167 211 252 303 372
#     4   9  18  33  56  88 114 161 196 239 306 370
#     4  11  21  36  59  90 129 153 207 260 307 365
#     4  10  18  33  54  90 119 159 188 250 307 374
#
# _framework density 18.284040000000001
#
# number of rings (size 3 to 8) (size 9 to 14) (size 15 to 20)
#    0.000    2.133    4.667    0.000    6.533    0.000 
#    0.000    3.333    5.867    0.000    0.000    0.000 
#    0.000    0.000    0.000    0.000    0.000    0.000 
#
# Total GULP energy -83520.400603 kJ/mol
# GULP energy per Si atom -5568.026707 kJ/mol
# Density = 1.824242 g / cm^3
# Si number density = 18.284040 Si / 1000 Ang^3
#
#
#
# Elastic Constant Matrix: (Units=GPa)
#
#
# Indices 1 2 3 4 5 6 
#
# 1 94.3703 47.8339 38.9488 0.0000 -3.1895 0.0000
# 2 47.8339 80.1344 31.2827 0.0000 -0.5180 0.0000
# 3 38.9488 31.2827 85.2583 0.0000 3.6248 0.0000
# 4 0.0000 0.0000 0.0000 20.5871 0.0000 -0.3644
# 5 -3.1895 -0.5180 3.6248 0.0000 27.3362 0.0000
# 6 0.0000 0.0000 0.0000 -0.3644 0.0000 26.4525
#
#
#
# Elastic Compliance Matrix: (Units=1/GPa)
#
#
# Indices 1 2 3 4 5 6 
#
# 1 0.016774 -0.008129 -0.004784 0.000000 0.002437 0.000000
# 2 -0.008129 0.018532 -0.003078 0.000000 -0.000189 0.000000
# 3 -0.004784 -0.003078 0.015155 0.000000 -0.002626 0.000000
# 4 0.000000 0.000000 0.000000 0.048586 0.000000 0.000669
# 5 0.002437 -0.000189 -0.002626 0.000000 0.037211 0.000000
# 6 0.000000 0.000000 0.000000 0.000669 0.000000 0.037813
#
#
# Mechanical properties :
#
#
# Convention : Reuss Voigt Hill
#
# Bulk Modulus (GPa) = 54.11466 55.09931 54.60698
# Shear Modulus (GPa) = 23.56133 24.32168 23.94151
#
# Velocity S-wave (km/s) = 3.59364 3.65117 3.62252
# Velocity P-wave (km/s) = 6.84689 6.92642 6.88677
#
# Compressibility (1/GPa) = 0.01847928
#
# Stress axis : x y z
#
# Youngs Moduli (GPa) = 59.61649 53.96074 65.98335
#
# Poissons Ratio (x) = 0.43867 0.31564
# Poissons Ratio (y) = 0.48465 0.20309
# Poissons Ratio (z) = 0.28518 0.16608
#
# Static dielectric constant tensor:
#      x y z
#    x 1.665390 0.000000 -0.033610 
#    y 0.000000 1.630470 0.000000 
#    z -0.033610 0.000000 1.652240 
# 
# From -- ./inp_files/28022.got.cif
#   From: 2010.05.17/outbox.cif.g08.bks.cpg/sg5_15_cif.got.tgz:28022.got - 2010.06.03 18:56:24.
