data_PCOD9120551
_publ_section_title
;
Structure prediction by ZEFSAII (Michael W. Deem and Ramdas Pophale) SiO2 
 PCOD9120551
Probable space group: C 2
;
_chemical_formula_sum "Si O2"
_cell_formula_units_Z 32
_cell_length_a 11.505580
_cell_length_b 16.616308
_cell_length_c 15.634171
_cell_angle_alpha 90.000000
_cell_angle_beta 149.681551
_cell_angle_gamma 90.000000
_cell_volume 1508.836142
_symmetry_space_group_name_H-M "C 2"
_symmetry_group_IT_number 5
_symmetry_cell_setting 'monoclinic'
loop_
_space_group_symop_operation_xyz
x,y,z
-x,y,-z
1/2+x,1/2+y,z
1/2-x,1/2+y,-z
loop_
_atom_site_type_symbol
_atom_site_label
_atom_site_fract_x
_atom_site_fract_y
_atom_site_fract_z
Si Si1 0.725394 0.916790 0.512855
Si Si2 0.255888 0.077430 0.388089
Si Si3 0.545762 0.982955 0.129797
Si Si4 0.218490 0.317023 0.747707
Si Si5 0.039188 0.936269 0.861649
Si Si6 0.758073 0.844841 0.344978
Si Si7 0.418389 0.722529 0.168077
Si Si8 0.552674 0.161495 0.137246
O O1 0.505514 0.870555 0.412565
O O2 0.735258 0.885016 0.423662
O O3 0.947051 0.899082 0.712952
O O4 0.697676 0.013241 0.505935
O O5 0.500000 0.097710 0.500000
O O6 0.096202 0.153091 0.311164
O O7 0.100352 0.021065 0.225901
O O8 0.742832 0.918874 0.271772
O O9 0.619200 0.072013 0.204666
O O10 0.500000 0.985919 0.000000
O O11 0.310421 0.954258 0.028155
O O12 0.434382 0.376083 0.865538
O O13 0.274594 0.234053 0.733339
O O14 0.171336 0.279342 0.811723
O O15 0.559568 0.782271 0.198482
O O16 0.000000 0.801091 0.500000
O O17 0.197471 0.682939 0.985089
O O18 0.500000 0.159174 0.000000
#
# Coordination Sequence:
#
# PCOD9120551 Si02
#       8
#     4   4   4   4   4   4   4   4
#     4   9  19  36  57  86 121 153 203 253 306 364
#     4  10  18  35  65  88 118 162 207 249 298 377
#     4  11  22  38  61  86 115 169 210 254 310 372
#     4  10  18  32  57  91 117 153 198 261 294 362
#     4  10  18  36  62  86 116 160 210 251 295 374
#     4  11  23  37  55  84 124 158 199 257 316 369
#     4  10  20  35  57  89 123 156 204 252 314 361
#     4   9  18  33  54  84 121 151 200 251 303 361
#
# _framework density 21.208399
#
# number of rings (size 3 to 8) (size 9 to 14) (size 15 to 20)
#    0.750    1.250    2.500    2.250    0.000    1.000 
#    0.000    5.000    0.000    1.500    0.000    0.000 
#    0.000    0.000    0.000    0.000    0.000    0.000 
#
# Total GULP energy -89084.099418 kJ/mol
# GULP energy per Si atom -5567.756214 kJ/mol
# Density = 2.116013 g / cm^3
# Si number density = 21.208399 Si / 1000 Ang^3
#
#
#
# Elastic Constant Matrix: (Units=GPa)
#
#
# Indices 1 2 3 4 5 6 
#
# 1 50.5545 17.3849 2.4224 -0.0014 10.8587 -0.0008
# 2 17.3849 123.3765 17.5884 -0.0012 13.1457 -0.0008
# 3 2.4224 17.5884 41.5304 -0.0061 18.7782 -0.0037
# 4 -0.0014 -0.0012 -0.0061 37.5206 -0.0014 16.9792
# 5 10.8587 13.1457 18.7782 -0.0014 33.3227 -0.0005
# 6 -0.0008 -0.0008 -0.0037 16.9792 -0.0005 9.4855
#
#
#
# Elastic Compliance Matrix: (Units=1/GPa)
#
#
# Indices 1 2 3 4 5 6 
#
# 1 0.022327 -0.002783 0.003583 -0.000001 -0.008196 0.000005
# 2 -0.002783 0.009055 -0.003311 0.000000 -0.000799 -0.000001
# 3 0.003583 -0.003311 0.033829 -0.000003 -0.018925 0.000018
# 4 -0.000001 0.000000 -0.000003 0.140297 0.000004 -0.251132
# 5 -0.008196 -0.000799 -0.018925 0.000004 0.043660 -0.000013
# 6 0.000005 -0.000001 0.000018 -0.251132 -0.000013 0.554952
#
#
# Mechanical properties :
#
#
# Convention : Reuss Voigt Hill
#
# Bulk Modulus (GPa) = 16.61506 32.25033 24.43269
# Shear Modulus (GPa) = 6.02987 27.93681 16.98334
#
# Velocity S-wave (km/s) = 1.68799 3.63333 2.83288
# Velocity P-wave (km/s) = 3.41325 5.73070 4.71652
#
# Compressibility (1/GPa) = 0.06018637
#
# Stress axis : x y z
#
# Youngs Moduli (GPa) = 44.78955 110.44049 29.56048
#
# Poissons Ratio (x) = 0.30740 -0.10590
# Poissons Ratio (y) = 0.12467 0.09788
# Poissons Ratio (z) = -0.16046 0.36567
#
# Static dielectric constant tensor:
#      x y z
#    x 1.821230 0.000000 0.002640 
#    y 0.000000 1.780000 0.000000 
#    z 0.002640 0.000000 1.809800 
# 
# From -- ./inp_files/60710.got.cif
#   From: 2010.05.17/outbox.cif.g08.bks.cpg/sg5_31_cif.got.tgz:60710.got - 2010.06.03 18:56:24.
