data_PCOD9120795
_publ_section_title
;
Structure prediction by ZEFSAII (Michael W. Deem and Ramdas Pophale) SiO2 
 PCOD9120795
Probable space group: C 2
;
_chemical_formula_sum "Si O2"
_cell_formula_units_Z 32
_cell_length_a 10.615208
_cell_length_b 21.943913
_cell_length_c 8.671849
_cell_angle_alpha 90.000000
_cell_angle_beta 52.017438
_cell_angle_gamma 90.000000
_cell_volume 1592.170850
_symmetry_space_group_name_H-M "C 2"
_symmetry_group_IT_number 5
_symmetry_cell_setting 'monoclinic'
loop_
_space_group_symop_operation_xyz
x,y,z
-x,y,-z
1/2+x,1/2+y,z
1/2-x,1/2+y,-z
loop_
_atom_site_type_symbol
_atom_site_label
_atom_site_fract_x
_atom_site_fract_y
_atom_site_fract_z
Si Si1 0.022494 0.266290 0.297892
Si Si2 0.108558 0.758666 0.069520
Si Si3 0.545977 0.519264 0.146992
Si Si4 0.909307 0.888559 0.907219
Si Si5 0.571351 0.024439 0.113630
Si Si6 0.536424 0.899911 0.288560
Si Si7 0.096947 0.138960 0.587902
Si Si8 0.970338 0.644707 0.344314
O O1 0.965905 0.334073 0.289794
O O2 0.000000 0.267189 0.500000
O O3 0.947262 0.203170 0.295690
O O4 0.208388 0.261242 0.119138
O O5 0.074294 0.822561 0.183766
O O6 0.068103 0.697213 0.186374
O O7 0.000000 0.757588 0.000000
O O8 0.519342 0.449346 0.224694
O O9 0.453286 0.576227 0.290560
O O10 0.500000 0.519270 0.000000
O O11 0.735769 0.525137 0.033261
O O12 0.724945 0.896641 0.100784
O O13 0.000000 0.883390 0.000000
O O14 0.530430 0.077829 0.260638
O O15 0.491461 0.961486 0.233380
O O16 0.500000 0.038374 0.000000
O O17 0.500000 0.906401 0.500000
O O18 0.286622 0.144267 0.428227
O O19 0.000000 0.138198 0.500000
O O20 0.000000 0.656056 0.500000
#
# Coordination Sequence:
#
# PCOD9120795 Si02
#       8
#     4   4   4   4   4   4   4   4
#     4   9  18  34  58  86 113 150 196 236 285 352
#     4  10  18  35  60  84 114 153 193 241 288 344
#     4  10  20  38  59  81 109 148 191 234 282 342
#     4   8  17  32  56  83 109 146 192 229 283 349
#     4  11  22  38  58  84 115 152 192 239 293 346
#     4   9  18  34  57  84 113 146 189 238 286 346
#     4  11  22  38  57  82 112 148 194 238 279 340
#     4  12  25  39  56  86 119 153 195 243 294 345
#
# _framework density 20.098345999999999
#
# number of rings (size 3 to 8) (size 9 to 14) (size 15 to 20)
#    0.000    2.000    0.000    4.500    0.000    3.000 
#    0.000    5.000    0.000    0.000    0.000    0.000 
#    0.000    0.000    0.000    0.000    0.000    0.000 
#
# Total GULP energy -89112.080885 kJ/mol
# GULP energy per Si atom -5569.505055 kJ/mol
# Density = 2.005260 g / cm^3
# Si number density = 20.098346 Si / 1000 Ang^3
#
#
#
# Elastic Constant Matrix: (Units=GPa)
#
#
# Indices 1 2 3 4 5 6 
#
# 1 38.5425 -27.6415 -1.5465 0.0000 -2.4901 0.0000
# 2 -27.6415 143.6385 34.4303 0.0000 -10.8824 0.0000
# 3 -1.5465 34.4303 42.3587 0.0000 -1.8598 0.0000
# 4 0.0000 0.0000 0.0000 130.4004 0.0000 -46.6407
# 5 -2.4901 -10.8824 -1.8598 0.0000 19.4575 0.0000
# 6 0.0000 0.0000 0.0000 -46.6407 0.0000 37.3776
#
#
#
# Elastic Compliance Matrix: (Units=1/GPa)
#
#
# Indices 1 2 3 4 5 6 
#
# 1 0.031967 0.007946 -0.004938 0.000000 0.008063 0.000000
# 2 0.007946 0.010974 -0.008351 0.000000 0.006357 0.000000
# 3 -0.004938 -0.008351 0.030109 0.000000 -0.002425 0.000000
# 4 0.000000 0.000000 0.000000 0.013850 0.000000 0.017283
# 5 0.008063 0.006357 -0.002425 0.000000 0.055749 0.000000
# 6 0.000000 0.000000 0.000000 0.017283 0.000000 0.048320
#
#
# Mechanical properties :
#
#
# Convention : Reuss Voigt Hill
#
# Bulk Modulus (GPa) = 16.03462 26.11381 21.07422
# Shear Modulus (GPa) = 22.47762 52.06693 37.27227
#
# Velocity S-wave (km/s) = 3.34785 5.09532 4.31106
# Velocity P-wave (km/s) = 4.78952 6.90200 5.94042
#
# Compressibility (1/GPa) = 0.06236506
#
# Stress axis : x y z
#
# Youngs Moduli (GPa) = 31.28238 91.12120 33.21250
#
# Poissons Ratio (x) = -0.72406 0.16399
# Poissons Ratio (y) = -0.24857 0.27736
# Poissons Ratio (z) = 0.15446 0.76096
#
# Static dielectric constant tensor:
#      x y z
#    x 1.676320 0.000000 0.007920 
#    y 0.000000 1.804120 0.000000 
#    z 0.007920 0.000000 1.653720 
# 
# From -- ./inp_files/21962.got.cif
#   From: 2010.05.17/outbox.cif.g08.bks.cpg/sg5_11_cif.got.tgz:21962.got - 2010.06.03 18:56:24.
