data_PCOD9120096
_publ_section_title
;
Structure prediction by ZEFSAII (Michael W. Deem and Ramdas Pophale) SiO2 
 PCOD9120096
Probable space group: C 2
;
_chemical_formula_sum "Si O2"
_cell_formula_units_Z 22
_cell_length_a 17.788564
_cell_length_b 8.469197
_cell_length_c 8.368414
_cell_angle_alpha 90.000000
_cell_angle_beta 140.504938
_cell_angle_gamma 90.000000
_cell_volume 801.846797
_symmetry_space_group_name_H-M "C 2"
_symmetry_group_IT_number 5
_symmetry_cell_setting 'monoclinic'
loop_
_space_group_symop_operation_xyz
x,y,z
-x,y,-z
1/2+x,1/2+y,z
1/2-x,1/2+y,-z
loop_
_atom_site_type_symbol
_atom_site_label
_atom_site_fract_x
_atom_site_fract_y
_atom_site_fract_z
Si Si1 0.481782 0.743060 0.308792
Si Si2 0.257174 0.980243 0.670353
Si Si3 0.709817 0.333558 0.912225
Si Si4 0.655826 0.040984 0.648663
Si Si5 0.500000 0.783409 0.000000
Si Si6 0.130982 0.746652 0.280887
O O1 0.500000 0.645824 0.500000
O O2 0.512090 0.686115 0.182531
O O3 0.558920 0.905122 0.454861
O O4 0.344199 0.781213 0.094947
O O5 0.191900 0.940330 0.726446
O O6 0.176509 0.917945 0.396095
O O7 0.286115 0.162532 0.711451
O O8 0.384255 0.892425 0.845372
O O9 0.636505 0.171518 0.761423
O O10 0.727395 0.444118 0.096624
O O11 0.654478 0.146265 0.484455
O O12 0.000000 0.740284 0.000000
#
# Coordination Sequence:
#
# PCOD9120096 Si02
#       6
#     4   4   4   4   2   4
#     4   9  17  32  59  82 115 155 197 241 301 357
#     4  10  20  36  62  88 120 161 202 248 305 363
#     4   9  20  34  57  89 113 152 204 245 298 362
#     4  10  19  36  61  83 118 154 196 251 299 357
#     4  10  16  36  60  88 120 160 202 248 306 366
#     4  11  21  39  61  89 124 158 201 250 300 372
#
# _framework density 27.436661999999998
#
# number of rings (size 3 to 8) (size 9 to 14) (size 15 to 20)
#    0.000    2.182    2.727    1.091    0.000    1.455 
#    1.636    0.000    0.000   12.000    0.000    0.000 
#    0.000    0.000    0.000    0.000    0.000    0.000 
#
# Total GULP energy -61424.866483 kJ/mol
# GULP energy per Si atom -5584.078771 kJ/mol
# Density = 2.737421 g / cm^3
# Si number density = 27.436662 Si / 1000 Ang^3
#
#
#
# Elastic Constant Matrix: (Units=GPa)
#
#
# Indices 1 2 3 4 5 6 
#
# 1 79.8540 41.4014 46.0695 0.0000 -19.4553 0.0000
# 2 41.4014 119.2835 67.5609 0.0000 20.8958 0.0000
# 3 46.0695 67.5609 152.8687 0.0000 -20.4641 0.0000
# 4 0.0000 0.0000 0.0000 33.1082 0.0000 7.4498
# 5 -19.4553 20.8958 -20.4641 0.0000 47.7838 0.0000
# 6 0.0000 0.0000 0.0000 7.4498 0.0000 41.9750
#
#
#
# Elastic Compliance Matrix: (Units=1/GPa)
#
#
# Indices 1 2 3 4 5 6 
#
# 1 0.020319 -0.008731 -0.000686 0.000000 0.011797 0.000000
# 2 -0.008731 0.018135 -0.007342 0.000000 -0.014629 0.000000
# 3 -0.000686 -0.007342 0.011017 0.000000 0.007650 0.000000
# 4 0.000000 0.000000 0.000000 0.031460 0.000000 -0.005584
# 5 0.011797 -0.014629 0.007650 0.000000 0.035405 0.000000
# 6 0.000000 0.000000 0.000000 -0.005584 0.000000 0.024815
#
#
# Mechanical properties :
#
#
# Convention : Reuss Voigt Hill
#
# Bulk Modulus (GPa) = 62.67899 73.56333 68.12116
# Shear Modulus (GPa) = 27.77995 37.70503 32.74249
#
# Velocity S-wave (km/s) = 3.18545 3.71112 3.45829
# Velocity P-wave (km/s) = 6.03523 6.72558 6.38974
#
# Compressibility (1/GPa) = 0.01595431
#
# Stress axis : x y z
#
# Youngs Moduli (GPa) = 49.21437 55.14227 90.76808
#
# Poissons Ratio (x) = 0.48143 0.06224
# Poissons Ratio (y) = 0.42968 0.66642
# Poissons Ratio (z) = 0.03374 0.40486
#
# Static dielectric constant tensor:
#      x y z
#    x 2.164310 0.000000 -0.091790 
#    y 0.000000 2.144970 0.000000 
#    z -0.091790 0.000000 2.222450 
# 
# From -- ./inp_files/29061.got.cif
#   From: 2010.05.17/outbox.cif.g08.bks.cpg/sg5_15_cif.got.tgz:29061.got - 2010.06.03 18:56:24.
