data_PCOD9120136
_publ_section_title
;
Structure prediction by ZEFSAII (Michael W. Deem and Ramdas Pophale) SiO2 
 PCOD9120136
Probable space group: C 2
;
_chemical_formula_sum "Si O2"
_cell_formula_units_Z 32
_cell_length_a 9.833656
_cell_length_b 23.687949
_cell_length_c 7.175168
_cell_angle_alpha 90.000000
_cell_angle_beta 54.448290
_cell_angle_gamma 90.000000
_cell_volume 1359.817834
_symmetry_space_group_name_H-M "C 2"
_symmetry_group_IT_number 5
_symmetry_cell_setting 'monoclinic'
loop_
_space_group_symop_operation_xyz
x,y,z
-x,y,-z
1/2+x,1/2+y,z
1/2-x,1/2+y,-z
loop_
_atom_site_type_symbol
_atom_site_label
_atom_site_fract_x
_atom_site_fract_y
_atom_site_fract_z
Si Si1 0.973825 0.305110 0.293948
Si Si2 0.394582 0.280432 0.335114
Si Si3 0.715820 0.233183 0.989359
Si Si4 0.927228 0.427884 0.353798
Si Si5 0.284061 0.100889 0.999309
Si Si6 0.981050 0.032890 0.302177
Si Si7 0.458339 0.407205 0.249832
Si Si8 0.884518 0.551254 0.320932
O O1 0.782453 0.284988 0.418140
O O2 0.003113 0.370299 0.213552
O O3 0.000000 0.305503 0.500000
O O4 0.115625 0.266075 0.094360
O O5 0.335112 0.260558 0.172900
O O6 0.485899 0.341903 0.278630
O O7 0.551367 0.240285 0.247944
O O8 0.749623 0.166977 0.956571
O O9 0.734254 0.413860 0.542256
O O10 0.941036 0.486773 0.240552
O O11 0.000000 0.438081 0.500000
O O12 0.329571 0.079797 0.171699
O O13 0.117605 0.066958 0.077325
O O14 0.449704 0.084908 0.750281
O O15 0.784303 0.044044 0.420555
O O16 0.000000 0.052133 0.500000
O O17 0.033036 0.966377 0.261763
O O18 0.500000 0.409178 0.000000
#
# Coordination Sequence:
#
# PCOD9120136 Si02
#       8
#     4   4   4   4   4   4   4   4
#     4   8  16  26  39  65  95 120 142 188 251 292
#     4   9  16  26  42  68  97 117 145 201 251 279
#     4  10  17  27  44  68  95 123 157 197 248 278
#     4   9  18  29  46  71 101 125 151 202 255 297
#     4  10  20  31  48  68  98 136 166 192 234 294
#     4   9  20  34  47  69 105 136 161 197 245 299
#     4  10  18  30  50  75 103 125 163 205 252 297
#     4   9  18  32  45  66  97 130 163 192 235 292
#
# _framework density 23.532564000000001
#
# number of rings (size 3 to 8) (size 9 to 14) (size 15 to 20)
#    0.000    2.750    1.250    2.250    1.750    5.500 
#    0.000    0.000    0.000    0.000    0.000    3.500 
#   18.750    4.500    0.000    0.000    0.000    0.000 
#
# Total GULP energy -89155.056934 kJ/mol
# GULP energy per Si atom -5572.191058 kJ/mol
# Density = 2.347900 g / cm^3
# Si number density = 23.532564 Si / 1000 Ang^3
#
#
#
# Elastic Constant Matrix: (Units=GPa)
#
#
# Indices 1 2 3 4 5 6 
#
# 1 72.2598 48.4203 39.7071 0.0000 -24.4696 0.0000
# 2 48.4203 188.9608 47.9658 0.0000 -35.3796 0.0000
# 3 39.7071 47.9658 91.6695 0.0000 -10.9163 0.0000
# 4 0.0000 0.0000 0.0000 31.5593 0.0000 -16.6998
# 5 -24.4696 -35.3796 -10.9163 0.0000 38.7500 0.0000
# 6 0.0000 0.0000 0.0000 -16.6998 0.0000 7.6264
#
#
#
# Elastic Compliance Matrix: (Units=1/GPa)
#
#
# Indices 1 2 3 4 5 6 
#
# 1 0.022921 -0.001960 -0.007649 0.000000 0.010530 0.000000
# 2 -0.001960 0.007292 -0.002402 0.000000 0.004743 0.000000
# 3 -0.007649 -0.002402 0.015150 0.000000 -0.002755 0.000000
# 4 0.000000 0.000000 0.000000 -0.199636 0.000000 -0.437151
# 5 0.010530 0.004743 -0.002755 0.000000 0.036010 0.000000
# 6 0.000000 0.000000 0.000000 -0.437151 0.000000 -0.826125
#
#
# Mechanical properties :
#
#
# Convention : Reuss Voigt Hill
#
# Bulk Modulus (GPa) = 46.85521 69.45293 58.15407
# Shear Modulus (GPa) = -5.47495 30.04026 12.28265
#
# Velocity S-wave (km/s) = -1.52696 3.57675 2.28709
# Velocity P-wave (km/s) = 4.10429 6.82899 5.63384
#
# Compressibility (1/GPa) = 0.02134235
#
# Stress axis : x y z
#
# Youngs Moduli (GPa) = 43.62757 137.13283 66.00463
#
# Poissons Ratio (x) = 0.26884 0.50485
# Poissons Ratio (y) = 0.08553 0.15852
# Poissons Ratio (z) = 0.33370 0.32934
#
# Static dielectric constant tensor:
#      x y z
#    x 1.963110 0.000000 0.035490 
#    y 0.000000 1.891080 0.000000 
#    z 0.035490 0.000000 1.978280 
# 
# From -- ./inp_files/21961.got.cif
#   From: 2010.05.17/outbox.cif.g08.bks.cpg/sg5_11_cif.got.tgz:21961.got - 2010.06.03 18:56:24.
