data_PCOD9120033
_publ_section_title
;
Structure prediction by ZEFSAII (Michael W. Deem and Ramdas Pophale) SiO2 
 PCOD9120033
Probable space group: C 2
;
_chemical_formula_sum "Si O2"
_cell_formula_units_Z 30
_cell_length_a 14.896234
_cell_length_b 12.017781
_cell_length_c 30.326294
_cell_angle_alpha 90.000000
_cell_angle_beta 162.087860
_cell_angle_gamma 90.000000
_cell_volume 1669.734713
_symmetry_space_group_name_H-M "C 2"
_symmetry_group_IT_number 5
_symmetry_cell_setting 'monoclinic'
loop_
_space_group_symop_operation_xyz
x,y,z
-x,y,-z
1/2+x,1/2+y,z
1/2-x,1/2+y,-z
loop_
_atom_site_type_symbol
_atom_site_label
_atom_site_fract_x
_atom_site_fract_y
_atom_site_fract_z
Si Si1 0.188310 0.377110 0.714547
Si Si2 0.586563 0.149396 0.808140
Si Si3 0.713505 0.603510 0.193577
Si Si4 0.644762 0.297251 0.412813
Si Si5 0.699805 0.970649 0.162798
Si Si6 0.609385 0.411095 0.838534
Si Si7 0.935020 0.653044 0.101029
Si Si8 0.500000 0.700716 0.500000
O O1 0.226062 0.475281 0.767120
O O2 0.318537 0.429728 0.730240
O O3 0.404183 0.272335 0.823705
O O4 0.858710 0.334949 0.552123
O O5 0.786422 0.116809 0.859974
O O6 0.614958 0.283779 0.824309
O O7 0.582801 0.109468 0.856681
O O8 0.260528 0.126549 0.639344
O O9 0.968507 0.681164 0.332982
O O10 0.408027 0.647536 0.070944
O O11 0.403580 0.387451 0.285746
O O12 0.867546 0.276009 0.476543
O O13 0.854441 0.987684 0.187546
O O14 0.619950 0.075256 0.155278
O O15 0.386773 0.921933 0.000692
#
# Coordination Sequence:
#
# PCOD9120033 Si02
#       8
#     4   4   4   4   4   4   4   2
#     4  11  23  38  61  89 126 149 201 242 300 360
#     4  10  20  34  62  83 118 147 203 247 290 344
#     4  11  23  37  63  90 119 157 202 249 291 350
#     4  11  20  35  59  93 116 154 193 252 296 346
#     4  11  21  33  63  87 118 148 201 242 306 339
#     4  10  19  37  59  91 107 153 200 256 285 348
#     4  11  23  38  59  89 119 161 194 251 295 354
#     4  10  16  32  56  94 110 140 194 258 292 328
#
# _framework density 17.966925
#
# number of rings (size 3 to 8) (size 9 to 14) (size 15 to 20)
#    0.000    1.333    6.667    2.000    5.600    0.000 
#    0.000    0.000    8.800    0.000    0.000    0.000 
#    0.000    0.000    0.000    0.000    0.000    0.000 
#
# Total GULP energy -83541.402989 kJ/mol
# GULP energy per Si atom -5569.426866 kJ/mol
# Density = 1.792603 g / cm^3
# Si number density = 17.966925 Si / 1000 Ang^3
#
#
#
# Elastic Constant Matrix: (Units=GPa)
#
#
# Indices 1 2 3 4 5 6 
#
# 1 81.4277 38.5780 -6.7200 -0.0118 4.5885 0.0031
# 2 38.5780 66.9203 17.5481 -0.0074 0.9904 0.0035
# 3 -6.7200 17.5481 57.6698 -0.0481 3.1477 0.0186
# 4 -0.0118 -0.0074 -0.0481 21.3312 0.0290 -3.9623
# 5 4.5885 0.9904 3.1477 0.0290 22.2146 0.0000
# 6 0.0031 0.0035 0.0186 -3.9623 0.0000 35.7274
#
#
#
# Elastic Compliance Matrix: (Units=1/GPa)
#
#
# Indices 1 2 3 4 5 6 
#
# 1 0.018960 -0.012505 0.006246 0.000026 -0.004244 -0.000001
# 2 -0.012505 0.024487 -0.009060 -0.000022 0.002775 0.000001
# 3 0.006246 -0.009060 0.021036 0.000052 -0.003867 -0.000005
# 4 0.000026 -0.000022 0.000052 0.047866 -0.000074 0.005308
# 5 -0.004244 0.002775 -0.003867 -0.000074 0.046316 -0.000006
# 6 -0.000001 0.000001 -0.000005 0.005308 -0.000006 0.028578
#
#
# Mechanical properties :
#
#
# Convention : Reuss Voigt Hill
#
# Bulk Modulus (GPa) = 29.54624 33.86999 31.70812
# Shear Modulus (GPa) = 21.81863 26.29541 24.05702
#
# Velocity S-wave (km/s) = 3.48857 3.82978 3.66315
# Velocity P-wave (km/s) = 5.71903 6.20069 5.96472
#
# Compressibility (1/GPa) = 0.03384525
#
# Stress axis : x y z
#
# Youngs Moduli (GPa) = 52.74268 40.83865 47.53811
#
# Poissons Ratio (x) = 0.51069 -0.29693
# Poissons Ratio (y) = 0.65955 0.43068
# Poissons Ratio (z) = -0.32944 0.36998
#
# Static dielectric constant tensor:
#      x y z
#    x 1.659150 0.000000 -0.012520 
#    y 0.000000 1.605070 0.000000 
#    z -0.012520 0.000000 1.694060 
# 
# From -- ./inp_files/71930.got.cif
#   From: 2010.05.17/outbox.cif.g08.bks.cpg/sg5_36_cif.got.tgz:71930.got - 2010.06.03 18:56:24.
