data_PCOD9120518
_publ_section_title
;
Structure prediction by ZEFSAII (Michael W. Deem and Ramdas Pophale) SiO2 
 PCOD9120518
Probable space group: C 2
;
_chemical_formula_sum "Si O2"
_cell_formula_units_Z 28
_cell_length_a 22.748035
_cell_length_b 5.376534
_cell_length_c 17.259816
_cell_angle_alpha 90.000000
_cell_angle_beta 148.456214
_cell_angle_gamma 90.000000
_cell_volume 1104.354950
_symmetry_space_group_name_H-M "C 2"
_symmetry_group_IT_number 5
_symmetry_cell_setting 'monoclinic'
loop_
_space_group_symop_operation_xyz
x,y,z
-x,y,-z
1/2+x,1/2+y,z
1/2-x,1/2+y,-z
loop_
_atom_site_type_symbol
_atom_site_label
_atom_site_fract_x
_atom_site_fract_y
_atom_site_fract_z
Si Si1 0.164827 0.515660 0.241470
Si Si2 0.000000 0.917771 0.500000
Si Si3 0.453191 0.777550 0.243630
Si Si4 0.178870 0.217129 0.400928
Si Si5 0.000000 0.872637 0.000000
Si Si6 0.635009 0.265471 0.798468
Si Si7 0.703397 0.676963 0.155147
Si Si8 0.363095 0.807848 0.422227
O O1 0.163260 0.273196 0.291849
O O2 0.173940 0.436113 0.162529
O O3 0.274412 0.678255 0.379603
O O4 0.060998 0.695955 0.130846
O O5 0.962400 0.780811 0.379242
O O6 0.895761 0.102120 0.396272
O O7 0.552449 0.727354 0.293218
O O8 0.379079 0.532070 0.175578
O O9 0.526144 0.825034 0.403252
O O10 0.387584 0.039210 0.167320
O O11 0.252634 0.462111 0.508623
O O12 0.093219 0.020399 0.055179
O O13 0.749243 0.212787 0.877892
O O14 0.805829 0.542385 0.317500
#
# Coordination Sequence:
#
# PCOD9120518 Si02
#       8
#     4   2   4   4   2   4   4   4
#     4  11  23  41  64  97 132 176 229 282 337 399
#     4  10  18  32  52  90 130 172 198 262 330 420
#     4  11  23  37  56  98 133 181 211 255 332 415
#     4  12  25  42  67  99 145 188 223 271 333 417
#     4  10  26  42  66 102 126 178 240 294 348 384
#     4  11  22  35  60  89 133 170 215 269 334 406
#     4  11  21  40  63  95 126 175 224 295 345 386
#     4  10  19  33  53  90 135 168 217 255 336 404
#
# _framework density 25.354168000000001
#
# number of rings (size 3 to 8) (size 9 to 14) (size 15 to 20)
#    0.000    1.143    2.857    4.714    8.000    0.571 
#    0.000    0.000    0.000    0.000    7.429    0.000 
#    0.000    0.000    0.000    0.000    0.000    0.000 
#
# Total GULP energy -78228.882283 kJ/mol
# GULP energy per Si atom -5587.777306 kJ/mol
# Density = 2.529646 g / cm^3
# Si number density = 25.354168 Si / 1000 Ang^3
#
#
#
# Elastic Constant Matrix: (Units=GPa)
#
#
# Indices 1 2 3 4 5 6 
#
# 1 134.8867 57.2644 23.7555 0.0002 32.3670 0.0000
# 2 57.2644 150.9744 35.1546 0.0010 25.2526 0.0001
# 3 23.7555 35.1546 83.1280 0.0002 26.9449 0.0001
# 4 0.0002 0.0010 0.0002 37.4234 0.0002 11.5741
# 5 32.3670 25.2526 26.9449 0.0002 35.3761 -0.0001
# 6 0.0000 0.0001 0.0001 11.5741 -0.0001 44.5481
#
#
#
# Elastic Compliance Matrix: (Units=1/GPa)
#
#
# Indices 1 2 3 4 5 6 
#
# 1 0.010407 -0.002776 0.000855 0.000000 -0.008192 0.000000
# 2 -0.002776 0.008499 -0.002201 0.000000 -0.001850 0.000000
# 3 0.000855 -0.002201 0.016545 0.000000 -0.011813 0.000000
# 4 0.000000 0.000000 0.000000 0.029056 0.000000 -0.007549
# 5 -0.008192 -0.001850 -0.011813 0.000000 0.046081 0.000000
# 6 0.000000 0.000000 0.000000 -0.007549 0.000000 0.024409
#
#
# Mechanical properties :
#
#
# Convention : Reuss Voigt Hill
#
# Bulk Modulus (GPa) = 36.75564 66.81535 51.78549
# Shear Modulus (GPa) = 32.82771 40.32383 36.57577
#
# Velocity S-wave (km/s) = 3.60219 3.99234 3.80227
# Velocity P-wave (km/s) = 5.64175 6.90374 6.30441
#
# Compressibility (1/GPa) = 0.02720671
#
# Stress axis : x y z
#
# Youngs Moduli (GPa) = 96.08593 117.66532 60.44064
#
# Poissons Ratio (x) = 0.32670 -0.05169
# Poissons Ratio (y) = 0.26678 0.13303
# Poissons Ratio (z) = -0.08218 0.25898
#
# Static dielectric constant tensor:
#      x y z
#    x 2.049010 0.000000 -0.010980 
#    y 0.000000 1.972450 0.000000 
#    z -0.010980 0.000000 2.100810 
# 
# From -- ./inp_files/45433.got.cif
#   From: 2010.05.17/outbox.cif.g08.bks.cpg/sg5_23_cif.got.tgz:45433.got - 2010.06.03 18:56:24.
