data_PCOD9120523
_publ_section_title
;
Structure prediction by ZEFSAII (Michael W. Deem and Ramdas Pophale) SiO2 
 PCOD9120523
Probable space group: C 2
;
_chemical_formula_sum "Si O2"
_cell_formula_units_Z 28
_cell_length_a 18.354019
_cell_length_b 17.370574
_cell_length_c 5.094451
_cell_angle_alpha 90.000000
_cell_angle_beta 63.620978
_cell_angle_gamma 90.000000
_cell_volume 1455.090179
_symmetry_space_group_name_H-M "C 2"
_symmetry_group_IT_number 5
_symmetry_cell_setting 'monoclinic'
loop_
_space_group_symop_operation_xyz
x,y,z
-x,y,-z
1/2+x,1/2+y,z
1/2-x,1/2+y,-z
loop_
_atom_site_type_symbol
_atom_site_label
_atom_site_fract_x
_atom_site_fract_y
_atom_site_fract_z
Si Si1 0.769492 0.801630 0.126726
Si Si2 0.811474 0.131813 0.771014
Si Si3 0.324883 0.836603 0.228915
Si Si4 0.911753 0.487799 0.269807
Si Si5 0.444153 0.233529 0.826673
Si Si6 0.404021 0.666317 0.113743
Si Si7 0.143094 0.570093 0.124596
O O1 0.720189 0.846721 0.978069
O O2 0.865858 0.789028 0.963954
O O3 0.730930 0.716000 0.172980
O O4 0.746103 0.834691 0.444011
O O5 0.851616 0.122286 0.421046
O O6 0.883388 0.133089 0.863648
O O7 0.739003 0.081625 0.012643
O O8 0.371621 0.754905 0.161487
O O9 0.385770 0.901908 0.233684
O O10 0.897566 0.513686 0.593240
O O11 0.857134 0.541551 0.174546
O O12 0.000000 0.501063 0.000000
O O13 0.500000 0.259995 0.500000
O O14 0.407387 0.149807 0.802614
O O15 0.500000 0.227717 0.000000
O O16 0.500000 0.665321 0.000000
#
# Coordination Sequence:
#
# PCOD9120523 Si02
#       7
#     4   4   4   4   4   4   4
#     4   9  19  34  52  74 104 138 175 216 264 313
#     4   9  19  33  51  74 104 138 172 212 264 314
#     4  10  20  35  51  75 109 142 173 209 255 317
#     4  12  23  35  53  79 109 146 180 207 248 315
#     4  11  20  33  55  82 108 136 173 226 274 310
#     4  10  18  32  54  80 104 130 169 223 269 303
#     4  11  22  36  51  76 113 146 175 209 256 322
#
# _framework density 19.242792000000001
#
# number of rings (size 3 to 8) (size 9 to 14) (size 15 to 20)
#    0.000    1.714    0.000    6.000    0.000    4.571 
#    0.000    4.286    0.000    0.000    0.000   35.000 
#    0.000    0.000    0.000    0.000    0.000    0.000 
#
# Total GULP energy -78009.127663 kJ/mol
# GULP energy per Si atom -5572.080547 kJ/mol
# Density = 1.919899 g / cm^3
# Si number density = 19.242792 Si / 1000 Ang^3
#
#
#
# Elastic Constant Matrix: (Units=GPa)
#
#
# Indices 1 2 3 4 5 6 
#
# 1 93.1437 -5.8006 9.7118 0.0000 -13.3385 0.0000
# 2 -5.8006 11.1522 -5.9918 0.0000 -5.5777 0.0000
# 3 9.7118 -5.9918 75.2926 0.0000 -4.5712 0.0000
# 4 0.0000 0.0000 0.0000 17.7623 0.0000 0.0030
# 5 -13.3385 -5.5777 -4.5712 0.0000 25.4640 0.0000
# 6 0.0000 0.0000 0.0000 0.0030 0.0000 9.8289
#
#
#
# Elastic Compliance Matrix: (Units=1/GPa)
#
#
# Indices 1 2 3 4 5 6 
#
# 1 0.012743 0.011041 -0.000215 0.000000 0.009055 0.000000
# 2 0.011041 0.117397 0.009939 0.000000 0.033282 0.000000
# 3 -0.000215 0.009939 0.014382 0.000000 0.004646 0.000000
# 4 0.000000 0.000000 0.000000 0.056299 0.000000 -0.000017
# 5 0.009055 0.033282 0.004646 0.000000 0.052138 0.000000
# 6 0.000000 0.000000 0.000000 -0.000017 0.000000 0.101741
#
#
# Mechanical properties :
#
#
# Convention : Reuss Voigt Hill
#
# Bulk Modulus (GPa) = 5.37485 19.49190 12.43338
# Shear Modulus (GPa) = 13.32664 22.72231 18.02447
#
# Velocity S-wave (km/s) = 2.63449 3.44004 3.06385
# Velocity P-wave (km/s) = 3.47179 5.09214 4.35794
#
# Compressibility (1/GPa) = 0.18605157
#
# Stress axis : x y z
#
# Youngs Moduli (GPa) = 78.47576 8.51809 69.52985
#
# Poissons Ratio (x) = -0.09405 0.01497
# Poissons Ratio (y) = -0.86644 -0.69106
# Poissons Ratio (z) = 0.01689 -0.08466
#
# Static dielectric constant tensor:
#      x y z
#    x 1.743620 0.000000 -0.028500 
#    y 0.000000 1.722020 0.000000 
#    z -0.028500 0.000000 1.669400 
# 
# From -- ./inp_files/8618.got.cif
#   From: 2010.05.17/outbox.cif.g08.bks.cpg/sg5_5_cif.got.tgz:8618.got - 2010.06.03 18:56:24.
