data_PCOD9120775
_publ_section_title
;
Structure prediction by ZEFSAII (Michael W. Deem and Ramdas Pophale) SiO2 
 PCOD9120775
Probable space group: C 2
;
_chemical_formula_sum "Si O2"
_cell_formula_units_Z 28
_cell_length_a 7.976450
_cell_length_b 33.249940
_cell_length_c 5.406259
_cell_angle_alpha 90.000000
_cell_angle_beta 57.974750
_cell_angle_gamma 90.000000
_cell_volume 1215.620992
_symmetry_space_group_name_H-M "C 2"
_symmetry_group_IT_number 5
_symmetry_cell_setting 'monoclinic'
loop_
_space_group_symop_operation_xyz
x,y,z
-x,y,-z
1/2+x,1/2+y,z
1/2-x,1/2+y,-z
loop_
_atom_site_type_symbol
_atom_site_label
_atom_site_fract_x
_atom_site_fract_y
_atom_site_fract_z
Si Si1 0.742096 0.517530 0.052772
Si Si2 0.130344 0.723308 0.648259
Si Si3 0.866960 0.634011 0.354789
Si Si4 0.773062 0.308451 0.646205
Si Si5 0.628459 0.429417 0.148072
Si Si6 0.268909 0.842169 0.150958
Si Si7 0.789663 0.050495 0.426386
O O1 0.753094 0.469915 0.008989
O O2 0.508178 0.530980 0.245869
O O3 0.817962 0.528652 0.263448
O O4 0.806195 0.542319 0.763833
O O5 0.224768 0.678821 0.574994
O O6 0.265718 0.762428 0.563600
O O7 0.000000 0.726783 0.500000
O O8 0.000000 0.724259 0.000000
O O9 0.714933 0.597430 0.502386
O O10 0.000000 0.632540 0.500000
O O11 0.000000 0.629207 0.000000
O O12 0.684563 0.334589 0.491387
O O13 0.000000 0.321630 0.500000
O O14 0.688722 0.315139 0.987323
O O15 0.500000 0.435647 0.500000
O O16 0.747090 0.388447 0.093998
O O17 0.500000 0.424708 0.000000
O O18 0.500000 0.831584 0.000000
#
# Coordination Sequence:
#
# PCOD9120775 Si02
#       7
#     4   4   4   4   4   4   4
#     4  10  19  35  57  79 109 148 180 253 278 324
#     4  10  21  37  61  85 121 150 191 244 287 344
#     4  10  21  37  56  84 117 154 188 236 286 348
#     4  10  21  40  59  83 119 154 192 234 295 347
#     4  12  21  37  60  87 115 147 199 245 292 333
#     4  10  23  39  58  83 120 156 186 241 293 353
#     4  10  18  35  57  77 111 147 186 225 298 325
#
# _framework density 23.033497000000001
#
# number of rings (size 3 to 8) (size 9 to 14) (size 15 to 20)
#    0.000    1.714    2.857    2.571    0.000    3.429 
#    2.571    2.143    6.286    0.000    0.000    0.000 
#    0.000    0.000    0.000    0.000    0.000    0.000 
#
# Total GULP energy -78204.052767 kJ/mol
# GULP energy per Si atom -5586.003769 kJ/mol
# Density = 2.298107 g / cm^3
# Si number density = 23.033497 Si / 1000 Ang^3
#
#
#
# Elastic Constant Matrix: (Units=GPa)
#
#
# Indices 1 2 3 4 5 6 
#
# 1 69.5078 18.9086 41.7248 0.0000 34.7143 0.0000
# 2 18.9086 166.7915 18.7774 0.0000 28.6052 0.0000
# 3 41.7248 18.7774 161.4458 0.0000 48.6476 0.0000
# 4 0.0000 0.0000 0.0000 39.6008 0.0000 6.8904
# 5 34.7143 28.6052 48.6476 0.0000 48.0862 0.0000
# 6 0.0000 0.0000 0.0000 6.8904 0.0000 30.9686
#
#
#
# Elastic Compliance Matrix: (Units=1/GPa)
#
#
# Indices 1 2 3 4 5 6 
#
# 1 0.022702 0.000174 -0.001320 0.000000 -0.015157 0.000000
# 2 0.000174 0.006719 0.000598 0.000000 -0.004728 0.000000
# 3 -0.001320 0.000598 0.009042 0.000000 -0.008550 0.000000
# 4 0.000000 0.000000 0.000000 0.026269 0.000000 -0.005845
# 5 -0.015157 -0.004728 -0.008550 0.000000 0.043201 0.000000
# 6 0.000000 0.000000 0.000000 -0.005845 0.000000 0.033591
#
#
# Mechanical properties :
#
#
# Convention : Reuss Voigt Hill
#
# Bulk Modulus (GPa) = 26.76105 61.84074 44.30090
# Shear Modulus (GPa) = 32.24234 44.95341 38.59788
#
# Velocity S-wave (km/s) = 3.74545 4.42255 4.09801
# Velocity P-wave (km/s) = 5.50891 7.27908 6.45496
#
# Compressibility (1/GPa) = 0.03736774
#
# Stress axis : x y z
#
# Youngs Moduli (GPa) = 44.04936 148.82533 110.59365
#
# Poissons Ratio (x) = -0.02596 0.14602
# Poissons Ratio (y) = -0.00768 -0.06615
# Poissons Ratio (z) = 0.05816 -0.08902
#
# Static dielectric constant tensor:
#      x y z
#    x 1.805270 0.000000 0.011990 
#    y 0.000000 1.828170 0.000000 
#    z 0.011990 0.000000 1.924810 
# 
# From -- ./inp_files/3765.got.cif
#   From: 2010.05.17/outbox.cif.g08.bks.cpg/sg5_2_cif.got.tgz:3765.got - 2010.06.03 18:56:24.
