data_PCOD9120987
_publ_section_title
;
Structure prediction by ZEFSAII (Michael W. Deem and Ramdas Pophale) SiO2 
 PCOD9120987
Probable space group: C 2
;
_chemical_formula_sum "Si O2"
_cell_formula_units_Z 26
_cell_length_a 20.012064
_cell_length_b 8.025196
_cell_length_c 8.117301
_cell_angle_alpha 90.000000
_cell_angle_beta 127.236339
_cell_angle_gamma 90.000000
_cell_volume 1037.891757
_symmetry_space_group_name_H-M "C 2"
_symmetry_group_IT_number 5
_symmetry_cell_setting 'monoclinic'
loop_
_space_group_symop_operation_xyz
x,y,z
-x,y,-z
1/2+x,1/2+y,z
1/2-x,1/2+y,-z
loop_
_atom_site_type_symbol
_atom_site_label
_atom_site_fract_x
_atom_site_fract_y
_atom_site_fract_z
Si Si1 0.145013 0.678870 0.418328
Si Si2 0.468020 0.765105 0.185681
Si Si3 0.091099 0.510505 0.657828
Si Si4 0.417366 0.511533 0.493360
Si Si5 0.252669 0.477555 0.052145
Si Si6 0.500000 0.063771 0.000000
Si Si7 0.198992 0.147149 0.177386
O O1 0.127950 0.536621 0.531627
O O2 0.109200 0.847634 0.444935
O O3 0.246799 0.669204 0.574871
O O4 0.087432 0.653590 0.173267
O O5 0.548424 0.654107 0.336281
O O6 0.428218 0.826380 0.300532
O O7 0.485296 0.940848 0.129005
O O8 0.400228 0.672536 0.971274
O O9 0.000000 0.593365 0.500000
O O10 0.162664 0.570383 0.892498
O O11 0.500000 0.479519 0.500000
O O12 0.331304 0.550825 0.267790
O O13 0.231146 0.304513 0.111857
O O14 0.284435 0.482775 0.909290
#
# Coordination Sequence:
#
# PCOD9120987 Si02
#       7
#     4   4   4   4   4   2   4
#     4  10  23  40  63  88 128 159 211 247 315 366
#     4  11  23  39  65  91 127 161 211 248 313 359
#     4  10  18  37  66  90 119 163 206 257 294 373
#     4  11  21  36  64  98 122 153 199 274 311 348
#     4   9  19  31  59  95 126 144 197 261 315 346
#     4  12  26  42  62  84 122 184 202 244 294 392
#     4   9  19  38  57  90 125 156 199 257 303 373
#
# _framework density 25.050782000000002
#
# number of rings (size 3 to 8) (size 9 to 14) (size 15 to 20)
#    0.000    1.846    3.077    0.923    2.154    0.615 
#    0.000    6.154    0.000    0.000    0.000    0.000 
#    0.000    0.000    0.000    0.000    0.000    0.000 
#
# Total GULP energy -72379.196397 kJ/mol
# GULP energy per Si atom -5567.630492 kJ/mol
# Density = 2.499377 g / cm^3
# Si number density = 25.050782 Si / 1000 Ang^3
#
#
#
# Elastic Constant Matrix: (Units=GPa)
#
#
# Indices 1 2 3 4 5 6 
#
# 1 34.3166 11.3087 43.0759 0.0000 26.7948 0.0000
# 2 11.3087 54.9085 61.1214 0.0000 1.9187 0.0000
# 3 43.0759 61.1214 265.1905 0.0000 73.5474 0.0000
# 4 0.0000 0.0000 0.0000 31.6514 0.0000 -0.2195
# 5 26.7948 1.9187 73.5474 0.0000 54.2986 0.0000
# 6 0.0000 0.0000 0.0000 -0.2195 0.0000 11.5125
#
#
#
# Elastic Compliance Matrix: (Units=1/GPa)
#
#
# Indices 1 2 3 4 5 6 
#
# 1 0.052745 -0.012300 0.002187 0.000000 -0.028556 0.000000
# 2 -0.012300 0.032146 -0.010859 0.000000 0.019641 0.000000
# 3 0.002187 -0.010859 0.009788 0.000000 -0.013954 0.000000
# 4 0.000000 0.000000 0.000000 0.031598 0.000000 0.000603
# 5 -0.028556 0.019641 -0.013954 0.000000 0.050714 0.000000
# 6 0.000000 0.000000 0.000000 0.000603 0.000000 0.086874
#
#
# Mechanical properties :
#
#
# Convention : Reuss Voigt Hill
#
# Bulk Modulus (GPa) = 18.96202 65.04752 42.00477
# Shear Modulus (GPa) = 15.46132 35.41981 25.44057
#
# Velocity S-wave (km/s) = 2.48704 3.76429 3.19024
# Velocity P-wave (km/s) = 3.97908 6.70193 5.51130
#
# Compressibility (1/GPa) = 0.05273699
#
# Stress axis : x y z
#
# Youngs Moduli (GPa) = 18.95902 31.10798 102.16391
#
# Poissons Ratio (x) = 0.38261 -0.22341
# Poissons Ratio (y) = 0.23319 1.10935
# Poissons Ratio (z) = -0.04146 0.33779
#
# Static dielectric constant tensor:
#      x y z
#    x 2.147640 0.000000 -0.025090 
#    y 0.000000 1.984860 0.000000 
#    z -0.025090 0.000000 2.077280 
# 
# From -- ./inp_files/26757.got.cif
#   From: 2010.05.17/outbox.cif.g08.bks.cpg/sg5_14_cif.got.tgz:26757.got - 2010.06.03 18:56:24.
