data_PCOD9120857
_publ_section_title
;
Structure prediction by ZEFSAII (Michael W. Deem and Ramdas Pophale) SiO2 
 PCOD9120857
Probable space group: C 2
;
_chemical_formula_sum "Si O2"
_cell_formula_units_Z 26
_cell_length_a 24.682817
_cell_length_b 8.379225
_cell_length_c 6.843748
_cell_angle_alpha 90.000000
_cell_angle_beta 63.965130
_cell_angle_gamma 90.000000
_cell_volume 1271.814465
_symmetry_space_group_name_H-M "C 2"
_symmetry_group_IT_number 5
_symmetry_cell_setting 'monoclinic'
loop_
_space_group_symop_operation_xyz
x,y,z
-x,y,-z
1/2+x,1/2+y,z
1/2-x,1/2+y,-z
loop_
_atom_site_type_symbol
_atom_site_label
_atom_site_fract_x
_atom_site_fract_y
_atom_site_fract_z
Si Si1 0.000000 0.583390 0.000000
Si Si2 0.820564 0.824943 0.329638
Si Si3 0.662238 0.084148 0.054454
Si Si4 0.115585 0.373314 0.788040
Si Si5 0.215368 0.536498 0.366417
Si Si6 0.446302 0.291236 0.731878
Si Si7 0.928561 0.018023 0.075717
O O1 0.054780 0.472899 0.842164
O O2 0.974718 0.692567 0.867609
O O3 0.796745 0.715827 0.541198
O O4 0.778413 0.973951 0.348940
O O5 0.888505 0.887116 0.254928
O O6 0.817857 0.710497 0.142939
O O7 0.709517 0.033109 0.142623
O O8 0.607442 0.175608 0.252073
O O9 0.639024 0.936692 0.961378
O O10 0.164849 0.423589 0.548757
O O11 0.098716 0.189188 0.831932
O O12 0.500000 0.321819 0.500000
O O13 0.421435 0.455348 0.864038
O O14 0.000000 0.020574 0.000000
#
# Coordination Sequence:
#
# PCOD9120857 Si02
#       7
#     2   4   4   4   4   4   4
#     4  10  18  36  58  84 124 156 200 254 298 350
#     4  10  24  40  63  92 120 161 206 247 312 362
#     4   9  22  39  61  90 120 156 203 255 306 354
#     4  10  21  39  60  91 121 161 203 247 305 358
#     4  11  22  43  67  90 121 160 203 254 304 372
#     4  10  20  35  59  86 117 163 202 243 303 363
#     4  11  22  40  60  87 130 162 199 258 297 353
#
# _framework density 20.443235000000001
#
# number of rings (size 3 to 8) (size 9 to 14) (size 15 to 20)
#    0.000    1.846    1.538    2.769    2.154    3.692 
#    2.769    2.308    0.000    0.000    0.000    0.000 
#    0.000    0.000    0.000    0.000    0.000    0.000 
#
# Total GULP energy -72577.002614 kJ/mol
# GULP energy per Si atom -5582.846355 kJ/mol
# Density = 2.039671 g / cm^3
# Si number density = 20.443235 Si / 1000 Ang^3
#
#
#
# Elastic Constant Matrix: (Units=GPa)
#
#
# Indices 1 2 3 4 5 6 
#
# 1 80.6548 18.9755 -1.9559 0.0000 2.3935 0.0000
# 2 18.9755 93.4708 3.1044 0.0000 8.2309 0.0000
# 3 -1.9559 3.1044 20.4473 0.0000 2.7698 0.0000
# 4 0.0000 0.0000 0.0000 18.2287 0.0000 -10.5355
# 5 2.3935 8.2309 2.7698 0.0000 25.8030 0.0000
# 6 0.0000 0.0000 0.0000 -10.5355 0.0000 30.8819
#
#
#
# Elastic Compliance Matrix: (Units=1/GPa)
#
#
# Indices 1 2 3 4 5 6 
#
# 1 0.013084 -0.002665 0.001731 0.000000 -0.000549 0.000000
# 2 -0.002665 0.011580 -0.001569 0.000000 -0.003278 0.000000
# 3 0.001731 -0.001569 0.049991 0.000000 -0.005026 0.000000
# 4 0.000000 0.000000 0.000000 0.068332 0.000000 0.023312
# 5 -0.000549 -0.003278 -0.005026 0.000000 0.040391 0.000000
# 6 0.000000 0.000000 0.000000 0.023312 0.000000 0.040334
#
#
# Mechanical properties :
#
#
# Convention : Reuss Voigt Hill
#
# Bulk Modulus (GPa) = 14.35800 26.09120 20.22460
# Shear Modulus (GPa) = 19.84634 26.61266 23.22950
#
# Velocity S-wave (km/s) = 3.11915 3.61194 3.37455
# Velocity P-wave (km/s) = 4.47334 5.49411 5.00979
#
# Compressibility (1/GPa) = 0.06964757
#
# Stress axis : x y z
#
# Youngs Moduli (GPa) = 76.43020 86.35275 20.00371
#
# Poissons Ratio (x) = 0.23015 -0.03462
# Poissons Ratio (y) = 0.20371 0.03139
# Poissons Ratio (z) = -0.13227 0.13549
#
# Static dielectric constant tensor:
#      x y z
#    x 1.749460 0.000000 -0.026830 
#    y 0.000000 1.730900 0.000000 
#    z -0.026830 0.000000 1.731280 
# 
# From -- ./inp_files/11114.got.cif
#   From: 2010.05.17/outbox.cif.g08.bks.cpg/sg5_6_cif.got.tgz:11114.got - 2010.06.03 18:56:24.
