data_PCOD9120346
_publ_section_title
;
Structure prediction by ZEFSAII (Michael W. Deem and Ramdas Pophale) SiO2 
 PCOD9120346
Probable space group: C 2
;
_chemical_formula_sum "Si O2"
_cell_formula_units_Z 24
_cell_length_a 9.230271
_cell_length_b 18.094601
_cell_length_c 9.271881
_cell_angle_alpha 90.000000
_cell_angle_beta 50.003723
_cell_angle_gamma 90.000000
_cell_volume 1186.339406
_symmetry_space_group_name_H-M "C 2"
_symmetry_group_IT_number 5
_symmetry_cell_setting 'monoclinic'
loop_
_space_group_symop_operation_xyz
x,y,z
-x,y,-z
1/2+x,1/2+y,z
1/2-x,1/2+y,-z
loop_
_atom_site_type_symbol
_atom_site_label
_atom_site_fract_x
_atom_site_fract_y
_atom_site_fract_z
Si Si1 0.382806 0.582940 0.438017
Si Si2 0.429567 0.740298 0.277248
Si Si3 0.109911 0.842808 0.580389
Si Si4 0.137110 0.974749 0.786273
Si Si5 0.201773 0.725725 0.122905
Si Si6 0.040880 0.578236 0.314352
O O1 0.500000 0.560116 0.500000
O O2 0.398449 0.670022 0.399620
O O3 0.445768 0.544663 0.249149
O O4 0.167321 0.558851 0.603926
O O5 0.314735 0.808372 0.415543
O O6 0.320652 0.726192 0.195933
O O7 0.650405 0.748377 0.096130
O O8 0.145835 0.911070 0.662533
O O9 0.000000 0.861293 0.500000
O O10 0.973954 0.781286 0.743099
O O11 0.327365 0.008269 0.735756
O O12 0.000000 0.950621 0.000000
O O13 0.131293 0.641151 0.157194
O O14 0.000000 0.613596 0.500000
#
# Coordination Sequence:
#
# PCOD9120346 Si02
#       6
#     4   4   4   4   4   4
#     4  11  22  40  65  99 130 176 232 286 332 390
#     4  10  19  36  67  97 132 177 224 269 330 408
#     4  10  21  41  65  97 141 180 221 277 344 395
#     4  11  23  42  66  94 136 180 228 277 341 411
#     4  10  17  36  68  96 128 176 230 263 328 413
#     4  10  18  37  66  95 127 180 224 274 333 402
#
# _framework density 20.230298999999999
#
# number of rings (size 3 to 8) (size 9 to 14) (size 15 to 20)
#    0.000    1.667    5.000    2.000    0.000    0.000 
#   12.000    3.333    3.667    0.000    0.000    0.000 
#    0.000    0.000    0.000    0.000    0.000    0.000 
#
# Total GULP energy -66956.680319 kJ/mol
# GULP energy per Si atom -5579.723360 kJ/mol
# Density = 2.018425 g / cm^3
# Si number density = 20.230299 Si / 1000 Ang^3
#
#
#
# Elastic Constant Matrix: (Units=GPa)
#
#
# Indices 1 2 3 4 5 6 
#
# 1 102.5808 40.1215 45.6887 0.0000 -12.0553 0.0000
# 2 40.1215 101.9249 55.3500 0.0000 -4.4353 0.0000
# 3 45.6887 55.3500 120.9467 0.0000 -23.4402 0.0000
# 4 0.0000 0.0000 0.0000 16.7772 0.0000 4.3261
# 5 -12.0553 -4.4353 -23.4402 0.0000 20.8536 0.0000
# 6 0.0000 0.0000 0.0000 4.3261 0.0000 18.6269
#
#
#
# Elastic Compliance Matrix: (Units=1/GPa)
#
#
# Indices 1 2 3 4 5 6 
#
# 1 0.012649 -0.003487 -0.002441 0.000000 0.003827 0.000000
# 2 -0.003487 0.014444 -0.006505 0.000000 -0.006256 0.000000
# 3 -0.002441 -0.006505 0.014864 0.000000 0.013913 0.000000
# 4 0.000000 0.000000 0.000000 0.063402 0.000000 -0.014725
# 5 0.003827 -0.006256 0.013913 0.000000 0.064473 0.000000
# 6 0.000000 0.000000 0.000000 -0.014725 0.000000 0.057106
#
#
# Mechanical properties :
#
#
# Convention : Reuss Voigt Hill
#
# Bulk Modulus (GPa) = 58.51250 67.53031 63.02141
# Shear Modulus (GPa) = 19.41735 23.53769 21.47752
#
# Velocity S-wave (km/s) = 3.10145 3.41469 3.26183
# Velocity P-wave (km/s) = 6.46617 7.00001 6.73837
#
# Compressibility (1/GPa) = 0.01709037
#
# Stress axis : x y z
#
# Youngs Moduli (GPa) = 79.05633 69.23098 67.27845
#
# Poissons Ratio (x) = 0.24143 0.16421
# Poissons Ratio (y) = 0.27569 0.43768
# Poissons Ratio (z) = 0.19295 0.45038
#
# Static dielectric constant tensor:
#      x y z
#    x 1.714740 0.000000 -0.021440 
#    y 0.000000 1.727870 0.000000 
#    z -0.021440 0.000000 1.738550 
# 
# From -- ./inp_files/16680.got.cif
#   From: 2010.05.17/outbox.cif.g08.bks.cpg/sg5_9_cif.got.tgz:16680.got - 2010.06.03 18:56:24.
