data_PCOD9120133
_publ_section_title
;
Structure prediction by ZEFSAII (Michael W. Deem and Ramdas Pophale) SiO2 
 PCOD9120133
Probable space group: C 2
;
_chemical_formula_sum "Si O2"
_cell_formula_units_Z 30
_cell_length_a 17.826760
_cell_length_b 15.819930
_cell_length_c 8.463561
_cell_angle_alpha 90.000000
_cell_angle_beta 31.388064
_cell_angle_gamma 90.000000
_cell_volume 1243.161644
_symmetry_space_group_name_H-M "C 2"
_symmetry_group_IT_number 5
_symmetry_cell_setting 'monoclinic'
loop_
_space_group_symop_operation_xyz
x,y,z
-x,y,-z
1/2+x,1/2+y,z
1/2-x,1/2+y,-z
loop_
_atom_site_type_symbol
_atom_site_label
_atom_site_fract_x
_atom_site_fract_y
_atom_site_fract_z
Si Si1 0.179013 0.522730 0.772699
Si Si2 0.170406 0.791531 0.175789
Si Si3 0.729808 0.977928 0.013742
Si Si4 0.500000 0.605629 0.500000
Si Si5 0.671751 0.235481 0.507659
Si Si6 0.496693 0.586204 0.173464
Si Si7 0.842250 0.720262 0.124435
Si Si8 0.191841 0.534742 0.407881
O O1 0.151464 0.474545 0.984771
O O2 0.352762 0.530972 0.441019
O O3 0.136323 0.620096 0.885700
O O4 0.133202 0.496795 0.677507
O O5 0.197715 0.888178 0.084998
O O6 0.233160 0.776544 0.238410
O O7 0.000000 0.772114 0.500000
O O8 0.225112 0.737602 0.926754
O O9 0.857045 0.047043 0.762922
O O10 0.641201 0.004864 0.328147
O O11 0.500165 0.643647 0.323801
O O12 0.729811 0.250487 0.581321
O O13 0.676147 0.135515 0.459657
O O14 0.502482 0.259212 0.825904
O O15 0.500000 0.633391 0.000000
O O16 0.634784 0.525290 0.918973
#
# Coordination Sequence:
#
# PCOD9120133 Si02
#       8
#     4   4   4   2   4   4   4   4
#     4   9  17  29  46  69  92 117 153 191 228 268
#     4  10  19  30  45  68  99 127 148 182 235 285
#     4  10  17  27  43  66  94 121 145 182 231 277
#     4   8  14  24  36  56  90 116 132 162 216 272
#     4   9  18  32  48  68  93 123 157 189 224 271
#     4   8  14  24  40  64  88 108 137 180 224 262
#     4   9  18  32  48  68  93 123 157 189 224 271
#     4   9  17  29  46  69  92 117 153 191 228 268
#
# _framework density 24.132019
#
# number of rings (size 3 to 8) (size 9 to 14) (size 15 to 20)
#    0.000    2.933    0.667    0.800    0.000    1.067 
#    0.000    0.000    0.000    0.000    6.933    0.000 
#    0.000    0.000    0.000    0.000    0.000    0.000 
#
# Total GULP energy -83552.069695 kJ/mol
# GULP energy per Si atom -5570.137980 kJ/mol
# Density = 2.407709 g / cm^3
# Si number density = 24.132019 Si / 1000 Ang^3
#
#
#
# Elastic Constant Matrix: (Units=GPa)
#
#
# Indices 1 2 3 4 5 6 
#
# 1 137.5416 14.2376 81.8765 0.0000 73.7730 0.0000
# 2 14.2376 30.5917 23.6096 0.0000 18.3811 0.0000
# 3 81.8765 23.6096 150.1402 0.0000 61.3103 0.0000
# 4 0.0000 0.0000 0.0000 -30.9358 0.0000 -1.7260
# 5 73.7730 18.3811 61.3103 0.0000 84.4590 0.0000
# 6 0.0000 0.0000 0.0000 -1.7260 0.0000 15.2891
#
#
#
# Elastic Compliance Matrix: (Units=1/GPa)
#
#
# Indices 1 2 3 4 5 6 
#
# 1 0.015458 0.002761 -0.004413 0.000000 -0.010899 0.000000
# 2 0.002761 0.039565 -0.004585 0.000000 -0.007693 0.000000
# 3 -0.004413 -0.004585 0.011096 0.000000 -0.003202 0.000000
# 4 0.000000 0.000000 0.000000 -0.032123 0.000000 -0.003626
# 5 -0.010899 -0.007693 -0.003202 0.000000 0.025359 0.000000
# 6 0.000000 0.000000 0.000000 -0.003626 0.000000 0.064997
#
#
# Mechanical properties :
#
#
# Convention : Reuss Voigt Hill
#
# Bulk Modulus (GPa) = 18.64181 61.96900 40.30540
# Shear Modulus (GPa) = 32.31880 26.99910 29.65895
#
# Velocity S-wave (km/s) = 3.66355 3.34849 3.50955
# Velocity P-wave (km/s) = 5.06331 6.37846 5.75855
#
# Compressibility (1/GPa) = 0.05364287
#
# Stress axis : x y z
#
# Youngs Moduli (GPa) = 64.69209 25.27468 90.12616
#
# Poissons Ratio (x) = -0.06977 0.39772
# Poissons Ratio (y) = -0.17859 0.41327
# Poissons Ratio (z) = 0.28548 0.11590
#
# Static dielectric constant tensor:
#      x y z
#    x 2.116630 0.000000 0.028950 
#    y 0.000000 1.847440 0.000000 
#    z 0.028950 0.000000 1.975590 
# 
# From -- ./inp_files/21008.got.cif
#   From: 2010.05.17/outbox.cif.g08.bks.cpg/sg5_11_cif.got.tgz:21008.got - 2010.06.03 18:56:24.
