data_PCOD9120848
_publ_section_title
;
Structure prediction by ZEFSAII (Michael W. Deem and Ramdas Pophale) SiO2 
 PCOD9120848
Probable space group: C 2
;
_chemical_formula_sum "Si O2"
_cell_formula_units_Z 26
_cell_length_a 11.803892
_cell_length_b 17.224931
_cell_length_c 14.199870
_cell_angle_alpha 90.000000
_cell_angle_beta 153.045522
_cell_angle_gamma 90.000000
_cell_volume 1308.687594
_symmetry_space_group_name_H-M "C 2"
_symmetry_group_IT_number 5
_symmetry_cell_setting 'monoclinic'
loop_
_space_group_symop_operation_xyz
x,y,z
-x,y,-z
1/2+x,1/2+y,z
1/2-x,1/2+y,-z
loop_
_atom_site_type_symbol
_atom_site_label
_atom_site_fract_x
_atom_site_fract_y
_atom_site_fract_z
Si Si1 0.747534 0.930070 0.998609
Si Si2 0.056809 0.779298 0.290098
Si Si3 0.947828 0.190672 0.066771
Si Si4 0.755555 0.337402 0.640195
Si Si5 0.500000 0.818002 0.500000
Si Si6 0.134492 0.043431 0.304193
Si Si7 0.373534 0.969791 0.292930
O O1 0.459852 0.905754 0.794051
O O2 0.772864 0.959798 0.910978
O O3 0.906526 0.853503 0.138401
O O4 0.893338 0.996775 0.162718
O O5 0.180185 0.803973 0.481345
O O6 0.277210 0.767403 0.377883
O O7 0.844827 0.713272 0.142268
O O8 0.113118 0.267909 0.204249
O O9 0.048178 0.129975 0.217986
O O10 0.000000 0.160751 0.000000
O O11 0.500000 0.361087 0.500000
O O12 0.428851 0.880986 0.366472
O O13 0.240350 0.010225 0.282401
O O14 0.377426 0.020554 0.544777
#
# Coordination Sequence:
#
# PCOD9120848 Si02
#       7
#     4   4   4   4   2   4   4
#     4  11  19  34  59  86 112 149 195 236 300 346
#     4  11  22  37  56  90 118 158 196 242 295 350
#     4  11  23  37  58  85 122 160 197 240 295 361
#     4  11  23  37  56  83 121 157 199 246 288 347
#     4  10  18  36  56  86 118 138 198 242 298 340
#     4  10  21  34  56  91 120 147 189 242 305 348
#     4  10  19  32  57  90 118 137 177 256 299 338
#
# _framework density 19.867232000000001
#
# number of rings (size 3 to 8) (size 9 to 14) (size 15 to 20)
#    0.000    1.538    6.154    1.385    2.154    1.231 
#    0.000    0.000    1.692    0.000    8.000    0.000 
#    0.000    0.000    0.000    0.000    0.000    0.000 
#
# Total GULP energy -72427.632842 kJ/mol
# GULP energy per Si atom -5571.356372 kJ/mol
# Density = 1.982201 g / cm^3
# Si number density = 19.867232 Si / 1000 Ang^3
#
#
#
# Elastic Constant Matrix: (Units=GPa)
#
#
# Indices 1 2 3 4 5 6 
#
# 1 47.2598 3.4644 30.5550 0.0014 23.2910 -0.0009
# 2 3.4644 46.8990 11.8499 0.0002 15.0150 0.0001
# 3 30.5550 11.8499 113.9749 -0.0055 19.5343 0.0029
# 4 0.0014 0.0002 -0.0055 21.2386 -0.0008 -1.9150
# 5 23.2910 15.0150 19.5343 -0.0008 43.6127 0.0001
# 6 -0.0009 0.0001 0.0029 -1.9150 0.0001 14.4572
#
#
#
# Elastic Compliance Matrix: (Units=1/GPa)
#
#
# Indices 1 2 3 4 5 6 
#
# 1 0.033074 0.004413 -0.006540 -0.000004 -0.016253 0.000003
# 2 0.004413 0.024697 -0.002047 -0.000001 -0.009942 0.000000
# 3 -0.006540 -0.002047 0.010854 0.000003 -0.000664 -0.000002
# 4 -0.000004 -0.000001 0.000003 0.047653 0.000002 0.006312
# 5 -0.016253 -0.009942 -0.000664 0.000002 0.035329 -0.000001
# 6 0.000003 0.000000 -0.000002 0.006312 -0.000001 0.070006
#
#
# Mechanical properties :
#
#
# Convention : Reuss Voigt Hill
#
# Bulk Modulus (GPa) = 16.59000 33.31912 24.95456
# Shear Modulus (GPa) = 19.99572 26.67931 23.33752
#
# Velocity S-wave (km/s) = 3.17593 3.66851 3.43107
# Velocity P-wave (km/s) = 4.67090 5.89502 5.31829
#
# Compressibility (1/GPa) = 0.06027726
#
# Stress axis : x y z
#
# Youngs Moduli (GPa) = 30.23490 40.49121 92.13405
#
# Poissons Ratio (x) = -0.17868 0.60255
# Poissons Ratio (y) = -0.13342 0.18856
# Poissons Ratio (z) = 0.19773 0.08287
#
# Static dielectric constant tensor:
#      x y z
#    x 1.739980 0.000000 -0.030690 
#    y 0.000000 1.712620 0.000000 
#    z -0.030690 0.000000 1.849090 
# 
# From -- ./inp_files/61853.got.cif
#   From: 2010.05.17/outbox.cif.g08.bks.cpg/sg5_31_cif.got.tgz:61853.got - 2010.06.03 18:56:24.
