data_PCOD9120858
_publ_section_title
;
Structure prediction by ZEFSAII (Michael W. Deem and Ramdas Pophale) SiO2 
 PCOD9120858
Probable space group: C 2
;
_chemical_formula_sum "Si O2"
_cell_formula_units_Z 26
_cell_length_a 14.844405
_cell_length_b 8.044556
_cell_length_c 12.354814
_cell_angle_alpha 90.000000
_cell_angle_beta 54.664178
_cell_angle_gamma 90.000000
_cell_volume 1203.572034
_symmetry_space_group_name_H-M "C 2"
_symmetry_group_IT_number 5
_symmetry_cell_setting 'monoclinic'
loop_
_space_group_symop_operation_xyz
x,y,z
-x,y,-z
1/2+x,1/2+y,z
1/2-x,1/2+y,-z
loop_
_atom_site_type_symbol
_atom_site_label
_atom_site_fract_x
_atom_site_fract_y
_atom_site_fract_z
Si Si1 0.100672 0.684030 0.661131
Si Si2 0.258794 0.773361 0.733562
Si Si3 0.000000 0.215338 0.500000
Si Si4 0.557022 0.580142 0.691380
Si Si5 0.818810 0.080393 0.907547
Si Si6 0.769847 0.619772 0.641979
Si Si7 0.850895 0.703716 0.809407
O O1 0.184031 0.661282 0.704766
O O2 0.151916 0.603938 0.517454
O O3 0.971845 0.635875 0.758322
O O4 0.091391 0.885856 0.660272
O O5 0.384841 0.802419 0.605880
O O6 0.267961 0.690661 0.844659
O O7 0.219491 0.961515 0.743143
O O8 0.025196 0.115731 0.590462
O O9 0.447594 0.623699 0.835471
O O10 0.658670 0.689900 0.663727
O O11 0.829653 0.890370 0.863662
O O12 0.741286 0.098621 0.064233
O O13 0.835963 0.710597 0.690494
#
# Coordination Sequence:
#
# PCOD9120858 Si02
#       7
#     4   4   2   4   4   4   4
#     4  10  22  38  61  93 121 162 195 249 304 364
#     4  10  22  38  61  89 125 153 202 248 304 355
#     4  10  18  36  58  86 120 160 186 248 288 366
#     4   9  21  38  62  85 123 161 198 241 306 362
#     4  10  23  44  62  88 115 171 204 248 303 358
#     4  11  22  38  61  96 121 157 198 257 302 360
#     4  11  24  41  64  84 127 160 210 247 299 364
#
# _framework density 21.602364999999999
#
# number of rings (size 3 to 8) (size 9 to 14) (size 15 to 20)
#    0.000    1.846    1.538    1.385    8.615    1.231 
#    0.000    6.154    0.000    0.000    0.000    0.000 
#    0.000    0.000    0.000    0.000    0.000    0.000 
#
# Total GULP energy -72406.895718 kJ/mol
# GULP energy per Si atom -5569.761209 kJ/mol
# Density = 2.155320 g / cm^3
# Si number density = 21.602365 Si / 1000 Ang^3
#
#
#
# Elastic Constant Matrix: (Units=GPa)
#
#
# Indices 1 2 3 4 5 6 
#
# 1 115.3109 12.0600 44.9830 0.0000 3.0157 0.0000
# 2 12.0600 19.7081 7.3788 0.0000 6.5411 0.0000
# 3 44.9830 7.3788 99.9609 0.0000 4.8859 0.0000
# 4 0.0000 0.0000 0.0000 25.5563 0.0000 1.4337
# 5 3.0157 6.5411 4.8859 0.0000 17.9084 0.0000
# 6 0.0000 0.0000 0.0000 1.4337 0.0000 19.0459
#
#
#
# Elastic Compliance Matrix: (Units=1/GPa)
#
#
# Indices 1 2 3 4 5 6 
#
# 1 0.011010 -0.005474 -0.004619 0.000000 0.001406 0.000000
# 2 -0.005474 0.061540 -0.001039 0.000000 -0.021272 0.000000
# 3 -0.004619 -0.001039 0.012266 0.000000 -0.002189 0.000000
# 4 0.000000 0.000000 0.000000 0.039295 0.000000 -0.002958
# 5 0.001406 -0.021272 -0.002189 0.000000 0.063970 0.000000
# 6 0.000000 0.000000 0.000000 -0.002958 0.000000 0.052727
#
#
# Mechanical properties :
#
#
# Convention : Reuss Voigt Hill
#
# Bulk Modulus (GPa) = 15.98718 40.42485 28.20601
# Shear Modulus (GPa) = 17.61030 23.87266 20.74148
#
# Velocity S-wave (km/s) = 2.85827 3.32790 3.10199
# Velocity P-wave (km/s) = 4.27898 5.78968 5.09068
#
# Compressibility (1/GPa) = 0.06255011
#
# Stress axis : x y z
#
# Youngs Moduli (GPa) = 90.82699 16.24961 81.52429
#
# Poissons Ratio (x) = 0.08896 0.37657
# Poissons Ratio (y) = 0.49723 0.08474
# Poissons Ratio (z) = 0.41954 0.01689
#
# Static dielectric constant tensor:
#      x y z
#    x 1.916950 0.000000 -0.038880 
#    y 0.000000 1.860450 0.000000 
#    z -0.038880 0.000000 1.771400 
# 
# From -- ./inp_files/41624.got.cif
#   From: 2010.05.17/outbox.cif.g08.bks.cpg/sg5_21_cif.got.tgz:41624.got - 2010.06.03 18:56:24.
