data_PCOD9120977
_publ_section_title
;
Structure prediction by ZEFSAII (Michael W. Deem and Ramdas Pophale) SiO2 
 PCOD9120977
Probable space group: C 2
;
_chemical_formula_sum "Si O2"
_cell_formula_units_Z 30
_cell_length_a 19.351623
_cell_length_b 15.031103
_cell_length_c 13.920837
_cell_angle_alpha 90.000000
_cell_angle_beta 22.605395
_cell_angle_gamma 90.000000
_cell_volume 1556.456256
_symmetry_space_group_name_H-M "C 2"
_symmetry_group_IT_number 5
_symmetry_cell_setting 'monoclinic'
loop_
_space_group_symop_operation_xyz
x,y,z
-x,y,-z
1/2+x,1/2+y,z
1/2-x,1/2+y,-z
loop_
_atom_site_type_symbol
_atom_site_label
_atom_site_fract_x
_atom_site_fract_y
_atom_site_fract_z
Si Si1 0.013770 0.771950 0.828871
Si Si2 0.449100 0.190684 0.412686
Si Si3 0.281398 0.735205 0.122852
Si Si4 0.188026 0.519171 0.507999
Si Si5 0.682130 0.112278 0.833800
Si Si6 0.500000 0.421724 0.000000
Si Si7 0.860128 0.160981 0.429212
Si Si8 0.572507 0.924175 0.017213
O O1 0.044938 0.767961 0.675395
O O2 0.204588 0.736033 0.624027
O O3 0.864334 0.695784 0.040300
O O4 0.964536 0.858463 0.952834
O O5 0.617479 0.208533 0.264527
O O6 0.269506 0.197758 0.707026
O O7 0.442639 0.092719 0.373234
O O8 0.458860 0.696099 0.847577
O O9 0.314386 0.839642 0.095336
O O10 0.326450 0.478555 0.253761
O O11 0.294621 0.578792 0.448637
O O12 0.085424 0.444807 0.702737
O O13 0.853157 0.130346 0.548031
O O14 0.500000 0.107598 0.000000
O O15 0.686527 0.015321 0.873052
O O16 0.500000 0.911022 0.000000
#
# Coordination Sequence:
#
# PCOD9120977 Si02
#       8
#     4   4   4   4   4   2   4   4
#     4  10  19  37  67  86 129 158 201 258 318 362
#     4  10  24  46  56  83 136 180 193 254 324 377
#     4  11  25  39  63  92 125 169 219 247 311 384
#     4  11  22  38  64  90 127 158 206 264 320 360
#     4   9  15  35  59  92 123 153 185 260 317 351
#     4  12  22  32  64 110 112 154 222 270 300 376
#     4  10  18  37  63  94 120 161 204 254 317 371
#     4  11  21  37  64  99 121 156 213 269 305 361
#
# _framework density 19.274553999999998
#
# number of rings (size 3 to 8) (size 9 to 14) (size 15 to 20)
#    0.000    1.600    7.333    1.600    5.600    0.000 
#    0.000    7.333    0.000    0.000    0.000    0.000 
#    0.000    0.000    0.000    0.000    0.000    0.000 
#
# Total GULP energy -83615.313200 kJ/mol
# GULP energy per Si atom -5574.354213 kJ/mol
# Density = 1.923068 g / cm^3
# Si number density = 19.274554 Si / 1000 Ang^3
#
#
#
# Elastic Constant Matrix: (Units=GPa)
#
#
# Indices 1 2 3 4 5 6 
#
# 1 50.4443 28.3559 44.4681 0.0014 19.7563 -0.0076
# 2 28.3559 79.6695 38.0553 0.0003 5.4512 -0.0040
# 3 44.4681 38.0553 107.8661 0.0006 36.9398 -0.0063
# 4 0.0014 0.0003 0.0006 41.6686 -0.0011 -20.7720
# 5 19.7563 5.4512 36.9398 -0.0011 27.3101 0.0069
# 6 -0.0076 -0.0040 -0.0063 -20.7720 0.0069 197.6433
#
#
#
# Elastic Compliance Matrix: (Units=1/GPa)
#
#
# Indices 1 2 3 4 5 6 
#
# 1 0.036902 -0.008887 -0.006600 -0.000001 -0.015993 0.000001
# 2 -0.008887 0.018186 -0.006913 0.000000 0.012149 -0.000001
# 3 -0.006600 -0.006913 0.022957 0.000000 -0.024897 0.000001
# 4 -0.000001 0.000000 0.000000 0.025326 0.000001 0.002662
# 5 -0.015993 0.012149 -0.024897 0.000001 0.079437 -0.000004
# 6 0.000001 -0.000001 0.000001 0.002662 -0.000004 0.005339
#
#
# Mechanical properties :
#
#
# Convention : Reuss Voigt Hill
#
# Bulk Modulus (GPa) = 30.08104 51.08205 40.58154
# Shear Modulus (GPa) = 20.48947 61.79776 41.14361
#
# Velocity S-wave (km/s) = 3.26395 5.66846 4.62519
# Velocity P-wave (km/s) = 5.46306 8.33077 7.04439
#
# Compressibility (1/GPa) = 0.03324353
#
# Stress axis : x y z
#
# Youngs Moduli (GPa) = 27.09916 54.98846 43.55980
#
# Poissons Ratio (x) = 0.48867 0.28752
# Poissons Ratio (y) = 0.24083 0.30113
# Poissons Ratio (z) = 0.17887 0.38013
#
# Static dielectric constant tensor:
#      x y z
#    x 1.671420 0.000000 -0.020240 
#    y 0.000000 1.682240 0.000000 
#    z -0.020240 0.000000 1.584130 
# 
# From -- ./inp_files/57122.got.cif
#   From: 2010.05.17/outbox.cif.g08.bks.cpg/sg5_29_cif.got.tgz:57122.got - 2010.06.03 18:56:24.
