data_PCOD9120053
_publ_section_title
;
Structure prediction by ZEFSAII (Michael W. Deem and Ramdas Pophale) SiO2 
 PCOD9120053
Probable space group: C 2
;
_chemical_formula_sum "Si O2"
_cell_formula_units_Z 32
_cell_length_a 15.279840
_cell_length_b 7.111638
_cell_length_c 23.012652
_cell_angle_alpha 90.000000
_cell_angle_beta 30.690461
_cell_angle_gamma 90.000000
_cell_volume 1276.337640
_symmetry_space_group_name_H-M "C 2"
_symmetry_group_IT_number 5
_symmetry_cell_setting 'monoclinic'
loop_
_space_group_symop_operation_xyz
x,y,z
-x,y,-z
1/2+x,1/2+y,z
1/2-x,1/2+y,-z
loop_
_atom_site_type_symbol
_atom_site_label
_atom_site_fract_x
_atom_site_fract_y
_atom_site_fract_z
Si Si1 0.032558 0.098410 0.367849
Si Si2 0.324066 0.111554 0.378190
Si Si3 0.133979 0.435982 0.975034
Si Si4 0.045412 0.998424 0.841973
Si Si5 0.612669 0.002277 0.290891
Si Si6 0.897471 0.542637 0.208409
Si Si7 0.497195 0.466623 0.257711
Si Si8 0.671726 0.382410 0.939162
O O1 0.053607 0.322659 0.361354
O O2 0.208309 0.009532 0.290072
O O3 0.862754 0.039470 0.498561
O O4 0.012874 0.063053 0.310556
O O5 0.389869 0.013410 0.281599
O O6 0.334337 0.329531 0.354442
O O7 0.443993 0.111524 0.367309
O O8 0.322594 0.352268 0.855998
O O9 0.176520 0.659333 0.946062
O O10 0.000000 0.387860 0.000000
O O11 0.035410 0.424254 0.092519
O O12 0.216733 0.076213 0.774691
O O13 0.068619 0.767944 0.823280
O O14 0.025613 0.077549 0.789022
O O15 0.871456 0.005645 0.979464
O O16 0.681678 0.937008 0.188547
O O17 0.500000 0.412200 0.000000
#
# Coordination Sequence:
#
# PCOD9120053 Si02
#       8
#     4   4   4   4   4   4   4   4
#     4  11  20  40  62  79 109 158 203 233 270 344
#     4  11  24  36  55  88 121 146 187 245 292 332
#     4  10  16  33  60  86 110 144 190 236 279 344
#     4   8  18  33  57  84 112 144 187 235 273 341
#     4  10  19  37  57  82 111 152 191 229 282 335
#     4   9  19  36  60  84 108 148 200 234 275 334
#     4  11  21  36  59  89 115 147 189 240 293 339
#     4   8  14  30  56  80 105 143 188 224 265 333
#
# _framework density 25.071735
#
# number of rings (size 3 to 8) (size 9 to 14) (size 15 to 20)
#    0.000    2.250    2.500    2.625    1.750    0.000 
#    0.000    5.000    0.000    0.000    0.000    0.000 
#    0.000    0.000    0.000    0.000    0.000    0.000 
#
# Total GULP energy -89385.751967 kJ/mol
# GULP energy per Si atom -5586.609498 kJ/mol
# Density = 2.501467 g / cm^3
# Si number density = 25.071735 Si / 1000 Ang^3
#
#
#
# Elastic Constant Matrix: (Units=GPa)
#
#
# Indices 1 2 3 4 5 6 
#
# 1 139.7143 -3.9296 34.9770 0.0000 8.7863 0.0002
# 2 -3.9296 56.9746 5.5775 -0.0003 4.1690 0.0006
# 3 34.9770 5.5775 131.9637 -0.0004 8.3099 0.0000
# 4 0.0000 -0.0003 -0.0004 22.1895 0.0000 -0.2105
# 5 8.7863 4.1690 8.3099 0.0000 26.5107 -0.0001
# 6 0.0002 0.0006 0.0000 -0.2105 -0.0001 20.5975
#
#
#
# Elastic Compliance Matrix: (Units=1/GPa)
#
#
# Indices 1 2 3 4 5 6 
#
# 1 0.007809 0.000886 -0.001975 0.000000 -0.002109 0.000000
# 2 0.000886 0.017901 -0.000812 0.000000 -0.002854 -0.000001
# 3 -0.001975 -0.000812 0.008249 0.000000 -0.001804 0.000000
# 4 0.000000 0.000000 0.000000 0.045071 0.000000 0.000461
# 5 -0.002109 -0.002854 -0.001804 0.000000 0.039434 0.000000
# 6 0.000000 -0.000001 0.000000 0.000461 0.000000 0.048554
#
#
# Mechanical properties :
#
#
# Convention : Reuss Voigt Hill
#
# Bulk Modulus (GPa) = 33.15719 44.65584 38.90651
# Shear Modulus (GPa) = 27.64393 33.32806 30.48599
#
# Velocity S-wave (km/s) = 3.32413 3.64992 3.49083
# Velocity P-wave (km/s) = 5.29026 5.96762 5.63912
#
# Compressibility (1/GPa) = 0.03015937
#
# Stress axis : x y z
#
# Youngs Moduli (GPa) = 128.05225 55.86241 121.22571
#
# Poissons Ratio (x) = -0.04951 0.23936
# Poissons Ratio (y) = -0.11348 0.09840
# Poissons Ratio (z) = 0.25284 0.04535
#
# Static dielectric constant tensor:
#      x y z
#    x 1.975270 0.000000 0.002470 
#    y 0.000000 2.088530 0.000000 
#    z 0.002470 0.000000 1.976250 
# 
# From -- ./inp_files/68770.got.cif
#   From: 2010.05.17/outbox.cif.g08.bks.cpg/sg5_35_cif.got.tgz:68770.got - 2010.06.03 18:56:24.
