data_PCOD9120614
_publ_section_title
;
Structure prediction by ZEFSAII (Michael W. Deem and Ramdas Pophale) SiO2 
 PCOD9120614
Probable space group: C 2
;
_chemical_formula_sum "Si O2"
_cell_formula_units_Z 22
_cell_length_a 24.515356
_cell_length_b 8.109875
_cell_length_c 7.797025
_cell_angle_alpha 90.000000
_cell_angle_beta 141.831315
_cell_angle_gamma 90.000000
_cell_volume 957.976517
_symmetry_space_group_name_H-M "C 2"
_symmetry_group_IT_number 5
_symmetry_cell_setting 'monoclinic'
loop_
_space_group_symop_operation_xyz
x,y,z
-x,y,-z
1/2+x,1/2+y,z
1/2-x,1/2+y,-z
loop_
_atom_site_type_symbol
_atom_site_label
_atom_site_fract_x
_atom_site_fract_y
_atom_site_fract_z
Si Si1 0.152056 0.742200 0.721364
Si Si2 0.500000 0.636505 0.500000
Si Si3 0.637795 0.146577 0.323681
Si Si4 0.158228 0.134478 0.675746
Si Si5 0.290766 0.814145 0.528207
Si Si6 0.898004 0.855361 0.062733
O O1 0.116870 0.644469 0.471019
O O2 0.098287 0.733853 0.765243
O O3 0.149521 0.936702 0.666745
O O4 0.250424 0.684468 0.009007
O O5 0.577898 0.717314 0.582698
O O6 0.450968 0.517204 0.241046
O O7 0.736583 0.226744 0.545081
O O8 0.646140 0.963576 0.268471
O O9 0.580054 0.263178 0.058925
O O10 0.163432 0.189441 0.490442
O O11 0.207149 0.889986 0.215275
#
# Coordination Sequence:
#
# PCOD9120614 Si02
#       6
#     4   2   4   4   4   4
#     4  10  18  33  58  85 118 150 200 245 287 341
#     4  10  18  38  58  92 124 160 196 234 310 362
#     4  10  18  33  58  89 120 147 202 258 284 341
#     4  10  20  35  60  92 117 160 198 248 292 363
#     4   9  19  35  57  95 112 150 209 245 295 338
#     4   8  20  32  56  90 115 153 195 241 290 360
#
# _framework density 22.965073
#
# number of rings (size 3 to 8) (size 9 to 14) (size 15 to 20)
#    1.091    1.455    0.000    4.364    0.000    0.000 
#    0.000    3.636    0.000   27.273   18.909    0.000 
#    0.000    0.000    0.000    0.000    0.000    0.000 
#
# Total GULP energy -61320.590934 kJ/mol
# GULP energy per Si atom -5574.599176 kJ/mol
# Density = 2.291280 g / cm^3
# Si number density = 22.965073 Si / 1000 Ang^3
#
#
#
# Elastic Constant Matrix: (Units=GPa)
#
#
# Indices 1 2 3 4 5 6 
#
# 1 69.0841 -27.7867 27.3376 0.0000 -3.0561 0.0000
# 2 -27.7867 31.6964 -9.3512 0.0000 -4.5954 0.0000
# 3 27.3376 -9.3512 30.0108 0.0000 0.9176 0.0000
# 4 0.0000 0.0000 0.0000 25.6480 0.0000 -9.5934
# 5 -3.0561 -4.5954 0.9176 0.0000 41.3943 0.0000
# 6 0.0000 0.0000 0.0000 -9.5934 0.0000 22.3643
#
#
#
# Elastic Compliance Matrix: (Units=1/GPa)
#
#
# Indices 1 2 3 4 5 6 
#
# 1 0.033162 0.023027 -0.023202 0.000000 0.005519 0.000000
# 2 0.023027 0.051283 -0.005226 0.000000 0.007509 0.000000
# 3 -0.023202 -0.005226 0.052934 0.000000 -0.003467 0.000000
# 4 0.000000 0.000000 0.000000 0.046441 0.000000 0.019921
# 5 0.005519 0.007509 -0.003467 0.000000 0.025476 0.000000
# 6 0.000000 0.000000 0.000000 0.019921 0.000000 0.053260
#
#
# Mechanical properties :
#
#
# Convention : Reuss Voigt Hill
#
# Bulk Modulus (GPa) = 7.90032 12.35453 10.12743
# Shear Modulus (GPa) = 15.84533 27.25408 21.54971
#
# Velocity S-wave (km/s) = 2.62959 3.44868 3.06660
# Velocity P-wave (km/s) = 3.55911 4.60969 4.11804
#
# Compressibility (1/GPa) = 0.12657712
#
# Stress axis : x y z
#
# Youngs Moduli (GPa) = 30.15465 19.49974 18.89134
#
# Poissons Ratio (x) = -0.44902 0.43832
# Poissons Ratio (y) = -0.69436 0.09872
# Poissons Ratio (z) = 0.69965 0.10190
#
# Static dielectric constant tensor:
#      x y z
#    x 1.898350 0.000000 0.014890 
#    y 0.000000 1.846110 0.000000 
#    z 0.014890 0.000000 1.870340 
# 
# From -- ./inp_files/31542.got.cif
#   From: 2010.05.17/outbox.cif.g08.bks.cpg/sg5_16_cif.got.tgz:31542.got - 2010.06.03 18:56:24.
