data_PCOD9120786
_publ_section_title
;
Structure prediction by ZEFSAII (Michael W. Deem and Ramdas Pophale) SiO2 
 PCOD9120786
Probable space group: C 2
;
_chemical_formula_sum "Si O2"
_cell_formula_units_Z 24
_cell_length_a 14.587308
_cell_length_b 15.960528
_cell_length_c 10.162212
_cell_angle_alpha 90.000000
_cell_angle_beta 151.577282
_cell_angle_gamma 90.000000
_cell_volume 1126.141428
_symmetry_space_group_name_H-M "C 2"
_symmetry_group_IT_number 5
_symmetry_cell_setting 'monoclinic'
loop_
_space_group_symop_operation_xyz
x,y,z
-x,y,-z
1/2+x,1/2+y,z
1/2-x,1/2+y,-z
loop_
_atom_site_type_symbol
_atom_site_label
_atom_site_fract_x
_atom_site_fract_y
_atom_site_fract_z
Si Si1 0.683346 0.358760 0.333635
Si Si2 0.377738 0.538628 0.716302
Si Si3 0.859825 0.971189 0.192162
Si Si4 0.719184 0.139287 0.055757
Si Si5 0.847987 0.183638 0.493531
Si Si6 0.044172 0.797868 0.707904
O O1 0.748449 0.455742 0.411011
O O2 0.824722 0.282933 0.477944
O O3 0.617383 0.335273 0.398878
O O4 0.500000 0.353673 0.000000
O O5 0.519664 0.501901 0.782361
O O6 0.296420 0.624194 0.551953
O O7 0.500000 0.559534 0.000000
O O8 0.696240 0.040714 0.003514
O O9 0.000000 0.974755 0.500000
O O10 0.802023 0.874885 0.096294
O O11 0.715403 0.156084 0.205300
O O12 0.934821 0.161556 0.275728
O O13 0.593397 0.207781 0.825667
O O14 0.000000 0.787588 0.500000
#
# Coordination Sequence:
#
# PCOD9120786 Si02
#       6
#     4   4   4   4   4   4
#     4  10  19  34  55  81 109 141 180 217 265 321
#     4   9  18  31  52  79 107 139 178 216 257 321
#     4   9  16  33  55  77 102 144 181 206 258 332
#     4  10  18  35  59  80 105 143 183 217 264 322
#     4  10  19  34  59  80 106 143 181 218 266 320
#     4  10  21  34  56  82 109 139 180 224 263 313
#
# _framework density 21.311710999999999
#
# number of rings (size 3 to 8) (size 9 to 14) (size 15 to 20)
#    0.000    2.333    5.000    0.000    0.000    2.667 
#    0.000    1.667    3.667    0.000    0.000    0.000 
#    0.000    0.000    0.000    0.000    0.000    0.000 
#
# Total GULP energy -66823.689981 kJ/mol
# GULP energy per Si atom -5568.640832 kJ/mol
# Density = 2.126320 g / cm^3
# Si number density = 21.311711 Si / 1000 Ang^3
#
#
#
# Elastic Constant Matrix: (Units=GPa)
#
#
# Indices 1 2 3 4 5 6 
#
# 1 49.0049 13.8793 32.8622 0.0000 -22.1371 0.0000
# 2 13.8793 155.0673 40.6702 0.0000 0.0844 0.0000
# 3 32.8622 40.6702 54.8450 0.0000 -27.6711 0.0000
# 4 0.0000 0.0000 0.0000 62.2177 0.0000 -14.6267
# 5 -22.1371 0.0844 -27.6711 0.0000 30.2244 0.0000
# 6 0.0000 0.0000 0.0000 -14.6267 0.0000 37.7931
#
#
#
# Elastic Compliance Matrix: (Units=1/GPa)
#
#
# Indices 1 2 3 4 5 6 
#
# 1 0.036636 0.001279 -0.017402 0.000000 0.010898 0.000000
# 2 0.001279 0.010166 -0.014582 0.000000 -0.012442 0.000000
# 3 -0.017402 -0.014582 0.061446 0.000000 0.043550 0.000000
# 4 0.000000 0.000000 0.000000 0.017681 0.000000 0.006843
# 5 0.010898 -0.012442 0.043550 0.000000 0.080974 0.000000
# 6 0.000000 0.000000 0.000000 0.006843 0.000000 0.029108
#
#
# Mechanical properties :
#
#
# Convention : Reuss Voigt Hill
#
# Bulk Modulus (GPa) = 21.35010 48.19341 34.77176
# Shear Modulus (GPa) = 15.97273 37.48073 26.72673
#
# Velocity S-wave (km/s) = 2.74064 4.19823 3.54515
# Velocity P-wave (km/s) = 4.47823 6.79432 5.75401
#
# Compressibility (1/GPa) = 0.04683818
#
# Stress axis : x y z
#
# Youngs Moduli (GPa) = 27.29520 98.37144 16.27449
#
# Poissons Ratio (x) = -0.12582 0.28321
# Poissons Ratio (y) = -0.03491 0.23731
# Poissons Ratio (z) = 0.47499 1.43444
#
# Static dielectric constant tensor:
#      x y z
#    x 1.826870 0.000000 0.033840 
#    y 0.000000 1.855870 0.000000 
#    z 0.033840 0.000000 1.745830 
# 
# From -- ./inp_files/19971.got.cif
#   From: 2010.05.17/outbox.cif.g08.bks.cpg/sg5_10_cif.got.tgz:19971.got - 2010.06.03 18:56:24.
