data_PCOD9120064
_publ_section_title
;
Structure prediction by ZEFSAII (Michael W. Deem and Ramdas Pophale) SiO2 
 PCOD9120064
Probable space group: C 2
;
_chemical_formula_sum "Si O2"
_cell_formula_units_Z 26
_cell_length_a 22.368411
_cell_length_b 7.462080
_cell_length_c 7.875814
_cell_angle_alpha 90.000000
_cell_angle_beta 130.940771
_cell_angle_gamma 90.000000
_cell_volume 993.025054
_symmetry_space_group_name_H-M "C 2"
_symmetry_group_IT_number 5
_symmetry_cell_setting 'monoclinic'
loop_
_space_group_symop_operation_xyz
x,y,z
-x,y,-z
1/2+x,1/2+y,z
1/2-x,1/2+y,-z
loop_
_atom_site_type_symbol
_atom_site_label
_atom_site_fract_x
_atom_site_fract_y
_atom_site_fract_z
Si Si1 0.955742 0.089510 0.259944
Si Si2 0.806770 0.170879 0.801015
Si Si3 0.113688 0.026387 0.390069
Si Si4 0.274753 0.079912 0.799919
Si Si5 0.500000 0.029707 0.000000
Si Si6 0.651381 0.123417 0.408970
Si Si7 0.434745 0.169098 0.240280
O O1 0.000000 0.173862 0.500000
O O2 0.024259 0.090833 0.246608
O O3 0.935554 0.883002 0.258848
O O4 0.873671 0.176939 0.066007
O O5 0.852876 0.085441 0.728857
O O6 0.780109 0.375548 0.743915
O O7 0.723774 0.065905 0.663288
O O8 0.180332 0.101399 0.645755
O O9 0.111954 0.808491 0.400441
O O10 0.305170 0.180372 0.686782
O O11 0.341492 0.112989 0.066683
O O12 0.584619 0.975660 0.242314
O O13 0.463163 0.119114 0.102189
O O14 0.500000 0.102610 0.500000
#
# Coordination Sequence:
#
# PCOD9120064 Si02
#       7
#     4   4   4   4   2   4   4
#     4  11  23  39  56  83 116 157 200 238 287 358
#     4  10  20  35  59  85 116 149 191 242 299 342
#     4  10  19  38  60  85 109 159 192 237 291 351
#     4   9  20  36  58  87 120 142 191 249 294 345
#     4  10  16  34  60  84 110 146 196 234 284 334
#     4   9  18  34  61  84 112 149 197 238 284 353
#     4  10  21  38  63  87 114 156 205 242 287 355
#
# _framework density 26.182621000000001
#
# number of rings (size 3 to 8) (size 9 to 14) (size 15 to 20)
#    0.000    2.154    1.538    2.308    0.000    1.846 
#   13.846    0.000    0.000    0.000    0.000    0.000 
#    0.000    0.000    0.000    0.000    0.000    0.000 
#
# Total GULP energy -72480.031052 kJ/mol
# GULP energy per Si atom -5575.387004 kJ/mol
# Density = 2.612303 g / cm^3
# Si number density = 26.182621 Si / 1000 Ang^3
#
#
#
# Elastic Constant Matrix: (Units=GPa)
#
#
# Indices 1 2 3 4 5 6 
#
# 1 62.1200 2.8072 40.9688 0.0000 11.3352 0.0000
# 2 2.8072 62.4376 8.8629 0.0000 0.6800 0.0000
# 3 40.9688 8.8629 223.9271 0.0000 49.6758 0.0000
# 4 0.0000 0.0000 0.0000 25.3943 0.0000 5.4515
# 5 11.3352 0.6800 49.6758 0.0000 50.1202 0.0000
# 6 0.0000 0.0000 0.0000 5.4515 0.0000 -3.1411
#
#
#
# Elastic Compliance Matrix: (Units=1/GPa)
#
#
# Indices 1 2 3 4 5 6 
#
# 1 0.018359 -0.000373 -0.003107 0.000000 -0.001067 0.000000
# 2 -0.000373 0.016125 -0.000692 0.000000 0.000552 0.000000
# 3 -0.003107 -0.000692 0.006286 0.000000 -0.005518 0.000000
# 4 0.000000 0.000000 0.000000 0.028690 0.000000 0.049792
# 5 -0.001067 0.000552 -0.005518 0.000000 0.025655 0.000000
# 6 0.000000 0.000000 0.000000 0.049792 0.000000 -0.231941
#
#
# Mechanical properties :
#
#
# Convention : Reuss Voigt Hill
#
# Bulk Modulus (GPa) = 30.84086 50.41805 40.62946
# Shear Modulus (GPa) = -42.49037 34.19772 -4.14632
#
# Velocity S-wave (km/s) = -4.03283 3.61795 -1.25978
# Velocity P-wave (km/s) = 3.14328 6.06225 3.66542
#
# Compressibility (1/GPa) = 0.03242452
#
# Stress axis : x y z
#
# Youngs Moduli (GPa) = 54.46987 62.01538 159.09063
#
# Poissons Ratio (x) = 0.02311 0.49435
# Poissons Ratio (y) = 0.02030 0.11016
# Poissons Ratio (z) = 0.16926 0.04294
#
# Static dielectric constant tensor:
#      x y z
#    x 2.082960 0.000000 0.037560 
#    y 0.000000 2.042230 0.000000 
#    z 0.037560 0.000000 2.268690 
# 
# From -- ./inp_files/26703.got.cif
#   From: 2010.05.17/outbox.cif.g08.bks.cpg/sg5_14_cif.got.tgz:26703.got - 2010.06.03 18:56:24.
