data_PCOD9120027
_publ_section_title
;
Structure prediction by ZEFSAII (Michael W. Deem and Ramdas Pophale) SiO2 
 PCOD9120027
Probable space group: C 2
;
_chemical_formula_sum "Si O2"
_cell_formula_units_Z 24
_cell_length_a 9.489504
_cell_length_b 26.872605
_cell_length_c 5.633319
_cell_angle_alpha 90.000000
_cell_angle_beta 53.277263
_cell_angle_gamma 90.000000
_cell_volume 1151.441749
_symmetry_space_group_name_H-M "C 2"
_symmetry_group_IT_number 5
_symmetry_cell_setting 'monoclinic'
loop_
_space_group_symop_operation_xyz
x,y,z
-x,y,-z
1/2+x,1/2+y,z
1/2-x,1/2+y,-z
loop_
_atom_site_type_symbol
_atom_site_label
_atom_site_fract_x
_atom_site_fract_y
_atom_site_fract_z
Si Si1 0.000000 0.625000 0.000000
Si Si2 0.500000 0.664097 0.000000
Si Si3 0.342623 0.212606 0.845110
Si Si4 0.783887 0.928523 0.946146
Si Si5 0.152153 0.076051 0.535294
Si Si6 0.689961 0.465915 0.587294
Si Si7 0.896573 0.823400 0.859004
O O1 0.846457 0.590501 0.255142
O O2 0.102055 0.664061 0.063491
O O3 0.656158 0.698722 0.927442
O O4 0.581250 0.625769 0.730057
O O5 0.500000 0.216843 0.500000
O O6 0.330108 0.267176 0.972866
O O7 0.726591 0.954732 0.757091
O O8 0.764068 0.869053 0.952141
O O9 0.994264 0.941875 0.756846
O O10 0.716176 0.944935 0.272947
O O11 0.000000 0.063820 0.500000
O O12 0.170826 0.024675 0.656244
O O13 0.000000 0.822688 0.500000
O O14 0.000000 0.836043 0.000000
#
# Coordination Sequence:
#
# PCOD9120027 Si02
#       7
#     2   2   4   4   4   4   4
#     4  12  24  42  60  96 128 170 226 270 324 398
#     4  12  24  42  64  92 128 176 218 274 328 392
#     4  11  24  40  62  94 128 169 221 271 330 390
#     4  10  16  32  55  92 120 156 217 261 314 396
#     4  12  24  38  64  92 127 174 216 271 329 388
#     4  10  19  31  55  90 122 158 216 260 313 390
#     4  11  19  33  60  92 126 165 214 269 327 388
#
# _framework density 20.843432
#
# number of rings (size 3 to 8) (size 9 to 14) (size 15 to 20)
#    0.000    1.000    9.167    1.000    0.000    0.000 
#    0.000    0.000    0.000    1.000    0.000    4.667 
#    0.000    0.000    0.000    0.000    0.000    0.000 
#
# Total GULP energy -66844.027930 kJ/mol
# GULP energy per Si atom -5570.335661 kJ/mol
# Density = 2.079599 g / cm^3
# Si number density = 20.843432 Si / 1000 Ang^3
#
#
#
# Elastic Constant Matrix: (Units=GPa)
#
#
# Indices 1 2 3 4 5 6 
#
# 1 80.3557 18.7592 45.1978 0.0000 -4.8512 0.0000
# 2 18.7592 133.4015 19.3138 0.0000 -5.2273 0.0000
# 3 45.1978 19.3138 79.0090 0.0000 13.2224 0.0000
# 4 0.0000 0.0000 0.0000 174.3746 0.0000 -79.9195
# 5 -4.8512 -5.2273 13.2224 0.0000 43.8516 0.0000
# 6 0.0000 0.0000 0.0000 -79.9195 0.0000 94.5834
#
#
#
# Elastic Compliance Matrix: (Units=1/GPa)
#
#
# Indices 1 2 3 4 5 6 
#
# 1 0.019768 -0.000808 -0.012070 0.000000 0.005730 0.000000
# 2 -0.000808 0.007909 -0.001700 0.000000 0.001366 0.000000
# 3 -0.012070 -0.001700 0.021310 0.000000 -0.007963 0.000000
# 4 0.000000 0.000000 0.000000 0.009359 0.000000 0.007908
# 5 0.005730 0.001366 -0.007963 0.000000 0.026002 0.000000
# 6 0.000000 0.000000 0.000000 0.007908 0.000000 0.017255
#
#
# Mechanical properties :
#
#
# Convention : Reuss Voigt Hill
#
# Bulk Modulus (GPa) = 50.42405 51.03419 50.72912
# Shear Modulus (GPa) = 36.39804 76.52828 56.46316
#
# Velocity S-wave (km/s) = 4.18336 6.06593 5.21037
# Velocity P-wave (km/s) = 6.89771 8.57895 7.78385
#
# Compressibility (1/GPa) = 0.01983181
#
# Stress axis : x y z
#
# Youngs Moduli (GPa) = 50.58616 126.43161 46.92672
#
# Poissons Ratio (x) = 0.10213 0.56641
# Poissons Ratio (y) = 0.04086 0.07977
# Poissons Ratio (z) = 0.61058 0.21493
#
# Static dielectric constant tensor:
#      x y z
#    x 1.250290 0.000000 -0.123390 
#    y 0.000000 1.728750 0.000000 
#    z -0.123390 0.000000 1.760910 
# 
# From -- ./inp_files/5926.got.cif
#   From: 2010.05.17/outbox.cif.g08.bks.cpg/sg5_3_cif.got.tgz:5926.got - 2010.06.03 18:56:24.
