data_PCOD9120498
_publ_section_title
;
Structure prediction by ZEFSAII (Michael W. Deem and Ramdas Pophale) SiO2 
 PCOD9120498
Probable space group: C 2
;
_chemical_formula_sum "Si O2"
_cell_formula_units_Z 28
_cell_length_a 9.208735
_cell_length_b 24.018541
_cell_length_c 5.553835
_cell_angle_alpha 90.000000
_cell_angle_beta 81.425823
_cell_angle_gamma 90.000000
_cell_volume 1214.670342
_symmetry_space_group_name_H-M "C 2"
_symmetry_group_IT_number 5
_symmetry_cell_setting 'monoclinic'
loop_
_space_group_symop_operation_xyz
x,y,z
-x,y,-z
1/2+x,1/2+y,z
1/2-x,1/2+y,-z
loop_
_atom_site_type_symbol
_atom_site_label
_atom_site_fract_x
_atom_site_fract_y
_atom_site_fract_z
Si Si1 0.667528 0.075200 0.232934
Si Si2 0.490389 0.328288 0.252793
Si Si3 0.836707 0.409519 0.091355
Si Si4 0.831470 0.448006 0.593276
Si Si5 0.169982 0.618348 0.727098
Si Si6 0.271705 0.742176 0.693732
Si Si7 0.191589 0.280303 0.817216
O O1 0.738102 0.104153 0.449450
O O2 0.499520 0.098000 0.252254
O O3 0.667004 0.010786 0.308152
O O4 0.731461 0.088715 0.953006
O O5 0.500000 0.360610 0.500000
O O6 0.343524 0.292843 0.290674
O O7 0.628284 0.284962 0.219315
O O8 0.500000 0.359550 0.000000
O O9 0.767134 0.441091 0.338549
O O10 0.850559 0.345439 0.170606
O O11 0.771636 0.413447 0.836504
O O12 0.000000 0.433325 0.000000
O O13 0.000000 0.429743 0.500000
O O14 0.187183 0.684262 0.747308
O O15 0.347854 0.747689 0.415341
O O16 0.357059 0.753644 0.919335
#
# Coordination Sequence:
#
# PCOD9120498 Si02
#       7
#     4   4   4   4   4   4   4
#     4  10  19  26  42  64  95 117 166 168 220 284
#     4   8  16  25  41  58  86 118 147 171 223 263
#     4  10  21  32  50  61  85 125 176 201 243 253
#     4  10  18  32  45  63  85 122 162 203 228 271
#     4  10  19  25  42  66  95 123 153 167 223 291
#     4  10  19  29  45  66  99 128 150 176 234 289
#     4  10  19  31  43  64  88 123 168 198 216 275
#
# _framework density 23.051524000000001
#
# number of rings (size 3 to 8) (size 9 to 14) (size 15 to 20)
#    0.000    2.286    1.429    2.571   16.000    0.000 
#    0.000    0.000    0.000    0.000    0.000    0.000 
#    0.000    0.000    0.000  135.000    0.000    0.000 
#
# Total GULP energy -78007.674274 kJ/mol
# GULP energy per Si atom -5571.976734 kJ/mol
# Density = 2.299906 g / cm^3
# Si number density = 23.051524 Si / 1000 Ang^3
#
#
#
# Elastic Constant Matrix: (Units=GPa)
#
#
# Indices 1 2 3 4 5 6 
#
# 1 41.4337 7.1039 18.9142 0.0000 -3.2289 0.0000
# 2 7.1039 123.1996 52.8768 0.0000 -1.3523 0.0000
# 3 18.9142 52.8768 301.2895 0.0000 10.3382 0.0000
# 4 0.0000 0.0000 0.0000 42.1273 0.0000 -1.0559
# 5 -3.2289 -1.3523 10.3382 0.0000 14.6293 0.0000
# 6 0.0000 0.0000 0.0000 -1.0559 0.0000 17.5115
#
#
#
# Elastic Compliance Matrix: (Units=1/GPa)
#
#
# Indices 1 2 3 4 5 6 
#
# 1 0.025564 -0.000660 -0.001722 0.000000 0.006798 0.000000
# 2 -0.000660 0.008850 -0.001573 0.000000 0.001784 0.000000
# 3 -0.001722 -0.001573 0.003814 0.000000 -0.003221 0.000000
# 4 0.000000 0.000000 0.000000 0.023773 0.000000 0.001433
# 5 0.006798 0.001784 -0.003221 0.000000 0.072297 0.000000
# 6 0.000000 0.000000 0.000000 0.001433 0.000000 0.057192
#
#
# Mechanical properties :
#
#
# Convention : Reuss Voigt Hill
#
# Bulk Modulus (GPa) = 32.98511 69.30139 51.14325
# Shear Modulus (GPa) = 23.86562 40.65550 32.26056
#
# Velocity S-wave (km/s) = 3.22112 4.20417 3.74504
# Velocity P-wave (km/s) = 5.30797 7.32774 6.39806
#
# Compressibility (1/GPa) = 0.03031671
#
# Stress axis : x y z
#
# Youngs Moduli (GPa) = 39.11731 112.99903 262.20996
#
# Poissons Ratio (x) = 0.07461 0.45159
# Poissons Ratio (y) = 0.02583 0.41243
# Poissons Ratio (z) = 0.06737 0.17773
#
# Static dielectric constant tensor:
#      x y z
#    x 1.934190 0.000000 0.050590 
#    y 0.000000 1.807690 0.000000 
#    z 0.050590 0.000000 2.015400 
# 
# From -- ./inp_files/5475.got.cif
#   From: 2010.05.17/outbox.cif.g08.bks.cpg/sg5_3_cif.got.tgz:5475.got - 2010.06.03 18:56:24.
