data_PCOD9120624
_publ_section_title
;
Structure prediction by ZEFSAII (Michael W. Deem and Ramdas Pophale) SiO2 
 PCOD9120624
Probable space group: C 2
;
_chemical_formula_sum "Si O2"
_cell_formula_units_Z 24
_cell_length_a 7.982873
_cell_length_b 18.435135
_cell_length_c 10.264479
_cell_angle_alpha 90.000000
_cell_angle_beta 122.913114
_cell_angle_gamma 90.000000
_cell_volume 1268.121412
_symmetry_space_group_name_H-M "C 2"
_symmetry_group_IT_number 5
_symmetry_cell_setting 'monoclinic'
loop_
_space_group_symop_operation_xyz
x,y,z
-x,y,-z
1/2+x,1/2+y,z
1/2-x,1/2+y,-z
loop_
_atom_site_type_symbol
_atom_site_label
_atom_site_fract_x
_atom_site_fract_y
_atom_site_fract_z
Si Si1 0.654479 0.224640 0.185520
Si Si2 0.234878 0.529463 0.792269
Si Si3 0.065685 0.885717 0.178789
Si Si4 0.765361 0.485958 0.907657
Si Si5 0.511440 0.614167 0.721908
Si Si6 0.105716 0.628422 0.412944
O O1 0.660185 0.307349 0.239376
O O2 0.862046 0.188245 0.226120
O O3 0.579856 0.177977 0.276269
O O4 0.500000 0.219726 0.000000
O O5 0.287388 0.453873 0.744619
O O6 0.381423 0.590925 0.794442
O O7 0.012812 0.554837 0.667415
O O8 0.265725 0.515809 0.957865
O O9 0.864867 0.913059 0.166119
O O10 0.000000 0.883399 0.000000
O O11 0.674309 0.549464 0.779207
O O12 0.000000 0.473916 0.000000
O O13 0.338134 0.617456 0.541126
O O14 0.000000 0.658366 0.500000
#
# Coordination Sequence:
#
# PCOD9120624 Si02
#       6
#     4   4   4   4   4   4
#     4  11  21  36  58  84 111 148 195 237 284 339
#     4   9  18  36  58  81 112 149 192 239 284 335
#     4   8  18  35  55  81 111 143 190 243 284 330
#     4  10  18  33  59  86 113 150 193 238 286 342
#     4  10  19  32  54  82 111 145 186 233 280 333
#     4  10  21  36  54  82 118 149 184 236 287 339
#
# _framework density 18.925632
#
# number of rings (size 3 to 8) (size 9 to 14) (size 15 to 20)
#    0.000    2.333    0.000    4.500    0.000    1.333 
#    0.000   18.333    0.000   12.000    0.000    0.000 
#    0.000    0.000    0.000    0.000    0.000    0.000 
#
# Total GULP energy -66821.802611 kJ/mol
# GULP energy per Si atom -5568.483551 kJ/mol
# Density = 1.888256 g / cm^3
# Si number density = 18.925632 Si / 1000 Ang^3
#
#
#
# Elastic Constant Matrix: (Units=GPa)
#
#
# Indices 1 2 3 4 5 6 
#
# 1 103.5656 62.5916 35.7841 0.0000 19.0376 0.0000
# 2 62.5916 135.9656 47.0087 0.0000 25.8332 0.0000
# 3 35.7841 47.0087 85.0589 0.0000 17.7856 0.0000
# 4 0.0000 0.0000 0.0000 0.1319 0.0000 5.1589
# 5 19.0376 25.8332 17.7856 0.0000 46.2172 0.0000
# 6 0.0000 0.0000 0.0000 5.1589 0.0000 22.9469
#
#
#
# Elastic Compliance Matrix: (Units=1/GPa)
#
#
# Indices 1 2 3 4 5 6 
#
# 1 0.014057 -0.005201 -0.002650 0.000000 -0.001864 0.000000
# 2 -0.005201 0.011543 -0.003578 0.000000 -0.002933 0.000000
# 3 -0.002650 -0.003578 0.015445 0.000000 -0.002852 0.000000
# 4 0.000000 0.000000 0.000000 -0.972830 0.000000 0.218710
# 5 -0.001864 -0.002933 -0.002852 0.000000 0.025141 0.000000
# 6 0.000000 0.000000 0.000000 0.218710 0.000000 -0.005591
#
#
# Mechanical properties :
#
#
# Convention : Reuss Voigt Hill
#
# Bulk Modulus (GPa) = 54.98210 68.37323 61.67766
# Shear Modulus (GPa) = -5.66051 25.80625 10.07287
#
# Velocity S-wave (km/s) = -1.73130 3.69665 2.30952
# Velocity P-wave (km/s) = 5.01180 7.37740 6.30651
#
# Compressibility (1/GPa) = 0.01818774
#
# Stress axis : x y z
#
# Youngs Moduli (GPa) = 71.13832 86.62899 64.74466
#
# Poissons Ratio (x) = 0.45056 0.17156
# Poissons Ratio (y) = 0.36999 0.23168
# Poissons Ratio (z) = 0.18850 0.30999
#
# Static dielectric constant tensor:
#      x y z
#    x 1.725070 0.000000 -0.005160 
#    y 0.000000 1.673600 0.000000 
#    z -0.005160 0.000000 1.678300 
# 
# From -- ./inp_files/27902.got.cif
#   From: 2010.05.17/outbox.cif.g08.bks.cpg/sg5_14_cif.got.tgz:27902.got - 2010.06.03 18:56:24.
