data_PCOD9120366
_publ_section_title
;
Structure prediction by ZEFSAII (Michael W. Deem and Ramdas Pophale) SiO2 
 PCOD9120366
Probable space group: C 2
;
_chemical_formula_sum "Si O2"
_cell_formula_units_Z 32
_cell_length_a 13.872924
_cell_length_b 17.488208
_cell_length_c 11.444195
_cell_angle_alpha 90.000000
_cell_angle_beta 147.942635
_cell_angle_gamma 90.000000
_cell_volume 1473.680565
_symmetry_space_group_name_H-M "C 2"
_symmetry_group_IT_number 5
_symmetry_cell_setting 'monoclinic'
loop_
_space_group_symop_operation_xyz
x,y,z
-x,y,-z
1/2+x,1/2+y,z
1/2-x,1/2+y,-z
loop_
_atom_site_type_symbol
_atom_site_label
_atom_site_fract_x
_atom_site_fract_y
_atom_site_fract_z
Si Si1 0.417187 0.589580 0.790533
Si Si2 0.183675 0.384261 0.933018
Si Si3 0.391830 0.540859 0.513190
Si Si4 0.079841 0.482775 0.452590
Si Si5 0.905714 0.264640 0.729848
Si Si6 0.577648 0.374023 0.450955
Si Si7 0.702112 0.353137 0.208770
Si Si8 0.177087 0.197900 0.602653
O O1 0.496841 0.564415 0.743263
O O2 0.217927 0.551877 0.572639
O O3 0.419184 0.681629 0.803819
O O4 0.500000 0.560959 0.000000
O O5 0.196119 0.360345 0.809651
O O6 0.071834 0.463542 0.800905
O O7 0.071928 0.325465 0.901131
O O8 0.393376 0.384485 0.186824
O O9 0.500000 0.534613 0.500000
O O10 0.319906 0.455404 0.454841
O O11 0.257389 0.612306 0.355032
O O12 0.193532 0.403673 0.587817
O O13 0.000000 0.498165 0.500000
O O14 0.718590 0.307653 0.566675
O O15 0.895964 0.236540 0.588315
O O16 0.500000 0.361423 0.500000
O O17 0.692280 0.262828 0.218076
O O18 0.500000 0.384605 0.000000
O O19 0.000000 0.190773 0.500000
#
# Coordination Sequence:
#
# PCOD9120366 Si02
#       8
#     4   4   4   4   4   4   4   4
#     4  11  25  41  71 104 139 186 228 295 356 411
#     4  11  23  40  71 103 131 184 230 293 354 414
#     4   9  22  42  67  89 130 180 226 282 340 407
#     4  10  22  40  65 105 142 169 232 294 352 416
#     4  11  23  43  65  97 144 180 227 279 347 426
#     4  11  26  45  69  94 133 189 240 283 343 425
#     4  11  20  34  69 107 136 171 223 292 355 408
#     4  10  17  38  64  92 129 168 218 280 341 400
#
# _framework density 21.71434
#
# number of rings (size 3 to 8) (size 9 to 14) (size 15 to 20)
#    0.000    1.500    2.500    2.250    7.000    0.500 
#    0.000    0.000   22.000    0.000    0.000    0.000 
#    0.000    0.000    0.000    0.000    0.000    0.000 
#
# Total GULP energy -89073.728561 kJ/mol
# GULP energy per Si atom -5567.108035 kJ/mol
# Density = 2.166492 g / cm^3
# Si number density = 21.714340 Si / 1000 Ang^3
#
#
#
# Elastic Constant Matrix: (Units=GPa)
#
#
# Indices 1 2 3 4 5 6 
#
# 1 89.0916 49.9102 37.8481 0.0000 -11.4918 0.0000
# 2 49.9102 116.6807 12.4959 0.0000 3.6807 0.0000
# 3 37.8481 12.4959 53.6172 0.0000 0.5738 0.0000
# 4 0.0000 0.0000 0.0000 12.8096 0.0000 4.3774
# 5 -11.4918 3.6807 0.5738 0.0000 33.5934 0.0000
# 6 0.0000 0.0000 0.0000 4.3774 0.0000 34.5625
#
#
#
# Elastic Compliance Matrix: (Units=1/GPa)
#
#
# Indices 1 2 3 4 5 6 
#
# 1 0.023614 -0.008818 -0.014713 0.000000 0.009296 0.000000
# 2 -0.008818 0.012112 0.003449 0.000000 -0.004403 0.000000
# 3 -0.014713 0.003449 0.028296 0.000000 -0.005895 0.000000
# 4 0.000000 0.000000 0.000000 0.081598 0.000000 -0.010334
# 5 0.009296 -0.004403 -0.005895 0.000000 0.033531 0.000000
# 6 0.000000 0.000000 0.000000 -0.010334 0.000000 0.030242
#
#
# Mechanical properties :
#
#
# Convention : Reuss Voigt Hill
#
# Bulk Modulus (GPa) = 41.91647 51.09977 46.50812
# Shear Modulus (GPa) = 19.41667 26.80212 23.10940
#
# Velocity S-wave (km/s) = 2.99354 3.51708 3.26582
# Velocity P-wave (km/s) = 5.59409 6.33064 5.97373
#
# Compressibility (1/GPa) = 0.02385697
#
# Stress axis : x y z
#
# Youngs Moduli (GPa) = 42.34733 82.56285 35.34055
#
# Poissons Ratio (x) = 0.72808 0.51998
# Poissons Ratio (y) = 0.37344 -0.12190
# Poissons Ratio (z) = 0.62308 -0.28478
#
# Static dielectric constant tensor:
#      x y z
#    x 1.861090 0.000000 -0.043550 
#    y 0.000000 1.826220 0.000000 
#    z -0.043550 0.000000 1.826210 
# 
# From -- ./inp_files/43387.got.cif
#   From: 2010.05.17/outbox.cif.g08.bks.cpg/sg5_22_cif.got.tgz:43387.got - 2010.06.03 18:56:24.
