data_PCOD9120576
_publ_section_title
;
Structure prediction by ZEFSAII (Michael W. Deem and Ramdas Pophale) SiO2 
 PCOD9120576
Probable space group: C 2
;
_chemical_formula_sum "Si O2"
_cell_formula_units_Z 30
_cell_length_a 18.727883
_cell_length_b 13.443317
_cell_length_c 12.732512
_cell_angle_alpha 90.000000
_cell_angle_beta 154.429265
_cell_angle_gamma 90.000000
_cell_volume 1383.616957
_symmetry_space_group_name_H-M "C 2"
_symmetry_group_IT_number 5
_symmetry_cell_setting 'monoclinic'
loop_
_space_group_symop_operation_xyz
x,y,z
-x,y,-z
1/2+x,1/2+y,z
1/2-x,1/2+y,-z
loop_
_atom_site_type_symbol
_atom_site_label
_atom_site_fract_x
_atom_site_fract_y
_atom_site_fract_z
Si Si1 0.500000 0.064641 0.500000
Si Si2 0.649133 0.582428 0.123357
Si Si3 0.640710 0.724697 0.536682
Si Si4 0.401654 0.359789 0.270310
Si Si5 0.572612 0.520440 0.361905
Si Si6 0.384850 0.997683 0.127061
Si Si7 0.242258 0.214052 0.902501
Si Si8 0.770531 0.425888 0.448964
O O1 0.338578 0.117418 0.342499
O O2 0.420033 0.998354 0.300035
O O3 0.685869 0.481200 0.237227
O O4 0.500000 0.631085 0.000000
O O5 0.564229 0.565402 0.898676
O O6 0.675150 0.614521 0.538840
O O7 0.733276 0.742749 0.769077
O O8 0.443837 0.726420 0.299852
O O9 0.688080 0.813099 0.522338
O O10 0.500000 0.320430 0.500000
O O11 0.497063 0.457064 0.355216
O O12 0.221458 0.405027 0.053520
O O13 0.369933 0.279125 0.138594
O O14 0.665333 0.441886 0.412285
O O15 0.563057 0.988451 0.312817
O O16 0.295378 0.100005 0.982714
#
# Coordination Sequence:
#
# PCOD9120576 Si02
#       8
#     2   4   4   4   4   4   4   4
#     4  10  18  32  66  88 126 174 218 272 328 392
#     4   9  18  34  60  96 125 171 215 270 326 392
#     4  11  22  41  71  99 129 176 225 276 337 401
#     4  12  24  41  64  95 134 175 221 278 339 393
#     4  11  22  42  66  95 141 175 217 279 341 395
#     4  11  22  40  64  96 132 173 226 270 338 399
#     4  11  24  40  69 103 129 168 234 279 328 403
#     4  10  23  40  67  97 134 176 226 270 331 410
#
# _framework density 21.682302
#
# number of rings (size 3 to 8) (size 9 to 14) (size 15 to 20)
#    0.000    1.333    4.000    1.600    2.800    1.067 
#    0.000    4.000    2.933    0.000    0.000    0.000 
#    0.000    0.000    0.000    0.000    0.000    0.000 
#
# Total GULP energy -83701.123433 kJ/mol
# GULP energy per Si atom -5580.074896 kJ/mol
# Density = 2.163295 g / cm^3
# Si number density = 21.682302 Si / 1000 Ang^3
#
#
#
# Elastic Constant Matrix: (Units=GPa)
#
#
# Indices 1 2 3 4 5 6 
#
# 1 75.5731 19.0297 38.4936 0.0000 8.2974 0.0000
# 2 19.0297 88.3331 26.9537 0.0000 -3.3574 0.0000
# 3 38.4936 26.9537 115.2642 0.0000 -8.9330 0.0000
# 4 0.0000 0.0000 0.0000 13.7181 0.0000 11.6707
# 5 8.2974 -3.3574 -8.9330 0.0000 25.7808 0.0000
# 6 0.0000 0.0000 0.0000 11.6707 0.0000 18.4691
#
#
#
# Elastic Compliance Matrix: (Units=1/GPa)
#
#
# Indices 1 2 3 4 5 6 
#
# 1 0.017770 -0.002298 -0.006025 0.000000 -0.008106 0.000000
# 2 -0.002298 0.012497 -0.002026 0.000000 0.001665 0.000000
# 3 -0.006025 -0.002026 0.011603 0.000000 0.005696 0.000000
# 4 0.000000 0.000000 0.000000 0.157648 0.000000 -0.099619
# 5 -0.008106 0.001665 0.005696 0.000000 0.043588 0.000000
# 6 0.000000 0.000000 0.000000 -0.099619 0.000000 0.117094
#
#
# Mechanical properties :
#
#
# Convention : Reuss Voigt Hill
#
# Bulk Modulus (GPa) = 47.23193 49.79161 48.51177
# Shear Modulus (GPa) = 12.88806 24.57314 18.73060
#
# Velocity S-wave (km/s) = 2.44069 3.37014 2.94235
# Velocity P-wave (km/s) = 5.45651 6.17720 5.82801
#
# Compressibility (1/GPa) = 0.02117212
#
# Stress axis : x y z
#
# Youngs Moduli (GPa) = 56.27514 80.01740 86.18358
#
# Poissons Ratio (x) = 0.18386 0.51928
# Poissons Ratio (y) = 0.12930 0.17461
# Poissons Ratio (z) = 0.33908 0.16212
#
# Static dielectric constant tensor:
#      x y z
#    x 1.812000 0.000000 0.020880 
#    y 0.000000 1.781680 0.000000 
#    z 0.020880 0.000000 1.809600 
# 
# From -- ./inp_files/44907.got.cif
#   From: 2010.05.17/outbox.cif.g08.bks.cpg/sg5_23_cif.got.tgz:44907.got - 2010.06.03 18:56:24.
