data_PCOD9120168
_publ_section_title
;
Structure prediction by ZEFSAII (Michael W. Deem and Ramdas Pophale) SiO2 
 PCOD9120168
Probable space group: C 2
;
_chemical_formula_sum "Si O2"
_cell_formula_units_Z 32
_cell_length_a 21.001538
_cell_length_b 7.183473
_cell_length_c 8.908734
_cell_angle_alpha 90.000000
_cell_angle_beta 100.652991
_cell_angle_gamma 90.000000
_cell_volume 1320.842845
_symmetry_space_group_name_H-M "C 2"
_symmetry_group_IT_number 5
_symmetry_cell_setting 'monoclinic'
loop_
_space_group_symop_operation_xyz
x,y,z
-x,y,-z
1/2+x,1/2+y,z
1/2-x,1/2+y,-z
loop_
_atom_site_type_symbol
_atom_site_label
_atom_site_fract_x
_atom_site_fract_y
_atom_site_fract_z
Si Si1 0.440779 0.646410 0.048971
Si Si2 0.967938 0.210098 0.632754
Si Si3 0.171038 0.160253 0.505182
Si Si4 0.194716 0.589690 0.605742
Si Si5 0.689617 0.019407 0.937798
Si Si6 0.560524 0.145335 0.422319
Si Si7 0.571345 0.057190 0.087776
Si Si8 0.178053 0.086017 0.846770
O O1 0.475507 0.713224 0.218387
O O2 0.380681 0.523517 0.072667
O O3 0.500000 0.537260 0.000000
O O4 0.425448 0.824558 0.931851
O O5 0.895548 0.124597 0.616009
O O6 0.952479 0.423237 0.587608
O O7 0.000000 0.122284 0.500000
O O8 0.177562 0.376768 0.555189
O O9 0.170086 0.059619 0.666497
O O10 0.236688 0.124113 0.442964
O O11 0.201621 0.620360 0.785908
O O12 0.129816 0.693319 0.523548
O O13 0.674525 0.808304 0.881161
O O14 0.630963 0.104688 0.006710
O O15 0.753099 0.018605 0.066577
O O16 0.500000 0.215016 0.500000
O O17 0.572201 0.163026 0.247539
O O18 0.500000 0.094778 0.000000
#
# Coordination Sequence:
#
# PCOD9120168 Si02
#       8
#     4   4   4   4   4   4   4   4
#     4  10  18  29  50  81 106 135 182 224 276 318
#     4  10  17  30  51  78 107 137 176 230 271 317
#     4  10  21  36  55  80 113 144 181 223 276 325
#     4  10  22  35  54  83 109 147 183 223 272 328
#     4  10  22  35  55  81 113 143 184 222 276 325
#     4  10  18  29  51  76 107 137 176 225 271 314
#     4  10  17  30  49  78 107 136 174 226 272 316
#     4  10  21  37  53  81 112 146 178 227 272 330
#
# _framework density 24.226953000000002
#
# number of rings (size 3 to 8) (size 9 to 14) (size 15 to 20)
#    0.000    2.000    3.750    1.500    5.250    2.000 
#    0.000    0.000    0.000    1.500    3.250    0.000 
#    0.000    0.000    0.000    0.000    0.000    0.000 
#
# Total GULP energy -89216.417027 kJ/mol
# GULP energy per Si atom -5576.026064 kJ/mol
# Density = 2.417181 g / cm^3
# Si number density = 24.226953 Si / 1000 Ang^3
#
#
#
# Elastic Constant Matrix: (Units=GPa)
#
#
# Indices 1 2 3 4 5 6 
#
# 1 130.1063 10.5894 16.6999 0.0000 -18.9869 0.0000
# 2 10.5894 70.3910 21.5969 0.0000 5.0018 0.0000
# 3 16.6999 21.5969 97.7460 0.0000 -10.7437 0.0000
# 4 0.0000 0.0000 0.0000 10.9189 0.0000 10.7257
# 5 -18.9869 5.0018 -10.7437 0.0000 54.2376 0.0000
# 6 0.0000 0.0000 0.0000 10.7257 0.0000 -3.9965
#
#
#
# Elastic Compliance Matrix: (Units=1/GPa)
#
#
# Indices 1 2 3 4 5 6 
#
# 1 0.008307 -0.001194 -0.000842 0.000000 0.002851 0.000000
# 2 -0.001194 0.015653 -0.003536 0.000000 -0.002562 0.000000
# 3 -0.000842 -0.003536 0.011408 0.000000 0.002291 0.000000
# 4 0.000000 0.000000 0.000000 0.025186 0.000000 0.067594
# 5 0.002851 -0.002562 0.002291 0.000000 0.020126 0.000000
# 6 0.000000 0.000000 0.000000 0.067594 0.000000 -0.068812
#
#
# Mechanical properties :
#
#
# Convention : Reuss Voigt Hill
#
# Bulk Modulus (GPa) = 41.28212 44.00175 42.64193
# Shear Modulus (GPa) = 160.83892 28.85581 94.84737
#
# Velocity S-wave (km/s) = 8.15675 3.45492 6.26375
# Velocity P-wave (km/s) = 10.28527 5.84098 8.36373
#
# Compressibility (1/GPa) = 0.02422356
#
# Stress axis : x y z
#
# Youngs Moduli (GPa) = 120.37436 63.88576 87.66105
#
# Poissons Ratio (x) = 0.07628 0.07382
# Poissons Ratio (y) = 0.14373 0.30998
# Poissons Ratio (z) = 0.10137 0.22591
#
# Static dielectric constant tensor:
#      x y z
#    x 1.951890 0.000000 -0.060430 
#    y 0.000000 2.041960 0.000000 
#    z -0.060430 0.000000 2.041810 
# 
# From -- ./inp_files/27280.got.cif
#   From: 2010.05.17/outbox.cif.g08.bks.cpg/sg5_14_cif.got.tgz:27280.got - 2010.06.03 18:56:24.
