data_PCOD9120433
_publ_section_title
;
Structure prediction by ZEFSAII (Michael W. Deem and Ramdas Pophale) SiO2 
 PCOD9120433
Probable space group: C 2
;
_chemical_formula_sum "Si O2"
_cell_formula_units_Z 24
_cell_length_a 14.196916
_cell_length_b 8.404081
_cell_length_c 19.814264
_cell_angle_alpha 90.000000
_cell_angle_beta 24.854344
_cell_angle_gamma 90.000000
_cell_volume 993.653372
_symmetry_space_group_name_H-M "C 2"
_symmetry_group_IT_number 5
_symmetry_cell_setting 'monoclinic'
loop_
_space_group_symop_operation_xyz
x,y,z
-x,y,-z
1/2+x,1/2+y,z
1/2-x,1/2+y,-z
loop_
_atom_site_type_symbol
_atom_site_label
_atom_site_fract_x
_atom_site_fract_y
_atom_site_fract_z
Si Si1 0.909392 0.901840 0.344652
Si Si2 0.864886 0.165643 0.874477
Si Si3 0.107661 0.108145 0.516003
Si Si4 0.001762 0.494535 0.180662
Si Si5 0.261755 0.128754 0.837014
Si Si6 0.252750 0.793462 0.806586
O O1 0.728782 0.778019 0.437109
O O2 0.101963 0.792560 0.254310
O O3 0.827376 0.013716 0.458185
O O4 0.995410 0.004080 0.225100
O O5 0.945366 0.309573 0.869232
O O6 0.888185 0.241794 0.785431
O O7 0.612767 0.108844 0.053007
O O8 0.243421 0.012089 0.370601
O O9 0.849945 0.165296 0.690635
O O10 0.156761 0.554171 0.143956
O O11 0.299393 0.979630 0.761415
O O12 0.000000 0.163902 0.000000
O O13 0.000000 0.787276 0.000000
#
# Coordination Sequence:
#
# PCOD9120433 Si02
#       6
#     4   4   4   4   4   4
#     4  10  18  30  50  76 104 134 173 213 248 298
#     4  10  20  34  53  77 106 135 170 210 255 307
#     4  10  18  30  50  77 102 133 174 211 249 298
#     4  10  19  33  53  79 105 135 171 209 254 302
#     4   9  18  32  52  77 104 134 169 208 252 302
#     4   9  19  35  54  76 104 137 170 209 258 305
#
# _framework density 24.153292
#
# number of rings (size 3 to 8) (size 9 to 14) (size 15 to 20)
#    0.000    2.333    0.000    6.000    0.000    2.667 
#    0.000    0.833    0.000    0.000    0.000   44.333 
#    0.000    0.000    0.000    0.000    0.000    0.000 
#
# Total GULP energy -66837.909803 kJ/mol
# GULP energy per Si atom -5569.825817 kJ/mol
# Density = 2.409832 g / cm^3
# Si number density = 24.153292 Si / 1000 Ang^3
#
#
#
# Elastic Constant Matrix: (Units=GPa)
#
#
# Indices 1 2 3 4 5 6 
#
# 1 27.8494 -6.7259 1.5722 -0.0141 -2.4119 0.0043
# 2 -6.7259 128.6634 70.0194 -0.0182 6.3295 0.0015
# 3 1.5722 70.0194 144.5387 -0.0257 -6.8485 0.0051
# 4 -0.0141 -0.0182 -0.0257 47.6767 0.0012 10.5799
# 5 -2.4119 6.3295 -6.8485 0.0012 25.3952 -0.0021
# 6 0.0043 0.0015 0.0051 10.5799 -0.0021 8.5168
#
#
#
# Elastic Compliance Matrix: (Units=1/GPa)
#
#
# Indices 1 2 3 4 5 6 
#
# 1 0.036849 0.002667 -0.001579 0.000021 0.002409 -0.000043
# 2 0.002667 0.011178 -0.005636 0.000003 -0.004053 -0.000005
# 3 -0.001579 -0.005636 0.009851 0.000005 0.003912 -0.000009
# 4 0.000021 0.000003 0.000005 0.028957 -0.000002 -0.035972
# 5 0.002409 -0.004053 0.003912 -0.000002 0.041671 0.000010
# 6 -0.000043 -0.000005 -0.000009 -0.035972 0.000010 0.162100
#
#
# Mechanical properties :
#
#
# Convention : Reuss Voigt Hill
#
# Bulk Modulus (GPa) = 20.49889 47.86477 34.18183
# Shear Modulus (GPa) = 15.82457 32.06346 23.94402
#
# Velocity S-wave (km/s) = 2.56241 3.64744 3.15196
# Velocity P-wave (km/s) = 4.15452 6.13176 5.23730
#
# Compressibility (1/GPa) = 0.04878313
#
# Stress axis : x y z
#
# Youngs Moduli (GPa) = 27.13761 89.45965 101.50830
#
# Poissons Ratio (x) = -0.23858 0.16024
# Poissons Ratio (y) = -0.07237 0.57212
# Poissons Ratio (z) = 0.04284 0.50421
#
# Static dielectric constant tensor:
#      x y z
#    x 2.007460 0.000000 -0.003710 
#    y 0.000000 1.975240 0.000000 
#    z -0.003710 0.000000 2.002510 
# 
# From -- ./inp_files/26446.got.cif
#   From: 2010.05.17/outbox.cif.g08.bks.cpg/sg5_14_cif.got.tgz:26446.got - 2010.06.03 18:56:24.
