data_PCOD9120856
_publ_section_title
;
Structure prediction by ZEFSAII (Michael W. Deem and Ramdas Pophale) SiO2 
 PCOD9120856
Probable space group: C 2
;
_chemical_formula_sum "Si O2"
_cell_formula_units_Z 26
_cell_length_a 18.622976
_cell_length_b 9.702578
_cell_length_c 8.486138
_cell_angle_alpha 90.000000
_cell_angle_beta 125.387969
_cell_angle_gamma 90.000000
_cell_volume 1250.077137
_symmetry_space_group_name_H-M "C 2"
_symmetry_group_IT_number 5
_symmetry_cell_setting 'monoclinic'
loop_
_space_group_symop_operation_xyz
x,y,z
-x,y,-z
1/2+x,1/2+y,z
1/2-x,1/2+y,-z
loop_
_atom_site_type_symbol
_atom_site_label
_atom_site_fract_x
_atom_site_fract_y
_atom_site_fract_z
Si Si1 0.793971 0.424780 0.563763
Si Si2 0.772766 0.215528 0.012251
Si Si3 0.693524 0.651273 0.290467
Si Si4 0.500000 0.584463 0.000000
Si Si5 0.465572 0.595963 0.292950
Si Si6 0.161753 0.498536 0.020249
Si Si7 0.019155 0.414246 0.345193
O O1 0.713725 0.502966 0.383243
O O2 0.777802 0.262317 0.545746
O O3 0.809561 0.466698 0.765125
O O4 0.884013 0.455113 0.586121
O O5 0.757436 0.176086 0.810568
O O6 0.792763 0.379083 0.033067
O O7 0.862552 0.135010 0.174828
O O8 0.695228 0.149115 0.013967
O O9 0.590165 0.670866 0.124709
O O10 0.487668 0.516856 0.157666
O O11 0.500000 0.533005 0.500000
O O12 0.511426 0.746940 0.333561
O O13 0.058184 0.474148 0.862357
O O14 0.000000 0.457355 0.500000
#
# Coordination Sequence:
#
# PCOD9120856 Si02
#       7
#     4   4   4   2   4   4   4
#     4  11  22  36  62  90 118 157 202 249 302 364
#     4   9  20  36  54  86 117 154 192 252 301 349
#     4  10  22  37  61  87 124 154 202 253 303 358
#     4  10  18  36  58  82 122 154 194 260 288 352
#     4   9  18  30  56  83 109 147 203 241 288 353
#     4  10  21  35  60  85 120 154 200 250 298 359
#     4  10  19  33  57  83 114 155 200 243 292 360
#
# _framework density 20.798717
#
# number of rings (size 3 to 8) (size 9 to 14) (size 15 to 20)
#    0.000    2.154    1.538    2.308    2.154    2.462 
#    0.000    0.000   10.154    0.923    0.000    0.000 
#    0.000    0.000    0.000    0.000    0.000    0.000 
#
# Total GULP energy -72505.596564 kJ/mol
# GULP energy per Si atom -5577.353582 kJ/mol
# Density = 2.075138 g / cm^3
# Si number density = 20.798717 Si / 1000 Ang^3
#
#
#
# Elastic Constant Matrix: (Units=GPa)
#
#
# Indices 1 2 3 4 5 6 
#
# 1 66.6251 8.1809 7.5911 0.0000 -13.2993 0.0000
# 2 8.1809 34.5508 6.8738 0.0000 8.1832 0.0000
# 3 7.5911 6.8738 68.3735 0.0000 -10.9264 0.0000
# 4 0.0000 0.0000 0.0000 16.4137 0.0000 -2.7664
# 5 -13.2993 8.1832 -10.9264 0.0000 27.0446 0.0000
# 6 0.0000 0.0000 0.0000 -2.7664 0.0000 17.5159
#
#
#
# Elastic Compliance Matrix: (Units=1/GPa)
#
#
# Indices 1 2 3 4 5 6 
#
# 1 0.018052 -0.007025 0.000492 0.000000 0.011202 0.000000
# 2 -0.007025 0.035570 -0.005418 0.000000 -0.016406 0.000000
# 3 0.000492 -0.005418 0.016480 0.000000 0.008540 0.000000
# 4 0.000000 0.000000 0.000000 0.062591 0.000000 0.009886
# 5 0.011202 -0.016406 0.008540 0.000000 0.050899 0.000000
# 6 0.000000 0.000000 0.000000 0.009886 0.000000 0.058652
#
#
# Mechanical properties :
#
#
# Convention : Reuss Voigt Hill
#
# Bulk Modulus (GPa) = 21.64489 23.87121 22.75805
# Shear Modulus (GPa) = 17.75909 21.98842 19.87375
#
# Velocity S-wave (km/s) = 2.92525 3.25499 3.09451
# Velocity P-wave (km/s) = 4.67321 5.06249 4.87174
#
# Compressibility (1/GPa) = 0.04620029
#
# Stress axis : x y z
#
# Youngs Moduli (GPa) = 55.39577 28.11366 60.67870
#
# Poissons Ratio (x) = 0.19751 -0.02986
# Poissons Ratio (y) = 0.38917 0.32874
# Poissons Ratio (z) = -0.02726 0.15231
#
# Static dielectric constant tensor:
#      x y z
#    x 1.772540 0.000000 -0.038660 
#    y 0.000000 1.736350 0.000000 
#    z -0.038660 0.000000 1.774530 
# 
# From -- ./inp_files/23533.got.cif
#   From: 2010.05.17/outbox.cif.g08.bks.cpg/sg5_12_cif.got.tgz:23533.got - 2010.06.03 18:56:24.
