data_PCOD9120390
_publ_section_title
;
Structure prediction by ZEFSAII (Michael W. Deem and Ramdas Pophale) SiO2 
 PCOD9120390
Probable space group: C 2
;
_chemical_formula_sum "Si O2"
_cell_formula_units_Z 20
_cell_length_a 12.032264
_cell_length_b 11.693361
_cell_length_c 5.803516
_cell_angle_alpha 90.000000
_cell_angle_beta 76.707881
_cell_angle_gamma 90.000000
_cell_volume 794.666097
_symmetry_space_group_name_H-M "C 2"
_symmetry_group_IT_number 5
_symmetry_cell_setting 'monoclinic'
loop_
_space_group_symop_operation_xyz
x,y,z
-x,y,-z
1/2+x,1/2+y,z
1/2-x,1/2+y,-z
loop_
_atom_site_type_symbol
_atom_site_label
_atom_site_fract_x
_atom_site_fract_y
_atom_site_fract_z
Si Si1 0.500000 0.341800 0.500000
Si Si2 0.000000 0.726325 0.000000
Si Si3 0.000000 0.128696 0.000000
Si Si4 0.159991 0.574595 0.154397
Si Si5 0.000000 0.404920 0.500000
Si Si6 0.683505 0.721659 0.613863
Si Si7 0.351254 0.521641 0.733744
O O1 0.506962 0.287525 0.750887
O O2 0.377957 0.410147 0.575466
O O3 0.889767 0.647585 0.030491
O O4 0.029073 0.050348 0.200475
O O5 0.892843 0.202983 0.119081
O O6 0.198858 0.667468 0.329635
O O7 0.062988 0.489413 0.291023
O O8 0.263985 0.505894 0.986272
O O9 0.891629 0.329720 0.453576
O O10 0.671065 0.629608 0.415020
#
# Coordination Sequence:
#
# PCOD9120390 Si02
#       7
#     2   2   2   4   2   4   4
#     4  12  26  50  88 116 162 228 264 354 442 486
#     4  12  31  57  72 118 182 212 281 359 420 510
#     4  10  17  43  74 114 168 200 265 363 398 500
#     4  11  31  52  79 117 172 221 285 357 418 518
#     4  12  26  58  86 118 174 234 278 358 442 498
#     4  11  24  49  83 120 163 213 285 344 424 514
#     4  11  23  47  79 123 160 208 291 348 412 531
#
# _framework density 25.167804
#
# number of rings (size 3 to 8) (size 9 to 14) (size 15 to 20)
#    0.000    0.800    4.000    1.200    8.400    4.000 
#    0.000    0.000    0.000    0.000    0.000    0.000 
#    0.000    0.000    0.000    0.000    0.000    0.000 
#
# Total GULP energy -55669.882664 kJ/mol
# GULP energy per Si atom -5566.988266 kJ/mol
# Density = 2.511052 g / cm^3
# Si number density = 25.167804 Si / 1000 Ang^3
#
#
#
# Elastic Constant Matrix: (Units=GPa)
#
#
# Indices 1 2 3 4 5 6 
#
# 1 88.7949 41.4821 49.5900 0.0000 19.8437 0.0000
# 2 41.4821 111.5051 61.1461 0.0000 -3.7716 0.0000
# 3 49.5900 61.1461 143.3119 0.0000 -11.3207 0.0000
# 4 0.0000 0.0000 0.0000 29.8331 0.0000 -13.1113
# 5 19.8437 -3.7716 -11.3207 0.0000 55.0055 0.0000
# 6 0.0000 0.0000 0.0000 -13.1113 0.0000 7.9511
#
#
#
# Elastic Compliance Matrix: (Units=1/GPa)
#
#
# Indices 1 2 3 4 5 6 
#
# 1 0.017673 -0.004110 -0.004968 0.000000 -0.007680 0.000000
# 2 -0.004110 0.012666 -0.003859 0.000000 0.001557 0.000000
# 3 -0.004968 -0.003859 0.010637 0.000000 0.003717 0.000000
# 4 0.000000 0.000000 0.000000 0.121762 0.000000 0.200784
# 5 -0.007680 0.001557 0.003717 0.000000 0.021822 0.000000
# 6 0.000000 0.000000 0.000000 0.200784 0.000000 0.456858
#
#
# Mechanical properties :
#
#
# Convention : Reuss Voigt Hill
#
# Bulk Modulus (GPa) = 66.21915 72.00536 69.11225
# Shear Modulus (GPa) = 7.43686 31.31755 19.37720
#
# Velocity S-wave (km/s) = 1.72085 3.53136 2.77775
# Velocity P-wave (km/s) = 5.50605 6.73050 6.14883
#
# Compressibility (1/GPa) = 0.01510137
#
# Stress axis : x y z
#
# Youngs Moduli (GPa) = 56.58331 78.95161 94.01022
#
# Poissons Ratio (x) = 0.32449 0.46709
# Poissons Ratio (y) = 0.23255 0.36278
# Poissons Ratio (z) = 0.28113 0.30467
#
# Static dielectric constant tensor:
#      x y z
#    x 2.191910 0.000000 0.010690 
#    y 0.000000 2.168190 0.000000 
#    z 0.010690 0.000000 1.938000 
# 
# From -- ./inp_files/6512.got.cif
#   From: 2010.05.17/outbox.cif.g08.bks.cpg/sg5_4_cif.got.tgz:6512.got - 2010.06.03 18:56:24.
