data_PCOD9120488
_publ_section_title
;
Structure prediction by ZEFSAII (Michael W. Deem and Ramdas Pophale) SiO2 
 PCOD9120488
Probable space group: C 2
;
_chemical_formula_sum "Si O2"
_cell_formula_units_Z 28
_cell_length_a 23.079641
_cell_length_b 10.526874
_cell_length_c 19.909636
_cell_angle_alpha 90.000000
_cell_angle_beta 19.671139
_cell_angle_gamma 90.000000
_cell_volume 1628.294561
_symmetry_space_group_name_H-M "C 2"
_symmetry_group_IT_number 5
_symmetry_cell_setting 'monoclinic'
loop_
_space_group_symop_operation_xyz
x,y,z
-x,y,-z
1/2+x,1/2+y,z
1/2-x,1/2+y,-z
loop_
_atom_site_type_symbol
_atom_site_label
_atom_site_fract_x
_atom_site_fract_y
_atom_site_fract_z
Si Si1 0.817315 0.050050 0.721777
Si Si2 0.039742 0.268227 0.335652
Si Si3 0.968141 0.162545 0.264529
Si Si4 0.837494 0.729426 0.216642
Si Si5 0.077120 0.662893 0.722993
Si Si6 0.656921 0.401782 0.057315
Si Si7 0.636653 0.911910 0.033945
O O1 0.868442 0.170946 0.713302
O O2 0.714190 0.107028 0.771654
O O3 0.000000 0.995091 0.500000
O O4 0.712437 0.951223 0.879957
O O5 0.014858 0.196868 0.291298
O O6 0.847526 0.300146 0.572251
O O7 0.171339 0.381438 0.175150
O O8 0.762791 0.162161 0.486005
O O9 0.043724 0.277181 0.138502
O O10 0.051006 0.027840 0.156086
O O11 0.897134 0.689132 0.225606
O O12 0.000000 0.790950 0.000000
O O13 0.957040 0.775925 0.827818
O O14 0.990612 0.526555 0.807538
O O15 0.716949 0.410080 0.068873
#
# Coordination Sequence:
#
# PCOD9120488 Si02
#       7
#     4   4   4   4   4   4   4
#     4  10  18  33  56  83 107 144 192 232 266 324
#     4   9  18  32  52  82 112 147 188 221 276 334
#     4  10  21  32  53  83 119 149 175 235 291 332
#     4  10  18  31  55  85 111 138 185 250 269 307
#     4  11  21  35  53  85 114 145 193 232 281 327
#     4  11  19  35  54  78 118 151 184 232 278 345
#     4  11  19  35  55  82 111 149 189 230 280 335
#
# _framework density 17.195906999999998
#
# number of rings (size 3 to 8) (size 9 to 14) (size 15 to 20)
#    0.000    1.714    4.286    1.714    0.000    0.000 
#    0.000    0.000    0.000    4.286   11.143    0.000 
#    0.000    0.000    0.000    0.000    0.000    0.000 
#
# Total GULP energy -78082.258458 kJ/mol
# GULP energy per Si atom -5577.304176 kJ/mol
# Density = 1.715677 g / cm^3
# Si number density = 17.195907 Si / 1000 Ang^3
#
#
#
# Elastic Constant Matrix: (Units=GPa)
#
#
# Indices 1 2 3 4 5 6 
#
# 1 45.6057 -9.9692 8.0622 -0.0003 -7.5031 0.0001
# 2 -9.9692 64.5462 44.8185 0.0003 -0.9064 -0.0002
# 3 8.0622 44.8185 137.1669 0.0007 4.2391 -0.0006
# 4 -0.0003 0.0003 0.0007 22.6621 -0.0005 0.5988
# 5 -7.5031 -0.9064 4.2391 -0.0005 27.2237 0.0003
# 6 0.0001 -0.0002 -0.0006 0.5988 0.0003 20.7574
#
#
#
# Elastic Compliance Matrix: (Units=1/GPa)
#
#
# Indices 1 2 3 4 5 6 
#
# 1 0.025396 0.006774 -0.003948 0.000001 0.007840 0.000000
# 2 0.006774 0.021924 -0.007679 0.000000 0.003793 0.000000
# 3 -0.003948 -0.007679 0.010122 0.000000 -0.002920 0.000000
# 4 0.000001 0.000000 0.000000 0.044160 0.000001 -0.001274
# 5 0.007840 0.003793 -0.002920 0.000001 0.039474 -0.000001
# 6 0.000000 0.000000 0.000000 -0.001274 -0.000001 0.048212
#
#
# Mechanical properties :
#
#
# Convention : Reuss Voigt Hill
#
# Bulk Modulus (GPa) = 20.94894 37.01577 28.98235
# Shear Modulus (GPa) = 23.26589 27.75580 25.51084
#
# Velocity S-wave (km/s) = 3.68229 4.02194 3.85586
# Velocity P-wave (km/s) = 5.50345 6.56815 6.05923
#
# Compressibility (1/GPa) = 0.04773511
#
# Stress axis : x y z
#
# Youngs Moduli (GPa) = 39.37682 45.61145 98.79685
#
# Poissons Ratio (x) = -0.30897 0.39008
# Poissons Ratio (y) = -0.26674 0.75866
# Poissons Ratio (z) = 0.15547 0.35025
#
# Static dielectric constant tensor:
#      x y z
#    x 1.586270 0.000000 -0.006600 
#    y 0.000000 1.540750 0.000000 
#    z -0.006600 0.000000 1.641510 
# 
# From -- ./inp_files/28742.got.cif
#   From: 2010.05.17/outbox.cif.g08.bks.cpg/sg5_15_cif.got.tgz:28742.got - 2010.06.03 18:56:24.
