data_PCOD9120450
_publ_section_title
;
Structure prediction by ZEFSAII (Michael W. Deem and Ramdas Pophale) SiO2 
 PCOD9120450
Probable space group: C 2
;
_chemical_formula_sum "Si O2"
_cell_formula_units_Z 30
_cell_length_a 13.916447
_cell_length_b 24.589383
_cell_length_c 5.128137
_cell_angle_alpha 90.000000
_cell_angle_beta 61.729257
_cell_angle_gamma 90.000000
_cell_volume 1545.514718
_symmetry_space_group_name_H-M "C 2"
_symmetry_group_IT_number 5
_symmetry_cell_setting 'monoclinic'
loop_
_space_group_symop_operation_xyz
x,y,z
-x,y,-z
1/2+x,1/2+y,z
1/2-x,1/2+y,-z
loop_
_atom_site_type_symbol
_atom_site_label
_atom_site_fract_x
_atom_site_fract_y
_atom_site_fract_z
Si Si1 0.346615 0.088710 0.772415
Si Si2 0.260498 0.449055 0.573315
Si Si3 0.760100 0.132421 0.611007
Si Si4 0.574054 0.549491 0.658638
Si Si5 0.620315 0.960933 0.256463
Si Si6 0.074713 0.852327 0.656123
Si Si7 0.377355 0.234395 0.285880
Si Si8 0.000000 0.671217 0.500000
O O1 0.316877 0.107031 0.517839
O O2 0.442923 0.127243 0.760375
O O3 0.377767 0.026534 0.735400
O O4 0.251626 0.102939 0.094975
O O5 0.326315 0.506204 0.488896
O O6 0.207180 0.441487 0.358928
O O7 0.346510 0.401498 0.515892
O O8 0.165213 0.447467 0.912200
O O9 0.878205 0.110746 0.370922
O O10 0.718551 0.194869 0.692558
O O11 0.500000 0.545098 0.500000
O O12 0.500000 0.534832 0.000000
O O13 0.500000 0.942574 0.500000
O O14 0.139966 0.798324 0.664960
O O15 0.000000 0.838900 0.500000
O O16 0.000000 0.867841 0.000000
O O17 0.403557 0.210010 0.536067
O O18 0.500000 0.228107 0.000000
#
# Coordination Sequence:
#
# PCOD9120450 Si02
#       8
#     4   4   4   4   4   4   4   2
#     4  11  19  33  53  84 120 150 180 230 299 361
#     4  12  24  41  60  88 123 161 205 252 298 354
#     4  11  22  35  56  85 121 152 193 241 299 356
#     4  12  23  38  58  82 120 164 206 242 287 350
#     4  12  23  39  61  91 124 157 198 245 309 371
#     4  11  23  41  63  90 120 161 208 252 304 358
#     4  10  20  35  59  90 122 149 194 244 316 365
#     4  10  18  30  54  86 124 148 176 230 308 368
#
# _framework density 19.411009
#
# number of rings (size 3 to 8) (size 9 to 14) (size 15 to 20)
#    0.000    0.800    5.333    3.600    0.000    0.000 
#    0.000    0.000    0.000    2.400    0.000    0.000 
#    0.000    0.000    0.000    0.000    0.000    0.000 
#
# Total GULP energy -83582.358298 kJ/mol
# GULP energy per Si atom -5572.157220 kJ/mol
# Density = 1.936683 g / cm^3
# Si number density = 19.411009 Si / 1000 Ang^3
#
#
#
# Elastic Constant Matrix: (Units=GPa)
#
#
# Indices 1 2 3 4 5 6 
#
# 1 54.0810 -1.2616 2.3604 0.0000 2.9195 0.0000
# 2 -1.2616 87.4193 12.1283 0.0000 -13.3953 0.0000
# 3 2.3604 12.1283 91.5897 0.0000 -0.0439 0.0000
# 4 0.0000 0.0000 0.0000 23.3250 0.0000 -9.2974
# 5 2.9195 -13.3953 -0.0439 0.0000 29.8300 0.0000
# 6 0.0000 0.0000 0.0000 -9.2974 0.0000 53.3150
#
#
#
# Elastic Compliance Matrix: (Units=1/GPa)
#
#
# Indices 1 2 3 4 5 6 
#
# 1 0.018610 0.000061 -0.000489 0.000000 -0.001795 0.000000
# 2 0.000061 0.012531 -0.001658 0.000000 0.005619 0.000000
# 3 -0.000489 -0.001658 0.011150 0.000000 -0.000680 0.000000
# 4 0.000000 0.000000 0.000000 0.046075 0.000000 0.008035
# 5 -0.001795 0.005619 -0.000680 0.000000 0.036221 0.000000
# 6 0.000000 0.000000 0.000000 0.008035 0.000000 0.020158
#
#
# Mechanical properties :
#
#
# Convention : Reuss Voigt Hill
#
# Bulk Modulus (GPa) = 26.23253 28.83824 27.53538
# Shear Modulus (GPa) = 30.93616 35.95152 33.44384
#
# Velocity S-wave (km/s) = 3.99650 4.30830 4.15532
# Velocity P-wave (km/s) = 5.90251 6.29583 6.10234
#
# Compressibility (1/GPa) = 0.03812061
#
# Stress axis : x y z
#
# Youngs Moduli (GPa) = 53.73333 79.80194 89.68524
#
# Poissons Ratio (x) = -0.00490 0.04382
# Poissons Ratio (y) = -0.00330 0.14872
# Poissons Ratio (z) = 0.02625 0.13233
#
# Static dielectric constant tensor:
#      x y z
#    x 1.681440 0.000000 0.037400 
#    y 0.000000 1.681850 0.000000 
#    z 0.037400 0.000000 1.786660 
# 
# From -- ./inp_files/5974.got.cif
#   From: 2010.05.17/outbox.cif.g08.bks.cpg/sg5_3_cif.got.tgz:5974.got - 2010.06.03 18:56:24.
