data_PCOD9120884
_publ_section_title
;
Structure prediction by ZEFSAII (Michael W. Deem and Ramdas Pophale) SiO2 
 PCOD9120884
Probable space group: C 2
;
_chemical_formula_sum "Si O2"
_cell_formula_units_Z 30
_cell_length_a 16.558188
_cell_length_b 8.169449
_cell_length_c 12.062847
_cell_angle_alpha 90.000000
_cell_angle_beta 130.139290
_cell_angle_gamma 90.000000
_cell_volume 1247.444550
_symmetry_space_group_name_H-M "C 2"
_symmetry_group_IT_number 5
_symmetry_cell_setting 'monoclinic'
loop_
_space_group_symop_operation_xyz
x,y,z
-x,y,-z
1/2+x,1/2+y,z
1/2-x,1/2+y,-z
loop_
_atom_site_type_symbol
_atom_site_label
_atom_site_fract_x
_atom_site_fract_y
_atom_site_fract_z
Si Si1 0.349042 0.034920 0.547695
Si Si2 0.850235 0.156433 0.750067
Si Si3 0.878040 0.249880 0.427331
Si Si4 0.709932 0.431676 0.123232
Si Si5 0.500000 0.210217 0.500000
Si Si6 0.191517 0.918610 0.717611
Si Si7 0.482534 0.948179 0.854559
Si Si8 0.194162 0.603506 0.984253
O O1 0.231039 0.090241 0.414254
O O2 0.429252 0.116576 0.528855
O O3 0.359470 0.844667 0.524772
O O4 0.391464 0.050573 0.709937
O O5 0.780554 0.299727 0.747731
O O6 0.864725 0.007472 0.848911
O O7 0.956624 0.255352 0.820062
O O8 0.809214 0.353970 0.277569
O O9 0.000000 0.253205 0.500000
O O10 0.839640 0.064032 0.393610
O O11 0.671411 0.284500 0.010508
O O12 0.747869 0.582474 0.080737
O O13 0.584914 0.317613 0.641599
O O14 0.233843 0.011941 0.861803
O O15 0.500000 0.987066 0.000000
O O16 0.587831 0.998866 0.884646
#
# Coordination Sequence:
#
# PCOD9120884 Si02
#       8
#     4   4   4   4   2   4   4   4
#     4  10  23  40  74  97 137 190 241 305 353 443
#     4  10  23  47  67 100 144 193 246 298 372 435
#     4  10  18  36  61 104 137 173 238 300 359 416
#     4  10  23  41  72 105 139 186 239 315 354 437
#     4  10  20  38  66 102 134 178 256 296 362 408
#     4  10  20  36  65  97 144 182 231 311 355 436
#     4  12  26  46  72 102 148 200 235 298 374 446
#     4  11  23  40  73 104 144 186 246 298 380 421
#
# _framework density 24.049163
#
# number of rings (size 3 to 8) (size 9 to 14) (size 15 to 20)
#    0.000    1.600    2.667    1.600    5.600    1.067 
#    2.400    0.667    0.000    0.000    0.000    0.000 
#    0.000    0.000    0.000    0.000    0.000    0.000 
#
# Total GULP energy -83889.455986 kJ/mol
# GULP energy per Si atom -5592.630399 kJ/mol
# Density = 2.399443 g / cm^3
# Si number density = 24.049163 Si / 1000 Ang^3
#
#
#
# Elastic Constant Matrix: (Units=GPa)
#
#
# Indices 1 2 3 4 5 6 
#
# 1 57.7889 27.5477 22.6507 0.0000 10.1894 0.0000
# 2 27.5477 118.1063 32.8231 0.0000 3.8450 0.0000
# 3 22.6507 32.8231 107.1102 0.0000 -12.2638 0.0000
# 4 0.0000 0.0000 0.0000 32.5312 0.0000 -1.4518
# 5 10.1894 3.8450 -12.2638 0.0000 29.5623 0.0000
# 6 0.0000 0.0000 0.0000 -1.4518 0.0000 33.0905
#
#
#
# Elastic Compliance Matrix: (Units=1/GPa)
#
#
# Indices 1 2 3 4 5 6 
#
# 1 0.022513 -0.003644 -0.004702 0.000000 -0.009236 0.000000
# 2 -0.003644 0.010024 -0.002422 0.000000 -0.001053 0.000000
# 3 -0.004702 -0.002422 0.011857 0.000000 0.006855 0.000000
# 4 0.000000 0.000000 0.000000 0.030800 0.000000 0.001351
# 5 -0.009236 -0.001053 0.006855 0.000000 0.039991 0.000000
# 6 0.000000 0.000000 0.000000 0.001351 0.000000 0.030279
#
#
# Mechanical properties :
#
#
# Convention : Reuss Voigt Hill
#
# Bulk Modulus (GPa) = 43.74471 49.89425 46.81948
# Shear Modulus (GPa) = 28.63380 32.36905 30.50142
#
# Velocity S-wave (km/s) = 3.45430 3.67270 3.56518
# Velocity P-wave (km/s) = 5.84284 6.22710 6.03803
#
# Compressibility (1/GPa) = 0.02285991
#
# Stress axis : x y z
#
# Youngs Moduli (GPa) = 44.41942 99.75933 84.33531
#
# Poissons Ratio (x) = 0.36349 0.39652
# Poissons Ratio (y) = 0.16185 0.20424
# Poissons Ratio (z) = 0.20885 0.24160
#
# Static dielectric constant tensor:
#      x y z
#    x 1.941170 0.000000 -0.018490 
#    y 0.000000 1.946370 0.000000 
#    z -0.018490 0.000000 1.968290 
# 
# From -- ./inp_files/47316.got.cif
#   From: 2010.05.17/outbox.cif.g08.bks.cpg/sg5_24_cif.got.tgz:47316.got - 2010.06.03 18:56:24.
