data_PCOD9120626
_publ_section_title
;
Structure prediction by ZEFSAII (Michael W. Deem and Ramdas Pophale) SiO2 
 PCOD9120626
Probable space group: C 2
;
_chemical_formula_sum "Si O2"
_cell_formula_units_Z 26
_cell_length_a 13.081153
_cell_length_b 9.443424
_cell_length_c 20.288383
_cell_angle_alpha 90.000000
_cell_angle_beta 32.028149
_cell_angle_gamma 90.000000
_cell_volume 1329.149791
_symmetry_space_group_name_H-M "C 2"
_symmetry_group_IT_number 5
_symmetry_cell_setting 'monoclinic'
loop_
_space_group_symop_operation_xyz
x,y,z
-x,y,-z
1/2+x,1/2+y,z
1/2-x,1/2+y,-z
loop_
_atom_site_type_symbol
_atom_site_label
_atom_site_fract_x
_atom_site_fract_y
_atom_site_fract_z
Si Si1 0.499373 0.934070 0.209507
Si Si2 0.909978 0.175325 0.747129
Si Si3 0.573171 0.514560 0.044382
Si Si4 0.921822 0.317485 0.979243
Si Si5 0.503943 0.415778 0.221352
Si Si6 0.805837 0.184249 0.647969
Si Si7 0.500000 0.259537 0.000000
O O1 0.485228 0.808862 0.272692
O O2 0.329852 0.049445 0.296929
O O3 0.523996 0.876507 0.121383
O O4 0.711255 0.003227 0.102335
O O5 0.867355 0.187723 0.692027
O O6 0.697769 0.177034 0.896949
O O7 0.006350 0.023852 0.711799
O O8 0.556891 0.516969 0.131223
O O9 0.485164 0.661996 0.071578
O O10 0.478029 0.369188 0.072550
O O11 0.692505 0.315835 0.116257
O O12 0.000000 0.398039 0.000000
O O13 0.318102 0.322087 0.306471
O O14 0.000000 0.177506 0.500000
#
# Coordination Sequence:
#
# PCOD9120626 Si02
#       7
#     4   4   4   4   4   4   2
#     4  10  23  40  60  96 129 166 215 265 321 386
#     4  11  24  41  67  96 130 172 211 273 328 377
#     4  10  18  33  59  94 132 156 195 260 323 387
#     4  11  20  33  63 101 134 161 203 265 335 394
#     4  11  23  40  61  97 132 164 220 261 322 392
#     4  12  27  47  66  89 131 182 224 264 318 388
#     4  10  20  34  62  96 140 160 196 260 338 388
#
# _framework density 19.561378999999999
#
# number of rings (size 3 to 8) (size 9 to 14) (size 15 to 20)
#    0.000    1.231    5.385    0.923    5.385    1.231 
#    0.000    0.769    0.000    0.000    0.000    0.000 
#    0.000    0.000    0.000    0.000    0.000    0.000 
#
# Total GULP energy -72367.833760 kJ/mol
# GULP energy per Si atom -5566.756443 kJ/mol
# Density = 1.951686 g / cm^3
# Si number density = 19.561379 Si / 1000 Ang^3
#
#
#
# Elastic Constant Matrix: (Units=GPa)
#
#
# Indices 1 2 3 4 5 6 
#
# 1 128.4604 59.2255 42.8823 0.0000 8.9190 0.0000
# 2 59.2255 121.7046 40.0550 0.0000 0.9966 0.0000
# 3 42.8823 40.0550 86.6059 -0.0003 -8.9860 -0.0001
# 4 0.0000 0.0000 -0.0003 4.0748 0.0001 -21.1526
# 5 8.9190 0.9966 -8.9860 0.0001 21.1551 0.0001
# 6 0.0000 0.0000 -0.0001 -21.1526 0.0001 24.6764
#
#
#
# Elastic Compliance Matrix: (Units=1/GPa)
#
#
# Indices 1 2 3 4 5 6 
#
# 1 0.011672 -0.004123 -0.004564 0.000000 -0.006665 0.000000
# 2 -0.004123 0.011273 -0.003188 0.000000 -0.000147 0.000000
# 3 -0.004564 -0.003188 0.016210 0.000000 0.008960 0.000000
# 4 0.000000 0.000000 0.000000 -0.071138 0.000000 -0.060979
# 5 -0.006665 -0.000147 0.008960 0.000000 0.053893 0.000000
# 6 0.000000 0.000000 0.000000 -0.060979 0.000000 -0.011747
#
#
# Mechanical properties :
#
#
# Convention : Reuss Voigt Hill
#
# Bulk Modulus (GPa) = 64.90893 69.01072 66.95982
# Shear Modulus (GPa) = 128.04886 22.95515 75.50200
#
# Velocity S-wave (km/s) = 8.09952 3.42935 6.21943
# Velocity P-wave (km/s) = 10.98744 7.14396 9.26714
#
# Compressibility (1/GPa) = 0.01540620
#
# Stress axis : x y z
#
# Youngs Moduli (GPa) = 85.67745 88.70436 61.68993
#
# Poissons Ratio (x) = 0.36575 0.28153
# Poissons Ratio (y) = 0.35327 0.19664
# Poissons Ratio (z) = 0.39101 0.28275
#
# Static dielectric constant tensor:
#      x y z
#    x 1.848890 0.000000 0.040340 
#    y 0.000000 1.763390 0.000000 
#    z 0.040340 0.000000 1.659790 
# 
# From -- ./inp_files/41452.got.cif
#   From: 2010.05.17/outbox.cif.g08.bks.cpg/sg5_21_cif.got.tgz:41452.got - 2010.06.03 18:56:24.
