data_PCOD9120032
_publ_section_title
;
Structure prediction by ZEFSAII (Michael W. Deem and Ramdas Pophale) SiO2 
 PCOD9120032
Probable space group: C 2
;
_chemical_formula_sum "Si O2"
_cell_formula_units_Z 26
_cell_length_a 11.343142
_cell_length_b 11.732317
_cell_length_c 8.665066
_cell_angle_alpha 90.000000
_cell_angle_beta 62.206562
_cell_angle_gamma 90.000000
_cell_volume 1020.123725
_symmetry_space_group_name_H-M "C 2"
_symmetry_group_IT_number 5
_symmetry_cell_setting 'monoclinic'
loop_
_space_group_symop_operation_xyz
x,y,z
-x,y,-z
1/2+x,1/2+y,z
1/2-x,1/2+y,-z
loop_
_atom_site_type_symbol
_atom_site_label
_atom_site_fract_x
_atom_site_fract_y
_atom_site_fract_z
Si Si1 0.059440 0.388630 0.309211
Si Si2 0.798964 0.785927 0.343720
Si Si3 0.643241 0.687270 0.874474
Si Si4 0.732591 0.496434 0.025132
Si Si5 0.842476 0.875784 0.628104
Si Si6 0.909110 0.150027 0.410290
Si Si7 0.000000 0.851701 0.000000
O O1 0.190381 0.323705 0.287638
O O2 0.000000 0.450208 0.500000
O O3 0.961751 0.280299 0.343169
O O4 0.121129 0.460736 0.130310
O O5 0.797933 0.882027 0.477631
O O6 0.741925 0.668284 0.443151
O O7 0.938158 0.778425 0.175223
O O8 0.761474 0.768407 0.746507
O O9 0.603302 0.602283 0.755418
O O10 0.500000 0.742779 0.000000
O O11 0.699419 0.623197 0.989456
O O12 0.703208 0.471359 0.222082
O O13 0.616663 0.424882 0.007863
O O14 0.000000 0.858614 0.500000
O O15 0.000000 0.109247 0.500000
#
# Coordination Sequence:
#
# PCOD9120032 Si02
#       7
#     4   4   4   4   4   4   2
#     4   8  16  33  59  90 118 168 212 260 332 400
#     4   8  16  30  56  90 118 162 208 266 311 400
#     4  11  23  39  60  97 134 169 223 277 330 394
#     4  11  21  35  61  90 129 175 214 273 327 393
#     4  11  22  39  64  98 132 175 225 271 330 398
#     4   8  16  35  59  88 121 160 215 268 326 385
#     4  10  16  32  56  84 116 160 210 252 334 368
#
# _framework density 25.487106000000001
#
# number of rings (size 3 to 8) (size 9 to 14) (size 15 to 20)
#    0.000    2.769    2.308    0.923    0.000    0.615 
#    0.000    3.846    0.000    0.923   10.000    0.000 
#    0.000    0.000    0.000    0.000    0.000    0.000 
#
# Total GULP energy -72430.676604 kJ/mol
# GULP energy per Si atom -5571.590508 kJ/mol
# Density = 2.542910 g / cm^3
# Si number density = 25.487106 Si / 1000 Ang^3
#
#
#
# Elastic Constant Matrix: (Units=GPa)
#
#
# Indices 1 2 3 4 5 6 
#
# 1 63.2537 30.2425 33.8726 0.0000 -7.3018 0.0000
# 2 30.2425 53.0516 62.9577 0.0000 -11.0380 0.0000
# 3 33.8726 62.9577 218.5175 0.0000 -24.5449 0.0000
# 4 0.0000 0.0000 0.0000 49.9743 0.0000 0.1378
# 5 -7.3018 -11.0380 -24.5449 0.0000 62.0314 0.0000
# 6 0.0000 0.0000 0.0000 0.1378 0.0000 9.8510
#
#
#
# Elastic Compliance Matrix: (Units=1/GPa)
#
#
# Indices 1 2 3 4 5 6 
#
# 1 0.021757 -0.012716 0.000340 0.000000 0.000433 0.000000
# 2 -0.012716 0.036294 -0.008297 0.000000 0.001678 0.000000
# 3 0.000340 -0.008297 0.007067 0.000000 0.001360 0.000000
# 4 0.000000 0.000000 0.000000 0.020011 0.000000 -0.000280
# 5 0.000433 0.001678 0.001360 0.000000 0.017009 0.000000
# 6 0.000000 0.000000 0.000000 -0.000280 0.000000 0.101517
#
#
# Mechanical properties :
#
#
# Convention : Reuss Voigt Hill
#
# Bulk Modulus (GPa) = 42.06755 65.44093 53.75424
# Shear Modulus (GPa) = 19.76876 38.22133 28.99504
#
# Velocity S-wave (km/s) = 2.78805 3.87671 3.37654
# Velocity P-wave (km/s) = 5.18706 6.76538 6.02810
#
# Compressibility (1/GPa) = 0.02377129
#
# Stress axis : x y z
#
# Youngs Moduli (GPa) = 45.96220 27.55284 141.50469
#
# Poissons Ratio (x) = 0.35035 -0.04805
# Poissons Ratio (y) = 0.58444 1.17408
# Poissons Ratio (z) = -0.01561 0.22861
#
# Static dielectric constant tensor:
#      x y z
#    x 2.034960 0.000000 -0.006340 
#    y 0.000000 2.098390 0.000000 
#    z -0.006340 0.000000 2.187400 
# 
# From -- ./inp_files/20269.got.cif
#   From: 2010.05.17/outbox.cif.g08.bks.cpg/sg5_11_cif.got.tgz:20269.got - 2010.06.03 18:56:24.
