data_PCOD9120641
_publ_section_title
;
Structure prediction by ZEFSAII (Michael W. Deem and Ramdas Pophale) SiO2 
 PCOD9120641
Probable space group: C 2
;
_chemical_formula_sum "Si O2"
_cell_formula_units_Z 30
_cell_length_a 13.985284
_cell_length_b 5.032355
_cell_length_c 16.578198
_cell_angle_alpha 90.000000
_cell_angle_beta 99.434532
_cell_angle_gamma 90.000000
_cell_volume 1150.973504
_symmetry_space_group_name_H-M "C 2"
_symmetry_group_IT_number 5
_symmetry_cell_setting 'monoclinic'
loop_
_space_group_symop_operation_xyz
x,y,z
-x,y,-z
1/2+x,1/2+y,z
1/2-x,1/2+y,-z
loop_
_atom_site_type_symbol
_atom_site_label
_atom_site_fract_x
_atom_site_fract_y
_atom_site_fract_z
Si Si1 0.626640 0.444630 0.220826
Si Si2 0.792859 0.692645 0.465911
Si Si3 0.853908 0.278035 0.179728
Si Si4 0.943530 0.775815 0.109532
Si Si5 0.683934 0.937237 0.304224
Si Si6 0.500000 0.413282 0.500000
Si Si7 0.503975 0.713864 0.666808
Si Si8 0.294055 0.397681 0.966658
O O1 0.554034 0.356264 0.140695
O O2 0.695685 0.225395 0.269947
O O3 0.545719 0.494006 0.282002
O O4 0.672159 0.737590 0.226974
O O5 0.742354 0.894537 0.522937
O O6 0.760339 0.809108 0.375130
O O7 0.905830 0.731646 0.491876
O O8 0.923556 0.480363 0.139128
O O9 0.897482 0.301909 0.275740
O O10 0.747347 0.355647 0.129668
O O11 0.877357 0.980300 0.153204
O O12 0.897827 0.809461 0.014911
O O13 0.581528 0.930695 0.338065
O O14 0.512750 0.598718 0.579766
O O15 0.275538 0.701147 0.990056
#
# Coordination Sequence:
#
# PCOD9120641 Si02
#       8
#     4   4   4   4   4   2   4   4
#     4   9  16  30  52  72 101 147 175 229 288 330
#     4  12  25  45  62  87 120 150 200 261 299 352
#     4   9  15  25  41  62 102 137 172 226 280 320
#     4   9  13  23  40  66  95 136 180 212 272 340
#     4  10  18  34  53  71 107 141 177 232 293 325
#     4  12  24  44  64  92 110 166 206 242 304 364
#     4   9  19  33  52  77 104 142 194 228 287 342
#     4   8  14  20  34  61  94 135 170 214 271 324
#
# _framework density 26.064890999999999
#
# number of rings (size 3 to 8) (size 9 to 14) (size 15 to 20)
#    0.800    1.600    2.667    1.600    0.000    0.533 
#    2.400    0.000    0.000    0.000    0.000    0.000 
#    0.000    1.067    0.000   24.667    0.000    0.133 
#
# Total GULP energy -83853.862746 kJ/mol
# GULP energy per Si atom -5590.257516 kJ/mol
# Density = 2.600557 g / cm^3
# Si number density = 26.064891 Si / 1000 Ang^3
#
#
#
# Elastic Constant Matrix: (Units=GPa)
#
#
# Indices 1 2 3 4 5 6 
#
# 1 109.5308 1.1684 29.2066 0.0000 49.5910 0.0000
# 2 1.1684 85.2694 -6.5731 0.0000 -0.2569 0.0000
# 3 29.2066 -6.5731 154.4562 0.0000 27.1218 0.0000
# 4 0.0000 0.0000 0.0000 32.5991 0.0000 9.6692
# 5 49.5910 -0.2569 27.1218 0.0000 51.8812 0.0000
# 6 0.0000 0.0000 0.0000 9.6692 0.0000 1.2960
#
#
#
# Elastic Compliance Matrix: (Units=1/GPa)
#
#
# Indices 1 2 3 4 5 6 
#
# 1 0.016123 -0.000297 -0.000391 0.000000 -0.015208 0.000000
# 2 -0.000297 0.011774 0.000547 0.000000 0.000056 0.000000
# 3 -0.000391 0.000547 0.007163 0.000000 -0.003368 0.000000
# 4 0.000000 0.000000 0.000000 -0.025289 0.000000 0.188682
# 5 -0.015208 0.000056 -0.003368 0.000000 0.035573 0.000000
# 6 0.000000 0.000000 0.000000 0.188682 0.000000 -0.636130
#
#
# Mechanical properties :
#
#
# Convention : Reuss Voigt Hill
#
# Bulk Modulus (GPa) = 28.75279 44.09558 36.42418
# Shear Modulus (GPa) = -8.63688 38.85221 15.10766
#
# Velocity S-wave (km/s) = -1.82231 3.86501 2.41014
# Velocity P-wave (km/s) = 2.57438 6.07224 4.66366
#
# Compressibility (1/GPa) = 0.03477923
#
# Stress axis : x y z
#
# Youngs Moduli (GPa) = 62.02327 84.93312 139.60664
#
# Poissons Ratio (x) = 0.02522 0.05456
# Poissons Ratio (y) = 0.01841 -0.07642
# Poissons Ratio (z) = 0.02424 -0.04649
#
# Static dielectric constant tensor:
#      x y z
#    x 2.222830 0.000000 -0.102070 
#    y 0.000000 1.970160 0.000000 
#    z -0.102070 0.000000 2.110460 
# 
# From -- ./inp_files/65562.got.cif
#   From: 2010.05.17/outbox.cif.g08.bks.cpg/sg5_33_cif.got.tgz:65562.got - 2010.06.03 18:56:24.
