data_PCOD9120934
_publ_section_title
;
Structure prediction by ZEFSAII (Michael W. Deem and Ramdas Pophale) SiO2 
 PCOD9120934
Probable space group: C 2
;
_chemical_formula_sum "Si O2"
_cell_formula_units_Z 32
_cell_length_a 17.121672
_cell_length_b 9.920682
_cell_length_c 7.856390
_cell_angle_alpha 90.000000
_cell_angle_beta 68.008464
_cell_angle_gamma 90.000000
_cell_volume 1237.378346
_symmetry_space_group_name_H-M "C 2"
_symmetry_group_IT_number 5
_symmetry_cell_setting 'monoclinic'
loop_
_space_group_symop_operation_xyz
x,y,z
-x,y,-z
1/2+x,1/2+y,z
1/2-x,1/2+y,-z
loop_
_atom_site_type_symbol
_atom_site_label
_atom_site_fract_x
_atom_site_fract_y
_atom_site_fract_z
Si Si1 0.756205 0.570670 0.986194
Si Si2 0.594654 0.877439 0.233462
Si Si3 0.449879 0.477876 0.209948
Si Si4 0.361477 0.733469 0.137328
Si Si5 0.561348 0.992389 0.784975
Si Si6 0.887115 0.934826 0.702559
Si Si7 0.347435 0.248891 0.443212
Si Si8 0.305676 0.688837 0.630694
O O1 0.841504 0.495180 0.875221
O O2 0.722450 0.659652 0.858773
O O3 0.683465 0.460263 0.093681
O O4 0.757603 0.660823 0.156955
O O5 0.501410 0.930719 0.302626
O O6 0.634837 0.810650 0.365477
O O7 0.597265 0.761998 0.083966
O O8 0.415584 0.627318 0.200276
O O9 0.521030 0.458257 0.296477
O O10 0.374186 0.374666 0.303281
O O11 0.500000 0.436026 0.000000
O O12 0.369593 0.881328 0.213536
O O13 0.102609 0.621631 0.668332
O O14 0.500000 0.018225 0.000000
O O15 0.861670 0.054481 0.591795
O O16 0.874443 0.797683 0.608890
O O17 0.249568 0.217500 0.488199
#
# Coordination Sequence:
#
# PCOD9120934 Si02
#       8
#     4   4   4   4   4   4   4   4
#     4   9  19  37  66 104 142 180 232 306 358 419
#     4  10  18  36  66 111 138 164 238 312 362 403
#     4  12  21  41  74 108 134 184 245 303 361 425
#     4  10  19  37  72 110 135 174 239 304 359 420
#     4  10  21  38  67 108 142 178 233 312 363 419
#     4  10  24  44  64  93 151 193 233 285 358 451
#     4  12  25  43  64 100 150 193 229 291 371 432
#     4   9  20  39  64  89 136 188 240 276 346 440
#
# _framework density 25.861128999999998
#
# number of rings (size 3 to 8) (size 9 to 14) (size 15 to 20)
#    0.750    1.000    1.250    4.875    0.000    0.000 
#    4.500    2.500    0.000    3.000    0.000    0.000 
#    0.000    0.000    0.000    0.000    0.000    0.000 
#
# Total GULP energy -89617.239655 kJ/mol
# GULP energy per Si atom -5601.077478 kJ/mol
# Density = 2.580227 g / cm^3
# Si number density = 25.861129 Si / 1000 Ang^3
#
#
#
# Elastic Constant Matrix: (Units=GPa)
#
#
# Indices 1 2 3 4 5 6 
#
# 1 163.0943 88.2369 43.9532 0.0000 23.9166 0.0000
# 2 88.2369 144.5453 58.1671 0.0000 6.0984 0.0000
# 3 43.9532 58.1671 100.3766 0.0000 18.0736 0.0000
# 4 0.0000 0.0000 0.0000 51.7094 0.0000 -1.7457
# 5 23.9166 6.0984 18.0736 0.0000 42.2474 0.0000
# 6 0.0000 0.0000 0.0000 -1.7457 0.0000 56.0628
#
#
#
# Elastic Compliance Matrix: (Units=1/GPa)
#
#
# Indices 1 2 3 4 5 6 
#
# 1 0.010050 -0.005880 -0.000132 0.000000 -0.004784 0.000000
# 2 -0.005880 0.012502 -0.005357 0.000000 0.003816 0.000000
# 3 -0.000132 -0.005357 0.014055 0.000000 -0.005165 0.000000
# 4 0.000000 0.000000 0.000000 0.019359 0.000000 0.000603
# 5 -0.004784 0.003816 -0.005165 0.000000 0.028037 0.000000
# 6 0.000000 0.000000 0.000000 0.000603 0.000000 0.017856
#
#
# Mechanical properties :
#
#
# Convention : Reuss Voigt Hill
#
# Bulk Modulus (GPa) = 72.10550 87.63673 79.87112
# Shear Modulus (GPa) = 38.69370 44.51451 41.60410
#
# Velocity S-wave (km/s) = 3.87228 4.15334 4.01527
# Velocity P-wave (km/s) = 6.92352 7.54728 7.24212
#
# Compressibility (1/GPa) = 0.01386857
#
# Stress axis : x y z
#
# Youngs Moduli (GPa) = 99.50665 79.98415 71.15035
#
# Poissons Ratio (x) = 0.47029 0.00938
# Poissons Ratio (y) = 0.58508 0.38118
# Poissons Ratio (z) = 0.01312 0.42851
#
# Static dielectric constant tensor:
#      x y z
#    x 1.986000 0.000000 -0.001770 
#    y 0.000000 1.979350 0.000000 
#    z -0.001770 0.000000 2.167630 
# 
# From -- ./inp_files/27405.got.cif
#   From: 2010.05.17/outbox.cif.g08.bks.cpg/sg5_14_cif.got.tgz:27405.got - 2010.06.03 18:56:24.
