data_PCOD9120323
_publ_section_title
;
Structure prediction by ZEFSAII (Michael W. Deem and Ramdas Pophale) SiO2 
 PCOD9120323
Probable space group: C 2
;
_chemical_formula_sum "Si O2"
_cell_formula_units_Z 28
_cell_length_a 19.298640
_cell_length_b 11.834552
_cell_length_c 8.645552
_cell_angle_alpha 90.000000
_cell_angle_beta 48.914590
_cell_angle_gamma 90.000000
_cell_volume 1488.289768
_symmetry_space_group_name_H-M "C 2"
_symmetry_group_IT_number 5
_symmetry_cell_setting 'monoclinic'
loop_
_space_group_symop_operation_xyz
x,y,z
-x,y,-z
1/2+x,1/2+y,z
1/2-x,1/2+y,-z
loop_
_atom_site_type_symbol
_atom_site_label
_atom_site_fract_x
_atom_site_fract_y
_atom_site_fract_z
Si Si1 0.647006 0.667570 0.918778
Si Si2 0.719362 0.266963 0.768347
Si Si3 0.957788 0.321443 0.731467
Si Si4 0.766263 0.007245 0.655993
Si Si5 0.750830 0.343420 0.059668
Si Si6 0.892749 0.955288 0.189842
Si Si7 0.125245 0.347372 0.684207
O O1 0.737037 0.730500 0.852645
O O2 0.656647 0.538351 0.861536
O O3 0.619895 0.738563 0.804924
O O4 0.569463 0.697677 0.159977
O O5 0.732794 0.133540 0.735837
O O6 0.638253 0.326503 0.791280
O O7 0.811376 0.316887 0.555129
O O8 0.709424 0.307262 0.958724
O O9 0.000000 0.316895 0.500000
O O10 0.026599 0.375268 0.756036
O O11 0.857762 0.378972 0.874956
O O12 0.791885 0.941856 0.775704
O O13 0.851921 0.996792 0.412954
O O14 0.681325 0.940315 0.699134
O O15 0.000000 0.970217 0.000000
#
# Coordination Sequence:
#
# PCOD9120323 Si02
#       7
#     4   4   4   4   4   4   4
#     4   9  19  33  59  87 117 149 199 252 295 345
#     4  11  22  39  59  87 125 156 198 246 310 362
#     4  10  18  32  58  95 120 144 201 260 301 340
#     4  10  23  38  61  85 123 163 202 246 301 364
#     4   9  22  35  58  90 118 156 200 248 312 348
#     4  11  23  40  61  90 120 160 206 249 300 365
#     4  10  17  36  58  88 114 155 195 252 292 354
#
# _framework density 18.81354
#
# number of rings (size 3 to 8) (size 9 to 14) (size 15 to 20)
#    0.857    1.143    2.857    1.286    2.000    0.000 
#    2.571    0.714    0.000    0.000    0.000    0.000 
#    0.000    0.000    0.000    0.000    0.000    0.000 
#
# Total GULP energy -77954.921659 kJ/mol
# GULP energy per Si atom -5568.208690 kJ/mol
# Density = 1.877072 g / cm^3
# Si number density = 18.813540 Si / 1000 Ang^3
#
#
#
# Elastic Constant Matrix: (Units=GPa)
#
#
# Indices 1 2 3 4 5 6 
#
# 1 26.1220 16.7180 11.6268 0.0000 14.5940 0.0000
# 2 16.7180 110.4940 37.8749 0.0000 11.1506 0.0000
# 3 11.6268 37.8749 108.2231 0.0000 16.7760 0.0000
# 4 0.0000 0.0000 0.0000 22.8898 0.0000 6.4198
# 5 14.5940 11.1506 16.7760 0.0000 30.4495 0.0000
# 6 0.0000 0.0000 0.0000 6.4198 0.0000 9.6405
#
#
#
# Elastic Compliance Matrix: (Units=1/GPa)
#
#
# Indices 1 2 3 4 5 6 
#
# 1 0.055831 -0.005931 -0.000121 0.000000 -0.024520 0.000000
# 2 -0.005931 0.011021 -0.003318 0.000000 0.000635 0.000000
# 3 -0.000121 -0.003318 0.011171 0.000000 -0.004881 0.000000
# 4 0.000000 0.000000 0.000000 0.053721 0.000000 -0.035774
# 5 -0.024520 0.000635 -0.004881 0.000000 0.047050 0.000000
# 6 0.000000 0.000000 0.000000 -0.035774 0.000000 0.127553
#
#
# Mechanical properties :
#
#
# Convention : Reuss Voigt Hill
#
# Bulk Modulus (GPa) = 16.86876 41.91985 29.39431
# Shear Modulus (GPa) = 14.49909 24.50391 19.50150
#
# Velocity S-wave (km/s) = 2.77911 3.61288 3.22307
# Velocity P-wave (km/s) = 4.39132 6.30349 5.43220
#
# Compressibility (1/GPa) = 0.05928118
#
# Stress axis : x y z
#
# Youngs Moduli (GPa) = 17.91124 90.73578 89.51604
#
# Poissons Ratio (x) = 0.53818 0.01087
# Poissons Ratio (y) = 0.10624 0.29704
# Poissons Ratio (z) = 0.00218 0.30108
#
# Static dielectric constant tensor:
#      x y z
#    x 1.690750 0.000000 0.010090 
#    y 0.000000 1.664220 0.000000 
#    z 0.010090 0.000000 1.675120 
# 
# From -- ./inp_files/29429.got.cif
#   From: 2010.05.17/outbox.cif.g08.bks.cpg/sg5_15_cif.got.tgz:29429.got - 2010.06.03 18:56:24.
