data_PCOD9120945
_publ_section_title
;
Structure prediction by ZEFSAII (Michael W. Deem and Ramdas Pophale) SiO2 
 PCOD9120945
Probable space group: C 2
;
_chemical_formula_sum "Si O2"
_cell_formula_units_Z 32
_cell_length_a 25.299689
_cell_length_b 13.162654
_cell_length_c 9.092897
_cell_angle_alpha 90.000000
_cell_angle_beta 149.965878
_cell_angle_gamma 90.000000
_cell_volume 1515.579053
_symmetry_space_group_name_H-M "C 2"
_symmetry_group_IT_number 5
_symmetry_cell_setting 'monoclinic'
loop_
_space_group_symop_operation_xyz
x,y,z
-x,y,-z
1/2+x,1/2+y,z
1/2-x,1/2+y,-z
loop_
_atom_site_type_symbol
_atom_site_label
_atom_site_fract_x
_atom_site_fract_y
_atom_site_fract_z
Si Si1 0.433253 0.220510 0.105128
Si Si2 0.246035 0.649475 0.544999
Si Si3 0.903960 0.122205 0.678018
Si Si4 0.222693 0.292514 0.131948
Si Si5 0.890211 0.465984 0.298595
Si Si6 0.556196 0.397830 0.289361
Si Si7 0.771284 0.666030 0.961108
Si Si8 0.074355 0.535661 0.312795
O O1 0.492028 0.327893 0.247521
O O2 0.515724 0.132098 0.251915
O O3 0.341881 0.210847 0.760503
O O4 0.371055 0.203773 0.106473
O O5 0.319355 0.594921 0.602558
O O6 0.308042 0.725747 0.801325
O O7 0.180952 0.574436 0.493149
O O8 0.834513 0.180305 0.390477
O O9 0.946364 0.019181 0.704939
O O10 0.000000 0.172128 0.000000
O O11 0.323953 0.359542 0.420627
O O12 0.135455 0.366164 0.855020
O O13 0.259066 0.220491 0.086303
O O14 0.903685 0.455861 0.505856
O O15 0.000000 0.507506 0.500000
O O16 0.797163 0.547328 0.048341
O O17 0.500000 0.373083 0.000000
O O18 0.000000 0.500973 0.000000
#
# Coordination Sequence:
#
# PCOD9120945 Si02
#       8
#     4   4   4   4   4   4   4   4
#     4  10  18  36  70 100 121 168 220 281 331 376
#     4  10  20  39  66  94 125 174 218 270 334 391
#     4  10  24  43  67  89 135 180 219 267 337 400
#     4  12  24  39  66  99 136 172 223 272 336 400
#     4  12  24  42  64  97 134 176 218 279 340 390
#     4  11  19  38  64  98 126 161 220 279 326 383
#     4  11  23  42  67  98 136 174 222 279 332 392
#     4  10  19  36  67  95 123 164 224 274 326 389
#
# _framework density 21.114042000000001
#
# number of rings (size 3 to 8) (size 9 to 14) (size 15 to 20)
#    0.000    1.250    6.250    0.375    0.000    1.000 
#    4.500    3.125    5.500    0.000    0.000    0.000 
#    0.000    0.000    0.000    0.000    0.000    0.000 
#
# Total GULP energy -89330.822929 kJ/mol
# GULP energy per Si atom -5583.176433 kJ/mol
# Density = 2.106599 g / cm^3
# Si number density = 21.114042 Si / 1000 Ang^3
#
#
#
# Elastic Constant Matrix: (Units=GPa)
#
#
# Indices 1 2 3 4 5 6 
#
# 1 51.7258 -0.5502 9.0420 0.0000 -11.4525 0.0000
# 2 -0.5502 36.1533 13.6146 0.0000 -6.7721 0.0000
# 3 9.0420 13.6146 107.1119 0.0000 -6.1675 0.0000
# 4 0.0000 0.0000 0.0000 30.8125 0.0000 0.1288
# 5 -11.4525 -6.7721 -6.1675 0.0000 29.0214 0.0000
# 6 0.0000 0.0000 0.0000 0.1288 0.0000 19.4621
#
#
#
# Elastic Compliance Matrix: (Units=1/GPa)
#
#
# Indices 1 2 3 4 5 6 
#
# 1 0.021591 0.002593 -0.001647 0.000000 0.008775 0.000000
# 2 0.002593 0.030457 -0.003667 0.000000 0.007351 0.000000
# 3 -0.001647 -0.003667 0.009977 0.000000 0.000615 0.000000
# 4 0.000000 0.000000 0.000000 0.032455 0.000000 -0.000215
# 5 0.008775 0.007351 0.000615 0.000000 0.039766 0.000000
# 6 0.000000 0.000000 0.000000 -0.000215 0.000000 0.051383
#
#
# Mechanical properties :
#
#
# Convention : Reuss Voigt Hill
#
# Bulk Modulus (GPa) = 17.67333 26.57818 22.12575
# Shear Modulus (GPa) = 23.81711 27.38483 25.60097
#
# Velocity S-wave (km/s) = 3.36225 3.60529 3.48589
# Velocity P-wave (km/s) = 4.84371 5.47230 5.16757
#
# Compressibility (1/GPa) = 0.05658244
#
# Stress axis : x y z
#
# Youngs Moduli (GPa) = 46.31534 32.83288 100.23528
#
# Poissons Ratio (x) = -0.08512 0.16508
# Poissons Ratio (y) = -0.12007 0.36755
# Poissons Ratio (z) = 0.07628 0.12039
#
# Static dielectric constant tensor:
#      x y z
#    x 1.725200 0.000000 -0.000370 
#    y 0.000000 1.774980 0.000000 
#    z -0.000370 0.000000 1.794780 
# 
# From -- ./inp_files/29827.got.cif
#   From: 2010.05.17/outbox.cif.g08.bks.cpg/sg5_15_cif.got.tgz:29827.got - 2010.06.03 18:56:24.
