data_PCOD9120047
_publ_section_title
;
Structure prediction by ZEFSAII (Michael W. Deem and Ramdas Pophale) SiO2 
 PCOD9120047
Probable space group: C 2
;
_chemical_formula_sum "Si O2"
_cell_formula_units_Z 32
_cell_length_a 15.891420
_cell_length_b 24.307427
_cell_length_c 9.452379
_cell_angle_alpha 90.000000
_cell_angle_beta 27.611698
_cell_angle_gamma 90.000000
_cell_volume 1692.275133
_symmetry_space_group_name_H-M "C 2"
_symmetry_group_IT_number 5
_symmetry_cell_setting 'monoclinic'
loop_
_space_group_symop_operation_xyz
x,y,z
-x,y,-z
1/2+x,1/2+y,z
1/2-x,1/2+y,-z
loop_
_atom_site_type_symbol
_atom_site_label
_atom_site_fract_x
_atom_site_fract_y
_atom_site_fract_z
Si Si1 0.574840 0.279660 0.655646
Si Si2 0.978707 0.904175 0.364748
Si Si3 0.280654 0.781300 0.648682
Si Si4 0.297544 0.403351 0.228422
Si Si5 0.689280 0.107110 0.635867
Si Si6 0.992912 0.174145 0.348642
Si Si7 0.299085 0.681868 0.223881
Si Si8 0.808066 0.479243 0.364608
O O1 0.578482 0.341531 0.590549
O O2 0.683875 0.274388 0.641028
O O3 0.676698 0.236333 0.406142
O O4 0.367016 0.267217 0.009497
O O5 0.831052 0.946800 0.527787
O O6 0.000000 0.908355 0.500000
O O7 0.154884 0.916731 0.004531
O O8 0.313145 0.846455 0.607402
O O9 0.444818 0.739174 0.412741
O O10 0.203728 0.448518 0.466337
O O11 0.500000 0.393169 0.000000
O O12 0.830139 0.140650 0.520630
O O13 0.697821 0.137169 0.471759
O O14 0.740125 0.043205 0.545817
O O15 0.500000 0.110943 0.000000
O O16 0.000000 0.157974 0.500000
O O17 0.161562 0.163777 0.994448
O O18 0.500000 0.691080 0.000000
O O19 0.000000 0.475789 0.000000
#
# Coordination Sequence:
#
# PCOD9120047 Si02
#       8
#     4   4   4   4   4   4   4   4
#     4  10  17  32  57  80 107 152 187 211 258 335
#     4  10  21  35  56  86 115 145 181 222 275 327
#     4  10  16  33  56  77 111 149 181 213 265 329
#     4   9  17  34  56  80 109 149 186 216 261 331
#     4  10  21  40  61  78 103 148 194 224 265 335
#     4  11  24  36  53  87 118 139 177 234 284 316
#     4  10  20  32  55  83 107 145 186 224 270 320
#     4  10  21  37  60  84 103 142 194 230 267 321
#
# _framework density 18.909455999999999
#
# number of rings (size 3 to 8) (size 9 to 14) (size 15 to 20)
#    0.000    2.000    6.250    0.750    0.000    8.500 
#    0.000    2.500    0.000    3.000    0.000    0.000 
#    0.000    0.000    0.000    0.000    0.000    0.000 
#
# Total GULP energy -89220.078659 kJ/mol
# GULP energy per Si atom -5576.254916 kJ/mol
# Density = 1.886642 g / cm^3
# Si number density = 18.909456 Si / 1000 Ang^3
#
#
#
# Elastic Constant Matrix: (Units=GPa)
#
#
# Indices 1 2 3 4 5 6 
#
# 1 41.6051 23.3280 43.5437 -0.0004 33.6999 0.0003
# 2 23.3280 114.1900 60.4650 0.0000 10.3358 -0.0001
# 3 43.5437 60.4650 98.2385 -0.0001 39.2173 0.0006
# 4 -0.0004 0.0000 -0.0001 34.1623 0.0004 -0.6715
# 5 33.6999 10.3358 39.2173 0.0004 30.6084 -0.0003
# 6 0.0003 -0.0001 0.0006 -0.6715 -0.0003 4.2652
#
#
#
# Elastic Compliance Matrix: (Units=1/GPa)
#
#
# Indices 1 2 3 4 5 6 
#
# 1 0.415279 -0.074922 0.070559 0.000010 -0.522326 -0.000066
# 2 -0.074922 0.029085 -0.028048 -0.000002 0.108604 0.000015
# 3 0.070559 -0.028048 0.047899 0.000002 -0.129585 -0.000019
# 4 0.000010 -0.000002 0.000002 0.029363 -0.000014 0.004623
# 5 -0.522326 0.108604 -0.129585 -0.000014 0.737111 0.000093
# 6 -0.000066 0.000015 -0.000019 0.004623 0.000093 0.235181
#
#
# Mechanical properties :
#
#
# Convention : Reuss Voigt Hill
#
# Bulk Modulus (GPa) = 2.33951 56.52300 29.43126
# Shear Modulus (GPa) = 2.93907 22.25366 12.59636
#
# Velocity S-wave (km/s) = 1.24806 3.43425 2.58377
# Velocity P-wave (km/s) = 1.82120 6.75883 4.94967
#
# Compressibility (1/GPa) = 0.42744047
#
# Stress axis : x y z
#
# Youngs Moduli (GPa) = 2.40802 34.38221 20.87727
#
# Poissons Ratio (x) = 2.57597 -1.47308
# Poissons Ratio (y) = 0.18041 0.58557
# Poissons Ratio (z) = -0.16991 0.96436
#
# Static dielectric constant tensor:
#      x y z
#    x 1.669430 0.000000 0.007010 
#    y 0.000000 1.646220 0.000000 
#    z 0.007010 0.000000 1.697620 
# 
# From -- ./inp_files/28049.got.cif
#   From: 2010.05.17/outbox.cif.g08.bks.cpg/sg5_15_cif.got.tgz:28049.got - 2010.06.03 18:56:24.
