data_PCOD9120678
_publ_section_title
;
Structure prediction by ZEFSAII (Michael W. Deem and Ramdas Pophale) SiO2 
 PCOD9120678
Probable space group: C 2
;
_chemical_formula_sum "Si O2"
_cell_formula_units_Z 20
_cell_length_a 8.006543
_cell_length_b 11.680725
_cell_length_c 13.086767
_cell_angle_alpha 90.000000
_cell_angle_beta 52.320097
_cell_angle_gamma 90.000000
_cell_volume 968.643791
_symmetry_space_group_name_H-M "C 2"
_symmetry_group_IT_number 5
_symmetry_cell_setting 'monoclinic'
loop_
_space_group_symop_operation_xyz
x,y,z
-x,y,-z
1/2+x,1/2+y,z
1/2-x,1/2+y,-z
loop_
_atom_site_type_symbol
_atom_site_label
_atom_site_fract_x
_atom_site_fract_y
_atom_site_fract_z
Si Si1 0.458223 0.855950 0.847268
Si Si2 0.266514 0.601187 0.538765
Si Si3 0.523482 0.101219 0.157979
Si Si4 0.500000 0.671919 0.000000
Si Si5 0.363779 0.846145 0.447326
Si Si6 0.500000 0.284710 0.000000
O O1 0.514708 0.850175 0.706498
O O2 0.205770 0.854225 0.951127
O O3 0.542812 0.976390 0.856757
O O4 0.535356 0.751810 0.887368
O O5 0.500000 0.601301 0.500000
O O6 0.247396 0.721815 0.484938
O O7 0.086160 0.612144 0.691916
O O8 0.245994 0.471898 0.501346
O O9 0.777741 0.108531 0.067900
O O10 0.445023 0.201284 0.114247
O O11 0.500000 0.839374 0.500000
#
# Coordination Sequence:
#
# PCOD9120678 Si02
#       6
#     4   4   4   2   4   2
#     4  10  21  37  57  83 114 148 189 234 283 338
#     4  10  22  39  58  85 118 153 193 236 286 342
#     4  10  21  37  57  83 114 148 189 234 283 338
#     4  10  22  38  58  84 112 146 190 232 284 340
#     4  10  22  39  58  85 118 153 193 236 286 342
#     4  10  18  34  58  80 112 150 186 232 284 336
#
# _framework density 20.647424000000001
#
# number of rings (size 3 to 8) (size 9 to 14) (size 15 to 20)
#    0.000    2.000    0.000    3.600    0.000    7.200 
#    0.000   10.000    0.000    0.000    0.000    0.000 
#    0.000    0.000    0.000    0.000    0.000    0.000 
#
# Total GULP energy -55687.632711 kJ/mol
# GULP energy per Si atom -5568.763271 kJ/mol
# Density = 2.060043 g / cm^3
# Si number density = 20.647424 Si / 1000 Ang^3
#
#
#
# Elastic Constant Matrix: (Units=GPa)
#
#
# Indices 1 2 3 4 5 6 
#
# 1 40.1483 16.7068 -2.1707 0.0000 7.7146 0.0000
# 2 16.7068 170.0585 33.4210 0.0000 2.4855 0.0000
# 3 -2.1707 33.4210 68.0778 0.0000 9.4150 0.0000
# 4 0.0000 0.0000 0.0000 197.6824 0.0000 -53.3059
# 5 7.7146 2.4855 9.4150 0.0000 27.2556 0.0000
# 6 0.0000 0.0000 0.0000 -53.3059 0.0000 29.5626
#
#
#
# Elastic Compliance Matrix: (Units=1/GPa)
#
#
# Indices 1 2 3 4 5 6 
#
# 1 0.028256 -0.003394 0.003812 0.000000 -0.009005 0.000000
# 2 -0.003394 0.006923 -0.003731 0.000000 0.001618 0.000000
# 3 0.003812 -0.003731 0.017584 0.000000 -0.006813 0.000000
# 4 0.000000 0.000000 0.000000 0.009846 0.000000 0.017754
# 5 -0.009005 0.001618 -0.006813 0.000000 0.041445 0.000000
# 6 0.000000 0.000000 0.000000 0.017754 0.000000 0.065839
#
#
# Mechanical properties :
#
#
# Convention : Reuss Voigt Hill
#
# Bulk Modulus (GPa) = 21.67316 41.57765 31.62540
# Shear Modulus (GPa) = 26.05553 66.25529 46.15541
#
# Velocity S-wave (km/s) = 3.55621 5.67085 4.73314
# Velocity P-wave (km/s) = 5.23276 7.94095 6.72460
#
# Compressibility (1/GPa) = 0.04614002
#
# Stress axis : x y z
#
# Youngs Moduli (GPa) = 35.39034 144.44063 56.86868
#
# Poissons Ratio (x) = 0.49017 -0.21680
# Poissons Ratio (y) = 0.12010 0.21216
# Poissons Ratio (z) = -0.13492 0.53887
#
# Static dielectric constant tensor:
#      x y z
#    x 1.695130 0.000000 -0.009150 
#    y 0.000000 1.784540 0.000000 
#    z -0.009150 0.000000 1.691370 
# 
# From -- ./inp_files/37933.got.cif
#   From: 2010.05.17/outbox.cif.g08.bks.cpg/sg5_19_cif.got.tgz:37933.got - 2010.06.03 18:56:24.
