data_PCOD9120774
_publ_section_title
;
Structure prediction by ZEFSAII (Michael W. Deem and Ramdas Pophale) SiO2 
 PCOD9120774
Probable space group: C 2
;
_chemical_formula_sum "Si O2"
_cell_formula_units_Z 20
_cell_length_a 11.048981
_cell_length_b 14.317634
_cell_length_c 5.717018
_cell_angle_alpha 90.000000
_cell_angle_beta 90.494938
_cell_angle_gamma 90.000000
_cell_volume 904.371440
_symmetry_space_group_name_H-M "C 2"
_symmetry_group_IT_number 5
_symmetry_cell_setting 'monoclinic'
loop_
_space_group_symop_operation_xyz
x,y,z
-x,y,-z
1/2+x,1/2+y,z
1/2-x,1/2+y,-z
loop_
_atom_site_type_symbol
_atom_site_label
_atom_site_fract_x
_atom_site_fract_y
_atom_site_fract_z
Si Si1 0.874353 0.943060 0.944556
Si Si2 0.389074 0.258564 0.664985
Si Si3 0.295042 0.841290 0.679739
Si Si4 0.000000 0.323390 0.000000
Si Si5 0.862608 0.477311 0.294054
Si Si6 0.500000 0.123507 0.000000
O O1 0.913440 0.860008 0.772350
O O2 0.771039 0.999180 0.806471
O O3 0.807088 0.888509 0.156209
O O4 0.000000 0.994406 0.000000
O O5 0.500000 0.233824 0.500000
O O6 0.269318 0.274048 0.509532
O O7 0.395779 0.186942 0.880605
O O8 0.352543 0.933254 0.551867
O O9 0.400306 0.784831 0.817920
O O10 0.912672 0.388994 0.151107
O O11 0.946586 0.560731 0.208280
#
# Coordination Sequence:
#
# PCOD9120774 Si02
#       6
#     4   4   4   2   4   2
#     4  10  18  35  56  91 115 154 210 252 286 360
#     4  11  20  34  59  89 129 158 195 246 311 350
#     4  10  19  34  58  88 125 159 197 253 305 347
#     4   9  18  34  52  86 126 143 210 249 298 350
#     4   9  21  33  55  87 127 157 195 254 299 351
#     4  11  22  38  54  96 134 153 200 243 300 378
#
# _framework density 22.114809999999999
#
# number of rings (size 3 to 8) (size 9 to 14) (size 15 to 20)
#    0.000    2.000    3.000    0.600    0.000    4.800 
#    0.000    0.000    0.000    0.000   72.800    0.000 
#    0.000    0.000    0.000    0.000    0.000    0.000 
#
# Total GULP energy -55715.572281 kJ/mol
# GULP energy per Si atom -5571.557228 kJ/mol
# Density = 2.206448 g / cm^3
# Si number density = 22.114810 Si / 1000 Ang^3
#
#
#
# Elastic Constant Matrix: (Units=GPa)
#
#
# Indices 1 2 3 4 5 6 
#
# 1 122.9293 14.7259 47.2410 0.0000 35.5437 0.0000
# 2 14.7259 43.8042 19.0769 0.0000 12.7849 0.0000
# 3 47.2410 19.0769 99.8565 0.0000 23.6738 0.0000
# 4 0.0000 0.0000 0.0000 25.8987 0.0000 -1.1004
# 5 35.5437 12.7849 23.6738 0.0000 59.9719 0.0000
# 6 0.0000 0.0000 0.0000 -1.1004 0.0000 1.2411
#
#
#
# Elastic Compliance Matrix: (Units=1/GPa)
#
#
# Indices 1 2 3 4 5 6 
#
# 1 0.011164 -0.000574 -0.004007 0.000000 -0.004912 0.000000
# 2 -0.000574 0.025734 -0.003778 0.000000 -0.003654 0.000000
# 3 -0.004007 -0.003778 0.013104 0.000000 -0.001992 0.000000
# 4 0.000000 0.000000 0.000000 0.040124 0.000000 0.035576
# 5 -0.004912 -0.003654 -0.001992 0.000000 0.021151 0.000000
# 6 0.000000 0.000000 0.000000 0.035576 0.000000 0.837284
#
#
# Mechanical properties :
#
#
# Convention : Reuss Voigt Hill
#
# Bulk Modulus (GPa) = 30.04565 47.63085 38.83825
# Shear Modulus (GPa) = 5.12099 29.79208 17.45653
#
# Velocity S-wave (km/s) = 1.52337 3.67434 2.81260
# Velocity P-wave (km/s) = 4.08778 6.29173 5.30546
#
# Compressibility (1/GPa) = 0.03328269
#
# Stress axis : x y z
#
# Youngs Moduli (GPa) = 89.57519 38.85930 76.31068
#
# Poissons Ratio (x) = 0.02231 0.30579
# Poissons Ratio (y) = 0.05143 0.28833
# Poissons Ratio (z) = 0.35895 0.14682
#
# Static dielectric constant tensor:
#      x y z
#    x 1.905860 0.000000 0.051160 
#    y 0.000000 1.769900 0.000000 
#    z 0.051160 0.000000 1.929910 
# 
# From -- ./inp_files/4691.got.cif
#   From: 2010.05.17/outbox.cif.g08.bks.cpg/sg5_3_cif.got.tgz:4691.got - 2010.06.03 18:56:24.
