data_PCOD9120376
_publ_section_title
;
Structure prediction by ZEFSAII (Michael W. Deem and Ramdas Pophale) SiO2 
 PCOD9120376
Probable space group: C 2
;
_chemical_formula_sum "Si O2"
_cell_formula_units_Z 20
_cell_length_a 9.059655
_cell_length_b 11.777896
_cell_length_c 7.504473
_cell_angle_alpha 90.000000
_cell_angle_beta 66.493760
_cell_angle_gamma 90.000000
_cell_volume 734.305517
_symmetry_space_group_name_H-M "C 2"
_symmetry_group_IT_number 5
_symmetry_cell_setting 'monoclinic'
loop_
_space_group_symop_operation_xyz
x,y,z
-x,y,-z
1/2+x,1/2+y,z
1/2-x,1/2+y,-z
loop_
_atom_site_type_symbol
_atom_site_label
_atom_site_fract_x
_atom_site_fract_y
_atom_site_fract_z
Si Si1 0.000000 0.135051 0.500000
Si Si2 0.279884 0.536922 0.318973
Si Si3 0.345915 0.212326 0.232733
Si Si4 0.114173 0.447554 0.727662
Si Si5 0.000000 0.721043 0.500000
Si Si6 0.745218 0.882762 0.018162
O O1 0.061638 0.066974 0.644392
O O2 0.158434 0.202824 0.374814
O O3 0.180728 0.451627 0.496643
O O4 0.308795 0.485147 0.111784
O O5 0.154844 0.642378 0.371336
O O6 0.436508 0.276763 0.349423
O O7 0.335887 0.272792 0.048087
O O8 0.403554 0.081375 0.211462
O O9 0.945601 0.385323 0.837291
O O10 0.240420 0.399422 0.809725
#
# Coordination Sequence:
#
# PCOD9120376 Si02
#       6
#     2   4   4   4   2   4
#     4   8  20  34  60  96 122 158 206 262 310 364
#     4  10  17  39  63  82 128 168 190 265 317 354
#     4  10  20  38  65  97 121 166 216 250 315 383
#     4   9  21  40  57  94 126 159 212 259 302 382
#     4   8  16  36  60  84 128 160 200 266 298 364
#     4  11  20  36  69  86 120 175 202 251 326 361
#
# _framework density 27.236619000000001
#
# number of rings (size 3 to 8) (size 9 to 14) (size 15 to 20)
#    0.000    2.800    4.000    0.000    2.800    0.800 
#    7.200    3.000   17.600    0.000    0.000    0.000 
#    0.000    0.000    0.000    0.000    0.000    0.000 
#
# Total GULP energy -55970.749081 kJ/mol
# GULP energy per Si atom -5597.074908 kJ/mol
# Density = 2.717463 g / cm^3
# Si number density = 27.236619 Si / 1000 Ang^3
#
#
#
# Elastic Constant Matrix: (Units=GPa)
#
#
# Indices 1 2 3 4 5 6 
#
# 1 204.0834 22.9302 41.9963 0.0000 37.6462 0.0000
# 2 22.9302 82.2597 -2.5165 0.0000 19.1878 0.0000
# 3 41.9963 -2.5165 102.7908 0.0000 22.4933 0.0000
# 4 0.0000 0.0000 0.0000 40.1543 0.0000 14.6847
# 5 37.6462 19.1878 22.4933 0.0000 65.3021 0.0000
# 6 0.0000 0.0000 0.0000 14.6847 0.0000 48.7030
#
#
#
# Elastic Compliance Matrix: (Units=1/GPa)
#
#
# Indices 1 2 3 4 5 6 
#
# 1 0.005859 -0.001134 -0.001898 0.000000 -0.002391 0.000000
# 2 -0.001134 0.013421 0.001635 0.000000 -0.003853 0.000000
# 3 -0.001898 0.001635 0.011258 0.000000 -0.003264 0.000000
# 4 0.000000 0.000000 0.000000 0.027990 0.000000 -0.008440
# 5 -0.002391 -0.003853 -0.003264 0.000000 0.018948 0.000000
# 6 0.000000 0.000000 0.000000 -0.008440 0.000000 0.023077
#
#
# Mechanical properties :
#
#
# Convention : Reuss Voigt Hill
#
# Bulk Modulus (GPa) = 36.04299 57.10599 46.57449
# Shear Modulus (GPa) = 44.40624 52.61348 48.50986
#
# Velocity S-wave (km/s) = 4.04219 4.39990 4.22483
# Velocity P-wave (km/s) = 5.92011 6.84283 6.39812
#
# Compressibility (1/GPa) = 0.02774465
#
# Stress axis : x y z
#
# Youngs Moduli (GPa) = 170.67848 74.50753 88.82289
#
# Poissons Ratio (x) = 0.08447 0.16862
# Poissons Ratio (y) = 0.19349 -0.14522
# Poissons Ratio (z) = 0.32401 -0.12182
#
# Static dielectric constant tensor:
#      x y z
#    x 2.091030 0.000000 -0.017330 
#    y 0.000000 2.145830 0.000000 
#    z -0.017330 0.000000 2.070460 
# 
# From -- ./inp_files/14758.got.cif
#   From: 2010.05.17/outbox.cif.g08.bks.cpg/sg5_8_cif.got.tgz:14758.got - 2010.06.03 18:56:24.
