data_PCOD9120582
_publ_section_title
;
Structure prediction by ZEFSAII (Michael W. Deem and Ramdas Pophale) SiO2 
 PCOD9120582
Probable space group: C 2
;
_chemical_formula_sum "Si O2"
_cell_formula_units_Z 28
_cell_length_a 27.770487
_cell_length_b 8.318134
_cell_length_c 7.596490
_cell_angle_alpha 90.000000
_cell_angle_beta 46.786259
_cell_angle_gamma 90.000000
_cell_volume 1278.890570
_symmetry_space_group_name_H-M "C 2"
_symmetry_group_IT_number 5
_symmetry_cell_setting 'monoclinic'
loop_
_space_group_symop_operation_xyz
x,y,z
-x,y,-z
1/2+x,1/2+y,z
1/2-x,1/2+y,-z
loop_
_atom_site_type_symbol
_atom_site_label
_atom_site_fract_x
_atom_site_fract_y
_atom_site_fract_z
Si Si1 0.088717 0.238520 0.918995
Si Si2 0.282785 0.164298 0.019198
Si Si3 0.953746 0.137443 0.371646
Si Si4 0.354382 0.025384 0.371222
Si Si5 0.364484 0.351359 0.530223
Si Si6 0.277978 0.587874 0.496590
Si Si7 0.158776 0.334921 0.228557
O O1 0.067402 0.189449 0.774092
O O2 0.098337 0.430408 0.882305
O O3 0.162092 0.168089 0.760120
O O4 0.031443 0.168182 0.183490
O O5 0.330231 0.279924 0.790648
O O6 0.314645 0.986117 0.948724
O O7 0.261679 0.204930 0.269845
O O8 0.213133 0.192655 0.091917
O O9 0.911501 0.248056 0.610374
O O10 0.926347 0.956611 0.439742
O O11 0.380036 0.199155 0.367057
O O12 0.280821 0.033180 0.479215
O O13 0.347162 0.921427 0.566632
O O14 0.314220 0.460419 0.537540
#
# Coordination Sequence:
#
# PCOD9120582 Si02
#       7
#     4   4   4   4   4   4   4
#     4   9  18  34  54  76 112 142 176 232 279 322
#     4  11  18  32  52  83 110 143 186 236 278 314
#     4   9  17  35  54  77 106 143 186 229 268 329
#     4  10  20  32  54  86 113 141 181 230 287 333
#     4  10  20  31  54  85 112 145 191 226 275 329
#     4  11  19  33  53  86 115 142 177 230 291 324
#     4  10  18  33  52  80 108 140 189 230 275 322
#
# _framework density 21.893977
#
# number of rings (size 3 to 8) (size 9 to 14) (size 15 to 20)
#    0.000    2.000    5.714    0.857    0.000    0.000 
#    0.000   17.143    0.000    0.857    3.714    4.000 
#    0.000    0.000    0.000    0.000    0.000    0.000 
#
# Total GULP energy -77988.716475 kJ/mol
# GULP energy per Si atom -5570.622605 kJ/mol
# Density = 2.184415 g / cm^3
# Si number density = 21.893977 Si / 1000 Ang^3
#
#
#
# Elastic Constant Matrix: (Units=GPa)
#
#
# Indices 1 2 3 4 5 6 
#
# 1 68.4349 22.3872 27.2241 0.0000 -5.2143 0.0000
# 2 22.3872 136.6869 67.8533 0.0000 -15.4759 0.0000
# 3 27.2241 67.8533 138.2520 0.0000 -41.3846 0.0000
# 4 0.0000 0.0000 0.0000 27.9084 0.0000 -2.8965
# 5 -5.2143 -15.4759 -41.3846 0.0000 17.7991 0.0000
# 6 0.0000 0.0000 0.0000 -2.8965 0.0000 11.1464
#
#
#
# Elastic Compliance Matrix: (Units=1/GPa)
#
#
# Indices 1 2 3 4 5 6 
#
# 1 0.016375 -0.001058 -0.005081 0.000000 -0.007936 0.000000
# 2 -0.001058 0.010163 -0.007326 0.000000 -0.008508 0.000000
# 3 -0.005081 -0.007326 0.031174 0.000000 0.064624 0.000000
# 4 0.000000 0.000000 0.000000 0.036825 0.000000 0.009569
# 5 -0.007936 -0.008508 0.064624 0.000000 0.196716 0.000000
# 6 0.000000 0.000000 0.000000 0.009569 0.000000 0.092201
#
#
# Mechanical properties :
#
#
# Convention : Reuss Voigt Hill
#
# Bulk Modulus (GPa) = 32.48728 64.25588 48.37158
# Shear Modulus (GPa) = 11.88650 26.43142 19.15896
#
# Velocity S-wave (km/s) = 2.33257 3.47831 2.96138
# Velocity P-wave (km/s) = 4.70374 6.74862 5.81675
#
# Compressibility (1/GPa) = 0.03078128
#
# Stress axis : x y z
#
# Youngs Moduli (GPa) = 61.06825 98.39702 32.07815
#
# Poissons Ratio (x) = 0.10414 0.16298
# Poissons Ratio (y) = 0.06463 0.23501
# Poissons Ratio (z) = 0.31027 0.72088
#
# Static dielectric constant tensor:
#      x y z
#    x 1.815620 0.000000 0.024220 
#    y 0.000000 1.883370 0.000000 
#    z 0.024220 0.000000 1.864780 
# 
# From -- ./inp_files/32486.got.cif
#   From: 2010.05.17/outbox.cif.g08.bks.cpg/sg5_17_cif.got.tgz:32486.got - 2010.06.03 18:56:24.
