data_PCOD9120894
_publ_section_title
;
Structure prediction by ZEFSAII (Michael W. Deem and Ramdas Pophale) SiO2 
 PCOD9120894
Probable space group: C 2
;
_chemical_formula_sum "Si O2"
_cell_formula_units_Z 30
_cell_length_a 16.748233
_cell_length_b 9.316671
_cell_length_c 7.988499
_cell_angle_alpha 90.000000
_cell_angle_beta 91.005519
_cell_angle_gamma 90.000000
_cell_volume 1246.315673
_symmetry_space_group_name_H-M "C 2"
_symmetry_group_IT_number 5
_symmetry_cell_setting 'monoclinic'
loop_
_space_group_symop_operation_xyz
x,y,z
-x,y,-z
1/2+x,1/2+y,z
1/2-x,1/2+y,-z
loop_
_atom_site_type_symbol
_atom_site_label
_atom_site_fract_x
_atom_site_fract_y
_atom_site_fract_z
Si Si1 0.741341 0.012590 0.006532
Si Si2 0.191364 0.757041 0.830649
Si Si3 0.411105 0.865604 0.502128
Si Si4 0.734863 0.704083 0.662385
Si Si5 0.500000 0.401505 0.500000
Si Si6 0.426064 0.907214 0.883150
Si Si7 0.463486 0.135568 0.280547
Si Si8 0.322397 0.440443 0.507068
O O1 0.755283 0.116878 0.166751
O O2 0.799385 0.880049 0.031770
O O3 0.653874 0.937678 0.015903
O O4 0.751049 0.123646 0.856284
O O5 0.107023 0.680770 0.842862
O O6 0.192841 0.839405 0.656054
O O7 0.500000 0.802036 0.500000
O O8 0.347757 0.787201 0.381486
O O9 0.392602 0.850268 0.700298
O O10 0.424980 0.027494 0.422196
O O11 0.734227 0.576399 0.524121
O O12 0.799854 0.828676 0.649183
O O13 0.494767 0.285978 0.350333
O O14 0.415662 0.481649 0.508941
O O15 0.469673 0.047850 0.812165
O O16 0.500000 0.840510 0.000000
#
# Coordination Sequence:
#
# PCOD9120894 Si02
#       8
#     4   4   4   4   2   4   4   4
#     4  11  24  39  62  93 129 168 216 268 322 388
#     4  10  23  38  58  93 123 167 203 265 323 379
#     4  10  22  37  65  94 127 174 221 266 328 384
#     4  11  24  41  62  97 129 168 223 272 322 386
#     4  10  18  36  62  84 120 160 202 258 320 370
#     4  11  20  38  62  96 121 164 223 262 309 393
#     4  10  19  37  62  89 121 165 216 257 312 393
#     4  10  24  39  65  89 130 161 218 271 320 384
#
# _framework density 24.07095
#
# number of rings (size 3 to 8) (size 9 to 14) (size 15 to 20)
#    0.000    1.600    3.333    2.400    8.400    0.000 
#    0.000    0.000    0.000    0.000    6.933    0.000 
#    0.000    0.000    0.000    0.000    0.000    0.000 
#
# Total GULP energy -83636.838652 kJ/mol
# GULP energy per Si atom -5575.789243 kJ/mol
# Density = 2.401616 g / cm^3
# Si number density = 24.070950 Si / 1000 Ang^3
#
#
#
# Elastic Constant Matrix: (Units=GPa)
#
#
# Indices 1 2 3 4 5 6 
#
# 1 95.8975 21.6084 15.7480 0.0000 26.9156 0.0000
# 2 21.6084 81.9494 15.1144 0.0000 10.5575 0.0000
# 3 15.7480 15.1144 89.2383 0.0000 10.8942 0.0000
# 4 0.0000 0.0000 0.0000 19.5308 0.0000 4.3642
# 5 26.9156 10.5575 10.8942 0.0000 27.3244 0.0000
# 6 0.0000 0.0000 0.0000 4.3642 0.0000 28.5923
#
#
#
# Elastic Compliance Matrix: (Units=1/GPa)
#
#
# Indices 1 2 3 4 5 6 
#
# 1 0.014787 -0.002043 -0.000611 0.000000 -0.013532 0.000000
# 2 -0.002043 0.013359 -0.001595 0.000000 -0.002513 0.000000
# 3 -0.000611 -0.001595 0.012020 0.000000 -0.003574 0.000000
# 4 0.000000 0.000000 0.000000 0.053009 0.000000 -0.008091
# 5 -0.013532 -0.002513 -0.003574 0.000000 0.052323 0.000000
# 6 0.000000 0.000000 0.000000 -0.008091 0.000000 0.036209
#
#
# Mechanical properties :
#
#
# Convention : Reuss Voigt Hill
#
# Bulk Modulus (GPa) = 31.57842 41.33632 36.45737
# Shear Modulus (GPa) = 24.90498 29.39712 27.15105
#
# Velocity S-wave (km/s) = 3.22009 3.49846 3.36215
# Velocity P-wave (km/s) = 5.19352 5.79042 5.50007
#
# Compressibility (1/GPa) = 0.03166719
#
# Stress axis : x y z
#
# Youngs Moduli (GPa) = 67.62856 74.85395 83.19222
#
# Poissons Ratio (x) = 0.15291 0.05086
# Poissons Ratio (y) = 0.13815 0.13272
# Poissons Ratio (z) = 0.04135 0.11942
#
# Static dielectric constant tensor:
#      x y z
#    x 1.963600 0.000000 0.025300 
#    y 0.000000 1.916860 0.000000 
#    z 0.025300 0.000000 2.063300 
# 
# From -- ./inp_files/28969.got.cif
#   From: 2010.05.17/outbox.cif.g08.bks.cpg/sg5_15_cif.got.tgz:28969.got - 2010.06.03 18:56:24.
