data_PCOD9120540
_publ_section_title
;
Structure prediction by ZEFSAII (Michael W. Deem and Ramdas Pophale) SiO2 
 PCOD9120540
Probable space group: C 2
;
_chemical_formula_sum "Si O2"
_cell_formula_units_Z 24
_cell_length_a 6.638653
_cell_length_b 20.545194
_cell_length_c 11.843639
_cell_angle_alpha 90.000000
_cell_angle_beta 53.361880
_cell_angle_gamma 90.000000
_cell_volume 1296.216232
_symmetry_space_group_name_H-M "C 2"
_symmetry_group_IT_number 5
_symmetry_cell_setting 'monoclinic'
loop_
_space_group_symop_operation_xyz
x,y,z
-x,y,-z
1/2+x,1/2+y,z
1/2-x,1/2+y,-z
loop_
_atom_site_type_symbol
_atom_site_label
_atom_site_fract_x
_atom_site_fract_y
_atom_site_fract_z
Si Si1 0.782083 0.120220 0.358187
Si Si2 0.058811 0.494336 0.351159
Si Si3 0.788711 0.409687 0.905938
Si Si4 0.000000 0.515763 0.000000
Si Si5 0.000000 0.307429 0.000000
Si Si6 0.262534 0.683051 0.144850
Si Si7 0.712013 0.090178 0.718893
O O1 0.500000 0.127468 0.500000
O O2 0.830323 0.177100 0.253352
O O3 0.007002 0.116704 0.370548
O O4 0.768871 0.050770 0.296530
O O5 0.131360 0.436317 0.243457
O O6 0.000000 0.474616 0.500000
O O7 0.841085 0.535084 0.358292
O O8 0.950331 0.352379 0.908436
O O9 0.500000 0.390066 0.000000
O O10 0.826545 0.470004 0.979846
O O11 0.844113 0.558175 0.140451
O O12 0.227968 0.256965 0.901673
O O13 0.001126 0.645687 0.220222
O O14 0.500000 0.650702 0.000000
#
# Coordination Sequence:
#
# PCOD9120540 Si02
#       7
#     4   4   4   2   2   4   4
#     4  10  20  33  54  87 120 144 183 224 288 353
#     4   9  20  34  53  85 118 144 183 227 281 346
#     4  10  19  35  58  77 113 150 185 239 278 325
#     4   9  18  30  54  92 110 137 192 228 288 347
#     4   9  22  38  54  84 110 147 202 238 266 323
#     4   9  20  35  53  79 113 145 191 237 268 332
#     4  10  18  32  56  84 120 153 172 231 293 339
#
# _framework density 18.515429000000001
#
# number of rings (size 3 to 8) (size 9 to 14) (size 15 to 20)
#    0.500    2.000    0.000    2.000    0.000   12.000 
#    0.000    0.000    3.667    0.000    0.000    0.000 
#    0.000    0.000    0.000    0.000    0.000    0.000 
#
# Total GULP energy -66806.785812 kJ/mol
# GULP energy per Si atom -5567.232151 kJ/mol
# Density = 1.847329 g / cm^3
# Si number density = 18.515429 Si / 1000 Ang^3
#
#
#
# Elastic Constant Matrix: (Units=GPa)
#
#
# Indices 1 2 3 4 5 6 
#
# 1 111.8823 19.3060 52.9178 0.0000 -5.3811 0.0000
# 2 19.3060 73.8107 40.7485 0.0000 7.6416 0.0000
# 3 52.9178 40.7485 110.5005 0.0000 20.2187 0.0000
# 4 0.0000 0.0000 0.0000 18.7074 0.0000 4.7661
# 5 -5.3811 7.6416 20.2187 0.0000 39.8770 0.0000
# 6 0.0000 0.0000 0.0000 4.7661 0.0000 10.2995
#
#
#
# Elastic Compliance Matrix: (Units=1/GPa)
#
#
# Indices 1 2 3 4 5 6 
#
# 1 0.012458 0.000028 -0.006926 0.000000 0.005187 0.000000
# 2 0.000028 0.017012 -0.006273 0.000000 -0.000076 0.000000
# 3 -0.006926 -0.006273 0.016127 0.000000 -0.007909 0.000000
# 4 0.000000 0.000000 0.000000 0.060599 0.000000 -0.028043
# 5 0.005187 -0.000076 -0.007909 0.000000 0.029802 0.000000
# 6 0.000000 0.000000 0.000000 -0.028043 0.000000 0.110069
#
#
# Mechanical properties :
#
#
# Convention : Reuss Voigt Hill
#
# Bulk Modulus (GPa) = 51.93292 58.01534 54.97413
# Shear Modulus (GPa) = 17.93230 25.99152 21.96191
#
# Velocity S-wave (km/s) = 3.11546 3.75076 3.44778
# Velocity P-wave (km/s) = 6.40709 7.08231 6.75315
#
# Compressibility (1/GPa) = 0.01925561
#
# Stress axis : x y z
#
# Youngs Moduli (GPa) = 80.26782 58.78297 62.00922
#
# Poissons Ratio (x) = -0.00163 0.42945
# Poissons Ratio (y) = -0.00223 0.38897
# Poissons Ratio (z) = 0.55590 0.36873
#
# Static dielectric constant tensor:
#      x y z
#    x 1.673440 0.000000 0.009950 
#    y 0.000000 1.631860 0.000000 
#    z 0.009950 0.000000 1.680120 
# 
# From -- ./inp_files/34054.got.cif
#   From: 2010.05.17/outbox.cif.g08.bks.cpg/sg5_18_cif.got.tgz:34054.got - 2010.06.03 18:56:24.
