data_PCOD9120799
_publ_section_title
;
Structure prediction by ZEFSAII (Michael W. Deem and Ramdas Pophale) SiO2 
 PCOD9120799
Probable space group: C 2
;
_chemical_formula_sum "Si O2"
_cell_formula_units_Z 30
_cell_length_a 11.656189
_cell_length_b 13.215209
_cell_length_c 23.813656
_cell_angle_alpha 90.000000
_cell_angle_beta 157.239448
_cell_angle_gamma 90.000000
_cell_volume 1419.168174
_symmetry_space_group_name_H-M "C 2"
_symmetry_group_IT_number 5
_symmetry_cell_setting 'monoclinic'
loop_
_space_group_symop_operation_xyz
x,y,z
-x,y,-z
1/2+x,1/2+y,z
1/2-x,1/2+y,-z
loop_
_atom_site_type_symbol
_atom_site_label
_atom_site_fract_x
_atom_site_fract_y
_atom_site_fract_z
Si Si1 0.268544 0.156110 0.466941
Si Si2 0.856876 0.663480 0.750470
Si Si3 0.145179 0.297042 0.844674
Si Si4 0.396398 0.394268 0.787055
Si Si5 0.312280 0.871728 0.581675
Si Si6 0.000000 0.053074 0.500000
Si Si7 0.296344 0.486952 0.964254
Si Si8 0.368062 0.589741 0.721363
O O1 0.385050 0.272699 0.518208
O O2 0.558976 0.095730 0.616107
O O3 0.193445 0.114293 0.371341
O O4 0.959536 0.156292 0.360142
O O5 0.978012 0.778060 0.810631
O O6 0.755679 0.621952 0.643436
O O7 0.100378 0.586348 0.884543
O O8 0.076990 0.392818 0.852799
O O9 0.002935 0.329987 0.721098
O O10 0.057505 0.186174 0.825593
O O11 0.500000 0.294673 0.000000
O O12 0.487060 0.477082 0.782071
O O13 0.041880 0.385558 0.635124
O O14 0.516490 0.446330 0.898565
O O15 0.143937 0.973641 0.521097
O O16 0.500000 0.503024 0.000000
#
# Coordination Sequence:
#
# PCOD9120799 Si02
#       8
#     4   4   4   4   4   2   4   4
#     4   9  21  39  60  91 124 157 218 253 295 370
#     4  11  25  40  62  95 123 170 206 254 318 373
#     4  10  18  35  63  89 112 154 208 262 300 343
#     4  11  23  38  59  88 129 162 199 253 321 369
#     4  10  18  35  60  89 115 155 212 261 295 351
#     4  12  20  36  64  90 124 158 212 258 314 374
#     4  11  22  42  64  90 121 160 213 265 301 363
#     4  10  21  37  62  89 124 162 201 257 308 360
#
# _framework density 21.139143000000001
#
# number of rings (size 3 to 8) (size 9 to 14) (size 15 to 20)
#    0.000    1.600    4.000    2.400    1.867    1.067 
#    0.000    2.000    2.933    0.000    0.000    0.000 
#    0.000    0.000    0.000    0.000    0.000    0.000 
#
# Total GULP energy -83568.724891 kJ/mol
# GULP energy per Si atom -5571.248326 kJ/mol
# Density = 2.109103 g / cm^3
# Si number density = 21.139143 Si / 1000 Ang^3
#
#
#
# Elastic Constant Matrix: (Units=GPa)
#
#
# Indices 1 2 3 4 5 6 
#
# 1 24.9864 31.3580 -7.0599 0.0051 5.7588 0.0008
# 2 31.3580 221.0157 41.3978 0.0076 4.5051 0.0017
# 3 -7.0599 41.3978 46.1245 0.0225 4.3666 -0.0020
# 4 0.0051 0.0076 0.0225 34.9392 -0.0032 4.0721
# 5 5.7588 4.5051 4.3666 -0.0032 20.8862 0.0001
# 6 0.0008 0.0017 -0.0020 4.0721 0.0001 26.5442
#
#
#
# Elastic Compliance Matrix: (Units=1/GPa)
#
#
# Indices 1 2 3 4 5 6 
#
# 1 0.070252 -0.014334 0.025667 -0.000026 -0.021644 0.000005
# 2 -0.014334 0.008364 -0.010104 0.000007 0.004261 -0.000002
# 3 0.025667 -0.010104 0.035851 -0.000027 -0.012393 0.000007
# 4 -0.000026 0.000007 -0.000027 0.029142 0.000016 -0.004471
# 5 -0.021644 0.004261 -0.012393 0.000016 0.055518 -0.000003
# 6 0.000005 -0.000002 0.000007 -0.004471 -0.000003 0.038359
#
#
# Mechanical properties :
#
#
# Convention : Reuss Voigt Hill
#
# Bulk Modulus (GPa) = 8.55253 47.05760 27.80506
# Shear Modulus (GPa) = 18.24796 31.56929 24.90862
#
# Velocity S-wave (km/s) = 2.94127 3.86865 3.43639
# Velocity P-wave (km/s) = 3.94833 6.50111 5.37837
#
# Compressibility (1/GPa) = 0.11692446
#
# Stress axis : x y z
#
# Youngs Moduli (GPa) = 14.23455 119.55984 27.89314
#
# Poissons Ratio (x) = 1.71375 -0.71593
# Poissons Ratio (y) = 0.20404 0.28184
# Poissons Ratio (z) = -0.36536 1.20806
#
# Static dielectric constant tensor:
#      x y z
#    x 1.827050 0.000000 -0.023720 
#    y 0.000000 1.806280 0.000000 
#    z -0.023720 0.000000 1.812690 
# 
# From -- ./inp_files/71921.got.cif
#   From: 2010.05.17/outbox.cif.g08.bks.cpg/sg5_36_cif.got.tgz:71921.got - 2010.06.03 18:56:24.
