data_PCOD9120190
_publ_section_title
;
Structure prediction by ZEFSAII (Michael W. Deem and Ramdas Pophale) SiO2 
 PCOD9120190
Probable space group: C 2
;
_chemical_formula_sum "Si O2"
_cell_formula_units_Z 28
_cell_length_a 20.458216
_cell_length_b 9.489228
_cell_length_c 8.607146
_cell_angle_alpha 90.000000
_cell_angle_beta 136.814448
_cell_angle_gamma 90.000000
_cell_volume 1143.521936
_symmetry_space_group_name_H-M "C 2"
_symmetry_group_IT_number 5
_symmetry_cell_setting 'monoclinic'
loop_
_space_group_symop_operation_xyz
x,y,z
-x,y,-z
1/2+x,1/2+y,z
1/2-x,1/2+y,-z
loop_
_atom_site_type_symbol
_atom_site_label
_atom_site_fract_x
_atom_site_fract_y
_atom_site_fract_z
Si Si1 0.798497 0.545290 0.375280
Si Si2 0.000000 0.274064 0.500000
Si Si3 0.794096 0.297345 0.122218
Si Si4 0.890318 0.691115 0.030819
Si Si5 0.500000 0.333263 0.500000
Si Si6 0.388352 0.460541 0.805858
Si Si7 0.983750 0.421857 0.809823
Si Si8 0.176198 0.866358 0.636012
O O1 0.800354 0.442088 0.230960
O O2 0.688247 0.554793 0.235352
O O3 0.873075 0.472010 0.620804
O O4 0.839158 0.699647 0.420570
O O5 0.106608 0.215464 0.698676
O O6 0.004878 0.353888 0.340827
O O7 0.713231 0.201534 0.065269
O O8 0.767835 0.352674 0.904911
O O9 0.959049 0.743916 0.287468
O O10 0.939546 0.549578 0.056618
O O11 0.887721 0.808072 0.890469
O O12 0.589139 0.417883 0.591118
O O13 0.338971 0.444005 0.551951
O O14 0.500000 0.503213 0.000000
O O15 0.000000 0.339933 0.000000
#
# Coordination Sequence:
#
# PCOD9120190 Si02
#       8
#     4   2   4   4   2   4   4   4
#     4  10  22  39  59  96 128 160 209 266 313 377
#     4  10  23  42  58  93 128 164 207 266 320 395
#     4   9  23  36  62  89 125 164 209 260 318 376
#     4  10  18  34  56  96 117 152 206 263 309 366
#     4  10  17  30  60  91 110 154 201 254 312 349
#     4  11  21  38  62  92 126 161 206 261 312 381
#     4  11  21  35  66  94 121 159 209 270 322 370
#     4  11  21  38  65  91 125 164 205 259 320 375
#
# _framework density 24.485757
#
# number of rings (size 3 to 8) (size 9 to 14) (size 15 to 20)
#    0.000    1.714    2.857    1.714    8.000    0.000 
#    0.000    0.000   15.714    0.000    0.000    0.000 
#    0.000    0.000    0.000    0.000    0.000    0.000 
#
# Total GULP energy -78136.436788 kJ/mol
# GULP energy per Si atom -5581.174056 kJ/mol
# Density = 2.443003 g / cm^3
# Si number density = 24.485757 Si / 1000 Ang^3
#
#
#
# Elastic Constant Matrix: (Units=GPa)
#
#
# Indices 1 2 3 4 5 6 
#
# 1 126.5650 35.3482 74.9225 0.0000 25.3413 0.0000
# 2 35.3482 37.6131 7.6885 0.0000 3.9577 0.0000
# 3 74.9225 7.6885 173.7252 0.0000 1.8734 0.0000
# 4 0.0000 0.0000 0.0000 -45.9162 0.0000 -47.6631
# 5 25.3413 3.9577 1.8734 0.0000 81.1996 0.0000
# 6 0.0000 0.0000 0.0000 -47.6631 0.0000 -44.9108
#
#
#
# Elastic Compliance Matrix: (Units=1/GPa)
#
#
# Indices 1 2 3 4 5 6 
#
# 1 0.016351 -0.013606 -0.006403 0.000000 -0.004292 0.000000
# 2 -0.013606 0.038285 0.004149 0.000000 0.002284 0.000000
# 3 -0.006403 0.004149 0.008317 0.000000 0.001604 0.000000
# 4 0.000000 0.000000 0.000000 0.214230 0.000000 -0.227359
# 5 -0.004292 0.002284 0.001604 0.000000 0.013506 0.000000
# 6 0.000000 0.000000 0.000000 -0.227359 0.000000 0.219026
#
#
# Mechanical properties :
#
#
# Convention : Reuss Voigt Hill
#
# Bulk Modulus (GPa) = 32.01861 63.75797 47.88829
# Shear Modulus (GPa) = 9.06049 12.73744 10.89896
#
# Velocity S-wave (km/s) = 1.92571 2.28326 2.11206
# Velocity P-wave (km/s) = 4.24844 5.74860 5.05448
#
# Compressibility (1/GPa) = 0.03123184
#
# Stress axis : x y z
#
# Youngs Moduli (GPa) = 61.15863 26.12014 120.23818
#
# Poissons Ratio (x) = 0.35539 0.76991
# Poissons Ratio (y) = 0.83211 -0.49884
# Poissons Ratio (z) = 0.39161 -0.10837
#
# Static dielectric constant tensor:
#      x y z
#    x 2.072570 0.000000 0.002140 
#    y 0.000000 1.942250 0.000000 
#    z 0.002140 0.000000 1.952740 
# 
# From -- ./inp_files/29676.got.cif
#   From: 2010.05.17/outbox.cif.g08.bks.cpg/sg5_15_cif.got.tgz:29676.got - 2010.06.03 18:56:24.
