data_PCOD9120182
_publ_section_title
;
Structure prediction by ZEFSAII (Michael W. Deem and Ramdas Pophale) SiO2 
 PCOD9120182
Probable space group: C 2
;
_chemical_formula_sum "Si O2"
_cell_formula_units_Z 26
_cell_length_a 15.613065
_cell_length_b 8.219879
_cell_length_c 12.879676
_cell_angle_alpha 90.000000
_cell_angle_beta 46.489796
_cell_angle_gamma 90.000000
_cell_volume 1198.801635
_symmetry_space_group_name_H-M "C 2"
_symmetry_group_IT_number 5
_symmetry_cell_setting 'monoclinic'
loop_
_space_group_symop_operation_xyz
x,y,z
-x,y,-z
1/2+x,1/2+y,z
1/2-x,1/2+y,-z
loop_
_atom_site_type_symbol
_atom_site_label
_atom_site_fract_x
_atom_site_fract_y
_atom_site_fract_z
Si Si1 0.000803 0.035280 0.214974
Si Si2 0.113966 0.428146 0.339201
Si Si3 0.500000 0.346535 0.000000
Si Si4 0.248841 0.907623 0.584320
Si Si5 0.989620 0.411535 0.248124
Si Si6 0.340462 0.104160 0.229214
Si Si7 0.891137 0.029550 0.663588
O O1 0.017283 0.227976 0.193350
O O2 0.084025 0.976795 0.239595
O O3 0.013533 0.948987 0.093824
O O4 0.865872 0.997306 0.362529
O O5 0.220025 0.477531 0.326311
O O6 0.109790 0.229317 0.338876
O O7 0.000000 0.481626 0.500000
O O8 0.091180 0.479274 0.239992
O O9 0.386598 0.229979 0.105271
O O10 0.366976 0.909162 0.417671
O O11 0.211274 0.721247 0.637353
O O12 0.954686 0.515838 0.178721
O O13 0.236971 0.988021 0.275141
O O14 0.000000 0.977110 0.500000
#
# Coordination Sequence:
#
# PCOD9120182 Si02
#       7
#     4   4   2   4   4   4   4
#     4  10  20  35  56  78 113 145 182 222 265 332
#     4   7  13  25  46  75 107 133 165 205 266 327
#     4  10  24  42  50  70 110 162 188 214 272 316
#     4   9  16  31  53  81 113 142 168 221 288 329
#     4  10  17  30  55  84 103 138 187 234 269 310
#     4  10  20  35  55  77 113 144 182 223 265 331
#     4   9  16  32  58  86 106 135 175 227 283 324
#
# _framework density 21.688324999999999
#
# number of rings (size 3 to 8) (size 9 to 14) (size 15 to 20)
#    0.000    2.769    0.000    4.615    0.000    0.615 
#    0.000   10.769    0.000    4.615    0.000    0.000 
#    0.000    0.000    0.000    0.000    0.000    0.000 
#
# Total GULP energy -72462.512633 kJ/mol
# GULP energy per Si atom -5574.039433 kJ/mol
# Density = 2.163896 g / cm^3
# Si number density = 21.688325 Si / 1000 Ang^3
#
#
#
# Elastic Constant Matrix: (Units=GPa)
#
#
# Indices 1 2 3 4 5 6 
#
# 1 92.6218 16.8589 -7.0638 0.0000 26.1220 0.0000
# 2 16.8589 24.7509 15.1965 0.0000 13.5607 0.0000
# 3 -7.0638 15.1965 69.1347 0.0000 14.6692 0.0000
# 4 0.0000 0.0000 0.0000 20.1708 0.0000 3.6531
# 5 26.1220 13.5607 14.6692 0.0000 28.6802 0.0000
# 6 0.0000 0.0000 0.0000 3.6531 0.0000 20.8649
#
#
#
# Elastic Compliance Matrix: (Units=1/GPa)
#
#
# Indices 1 2 3 4 5 6 
#
# 1 0.016945 -0.007125 0.006570 0.000000 -0.015425 0.000000
# 2 -0.007125 0.061027 -0.010541 0.000000 -0.016975 0.000000
# 3 0.006570 -0.010541 0.019815 0.000000 -0.011136 0.000000
# 4 0.000000 0.000000 0.000000 0.051200 0.000000 -0.008964
# 5 -0.015425 -0.016975 -0.011136 0.000000 0.062638 0.000000
# 6 0.000000 0.000000 0.000000 -0.008964 0.000000 0.049497
#
#
# Mechanical properties :
#
#
# Convention : Reuss Voigt Hill
#
# Bulk Modulus (GPa) = 13.22783 26.27674 19.75229
# Shear Modulus (GPa) = 16.20684 24.71093 20.45888
#
# Velocity S-wave (km/s) = 2.73657 3.37911 3.07467
# Velocity P-wave (km/s) = 4.01216 5.23129 4.66175
#
# Compressibility (1/GPa) = 0.07559817
#
# Stress axis : x y z
#
# Youngs Moduli (GPa) = 59.01502 16.38608 50.46556
#
# Poissons Ratio (x) = 0.11674 -0.33158
# Poissons Ratio (y) = 0.42046 0.53193
# Poissons Ratio (z) = -0.38775 0.17272
#
# Static dielectric constant tensor:
#      x y z
#    x 1.854560 0.000000 0.010440 
#    y 0.000000 1.794620 0.000000 
#    z 0.010440 0.000000 1.817490 
# 
# From -- ./inp_files/41634.got.cif
#   From: 2010.05.17/outbox.cif.g08.bks.cpg/sg5_21_cif.got.tgz:41634.got - 2010.06.03 18:56:24.
