data_PCOD9120460
_publ_section_title
;
Structure prediction by ZEFSAII (Michael W. Deem and Ramdas Pophale) SiO2 
 PCOD9120460
Probable space group: C 2
;
_chemical_formula_sum "Si O2"
_cell_formula_units_Z 24
_cell_length_a 7.825063
_cell_length_b 29.016442
_cell_length_c 7.410112
_cell_angle_alpha 90.000000
_cell_angle_beta 142.675075
_cell_angle_gamma 90.000000
_cell_volume 1020.161609
_symmetry_space_group_name_H-M "C 2"
_symmetry_group_IT_number 5
_symmetry_cell_setting 'monoclinic'
loop_
_space_group_symop_operation_xyz
x,y,z
-x,y,-z
1/2+x,1/2+y,z
1/2-x,1/2+y,-z
loop_
_atom_site_type_symbol
_atom_site_label
_atom_site_fract_x
_atom_site_fract_y
_atom_site_fract_z
Si Si1 0.300067 0.399710 0.162159
Si Si2 0.000000 0.621845 0.000000
Si Si3 0.946678 0.552232 0.264288
Si Si4 0.463440 0.495742 0.684084
Si Si5 0.000000 0.182696 0.500000
Si Si6 0.592221 0.808195 0.866524
Si Si7 0.404541 0.251927 0.630614
O O1 0.500000 0.385039 0.500000
O O2 0.439726 0.444291 0.190954
O O3 0.234004 0.357896 0.971380
O O4 0.000000 0.413537 0.000000
O O5 0.720544 0.651881 0.798671
O O6 0.939233 0.587925 0.784657
O O7 0.000000 0.575700 0.500000
O O8 0.140084 0.506907 0.440978
O O9 0.648074 0.533554 0.944362
O O10 0.500000 0.500643 0.500000
O O11 0.215007 0.211424 0.553148
O O12 0.303900 0.796128 0.526509
O O13 0.500000 0.807286 0.000000
O O14 0.813694 0.766722 0.028139
O O15 0.500000 0.244765 0.500000
#
# Coordination Sequence:
#
# PCOD9120460 Si02
#       7
#     4   2   4   4   2   4   4
#     4  10  18  30  58  98 129 176 228 271 314 395
#     4  12  26  48  70 100 132 174 234 292 350 424
#     4  12  25  44  70  95 132 179 223 279 352 420
#     4  11  20  39  66  98 134 178 228 275 337 400
#     4  12  26  44  72  96 132 174 228 292 356 418
#     4   9  17  33  59  91 133 170 223 265 323 396
#     4  10  21  39  64  94 127 175 216 276 339 410
#
# _framework density 23.525686
#
# number of rings (size 3 to 8) (size 9 to 14) (size 15 to 20)
#    0.000    1.333    1.667    7.000    0.000    0.667 
#    0.000    1.667   11.000    0.000    0.000    0.000 
#    0.000    0.000    0.000    0.000    0.000    0.000 
#
# Total GULP energy -67052.140036 kJ/mol
# GULP energy per Si atom -5587.678336 kJ/mol
# Density = 2.347214 g / cm^3
# Si number density = 23.525686 Si / 1000 Ang^3
#
#
#
# Elastic Constant Matrix: (Units=GPa)
#
#
# Indices 1 2 3 4 5 6 
#
# 1 103.4473 37.7588 19.6297 0.0000 -1.0452 0.0000
# 2 37.7588 105.1400 21.8156 0.0000 9.3818 0.0000
# 3 19.6297 21.8156 108.2797 0.0000 12.1283 0.0000
# 4 0.0000 0.0000 0.0000 -86.5622 0.0000 184.7816
# 5 -1.0452 9.3818 12.1283 0.0000 31.6245 0.0000
# 6 0.0000 0.0000 0.0000 184.7816 0.0000 -163.5578
#
#
#
# Elastic Compliance Matrix: (Units=1/GPa)
#
#
# Indices 1 2 3 4 5 6 
#
# 1 0.011428 -0.003982 -0.001509 0.000000 0.002138 0.000000
# 2 -0.003982 0.011473 -0.001247 0.000000 -0.003057 0.000000
# 3 -0.001509 -0.001247 0.010161 0.000000 -0.003577 0.000000
# 4 0.000000 0.000000 0.000000 0.008183 0.000000 0.009245
# 5 0.002138 -0.003057 -0.003577 0.000000 0.033970 0.000000
# 6 0.000000 0.000000 0.000000 0.009245 0.000000 0.004331
#
#
# Mechanical properties :
#
#
# Convention : Reuss Voigt Hill
#
# Bulk Modulus (GPa) = 51.05801 52.80835 51.93318
# Shear Modulus (GPa) = 50.22565 -27.85490 11.18538
#
# Velocity S-wave (km/s) = 4.62554 -3.44469 2.18286
# Velocity P-wave (km/s) = 7.09068 2.58353 5.33631
#
# Compressibility (1/GPa) = 0.01958557
#
# Stress axis : x y z
#
# Youngs Moduli (GPa) = 87.50386 87.16382 98.41751
#
# Poissons Ratio (x) = 0.34707 0.14851
# Poissons Ratio (y) = 0.34842 0.12275
# Poissons Ratio (z) = 0.13204 0.10871
#
# Static dielectric constant tensor:
#      x y z
#    x 1.931530 0.000000 0.038760 
#    y 0.000000 1.935000 0.000000 
#    z 0.038760 0.000000 1.810360 
# 
# From -- ./inp_files/17671.got.cif
#   From: 2010.05.17/outbox.cif.g08.bks.cpg/sg5_9_cif.got.tgz:17671.got - 2010.06.03 18:56:24.
