data_PCOD9120408
_publ_section_title
;
Structure prediction by ZEFSAII (Michael W. Deem and Ramdas Pophale) SiO2 
 PCOD9120408
Probable space group: C 2
;
_chemical_formula_sum "Si O2"
_cell_formula_units_Z 30
_cell_length_a 9.814562
_cell_length_b 31.680422
_cell_length_c 5.241144
_cell_angle_alpha 90.000000
_cell_angle_beta 109.801189
_cell_angle_gamma 90.000000
_cell_volume 1533.272407
_symmetry_space_group_name_H-M "C 2"
_symmetry_group_IT_number 5
_symmetry_cell_setting 'monoclinic'
loop_
_space_group_symop_operation_xyz
x,y,z
-x,y,-z
1/2+x,1/2+y,z
1/2-x,1/2+y,-z
loop_
_atom_site_type_symbol
_atom_site_label
_atom_site_fract_x
_atom_site_fract_y
_atom_site_fract_z
Si Si1 0.656591 0.215220 0.710096
Si Si2 0.825144 0.897803 0.389509
Si Si3 0.175942 0.042302 0.125242
Si Si4 0.341457 0.637564 0.773094
Si Si5 0.322991 0.346357 0.887984
Si Si6 0.000000 0.191883 0.500000
Si Si7 0.177188 0.993732 0.623255
Si Si8 0.229128 0.254163 0.739894
O O1 0.500000 0.207518 0.500000
O O2 0.730934 0.170729 0.817243
O O3 0.737180 0.240338 0.530204
O O4 0.656287 0.240743 0.971521
O O5 0.788959 0.880052 0.644749
O O6 0.774977 0.945566 0.307472
O O7 0.000000 0.899679 0.500000
O O8 0.784441 0.865859 0.137802
O O9 0.212275 0.090070 0.230019
O O10 0.224827 0.011419 0.380834
O O11 0.000000 0.041504 0.000000
O O12 0.223561 0.024784 0.881259
O O13 0.378933 0.659142 0.525367
O O14 0.500000 0.639529 0.000000
O O15 0.233256 0.304356 0.765569
O O16 0.500000 0.338481 0.000000
O O17 0.912446 0.226184 0.273470
O O18 0.000000 0.994021 0.500000
#
# Coordination Sequence:
#
# PCOD9120408 Si02
#       8
#     4   4   4   4   4   2   4   4
#     4  11  22  36  54  76 106 142 178 228 261 311
#     4   9  17  28  45  64 100 130 158 200 264 317
#     4   9  18  25  45  66  97 128 164 203 247 316
#     4  10  20  34  52  74 107 143 181 213 271 311
#     4  10  18  29  46  70  95 133 166 207 253 316
#     4  10  22  36  54  74 108 148 176 234 262 316
#     4   9  16  28  40  68  96 128 157 202 257 313
#     4  11  22  36  54  75 106 138 187 215 272 306
#
# _framework density 19.565995999999998
#
# number of rings (size 3 to 8) (size 9 to 14) (size 15 to 20)
#    0.000    2.133    1.333    2.800    4.667    4.267 
#    0.000    0.000    0.000    0.000    0.000    0.000 
#   12.000    0.000    0.000    0.000    0.000    0.000 
#
# Total GULP energy -83510.810203 kJ/mol
# GULP energy per Si atom -5567.387347 kJ/mol
# Density = 1.952146 g / cm^3
# Si number density = 19.565996 Si / 1000 Ang^3
#
#
#
# Elastic Constant Matrix: (Units=GPa)
#
#
# Indices 1 2 3 4 5 6 
#
# 1 12.3653 8.4419 8.0876 0.0000 -1.9908 0.0000
# 2 8.4419 141.1292 35.6954 0.0000 -2.1109 0.0000
# 3 8.0876 35.6954 86.6629 0.0000 -14.1168 0.0000
# 4 0.0000 0.0000 0.0000 32.8291 0.0000 -1.9267
# 5 -1.9908 -2.1109 -14.1168 0.0000 20.8564 0.0000
# 6 0.0000 0.0000 0.0000 -1.9267 0.0000 10.7190
#
#
#
# Elastic Compliance Matrix: (Units=1/GPa)
#
#
# Indices 1 2 3 4 5 6 
#
# 1 0.087972 -0.003671 -0.006058 0.000000 0.003925 0.000000
# 2 -0.003671 0.008109 -0.003283 0.000000 -0.001752 0.000000
# 3 -0.006058 -0.003283 0.014957 0.000000 0.009213 0.000000
# 4 0.000000 0.000000 0.000000 0.030786 0.000000 0.005534
# 5 0.003925 -0.001752 0.009213 0.000000 0.054380 0.000000
# 6 0.000000 0.000000 0.000000 0.005534 0.000000 0.094287
#
#
# Mechanical properties :
#
#
# Convention : Reuss Voigt Hill
#
# Bulk Modulus (GPa) = 11.76278 38.28970 25.02624
# Shear Modulus (GPa) = 14.49885 25.40973 19.95429
#
# Velocity S-wave (km/s) = 2.72513 3.60761 3.19697
# Velocity P-wave (km/s) = 3.99082 6.07990 5.14256
#
# Compressibility (1/GPa) = 0.08501394
#
# Stress axis : x y z
#
# Youngs Moduli (GPa) = 11.36724 123.31307 66.85681
#
# Poissons Ratio (x) = 0.45271 0.40504
# Poissons Ratio (y) = 0.04173 0.21948
# Poissons Ratio (z) = 0.06887 0.40483
#
# Static dielectric constant tensor:
#      x y z
#    x 1.759100 0.000000 -0.026710 
#    y 0.000000 1.680280 0.000000 
#    z -0.026710 0.000000 1.737200 
# 
# From -- ./inp_files/6142.got.cif
#   From: 2010.05.17/outbox.cif.g08.bks.cpg/sg5_4_cif.got.tgz:6142.got - 2010.06.03 18:56:24.
