data_PCOD9120475
_publ_section_title
;
Structure prediction by ZEFSAII (Michael W. Deem and Ramdas Pophale) SiO2 
 PCOD9120475
Probable space group: C 2
;
_chemical_formula_sum "Si O2"
_cell_formula_units_Z 24
_cell_length_a 17.439391
_cell_length_b 7.358040
_cell_length_c 14.862031
_cell_angle_alpha 90.000000
_cell_angle_beta 26.354460
_cell_angle_gamma 90.000000
_cell_volume 846.602162
_symmetry_space_group_name_H-M "C 2"
_symmetry_group_IT_number 5
_symmetry_cell_setting 'monoclinic'
loop_
_space_group_symop_operation_xyz
x,y,z
-x,y,-z
1/2+x,1/2+y,z
1/2-x,1/2+y,-z
loop_
_atom_site_type_symbol
_atom_site_label
_atom_site_fract_x
_atom_site_fract_y
_atom_site_fract_z
Si Si1 0.969266 0.595480 0.255108
Si Si2 0.325653 0.940284 0.120059
Si Si3 0.784697 0.107666 0.336147
Si Si4 0.096698 0.995814 0.133320
Si Si5 0.820602 0.552828 0.736069
Si Si6 0.661800 0.538533 0.453089
O O1 0.869604 0.514861 0.445077
O O2 0.806594 0.636490 0.360511
O O3 0.059010 0.783741 0.181734
O O4 0.101856 0.487414 0.053869
O O5 0.200468 0.770657 0.237218
O O6 0.209206 0.079767 0.300134
O O7 0.500000 0.910485 0.000000
O O8 0.806063 0.019670 0.215887
O O9 0.718478 0.320291 0.402061
O O10 0.959470 0.087683 0.208117
O O11 0.023841 0.069776 0.305790
O O12 0.268825 0.996809 0.890954
O O13 0.000000 0.505060 0.500000
#
# Coordination Sequence:
#
# PCOD9120475 Si02
#       6
#     4   4   4   4   4   4
#     4   9  17  30  54  83 101 120 159 209 253 291
#     4   9  17  34  56  77  99 125 162 205 247 299
#     4   9  18  34  53  75 102 130 161 201 247 298
#     4  10  18  31  53  76 101 129 161 206 250 287
#     4  11  22  35  49  69  99 140 175 199 237 293
#     4   8  16  30  51  76 102 126 156 198 248 296
#
# _framework density 28.348616
#
# number of rings (size 3 to 8) (size 9 to 14) (size 15 to 20)
#    0.000    2.667    0.000    3.500    0.000    5.333 
#    0.000    5.833    0.000    0.000    0.000    0.000 
#    0.000    0.000    0.000    0.000    0.000    0.000 
#
# Total GULP energy -67013.501003 kJ/mol
# GULP energy per Si atom -5584.458417 kJ/mol
# Density = 2.828409 g / cm^3
# Si number density = 28.348616 Si / 1000 Ang^3
#
#
#
# Elastic Constant Matrix: (Units=GPa)
#
#
# Indices 1 2 3 4 5 6 
#
# 1 102.2123 0.9858 49.0023 -0.0001 32.1662 0.0000
# 2 0.9858 57.4396 9.3019 -0.0004 1.5226 0.0002
# 3 49.0023 9.3019 278.5424 -0.0001 32.7041 0.0001
# 4 -0.0001 -0.0004 -0.0001 44.5444 0.0001 2.1465
# 5 32.1662 1.5226 32.7041 0.0001 69.3342 0.0000
# 6 0.0000 0.0002 0.0001 2.1465 0.0000 18.3786
#
#
#
# Elastic Compliance Matrix: (Units=1/GPa)
#
#
# Indices 1 2 3 4 5 6 
#
# 1 0.012059 0.000174 -0.001556 0.000000 -0.004864 0.000000
# 2 0.000174 0.017508 -0.000594 0.000000 -0.000185 0.000000
# 3 -0.001556 -0.000594 0.004020 0.000000 -0.001161 0.000000
# 4 0.000000 0.000000 0.000000 0.022577 0.000000 -0.002637
# 5 -0.004864 -0.000185 -0.001161 0.000000 0.017231 0.000000
# 6 0.000000 0.000000 0.000000 -0.002637 0.000000 0.054719
#
#
# Mechanical properties :
#
#
# Convention : Reuss Voigt Hill
#
# Bulk Modulus (GPa) = 33.74382 61.86380 47.80381
# Shear Modulus (GPa) = 35.22541 51.71173 43.46857
#
# Velocity S-wave (km/s) = 3.52885 4.27562 3.92006
# Velocity P-wave (km/s) = 5.34160 6.80033 6.11462
#
# Compressibility (1/GPa) = 0.02963505
#
# Stress axis : x y z
#
# Youngs Moduli (GPa) = 82.92798 57.11791 248.75382
#
# Poissons Ratio (x) = -0.00994 0.38709
# Poissons Ratio (y) = -0.01443 0.14764
# Poissons Ratio (z) = 0.12904 0.03390
#
# Static dielectric constant tensor:
#      x y z
#    x 2.363950 0.000000 -0.031060 
#    y 0.000000 2.251460 0.000000 
#    z -0.031060 0.000000 2.324990 
# 
# From -- ./inp_files/26514.got.cif
#   From: 2010.05.17/outbox.cif.g08.bks.cpg/sg5_14_cif.got.tgz:26514.got - 2010.06.03 18:56:24.
