data_PCOD9120855
_publ_section_title
;
Structure prediction by ZEFSAII (Michael W. Deem and Ramdas Pophale) SiO2 
 PCOD9120855
Probable space group: C 2
;
_chemical_formula_sum "Si O2"
_cell_formula_units_Z 30
_cell_length_a 23.910555
_cell_length_b 9.030801
_cell_length_c 8.058538
_cell_angle_alpha 90.000000
_cell_angle_beta 64.477858
_cell_angle_gamma 90.000000
_cell_volume 1570.291731
_symmetry_space_group_name_H-M "C 2"
_symmetry_group_IT_number 5
_symmetry_cell_setting 'monoclinic'
loop_
_space_group_symop_operation_xyz
x,y,z
-x,y,-z
1/2+x,1/2+y,z
1/2-x,1/2+y,-z
loop_
_atom_site_type_symbol
_atom_site_label
_atom_site_fract_x
_atom_site_fract_y
_atom_site_fract_z
Si Si1 0.152937 0.438010 0.931257
Si Si2 0.500000 0.504204 0.000000
Si Si3 0.282092 0.664667 0.304107
Si Si4 0.961706 0.260287 0.805602
Si Si5 0.298636 0.220620 0.295943
Si Si6 0.794137 0.427989 0.765736
Si Si7 0.879431 0.968707 0.316255
Si Si8 0.091914 0.245998 0.493662
O O1 0.195322 0.327364 0.768454
O O2 0.158533 0.599047 0.844011
O O3 0.083338 0.374964 0.042951
O O4 0.183611 0.432797 0.074374
O O5 0.530702 0.613684 0.095241
O O6 0.445931 0.419018 0.162918
O O7 0.254227 0.647746 0.523224
O O8 0.231271 0.588851 0.252462
O O9 0.344507 0.568239 0.223051
O O10 0.930255 0.227410 0.667901
O O11 0.032736 0.305773 0.673035
O O12 0.262537 0.317114 0.204204
O O13 0.335432 0.326422 0.377823
O O14 0.851485 0.362196 0.584736
O O15 0.889787 0.085911 0.452294
#
# Coordination Sequence:
#
# PCOD9120855 Si02
#       8
#     4   2   4   4   4   4   4   4
#     4  11  21  38  57  86 119 152 195 245 285 352
#     4  10  18  36  58  82 112 144 196 246 276 354
#     4  11  21  36  56  83 113 156 193 237 288 349
#     4   9  19  33  60  89 110 149 195 236 293 334
#     4  11  23  36  55  85 119 156 195 236 295 347
#     4  10  21  36  58  86 117 153 194 241 292 341
#     4  10  20  36  56  80 112 150 192 238 285 336
#     4   9  18  36  58  85 117 148 192 244 282 351
#
# _framework density 19.104731000000001
#
# number of rings (size 3 to 8) (size 9 to 14) (size 15 to 20)
#    0.000    1.867    2.667    2.400    0.000    0.000 
#    0.000    3.333    0.000    0.000    0.000    0.000 
#    0.000    0.000    0.000    0.000    0.000    0.000 
#
# Total GULP energy -83567.550309 kJ/mol
# GULP energy per Si atom -5571.170021 kJ/mol
# Density = 1.906125 g / cm^3
# Si number density = 19.104731 Si / 1000 Ang^3
#
#
#
# Elastic Constant Matrix: (Units=GPa)
#
#
# Indices 1 2 3 4 5 6 
#
# 1 75.1671 29.3927 25.4741 0.0000 -15.6564 0.0000
# 2 29.3927 69.7390 21.4751 0.0000 -15.2789 0.0000
# 3 25.4741 21.4751 73.2810 0.0000 -17.2155 0.0000
# 4 0.0000 0.0000 0.0000 23.4518 0.0000 3.2747
# 5 -15.6564 -15.2789 -17.2155 0.0000 28.3814 0.0000
# 6 0.0000 0.0000 0.0000 3.2747 0.0000 22.2465
#
#
#
# Elastic Compliance Matrix: (Units=1/GPa)
#
#
# Indices 1 2 3 4 5 6 
#
# 1 0.017521 -0.005291 -0.003427 0.000000 0.004738 0.000000
# 2 -0.005291 0.018506 -0.002250 0.000000 0.005679 0.000000
# 3 -0.003427 -0.002250 0.017222 0.000000 0.007345 0.000000
# 4 0.000000 0.000000 0.000000 0.043535 0.000000 -0.006408
# 5 0.004738 0.005679 0.007345 0.000000 0.045361 0.000000
# 6 0.000000 0.000000 0.000000 -0.006408 0.000000 0.045894
#
#
# Mechanical properties :
#
#
# Convention : Reuss Voigt Hill
#
# Bulk Modulus (GPa) = 31.93497 41.20788 36.57142
# Shear Modulus (GPa) = 22.68461 24.27229 23.47845
#
# Velocity S-wave (km/s) = 3.44958 3.56825 3.50942
# Velocity P-wave (km/s) = 5.71123 6.21232 5.96704
#
# Compressibility (1/GPa) = 0.03131363
#
# Stress axis : x y z
#
# Youngs Moduli (GPa) = 57.07426 54.03569 58.06455
#
# Poissons Ratio (x) = 0.28591 0.19899
# Poissons Ratio (y) = 0.30199 0.13063
# Poissons Ratio (z) = 0.19559 0.12157
#
# Static dielectric constant tensor:
#      x y z
#    x 1.687770 0.000000 -0.010600 
#    y 0.000000 1.646900 0.000000 
#    z -0.010600 0.000000 1.684530 
# 
# From -- ./inp_files/28920.got.cif
#   From: 2010.05.17/outbox.cif.g08.bks.cpg/sg5_15_cif.got.tgz:28920.got - 2010.06.03 18:56:24.
