data_PCOD9120425
_publ_section_title
;
Structure prediction by ZEFSAII (Michael W. Deem and Ramdas Pophale) SiO2 
 PCOD9120425
Probable space group: C 2
;
_chemical_formula_sum "Si O2"
_cell_formula_units_Z 28
_cell_length_a 5.407704
_cell_length_b 30.798874
_cell_length_c 6.963459
_cell_angle_alpha 90.000000
_cell_angle_beta 102.645559
_cell_angle_gamma 90.000000
_cell_volume 1131.639807
_symmetry_space_group_name_H-M "C 2"
_symmetry_group_IT_number 5
_symmetry_cell_setting 'monoclinic'
loop_
_space_group_symop_operation_xyz
x,y,z
-x,y,-z
1/2+x,1/2+y,z
1/2-x,1/2+y,-z
loop_
_atom_site_type_symbol
_atom_site_label
_atom_site_fract_x
_atom_site_fract_y
_atom_site_fract_z
Si Si1 0.289132 0.643190 0.131780
Si Si2 0.686838 0.738370 0.761775
Si Si3 0.502148 0.020168 0.218923
Si Si4 0.071662 0.421643 0.737835
Si Si5 0.924957 0.873123 0.260369
Si Si6 0.496756 0.552029 0.767448
Si Si7 0.808314 0.774646 0.206846
O O1 0.309454 0.686781 0.259027
O O2 0.381869 0.599245 0.249841
O O3 0.500000 0.648723 0.000000
O O4 0.000000 0.639991 0.000000
O O5 0.417880 0.760970 0.693186
O O6 0.916341 0.759040 0.687644
O O7 0.750162 0.749946 0.996567
O O8 0.391969 0.971634 0.200929
O O9 0.303992 0.047034 0.314300
O O10 0.500000 0.037637 0.000000
O O11 0.805367 0.020034 0.304048
O O12 0.323979 0.392509 0.796888
O O13 0.000000 0.421792 0.500000
O O14 0.819897 0.403799 0.796974
O O15 0.833435 0.825827 0.178789
O O16 0.000000 0.869194 0.500000
O O17 0.500000 0.544966 0.000000
#
# Coordination Sequence:
#
# PCOD9120425 Si02
#       7
#     4   4   4   4   4   4   4
#     4  11  16  28  46  74 106 136 166 198 248 310
#     4  10  18  30  47  75 108 129 164 204 257 312
#     4  10  19  35  49  77 108 129 170 212 261 313
#     4  10  21  38  57  75  99 139 183 217 256 315
#     4  10  21  37  55  74  98 136 183 219 255 306
#     4   9  18  28  49  73 106 134 160 204 255 306
#     4  10  18  32  47  72 104 129 166 217 250 304
#
# _framework density 24.742857000000001
#
# number of rings (size 3 to 8) (size 9 to 14) (size 15 to 20)
#    0.000    2.000    2.857    3.857    0.000    0.000 
#    7.714    0.000    0.000    0.000    0.000    6.000 
#    0.000    0.000    0.000    0.000    0.000    0.000 
#
# Total GULP energy -78252.219211 kJ/mol
# GULP energy per Si atom -5589.444229 kJ/mol
# Density = 2.468654 g / cm^3
# Si number density = 24.742857 Si / 1000 Ang^3
#
#
#
# Elastic Constant Matrix: (Units=GPa)
#
#
# Indices 1 2 3 4 5 6 
#
# 1 263.0601 68.0336 28.4474 0.0000 14.0839 0.0000
# 2 68.0336 171.3894 -15.2708 0.0000 11.6930 0.0000
# 3 28.4474 -15.2708 82.7085 0.0000 9.2661 0.0000
# 4 0.0000 0.0000 0.0000 -75.1512 0.0000 21.0662
# 5 14.0839 11.6930 9.2661 0.0000 40.0195 0.0000
# 6 0.0000 0.0000 0.0000 21.0662 0.0000 41.2530
#
#
#
# Elastic Compliance Matrix: (Units=1/GPa)
#
#
# Indices 1 2 3 4 5 6 
#
# 1 0.004530 -0.001921 -0.001845 0.000000 -0.000606 0.000000
# 2 -0.001921 0.006914 0.002144 0.000000 -0.001840 0.000000
# 3 -0.001845 0.002144 0.013468 0.000000 -0.003095 0.000000
# 4 0.000000 0.000000 0.000000 -0.011640 0.000000 0.005944
# 5 -0.000606 -0.001840 -0.003095 0.000000 0.026455 0.000000
# 6 0.000000 0.000000 0.000000 0.005944 0.000000 0.021205
#
#
# Mechanical properties :
#
#
# Convention : Reuss Voigt Hill
#
# Bulk Modulus (GPa) = 46.15475 75.50869 60.83172
# Shear Modulus (GPa) = 70.02786 30.28746 50.15766
#
# Velocity S-wave (km/s) = 5.32576 3.50249 4.50728
# Velocity P-wave (km/s) = 7.51748 6.85129 7.19211
#
# Compressibility (1/GPa) = 0.02166624
#
# Stress axis : x y z
#
# Youngs Moduli (GPa) = 220.73668 144.63592 74.25112
#
# Poissons Ratio (x) = 0.27790 0.13700
# Poissons Ratio (y) = 0.42412 -0.15916
# Poissons Ratio (z) = 0.40727 -0.31004
#
# Static dielectric constant tensor:
#      x y z
#    x 1.974850 0.000000 0.029100 
#    y 0.000000 1.916650 0.000000 
#    z 0.029100 0.000000 2.083220 
# 
# From -- ./inp_files/13219.got.cif
#   From: 2010.05.17/outbox.cif.g08.bks.cpg/sg5_7_cif.got.tgz:13219.got - 2010.06.03 18:56:24.
