data_PCOD9120768
_publ_section_title
;
Structure prediction by ZEFSAII (Michael W. Deem and Ramdas Pophale) SiO2 
 PCOD9120768
Probable space group: C 2
;
_chemical_formula_sum "Si O2"
_cell_formula_units_Z 20
_cell_length_a 13.449120
_cell_length_b 7.952852
_cell_length_c 7.113331
_cell_angle_alpha 90.000000
_cell_angle_beta 96.884335
_cell_angle_gamma 90.000000
_cell_volume 755.348284
_symmetry_space_group_name_H-M "C 2"
_symmetry_group_IT_number 5
_symmetry_cell_setting 'monoclinic'
loop_
_space_group_symop_operation_xyz
x,y,z
-x,y,-z
1/2+x,1/2+y,z
1/2-x,1/2+y,-z
loop_
_atom_site_type_symbol
_atom_site_label
_atom_site_fract_x
_atom_site_fract_y
_atom_site_fract_z
Si Si1 0.717601 0.183800 0.418686
Si Si2 0.762114 0.870474 0.921244
Si Si3 0.557667 0.330941 0.812464
Si Si4 0.385316 0.524491 0.637441
Si Si5 0.084018 0.474866 0.647146
O O1 0.714258 0.199414 0.193099
O O2 0.654484 0.348742 0.461069
O O3 0.665985 0.032572 0.512919
O O4 0.832465 0.170652 0.510039
O O5 0.826075 0.016281 0.825574
O O6 0.646483 0.900852 0.839251
O O7 0.823370 0.851071 0.125379
O O8 0.501805 0.488893 0.701362
O O9 0.537848 0.150450 0.714220
O O10 0.500000 0.322540 0.000000
O O11 0.000000 0.388069 0.500000
#
# Coordination Sequence:
#
# PCOD9120768 Si02
#       5
#     4   4   4   4   4
#     4   9  17  34  57  80 104 140 179 224 261 317
#     4   8  19  34  51  80 108 137 174 232 258 310
#     4  10  18  35  53  80 107 146 175 218 269 322
#     4   8  16  31  58  79 102 138 178 215 267 314
#     4  11  18  34  58  78 102 146 187 210 266 327
#
# _framework density 26.477853
#
# number of rings (size 3 to 8) (size 9 to 14) (size 15 to 20)
#    1.200    1.600    2.000    0.000    0.000    0.000 
#    3.600    2.000    0.000    0.000   10.400    0.000 
#    0.000    0.000    0.000    0.000    0.000    0.000 
#
# Total GULP energy -55694.315300 kJ/mol
# GULP energy per Si atom -5569.431530 kJ/mol
# Density = 2.641759 g / cm^3
# Si number density = 26.477853 Si / 1000 Ang^3
#
#
#
# Elastic Constant Matrix: (Units=GPa)
#
#
# Indices 1 2 3 4 5 6 
#
# 1 103.0736 27.5150 42.4014 0.0000 47.3386 0.0000
# 2 27.5150 64.9787 16.7975 0.0000 24.1342 0.0000
# 3 42.4014 16.7975 157.3110 0.0000 50.0713 0.0000
# 4 0.0000 0.0000 0.0000 28.9163 0.0000 27.7691
# 5 47.3386 24.1342 50.0713 0.0000 58.2138 0.0000
# 6 0.0000 0.0000 0.0000 27.7691 0.0000 46.9078
#
#
#
# Elastic Compliance Matrix: (Units=1/GPa)
#
#
# Indices 1 2 3 4 5 6 
#
# 1 0.015772 -0.002286 -0.000312 0.000000 -0.011610 0.000000
# 2 -0.002286 0.018568 0.000677 0.000000 -0.006421 0.000000
# 3 -0.000312 0.000677 0.008781 0.000000 -0.007580 0.000000
# 4 0.000000 0.000000 0.000000 0.080147 0.000000 -0.047446
# 5 -0.011610 -0.006421 -0.007580 0.000000 0.035802 0.000000
# 6 0.000000 0.000000 0.000000 -0.047446 0.000000 0.049406
#
#
# Mechanical properties :
#
#
# Convention : Reuss Voigt Hill
#
# Bulk Modulus (GPa) = 25.45778 55.42122 40.43950
# Shear Modulus (GPa) = 22.18177 42.71752 32.44964
#
# Velocity S-wave (km/s) = 2.89753 4.02099 3.50457
# Velocity P-wave (km/s) = 4.56397 6.52184 5.62869
#
# Compressibility (1/GPa) = 0.03928072
#
# Stress axis : x y z
#
# Youngs Moduli (GPa) = 63.40172 53.85730 113.87781
#
# Poissons Ratio (x) = 0.12312 0.03550
# Poissons Ratio (y) = 0.14494 -0.07715
# Poissons Ratio (z) = 0.01977 -0.03649
#
# Static dielectric constant tensor:
#      x y z
#    x 2.202120 0.000000 0.005040 
#    y 0.000000 2.091730 0.000000 
#    z 0.005040 0.000000 2.139530 
# 
# From -- ./inp_files/23193.got.cif
#   From: 2010.05.17/outbox.cif.g08.bks.cpg/sg5_12_cif.got.tgz:23193.got - 2010.06.03 18:56:24.
