data_PCOD9120703
_publ_section_title
;
Structure prediction by ZEFSAII (Michael W. Deem and Ramdas Pophale) SiO2 
 PCOD9120703
Probable space group: C 2
;
_chemical_formula_sum "Si O2"
_cell_formula_units_Z 20
_cell_length_a 10.834523
_cell_length_b 12.943928
_cell_length_c 8.928943
_cell_angle_alpha 90.000000
_cell_angle_beta 43.273254
_cell_angle_gamma 90.000000
_cell_volume 858.360658
_symmetry_space_group_name_H-M "C 2"
_symmetry_group_IT_number 5
_symmetry_cell_setting 'monoclinic'
loop_
_space_group_symop_operation_xyz
x,y,z
-x,y,-z
1/2+x,1/2+y,z
1/2-x,1/2+y,-z
loop_
_atom_site_type_symbol
_atom_site_label
_atom_site_fract_x
_atom_site_fract_y
_atom_site_fract_z
Si Si1 0.572958 0.867020 0.603057
Si Si2 0.473269 0.085663 0.340243
Si Si3 0.093005 0.164472 0.746641
Si Si4 0.988374 0.927644 0.182036
Si Si5 0.842300 0.771565 0.766059
O O1 0.500000 0.863534 0.500000
O O2 0.512742 0.761034 0.730616
O O3 0.789547 0.888539 0.411204
O O4 0.500238 0.971737 0.743707
O O5 0.500000 0.075273 0.500000
O O6 0.272863 0.127826 0.498296
O O7 0.600837 0.176835 0.176842
O O8 0.176922 0.220772 0.821179
O O9 0.996512 0.053072 0.839292
O O10 0.137367 0.874682 0.155511
O O11 0.000000 0.892833 0.000000
O O12 0.000000 0.784221 0.500000
#
# Coordination Sequence:
#
# PCOD9120703 Si02
#       5
#     4   4   4   4   4
#     4  10  18  34  59  86 116 156 206 248 286 367
#     4   7  13  27  52  77  98 144 196 231 273 333
#     4   9  18  34  57  83 117 156 200 237 292 368
#     4  11  22  38  61  92 120 152 196 260 313 340
#     4   9  16  36  62  80 112 164 204 231 291 375
#
# _framework density 23.300229000000002
#
# number of rings (size 3 to 8) (size 9 to 14) (size 15 to 20)
#    0.000    3.200    4.000    1.200    0.000    0.800 
#    3.600    0.000    0.000    0.000    0.000    0.000 
#    0.000    0.000    0.000    0.000    0.000    0.000 
#
# Total GULP energy -55689.408273 kJ/mol
# GULP energy per Si atom -5568.940827 kJ/mol
# Density = 2.324720 g / cm^3
# Si number density = 23.300229 Si / 1000 Ang^3
#
#
#
# Elastic Constant Matrix: (Units=GPa)
#
#
# Indices 1 2 3 4 5 6 
#
# 1 80.2851 75.2425 13.7043 -0.0002 -2.5102 0.0003
# 2 75.2425 227.6970 46.0655 0.0000 16.5283 0.0000
# 3 13.7043 46.0655 47.8802 0.0000 -8.1707 0.0002
# 4 -0.0002 0.0000 0.0000 33.0811 0.0001 18.0446
# 5 -2.5102 16.5283 -8.1707 0.0001 27.6456 -0.0002
# 6 0.0003 0.0000 0.0002 18.0446 -0.0002 66.5068
#
#
#
# Elastic Compliance Matrix: (Units=1/GPa)
#
#
# Indices 1 2 3 4 5 6 
#
# 1 0.019129 -0.007405 0.002845 0.000000 0.007005 0.000000
# 2 -0.007405 0.009089 -0.008074 0.000000 -0.008493 0.000000
# 3 0.002845 -0.008074 0.030232 0.000000 0.014021 0.000000
# 4 0.000000 0.000000 0.000000 0.035480 0.000000 -0.009626
# 5 0.007005 -0.008493 0.014021 0.000000 0.046029 0.000000
# 6 0.000000 0.000000 0.000000 -0.009626 0.000000 0.017648
#
#
# Mechanical properties :
#
#
# Convention : Reuss Voigt Hill
#
# Bulk Modulus (GPa) = 30.13786 69.54299 49.84043
# Shear Modulus (GPa) = 25.78173 40.17002 32.97587
#
# Velocity S-wave (km/s) = 3.33002 4.15663 3.76607
# Velocity P-wave (km/s) = 5.26764 7.27654 6.35201
#
# Compressibility (1/GPa) = 0.03318086
#
# Stress axis : x y z
#
# Youngs Moduli (GPa) = 52.27615 110.02564 33.07776
#
# Poissons Ratio (x) = 0.81477 -0.09410
# Poissons Ratio (y) = 0.38712 0.26707
# Poissons Ratio (z) = -0.14872 0.88835
#
# Static dielectric constant tensor:
#      x y z
#    x 1.913320 0.000000 -0.094440 
#    y 0.000000 1.902270 0.000000 
#    z -0.094440 0.000000 1.854380 
# 
# From -- ./inp_files/18679.got.cif
#   From: 2010.05.17/outbox.cif.g08.bks.cpg/sg5_10_cif.got.tgz:18679.got - 2010.06.03 18:56:24.
