data_PCOD9120905
_publ_section_title
;
Structure prediction by ZEFSAII (Michael W. Deem and Ramdas Pophale) SiO2 
 PCOD9120905
Probable space group: C 2
;
_chemical_formula_sum "Si O2"
_cell_formula_units_Z 30
_cell_length_a 16.059222
_cell_length_b 17.344528
_cell_length_c 5.205497
_cell_angle_alpha 90.000000
_cell_angle_beta 72.234945
_cell_angle_gamma 90.000000
_cell_volume 1380.797889
_symmetry_space_group_name_H-M "C 2"
_symmetry_group_IT_number 5
_symmetry_cell_setting 'monoclinic'
loop_
_space_group_symop_operation_xyz
x,y,z
-x,y,-z
1/2+x,1/2+y,z
1/2-x,1/2+y,-z
loop_
_atom_site_type_symbol
_atom_site_label
_atom_site_fract_x
_atom_site_fract_y
_atom_site_fract_z
Si Si1 0.195740 0.734030 0.799941
Si Si2 0.940094 0.624772 0.311524
Si Si3 0.438268 0.508418 0.809847
Si Si4 0.560546 0.332787 0.198119
Si Si5 0.837378 0.303331 0.370546
Si Si6 0.938325 0.451439 0.305903
Si Si7 0.147091 0.163115 0.051367
Si Si8 0.500000 0.732248 0.500000
O O1 0.135401 0.685543 0.667595
O O2 0.137431 0.771971 0.076711
O O3 0.246288 0.801202 0.603274
O O4 0.273856 0.680273 0.828697
O O5 0.903797 0.538141 0.379370
O O6 0.000000 0.640991 0.500000
O O7 0.000000 0.626448 0.000000
O O8 0.500000 0.524947 0.500000
O O9 0.405236 0.420532 0.806175
O O10 0.363344 0.570849 0.951861
O O11 0.500000 0.508089 0.000000
O O12 0.500000 0.317033 0.500000
O O13 0.500000 0.328728 0.000000
O O14 0.863648 0.390909 0.290748
O O15 0.920939 0.281335 0.465584
O O16 0.836415 0.230502 0.175554
O O17 0.000000 0.434967 0.500000
O O18 0.000000 0.452562 0.000000
O O19 0.048917 0.182733 0.241011
#
# Coordination Sequence:
#
# PCOD9120905 Si02
#       8
#     4   4   4   4   4   4   4   2
#     4  11  27  43  63 108 134 178 231 291 357 411
#     4  10  24  47  74  94 129 184 239 290 343 413
#     4  10  21  43  70  99 131 183 237 279 341 416
#     4  10  24  47  74  94 129 184 239 290 343 413
#     4  11  23  38  64 101 144 179 225 283 347 429
#     4  10  21  43  70  99 131 183 237 279 341 416
#     4  11  23  38  64 101 144 179 225 283 347 429
#     4  10  18  36  62  94 134 184 218 268 338 418
#
# _framework density 21.726569000000001
#
# number of rings (size 3 to 8) (size 9 to 14) (size 15 to 20)
#    0.000    1.600    1.333    2.400    7.467    1.067 
#    4.800    0.000    0.000    0.000    0.000    0.000 
#    0.000    0.000    0.000    0.000    0.000    0.000 
#
# Total GULP energy -83645.277115 kJ/mol
# GULP energy per Si atom -5576.351808 kJ/mol
# Density = 2.167712 g / cm^3
# Si number density = 21.726569 Si / 1000 Ang^3
#
#
#
# Elastic Constant Matrix: (Units=GPa)
#
#
# Indices 1 2 3 4 5 6 
#
# 1 83.4460 57.1741 40.1092 0.0000 -3.6940 0.0000
# 2 57.1741 154.9654 32.7350 0.0000 -11.2834 0.0000
# 3 40.1092 32.7350 119.8767 0.0000 4.2479 0.0000
# 4 0.0000 0.0000 0.0000 33.1162 0.0000 0.4090
# 5 -3.6940 -11.2834 4.2479 0.0000 36.7101 0.0000
# 6 0.0000 0.0000 0.0000 0.4090 0.0000 18.0126
#
#
#
# Elastic Compliance Matrix: (Units=1/GPa)
#
#
# Indices 1 2 3 4 5 6 
#
# 1 0.018065 -0.005667 -0.004518 0.000000 0.000599 0.000000
# 2 -0.005667 0.008830 -0.000594 0.000000 0.002213 0.000000
# 3 -0.004518 -0.000594 0.010080 0.000000 -0.001803 0.000000
# 4 0.000000 0.000000 0.000000 0.030205 0.000000 -0.000686
# 5 0.000599 0.002213 -0.001803 0.000000 0.028189 0.000000
# 6 0.000000 0.000000 0.000000 -0.000686 0.000000 0.055532
#
#
# Mechanical properties :
#
#
# Convention : Reuss Voigt Hill
#
# Bulk Modulus (GPa) = 64.86118 68.70275 66.78197
# Shear Modulus (GPa) = 28.15349 32.78576 30.46962
#
# Velocity S-wave (km/s) = 3.60364 3.88882 3.74894
# Velocity P-wave (km/s) = 6.87264 7.20098 7.03872
#
# Compressibility (1/GPa) = 0.01541754
#
# Stress axis : x y z
#
# Youngs Moduli (GPa) = 55.35663 113.24557 99.21062
#
# Poissons Ratio (x) = 0.64176 0.44823
# Poissons Ratio (y) = 0.31370 0.05890
# Poissons Ratio (z) = 0.25010 0.06723
#
# Static dielectric constant tensor:
#      x y z
#    x 1.752900 0.000000 0.023240 
#    y 0.000000 1.914940 0.000000 
#    z 0.023240 0.000000 1.828750 
# 
# From -- ./inp_files/7285.got.cif
#   From: 2010.05.17/outbox.cif.g08.bks.cpg/sg5_4_cif.got.tgz:7285.got - 2010.06.03 18:56:24.
