data_PCOD9120667
_publ_section_title
;
Structure prediction by ZEFSAII (Michael W. Deem and Ramdas Pophale) SiO2 
 PCOD9120667
Probable space group: C 2
;
_chemical_formula_sum "Si O2"
_cell_formula_units_Z 22
_cell_length_a 7.388454
_cell_length_b 7.032990
_cell_length_c 15.650449
_cell_angle_alpha 90.000000
_cell_angle_beta 108.862690
_cell_angle_gamma 90.000000
_cell_volume 769.568743
_symmetry_space_group_name_H-M "C 2"
_symmetry_group_IT_number 5
_symmetry_cell_setting 'monoclinic'
loop_
_space_group_symop_operation_xyz
x,y,z
-x,y,-z
1/2+x,1/2+y,z
1/2-x,1/2+y,-z
loop_
_atom_site_type_symbol
_atom_site_label
_atom_site_fract_x
_atom_site_fract_y
_atom_site_fract_z
Si Si1 0.139005 0.509270 0.734301
Si Si2 0.451388 0.770908 0.588653
Si Si3 0.899210 0.893211 0.350028
Si Si4 0.336787 0.016445 0.840288
Si Si5 0.335981 0.620095 0.918756
Si Si6 0.500000 0.227460 0.000000
O O1 0.133596 0.323115 0.676767
O O2 0.065299 0.671954 0.659371
O O3 0.324722 0.558013 0.818336
O O4 0.990605 0.508492 0.788611
O O5 0.500000 0.824003 0.500000
O O6 0.274039 0.875503 0.607230
O O7 0.443570 0.541701 0.594388
O O8 0.845453 0.956895 0.244796
O O9 0.379237 0.841401 0.910547
O O10 0.329148 0.207220 0.895426
O O11 0.500000 0.494273 0.000000
O O12 0.155640 0.636818 0.953514
#
# Coordination Sequence:
#
# PCOD9120667 Si02
#       6
#     4   4   4   4   4   2
#     4  10  23  42  68  98 144 186 239 303 377 440
#     4  11  26  46  76 108 145 187 244 309 378 456
#     4  10  25  46  70 105 144 187 245 300 377 452
#     4  10  20  39  61  96 136 184 236 295 358 439
#     4   9  20  36  57  93 134 180 237 289 345 433
#     4  10  18  34  56  88 136 182 228 284 358 406
#
# _framework density 28.587440000000001
#
# number of rings (size 3 to 8) (size 9 to 14) (size 15 to 20)
#    0.545    1.455    0.909    1.091    2.545    9.455 
#    0.000    0.000    0.000    0.000    0.000    0.000 
#    0.000    0.000    0.000    0.000    0.000    0.000 
#
# Total GULP energy -61318.585099 kJ/mol
# GULP energy per Si atom -5574.416827 kJ/mol
# Density = 2.852237 g / cm^3
# Si number density = 28.587440 Si / 1000 Ang^3
#
#
#
# Elastic Constant Matrix: (Units=GPa)
#
#
# Indices 1 2 3 4 5 6 
#
# 1 112.2121 19.2625 44.2630 0.0000 -40.3383 0.0000
# 2 19.2625 148.9372 51.0383 0.0000 -0.1919 0.0000
# 3 44.2630 51.0383 176.0030 0.0000 -36.3068 0.0000
# 4 0.0000 0.0000 0.0000 48.9371 0.0000 -3.7092
# 5 -40.3383 -0.1919 -36.3068 0.0000 38.8099 0.0000
# 6 0.0000 0.0000 0.0000 -3.7092 0.0000 45.2792
#
#
#
# Elastic Compliance Matrix: (Units=1/GPa)
#
#
# Indices 1 2 3 4 5 6 
#
# 1 0.014739 -0.001886 -0.000002 0.000000 0.015309 0.000000
# 2 -0.001886 0.007891 -0.002739 0.000000 -0.004483 0.000000
# 3 -0.000002 -0.002739 0.008021 0.000000 0.007488 0.000000
# 4 0.000000 0.000000 0.000000 0.020562 0.000000 0.001684
# 5 0.015309 -0.004483 0.007488 0.000000 0.048661 0.000000
# 6 0.000000 0.000000 0.000000 0.001684 0.000000 0.022223
#
#
# Mechanical properties :
#
#
# Convention : Reuss Voigt Hill
#
# Bulk Modulus (GPa) = 46.73307 74.03108 60.38208
# Shear Modulus (GPa) = 36.10527 48.11116 42.10822
#
# Velocity S-wave (km/s) = 3.55769 4.10683 3.84208
# Velocity P-wave (km/s) = 5.76707 6.95993 6.39139
#
# Compressibility (1/GPa) = 0.02139812
#
# Stress axis : x y z
#
# Youngs Moduli (GPa) = 67.84526 126.72811 124.67058
#
# Poissons Ratio (x) = 0.23899 0.00025
# Poissons Ratio (y) = 0.12795 0.34145
# Poissons Ratio (z) = 0.00013 0.34708
#
# Static dielectric constant tensor:
#      x y z
#    x 2.564880 0.000000 0.422960 
#    y 0.000000 2.354880 0.000000 
#    z 0.422960 0.000000 2.376570 
# 
# From -- ./inp_files/49855.got.cif
#   From: 2010.05.17/outbox.cif.g08.bks.cpg/sg5_25_cif.got.tgz:49855.got - 2010.06.03 18:56:24.
