data_PCOD9120141
_publ_section_title
;
Structure prediction by ZEFSAII (Michael W. Deem and Ramdas Pophale) SiO2 
 PCOD9120141
Probable space group: C 2
;
_chemical_formula_sum "Si O2"
_cell_formula_units_Z 22
_cell_length_a 21.525988
_cell_length_b 7.300177
_cell_length_c 23.854193
_cell_angle_alpha 90.000000
_cell_angle_beta 162.864485
_cell_angle_gamma 90.000000
_cell_volume 1104.440156
_symmetry_space_group_name_H-M "C 2"
_symmetry_group_IT_number 5
_symmetry_cell_setting 'monoclinic'
loop_
_space_group_symop_operation_xyz
x,y,z
-x,y,-z
1/2+x,1/2+y,z
1/2-x,1/2+y,-z
loop_
_atom_site_type_symbol
_atom_site_label
_atom_site_fract_x
_atom_site_fract_y
_atom_site_fract_z
Si Si1 0.500000 0.532881 0.500000
Si Si2 0.005426 0.871440 0.182230
Si Si3 0.418179 0.407391 0.988000
Si Si4 0.485222 0.747495 0.603095
Si Si5 0.038036 0.468904 0.095877
Si Si6 0.201060 0.036413 0.886414
O O1 0.530138 0.653591 0.581895
O O2 0.279683 0.429430 0.319342
O O3 0.920724 0.961444 0.165457
O O4 0.246393 0.811882 0.397689
O O5 0.990651 0.982277 0.110590
O O6 0.848769 0.700238 0.036744
O O7 0.165067 0.400569 0.766476
O O8 0.500000 0.485333 0.000000
O O9 0.502789 0.193184 0.062808
O O10 0.536944 0.609085 0.698348
O O11 0.000000 0.404250 0.000000
O O12 0.864788 0.410800 0.992187
#
# Coordination Sequence:
#
# PCOD9120141 Si02
#       6
#     2   4   4   4   4   4
#     4  12  12  26  52  76  98 120 160 234 256 264
#     4  10  20  34  50  73 109 136 164 207 253 302
#     4   9  15  27  46  75  96 122 165 212 253 288
#     4  10  17  27  49  76 102 126 166 209 258 290
#     4   9  15  26  45  73 100 118 167 212 255 282
#     4  10  21  33  49  77 105 137 167 203 254 306
#
# _framework density 19.919592999999999
#
# number of rings (size 3 to 8) (size 9 to 14) (size 15 to 20)
#    0.000    2.545    9.091    0.000    0.000    2.909 
#    0.000    0.000    0.000    1.091    0.000    1.273 
#    0.000    0.000    0.000    0.000    0.000    0.000 
#
# Total GULP energy -61255.533002 kJ/mol
# GULP energy per Si atom -5568.684818 kJ/mol
# Density = 1.987425 g / cm^3
# Si number density = 19.919593 Si / 1000 Ang^3
#
#
#
# Elastic Constant Matrix: (Units=GPa)
#
#
# Indices 1 2 3 4 5 6 
#
# 1 235.2927 27.3825 86.1063 -0.0018 2.5558 -0.0004
# 2 27.3825 31.0625 16.8007 -0.0025 -0.6969 -0.0006
# 3 86.1063 16.8007 170.7172 0.0015 -10.5774 -0.0007
# 4 -0.0018 -0.0025 0.0015 2.5401 0.0029 5.3954
# 5 2.5558 -0.6969 -10.5774 0.0029 32.0895 0.0003
# 6 -0.0004 -0.0006 -0.0007 5.3954 0.0003 7.5733
#
#
#
# Elastic Compliance Matrix: (Units=1/GPa)
#
#
# Indices 1 2 3 4 5 6 
#
# 1 0.005623 -0.003599 -0.002567 -0.000008 -0.001372 0.000005
# 2 -0.003599 0.036311 -0.001727 -0.000055 0.000506 0.000042
# 3 -0.002567 -0.001727 0.007486 0.000023 0.002634 -0.000016
# 4 -0.000008 -0.000055 0.000023 -0.767019 0.000072 0.546445
# 5 -0.001372 0.000506 0.002634 0.000072 0.032151 -0.000052
# 6 0.000005 0.000042 -0.000016 0.546445 -0.000052 -0.257259
#
#
# Mechanical properties :
#
#
# Convention : Reuss Voigt Hill
#
# Bulk Modulus (GPa) = 29.73186 77.51682 53.62434
# Shear Modulus (GPa) = -5.46025 28.89277 11.71626
#
# Velocity S-wave (km/s) = -1.65744 3.81263 2.42787
# Velocity P-wave (km/s) = 3.36088 7.64074 5.90239
#
# Compressibility (1/GPa) = 0.03363395
#
# Stress axis : x y z
#
# Youngs Moduli (GPa) = 177.83363 27.53957 133.59078
#
# Poissons Ratio (x) = 0.09913 0.34293
# Poissons Ratio (y) = 0.64010 0.23067
# Poissons Ratio (z) = 0.45651 0.04755
#
# Static dielectric constant tensor:
#      x y z
#    x 1.745520 0.000000 0.005570 
#    y 0.000000 1.802580 0.000000 
#    z 0.005570 0.000000 1.693720 
# 
# From -- ./inp_files/66637.got.cif
#   From: 2010.05.17/outbox.cif.g08.bks.cpg/sg5_34_cif.got.tgz:66637.got - 2010.06.03 18:56:24.
