data_PCOD9120814
_publ_section_title
;
Structure prediction by ZEFSAII (Michael W. Deem and Ramdas Pophale) SiO2 
 PCOD9120814
Probable space group: C 2
;
_chemical_formula_sum "Si O2"
_cell_formula_units_Z 30
_cell_length_a 10.619129
_cell_length_b 20.022042
_cell_length_c 11.994898
_cell_angle_alpha 90.000000
_cell_angle_beta 143.243737
_cell_angle_gamma 90.000000
_cell_volume 1526.139559
_symmetry_space_group_name_H-M "C 2"
_symmetry_group_IT_number 5
_symmetry_cell_setting 'monoclinic'
loop_
_space_group_symop_operation_xyz
x,y,z
-x,y,-z
1/2+x,1/2+y,z
1/2-x,1/2+y,-z
loop_
_atom_site_type_symbol
_atom_site_label
_atom_site_fract_x
_atom_site_fract_y
_atom_site_fract_z
Si Si1 0.987186 0.180170 0.719480
Si Si2 0.710852 0.725222 0.086599
Si Si3 0.678627 0.433518 0.530202
Si Si4 0.109200 0.783781 0.457310
Si Si5 0.000000 0.119939 0.500000
Si Si6 0.562659 0.035822 0.174546
Si Si7 0.309283 0.540413 0.654222
Si Si8 0.346916 0.077077 0.234867
O O1 0.778311 0.225147 0.571505
O O2 0.046608 0.167616 0.635791
O O3 0.950176 0.105296 0.737172
O O4 0.151906 0.213641 0.917515
O O5 0.770167 0.653728 0.185663
O O6 0.913403 0.771290 0.237765
O O7 0.500000 0.750062 0.000000
O O8 0.500000 0.436263 0.500000
O O9 0.704377 0.357233 0.511804
O O10 0.881036 0.462722 0.737957
O O11 0.632314 0.479823 0.387997
O O12 0.000000 0.780310 0.500000
O O13 0.784809 0.075794 0.355469
O O14 0.379131 0.060862 0.127168
O O15 0.500000 0.038588 0.000000
O O16 0.287968 0.532619 0.773192
O O17 0.082228 0.565824 0.448522
#
# Coordination Sequence:
#
# PCOD9120814 Si02
#       8
#     4   4   4   4   2   4   4   4
#     4  12  22  37  62  90 126 157 214 254 314 378
#     4  12  21  34  62  99 118 156 210 261 316 374
#     4  10  21  40  60  87 123 171 204 254 320 366
#     4  11  22  41  60  89 128 163 205 267 317 367
#     4  12  22  38  62  92 126 170 202 258 328 370
#     4  11  21  39  61  94 129 163 211 254 315 386
#     4  10  18  35  62  86 123 162 202 250 316 370
#     4  10  19  34  59  94 125 151 198 268 311 362
#
# _framework density 19.657440999999999
#
# number of rings (size 3 to 8) (size 9 to 14) (size 15 to 20)
#    0.000    1.067    7.333    0.800    0.000    0.000 
#    4.800    2.667    0.000    0.000   10.400    0.000 
#    0.000    0.000    0.000    0.000    0.000    0.000 
#
# Total GULP energy -83632.910001 kJ/mol
# GULP energy per Si atom -5575.527333 kJ/mol
# Density = 1.961270 g / cm^3
# Si number density = 19.657441 Si / 1000 Ang^3
#
#
#
# Elastic Constant Matrix: (Units=GPa)
#
#
# Indices 1 2 3 4 5 6 
#
# 1 85.4903 26.2465 32.4271 0.0001 -31.6487 -0.0002
# 2 26.2465 69.3673 24.8885 0.0000 -0.4395 0.0000
# 3 32.4271 24.8885 117.4400 0.0000 -19.2952 0.0000
# 4 0.0001 0.0000 0.0000 38.0390 0.0000 -26.5874
# 5 -31.6487 -0.4395 -19.2952 0.0000 36.3718 -0.0001
# 6 -0.0002 0.0000 0.0000 -26.5874 -0.0001 61.4084
#
#
#
# Elastic Compliance Matrix: (Units=1/GPa)
#
#
# Indices 1 2 3 4 5 6 
#
# 1 0.020883 -0.007301 -0.001367 0.000000 0.017358 0.000000
# 2 -0.007301 0.018253 -0.003133 0.000000 -0.007795 0.000000
# 3 -0.001367 -0.003133 0.010248 0.000000 0.004209 0.000000
# 4 0.000000 0.000000 0.000000 0.037696 0.000000 0.016321
# 5 0.017358 -0.007795 0.004209 0.000000 0.044737 0.000000
# 6 0.000000 0.000000 0.000000 0.016321 0.000000 0.023351
#
#
# Mechanical properties :
#
#
# Convention : Reuss Voigt Hill
#
# Bulk Modulus (GPa) = 38.78648 48.82465 43.80556
# Shear Modulus (GPa) = 26.68590 39.74620 33.21605
#
# Velocity S-wave (km/s) = 3.68849 4.50148 4.11511
# Velocity P-wave (km/s) = 6.15743 7.20482 6.70162
#
# Compressibility (1/GPa) = 0.02578218
#
# Stress axis : x y z
#
# Youngs Moduli (GPa) = 47.88511 54.78468 97.58036
#
# Poissons Ratio (x) = 0.39999 0.13339
# Poissons Ratio (y) = 0.34962 0.30572
# Poissons Ratio (z) = 0.06546 0.17164
#
# Static dielectric constant tensor:
#      x y z
#    x 1.753020 0.000000 -0.012000 
#    y 0.000000 1.703010 0.000000 
#    z -0.012000 0.000000 1.736700 
# 
# From -- ./inp_files/40488.got.cif
#   From: 2010.05.17/outbox.cif.g08.bks.cpg/sg5_21_cif.got.tgz:40488.got - 2010.06.03 18:56:24.
