data_PCOD9120373
_publ_section_title
;
Structure prediction by ZEFSAII (Michael W. Deem and Ramdas Pophale) SiO2 
 PCOD9120373
Probable space group: C 2
;
_chemical_formula_sum "Si O2"
_cell_formula_units_Z 26
_cell_length_a 7.743604
_cell_length_b 12.494116
_cell_length_c 15.562976
_cell_angle_alpha 90.000000
_cell_angle_beta 134.027347
_cell_angle_gamma 90.000000
_cell_volume 1082.617734
_symmetry_space_group_name_H-M "C 2"
_symmetry_group_IT_number 5
_symmetry_cell_setting 'monoclinic'
loop_
_space_group_symop_operation_xyz
x,y,z
-x,y,-z
1/2+x,1/2+y,z
1/2-x,1/2+y,-z
loop_
_atom_site_type_symbol
_atom_site_label
_atom_site_fract_x
_atom_site_fract_y
_atom_site_fract_z
Si Si1 0.000000 0.317850 0.000000
Si Si2 0.000000 0.774413 0.500000
Si Si3 0.778852 0.149330 0.262534
Si Si4 0.790821 0.618990 0.155287
Si Si5 0.000000 0.725987 0.000000
Si Si6 0.270782 0.578972 0.677857
Si Si7 0.520117 0.874571 0.366096
Si Si8 0.619635 0.908166 0.879454
O O1 0.045447 0.397391 0.095584
O O2 0.211211 0.231508 0.090844
O O3 0.131475 0.689397 0.607915
O O4 0.200280 0.847753 0.523663
O O5 0.582146 0.114441 0.264485
O O6 0.621685 0.164435 0.120926
O O7 0.007290 0.078261 0.312259
O O8 0.879061 0.263174 0.329784
O O9 0.655784 0.596793 0.197652
O O10 0.749304 0.520827 0.076965
O O11 0.206094 0.808909 0.043008
O O12 0.102808 0.473333 0.626294
O O13 0.489335 0.893165 0.252518
#
# Coordination Sequence:
#
# PCOD9120373 Si02
#       8
#     2   2   4   4   2   4   4   4
#     4  12  21  39  62  96 132 180 227 259 318 392
#     4  10  20  46  72  98 130 168 220 286 340 394
#     4  10  21  39  65  92 135 174 215 265 321 388
#     4  11  23  40  62  94 133 175 218 273 320 386
#     4  10  17  39  56  84 130 178 211 261 310 370
#     4  10  23  45  67  96 130 171 218 274 337 395
#     4   9  21  44  66  94 134 169 211 283 334 390
#     4  10  22  38  61  92 130 174 217 266 324 385
#
# _framework density 24.015863
#
# number of rings (size 3 to 8) (size 9 to 14) (size 15 to 20)
#    0.000    1.846    1.538    3.231    0.000    1.846 
#   16.615    0.000    0.000    0.000    0.000    0.000 
#    0.000    0.000    0.000    0.000    0.000    0.000 
#
# Total GULP energy -72491.484830 kJ/mol
# GULP energy per Si atom -5576.268064 kJ/mol
# Density = 2.396120 g / cm^3
# Si number density = 24.015863 Si / 1000 Ang^3
#
#
#
# Elastic Constant Matrix: (Units=GPa)
#
#
# Indices 1 2 3 4 5 6 
#
# 1 68.9028 39.5568 6.1737 0.0000 16.2076 0.0000
# 2 39.5568 109.4314 13.2904 0.0000 11.9590 0.0000
# 3 6.1737 13.2904 51.9557 0.0000 18.3563 0.0000
# 4 0.0000 0.0000 0.0000 41.5828 0.0000 0.6717
# 5 16.2076 11.9590 18.3563 0.0000 43.8501 0.0000
# 6 0.0000 0.0000 0.0000 0.6717 0.0000 44.6839
#
#
#
# Elastic Compliance Matrix: (Units=1/GPa)
#
#
# Indices 1 2 3 4 5 6 
#
# 1 0.019598 -0.006603 0.001506 0.000000 -0.006073 0.000000
# 2 -0.006603 0.011783 -0.002296 0.000000 0.000188 0.000000
# 3 0.001506 -0.002296 0.023038 0.000000 -0.009575 0.000000
# 4 0.000000 0.000000 0.000000 0.024054 0.000000 -0.000362
# 5 -0.006073 0.000188 -0.009575 0.000000 0.029006 0.000000
# 6 0.000000 0.000000 0.000000 -0.000362 0.000000 0.022385
#
#
# Mechanical properties :
#
#
# Convention : Reuss Voigt Hill
#
# Bulk Modulus (GPa) = 25.23156 38.70352 31.96754
# Shear Modulus (GPa) = 31.67313 37.44130 34.55721
#
# Velocity S-wave (km/s) = 3.63553 3.95273 3.79744
# Velocity P-wave (km/s) = 5.30582 6.08136 5.70678
#
# Compressibility (1/GPa) = 0.03963291
#
# Stress axis : x y z
#
# Youngs Moduli (GPa) = 51.02623 84.86530 43.40594
#
# Poissons Ratio (x) = 0.56039 -0.06538
# Poissons Ratio (y) = 0.33694 0.09966
# Poissons Ratio (z) = -0.07685 0.19486
#
# Static dielectric constant tensor:
#      x y z
#    x 2.225550 0.000000 -0.003900 
#    y 0.000000 1.911170 0.000000 
#    z -0.003900 0.000000 1.991640 
# 
# From -- ./inp_files/64516.got.cif
#   From: 2010.05.17/outbox.cif.g08.bks.cpg/sg5_33_cif.got.tgz:64516.got - 2010.06.03 18:56:24.
