data_PCOD9120633
_publ_section_title
;
Structure prediction by ZEFSAII (Michael W. Deem and Ramdas Pophale) SiO2 
 PCOD9120633
Probable space group: C 2
;
_chemical_formula_sum "Si O2"
_cell_formula_units_Z 28
_cell_length_a 18.366540
_cell_length_b 7.005186
_cell_length_c 17.310400
_cell_angle_alpha 90.000000
_cell_angle_beta 142.817713
_cell_angle_gamma 90.000000
_cell_volume 1345.998853
_symmetry_space_group_name_H-M "C 2"
_symmetry_group_IT_number 5
_symmetry_cell_setting 'monoclinic'
loop_
_space_group_symop_operation_xyz
x,y,z
-x,y,-z
1/2+x,1/2+y,z
1/2-x,1/2+y,-z
loop_
_atom_site_type_symbol
_atom_site_label
_atom_site_fract_x
_atom_site_fract_y
_atom_site_fract_z
Si Si1 0.157114 0.832910 0.841481
Si Si2 0.505021 0.851784 0.220350
Si Si3 0.109837 0.284737 0.044307
Si Si4 0.269015 0.777791 0.098134
Si Si5 0.901085 0.971873 0.618148
Si Si6 0.706827 0.167809 0.366187
Si Si7 0.863206 0.704114 0.866437
O O1 0.256810 0.722262 0.873934
O O2 0.017848 0.841431 0.699606
O O3 0.194553 0.055738 0.868299
O O4 0.174518 0.791892 0.947638
O O5 0.389053 0.892082 0.176367
O O6 0.557880 0.650276 0.294015
O O7 0.603903 0.014863 0.301067
O O8 0.452286 0.832125 0.089962
O O9 0.138764 0.475898 0.117938
O O10 0.000000 0.186348 0.000000
O O11 0.214382 0.812778 0.135321
O O12 0.808501 0.843765 0.588521
O O13 0.833721 0.063295 0.488018
O O14 0.681113 0.234427 0.257535
O O15 0.000000 0.757260 0.000000
#
# Coordination Sequence:
#
# PCOD9120633 Si02
#       7
#     4   4   4   4   4   4   4
#     4   9  19  33  55  91 119 152 201 250 303 374
#     4  10  20  40  60  88 119 162 207 252 304 369
#     4   9  16  33  63  87 122 153 193 255 313 357
#     4   9  19  34  58  90 122 152 205 251 314 367
#     4  11  24  38  61  90 117 167 216 243 305 382
#     4  12  22  39  66  84 124 168 210 254 306 366
#     4  10  18  33  62  92 119 162 198 259 321 356
#
# _framework density 20.802394
#
# number of rings (size 3 to 8) (size 9 to 14) (size 15 to 20)
#    0.000    2.000    4.286    0.857    4.000    0.000 
#    0.000   11.429    0.000    0.000    0.000    0.000 
#    0.000    0.000    0.000    0.000    0.000    0.000 
#
# Total GULP energy -78084.968595 kJ/mol
# GULP energy per Si atom -5577.497757 kJ/mol
# Density = 2.075505 g / cm^3
# Si number density = 20.802394 Si / 1000 Ang^3
#
#
#
# Elastic Constant Matrix: (Units=GPa)
#
#
# Indices 1 2 3 4 5 6 
#
# 1 144.9841 15.5563 56.2688 0.0000 -3.3924 0.0000
# 2 15.5563 49.1328 8.2310 0.0000 0.0570 0.0000
# 3 56.2688 8.2310 111.0755 0.0000 7.0503 0.0000
# 4 0.0000 0.0000 0.0000 14.3515 0.0000 -0.2685
# 5 -3.3924 0.0570 7.0503 0.0000 26.9065 0.0000
# 6 0.0000 0.0000 0.0000 -0.2685 0.0000 24.6071
#
#
#
# Elastic Compliance Matrix: (Units=1/GPa)
#
#
# Indices 1 2 3 4 5 6 
#
# 1 0.008926 -0.002072 -0.004515 0.000000 0.002313 0.000000
# 2 -0.002072 0.021093 -0.000502 0.000000 -0.000174 0.000000
# 3 -0.004515 -0.000502 0.011556 0.000000 -0.003596 0.000000
# 4 0.000000 0.000000 0.000000 0.069693 0.000000 0.000760
# 5 0.002313 -0.000174 -0.003596 0.000000 0.038400 0.000000
# 6 0.000000 0.000000 0.000000 0.000760 0.000000 0.040647
#
#
# Mechanical properties :
#
#
# Convention : Reuss Voigt Hill
#
# Bulk Modulus (GPa) = 36.50181 51.70054 44.10117
# Shear Modulus (GPa) = 23.40532 28.18210 25.79371
#
# Velocity S-wave (km/s) = 3.35793 3.68469 3.52510
# Velocity P-wave (km/s) = 5.71133 6.55818 6.14935
#
# Compressibility (1/GPa) = 0.02739590
#
# Stress axis : x y z
#
# Youngs Moduli (GPa) = 112.03114 47.40798 86.53827
#
# Poissons Ratio (x) = 0.09825 0.39072
# Poissons Ratio (y) = 0.23218 0.04345
# Poissons Ratio (z) = 0.50582 0.02381
#
# Static dielectric constant tensor:
#      x y z
#    x 1.812890 0.000000 0.061210 
#    y 0.000000 1.801630 0.000000 
#    z 0.061210 0.000000 1.714380 
# 
# From -- ./inp_files/55762.got.cif
#   From: 2010.05.17/outbox.cif.g08.bks.cpg/sg5_28_cif.got.tgz:55762.got - 2010.06.03 18:56:24.
