data_PCOD9120777
_publ_section_title
;
Structure prediction by ZEFSAII (Michael W. Deem and Ramdas Pophale) SiO2 
 PCOD9120777
Probable space group: C 2
;
_chemical_formula_sum "Si O2"
_cell_formula_units_Z 30
_cell_length_a 15.051842
_cell_length_b 11.585853
_cell_length_c 27.812578
_cell_angle_alpha 90.000000
_cell_angle_beta 19.957822
_cell_angle_gamma 90.000000
_cell_volume 1655.507718
_symmetry_space_group_name_H-M "C 2"
_symmetry_group_IT_number 5
_symmetry_cell_setting 'monoclinic'
loop_
_space_group_symop_operation_xyz
x,y,z
-x,y,-z
1/2+x,1/2+y,z
1/2-x,1/2+y,-z
loop_
_atom_site_type_symbol
_atom_site_label
_atom_site_fract_x
_atom_site_fract_y
_atom_site_fract_z
Si Si1 0.378699 0.772960 0.491813
Si Si2 0.500000 0.171143 0.500000
Si Si3 0.172506 0.845184 0.494963
Si Si4 0.762701 0.993561 0.764492
Si Si5 0.587730 0.484722 0.690975
Si Si6 0.845014 0.342409 0.032174
Si Si7 0.708261 0.043598 0.627796
Si Si8 0.440544 0.167514 0.206552
O O1 0.322232 0.793066 0.464430
O O2 0.269187 0.881979 0.577110
O O3 0.225945 0.658371 0.586396
O O4 0.681305 0.745367 0.347608
O O5 0.553790 0.251065 0.519056
O O6 0.255969 0.084670 0.629550
O O7 0.352987 0.931699 0.372171
O O8 0.946241 0.925644 0.633394
O O9 0.621529 0.097725 0.809704
O O10 0.940770 0.032969 0.718475
O O11 0.551728 0.907673 0.894221
O O12 0.372218 0.428898 0.835342
O O13 0.692164 0.246078 0.080525
O O14 0.000000 0.295251 0.000000
O O15 0.540584 0.076417 0.759230
O O16 0.000000 0.023280 0.500000
#
# Coordination Sequence:
#
# PCOD9120777 Si02
#       8
#     4   2   4   4   4   4   4   4
#     4  10  20  34  59  84 108 141 183 232 271 331
#     4  12  22  32  56  86 118 140 172 236 274 332
#     4  11  21  35  54  89 116 140 177 223 290 323
#     4  10  21  37  55  77 113 147 180 224 272 327
#     4  10  21  36  55  83 113 141 184 225 278 319
#     4  10  22  38  54  77 106 149 193 223 265 325
#     4  10  18  35  57  80 109 145 176 223 279 325
#     4  11  19  37  61  79 105 147 190 223 273 329
#
# _framework density 18.121328999999999
#
# number of rings (size 3 to 8) (size 9 to 14) (size 15 to 20)
#    0.000    1.600    4.667    1.600    2.800    1.067 
#    0.000    1.333    0.000    0.000    0.000    0.000 
#    0.000    0.000    0.000    0.000    0.000    0.000 
#
# Total GULP energy -83723.525625 kJ/mol
# GULP energy per Si atom -5581.568375 kJ/mol
# Density = 1.808008 g / cm^3
# Si number density = 18.121329 Si / 1000 Ang^3
#
#
#
# Elastic Constant Matrix: (Units=GPa)
#
#
# Indices 1 2 3 4 5 6 
#
# 1 102.7459 45.7345 12.4135 0.0535 -2.8390 -0.0133
# 2 45.7345 68.1116 3.7211 0.0421 -8.0659 -0.0159
# 3 12.4135 3.7211 43.2228 0.3354 -6.2091 -0.0213
# 4 0.0535 0.0421 0.3354 19.3233 -0.0127 -6.1548
# 5 -2.8390 -8.0659 -6.2091 -0.0127 22.1355 0.0000
# 6 -0.0133 -0.0159 -0.0213 -6.1548 0.0000 45.4555
#
#
#
# Elastic Compliance Matrix: (Units=1/GPa)
#
#
# Indices 1 2 3 4 5 6 
#
# 1 0.014492 -0.009857 -0.003712 0.000046 -0.002774 0.000005
# 2 -0.009857 0.022060 0.001985 -0.000051 0.007331 -0.000001
# 3 -0.003712 0.001985 0.025081 -0.000440 0.007282 -0.000048
# 4 0.000046 -0.000051 -0.000440 0.054091 -0.000105 0.007324
# 5 -0.002774 0.007331 0.007282 -0.000105 0.049534 -0.000009
# 6 0.000005 -0.000001 -0.000048 0.007324 -0.000009 0.022991
#
#
# Mechanical properties :
#
#
# Convention : Reuss Voigt Hill
#
# Bulk Modulus (GPa) = 25.99773 37.53540 31.76657
# Shear Modulus (GPa) = 22.29766 27.53027 24.91396
#
# Velocity S-wave (km/s) = 3.51160 3.90194 3.71191
# Velocity P-wave (km/s) = 5.55153 6.40770 5.99492
#
# Compressibility (1/GPa) = 0.03846489
#
# Stress axis : x y z
#
# Youngs Moduli (GPa) = 69.00370 45.33123 39.87125
#
# Poissons Ratio (x) = 0.44681 0.14802
# Poissons Ratio (y) = 0.68014 -0.07915
# Poissons Ratio (z) = 0.25617 -0.08999
#
# Static dielectric constant tensor:
#      x y z
#    x 1.636060 0.000000 0.003600 
#    y 0.000000 1.631770 0.000000 
#    z 0.003600 0.000000 1.600620 
# 
# From -- ./inp_files/42499.got.cif
#   From: 2010.05.17/outbox.cif.g08.bks.cpg/sg5_22_cif.got.tgz:42499.got - 2010.06.03 18:56:24.
