data_PCOD9120167
_publ_section_title
;
Structure prediction by ZEFSAII (Michael W. Deem and Ramdas Pophale) SiO2 
 PCOD9120167
Probable space group: C 2
;
_chemical_formula_sum "Si O2"
_cell_formula_units_Z 26
_cell_length_a 10.048498
_cell_length_b 17.285740
_cell_length_c 9.997151
_cell_angle_alpha 90.000000
_cell_angle_beta 129.251156
_cell_angle_gamma 90.000000
_cell_volume 1344.681526
_symmetry_space_group_name_H-M "C 2"
_symmetry_group_IT_number 5
_symmetry_cell_setting 'monoclinic'
loop_
_space_group_symop_operation_xyz
x,y,z
-x,y,-z
1/2+x,1/2+y,z
1/2-x,1/2+y,-z
loop_
_atom_site_type_symbol
_atom_site_label
_atom_site_fract_x
_atom_site_fract_y
_atom_site_fract_z
Si Si1 0.193421 0.154010 0.776873
Si Si2 0.178287 0.690311 0.442577
Si Si3 0.532728 0.801211 0.361362
Si Si4 0.948558 0.472598 0.625375
Si Si5 0.000000 0.063420 0.000000
Si Si6 0.859030 0.622708 0.147541
Si Si7 0.615526 0.547029 0.351333
O O1 0.258872 0.167782 0.668629
O O2 0.093187 0.231680 0.760405
O O3 0.054173 0.083990 0.689881
O O4 0.339483 0.138359 0.978030
O O5 0.274808 0.769046 0.538660
O O6 0.256827 0.621508 0.582331
O O7 0.974190 0.684619 0.300727
O O8 0.500000 0.806902 0.500000
O O9 0.505989 0.887493 0.292565
O O10 0.742876 0.487078 0.502628
O O11 0.000000 0.477857 0.500000
O O12 0.048311 0.540863 0.764031
O O13 0.162937 0.115215 0.067528
O O14 0.055239 0.017569 0.167694
#
# Coordination Sequence:
#
# PCOD9120167 Si02
#       7
#     4   4   4   4   2   4   4
#     4   9  17  32  49  76 101 128 166 209 252 291
#     4   9  17  31  51  76  93 131 170 200 249 299
#     4   8  16  30  50  70 104 129 157 208 260 292
#     4  10  17  30  49  76 104 131 160 205 258 305
#     4  10  18  30  42  76 108 120 164 204 248 290
#     4  10  19  29  51  76 101 132 163 208 247 292
#     4   9  17  28  49  73  98 131 163 205 244 291
#
# _framework density 19.335432999999998
#
# number of rings (size 3 to 8) (size 9 to 14) (size 15 to 20)
#    0.000    2.769    1.538    1.846    0.000    0.000 
#    0.000    3.077    0.000    0.000  120.000    0.000 
#    0.000    0.000    0.000    0.000    0.000    0.000 
#
# Total GULP energy -72382.495525 kJ/mol
# GULP energy per Si atom -5567.884271 kJ/mol
# Density = 1.929142 g / cm^3
# Si number density = 19.335433 Si / 1000 Ang^3
#
#
#
# Elastic Constant Matrix: (Units=GPa)
#
#
# Indices 1 2 3 4 5 6 
#
# 1 39.2007 10.9552 15.2316 0.0000 19.8822 0.0000
# 2 10.9552 96.1040 32.6124 0.0000 2.1660 0.0000
# 3 15.2316 32.6124 109.3984 0.0000 7.9539 0.0000
# 4 0.0000 0.0000 0.0000 16.8919 0.0000 -1.7322
# 5 19.8822 2.1660 7.9539 0.0000 34.5508 0.0000
# 6 0.0000 0.0000 0.0000 -1.7322 0.0000 10.6024
#
#
#
# Elastic Compliance Matrix: (Units=1/GPa)
#
#
# Indices 1 2 3 4 5 6 
#
# 1 0.038152 -0.002883 -0.002918 0.000000 -0.021102 0.000000
# 2 -0.002883 0.011795 -0.003236 0.000000 0.001665 0.000000
# 3 -0.002918 -0.003236 0.010552 0.000000 -0.000547 0.000000
# 4 0.000000 0.000000 0.000000 0.060209 0.000000 0.009837
# 5 -0.021102 0.001665 -0.000547 0.000000 0.041108 0.000000
# 6 0.000000 0.000000 0.000000 0.009837 0.000000 0.095925
#
#
# Mechanical properties :
#
#
# Convention : Reuss Voigt Hill
#
# Bulk Modulus (GPa) = 23.57145 40.25572 31.91358
# Shear Modulus (GPa) = 17.24402 24.80260 21.02331
#
# Velocity S-wave (km/s) = 2.98960 3.58544 3.30099
# Velocity P-wave (km/s) = 4.91266 6.16485 5.57403
#
# Compressibility (1/GPa) = 0.04242421
#
# Stress axis : x y z
#
# Youngs Moduli (GPa) = 26.21078 84.78503 94.77299
#
# Poissons Ratio (x) = 0.24445 0.27657
# Poissons Ratio (y) = 0.07557 0.30665
# Poissons Ratio (z) = 0.07649 0.27433
#
# Static dielectric constant tensor:
#      x y z
#    x 1.763500 0.000000 -0.008000 
#    y 0.000000 1.658610 0.000000 
#    z -0.008000 0.000000 1.717990 
# 
# From -- ./inp_files/20922.got.cif
#   From: 2010.05.17/outbox.cif.g08.bks.cpg/sg5_11_cif.got.tgz:20922.got - 2010.06.03 18:56:24.
