data_PCOD9120462
_publ_section_title
;
Structure prediction by ZEFSAII (Michael W. Deem and Ramdas Pophale) SiO2 
 PCOD9120462
Probable space group: C 2
;
_chemical_formula_sum "Si O2"
_cell_formula_units_Z 26
_cell_length_a 10.416601
_cell_length_b 15.971063
_cell_length_c 10.141993
_cell_angle_alpha 90.000000
_cell_angle_beta 137.635169
_cell_angle_gamma 90.000000
_cell_volume 1136.961444
_symmetry_space_group_name_H-M "C 2"
_symmetry_group_IT_number 5
_symmetry_cell_setting 'monoclinic'
loop_
_space_group_symop_operation_xyz
x,y,z
-x,y,-z
1/2+x,1/2+y,z
1/2-x,1/2+y,-z
loop_
_atom_site_type_symbol
_atom_site_label
_atom_site_fract_x
_atom_site_fract_y
_atom_site_fract_z
Si Si1 0.891775 0.380940 0.627250
Si Si2 0.873254 0.912206 0.795567
Si Si3 0.271771 0.088805 0.328545
Si Si4 0.000000 0.556719 0.000000
Si Si5 0.742121 0.913092 0.047053
Si Si6 0.298188 0.556671 0.424708
Si Si7 0.778063 0.770626 0.289102
O O1 0.804190 0.374033 0.416138
O O2 0.786137 0.462252 0.613663
O O3 0.835475 0.301453 0.669898
O O4 0.115367 0.394379 0.821149
O O5 0.037245 0.926629 0.810302
O O6 0.814619 0.004952 0.796966
O O7 0.000000 0.864749 0.000000
O O8 0.500000 0.076729 0.500000
O O9 0.202294 0.094584 0.428225
O O10 0.232065 0.174665 0.223470
O O11 0.148044 0.494985 0.038590
O O12 0.134308 0.600669 0.209943
O O13 0.729259 0.834795 0.136148
O O14 0.500000 0.556046 0.500000
O O15 0.000000 0.775741 0.500000
#
# Coordination Sequence:
#
# PCOD9120462 Si02
#       7
#     4   4   4   2   4   4   4
#     4  10  20  36  67  93 126 155 232 271 315 379
#     4  11  25  38  61  95 132 171 217 267 331 389
#     4  10  25  40  62  96 145 174 208 273 345 389
#     4  10  18  30  66  92 116 152 228 262 314 372
#     4  11  20  36  67  99 115 169 223 280 313 383
#     4  10  19  37  64  92 124 166 216 270 315 379
#     4  11  19  39  67  95 128 171 223 275 321 390
#
# _framework density 22.86797
#
# number of rings (size 3 to 8) (size 9 to 14) (size 15 to 20)
#    0.000    1.538    4.615    2.308    6.462    1.231 
#    0.000    0.000    5.077    0.000    0.000    0.000 
#    0.000    0.000    0.000    0.000    0.000    0.000 
#
# Total GULP energy -72595.528195 kJ/mol
# GULP energy per Si atom -5584.271400 kJ/mol
# Density = 2.281592 g / cm^3
# Si number density = 22.867970 Si / 1000 Ang^3
#
#
#
# Elastic Constant Matrix: (Units=GPa)
#
#
# Indices 1 2 3 4 5 6 
#
# 1 77.3252 7.4276 21.5048 0.0000 14.0803 0.0000
# 2 7.4276 57.7018 8.3339 0.0000 4.4858 0.0000
# 3 21.5048 8.3339 171.0384 0.0000 -1.7861 0.0000
# 4 0.0000 0.0000 0.0000 -2.3503 0.0000 4.0762
# 5 14.0803 4.4858 -1.7861 0.0000 43.9145 0.0000
# 6 0.0000 0.0000 0.0000 4.0762 0.0000 11.5119
#
#
#
# Elastic Compliance Matrix: (Units=1/GPa)
#
#
# Indices 1 2 3 4 5 6 
#
# 1 0.014380 -0.001238 -0.001795 0.000000 -0.004557 0.000000
# 2 -0.001238 0.017706 -0.000722 0.000000 -0.001441 0.000000
# 3 -0.001795 -0.000722 0.006117 0.000000 0.000898 0.000000
# 4 0.000000 0.000000 0.000000 -0.263604 0.000000 0.093337
# 5 -0.004557 -0.001441 0.000898 0.000000 0.024417 0.000000
# 6 0.000000 0.000000 0.000000 0.093337 0.000000 0.053817
#
#
# Mechanical properties :
#
#
# Convention : Reuss Voigt Hill
#
# Bulk Modulus (GPa) = 32.58032 42.28867 37.43449
# Shear Modulus (GPa) = -38.63228 28.53516 -5.04856
#
# Velocity S-wave (km/s) = -4.11464 3.53628 -1.48744
# Velocity P-wave (km/s) = 2.88022 5.93350 3.66816
#
# Compressibility (1/GPa) = 0.03069338
#
# Stress axis : x y z
#
# Youngs Moduli (GPa) = 69.53893 56.47760 163.48048
#
# Poissons Ratio (x) = 0.06989 0.29351
# Poissons Ratio (y) = 0.08606 0.11806
# Poissons Ratio (z) = 0.12485 0.04079
#
# Static dielectric constant tensor:
#      x y z
#    x 1.929370 0.000000 -0.029040 
#    y 0.000000 1.811450 0.000000 
#    z -0.029040 0.000000 2.020890 
# 
# From -- ./inp_files/40390.got.cif
#   From: 2010.05.17/outbox.cif.g08.bks.cpg/sg5_21_cif.got.tgz:40390.got - 2010.06.03 18:56:24.
