data_PCOD9120305
_publ_section_title
;
Structure prediction by ZEFSAII (Michael W. Deem and Ramdas Pophale) SiO2 
 PCOD9120305
Probable space group: C 2
;
_chemical_formula_sum "Si O2"
_cell_formula_units_Z 30
_cell_length_a 23.894579
_cell_length_b 8.024509
_cell_length_c 15.380140
_cell_angle_alpha 90.000000
_cell_angle_beta 152.882426
_cell_angle_gamma 90.000000
_cell_volume 1344.217516
_symmetry_space_group_name_H-M "C 2"
_symmetry_group_IT_number 5
_symmetry_cell_setting 'monoclinic'
loop_
_space_group_symop_operation_xyz
x,y,z
-x,y,-z
1/2+x,1/2+y,z
1/2-x,1/2+y,-z
loop_
_atom_site_type_symbol
_atom_site_label
_atom_site_fract_x
_atom_site_fract_y
_atom_site_fract_z
Si Si1 0.853447 0.561330 0.947206
Si Si2 0.068244 0.821665 0.688186
Si Si3 0.500000 0.251081 0.000000
Si Si4 0.517276 0.828935 0.422684
Si Si5 0.345446 0.489663 0.445315
Si Si6 0.777236 0.715288 0.583656
Si Si7 0.902998 0.494877 0.625023
Si Si8 0.771855 0.157670 0.066211
O O1 0.756171 0.440245 0.766840
O O2 0.786835 0.690200 0.919853
O O3 0.926459 0.647377 0.970279
O O4 0.958407 0.484321 0.150529
O O5 0.000000 0.812248 0.500000
O O6 0.158588 0.981758 0.823887
O O7 0.160455 0.673954 0.843620
O O8 0.957025 0.859811 0.602131
O O9 0.615022 0.317523 0.215564
O O10 0.500000 0.863556 0.500000
O O11 0.593500 0.658173 0.511118
O O12 0.381870 0.784787 0.199820
O O13 0.588981 0.968263 0.467027
O O14 0.273303 0.555696 0.430400
O O15 0.832868 0.650132 0.570692
O O16 0.663385 0.836302 0.424442
#
# Coordination Sequence:
#
# PCOD9120305 Si02
#       8
#     4   4   2   4   4   4   4   4
#     4  10  17  35  57  91 112 162 209 260 312 391
#     4  11  22  39  62  93 131 174 216 274 326 401
#     4   8  18  32  60  80 108 152 214 242 304 372
#     4  10  18  34  58  95 123 163 208 265 319 389
#     4   9  17  34  59  84 121 161 209 260 319 378
#     4   9  19  36  58  89 117 160 207 263 311 386
#     4  10  21  34  62  92 123 156 216 258 320 384
#     4  11  21  37  65  93 128 169 220 266 334 392
#
# _framework density 22.317817000000002
#
# number of rings (size 3 to 8) (size 9 to 14) (size 15 to 20)
#    0.000    2.133    2.667    1.600    0.000    2.133 
#    0.000    3.333    0.000    6.400   10.400    0.933 
#    0.000    0.000    0.000    0.000    0.000    0.000 
#
# Total GULP energy -83584.272769 kJ/mol
# GULP energy per Si atom -5572.284851 kJ/mol
# Density = 2.226702 g / cm^3
# Si number density = 22.317817 Si / 1000 Ang^3
#
#
#
# Elastic Constant Matrix: (Units=GPa)
#
#
# Indices 1 2 3 4 5 6 
#
# 1 166.0135 25.3439 21.4360 0.0000 3.2769 0.0000
# 2 25.3439 51.1227 11.6847 0.0000 -0.5170 0.0000
# 3 21.4360 11.6847 84.6843 0.0000 15.1702 0.0000
# 4 0.0000 0.0000 0.0000 28.8239 0.0000 12.2002
# 5 3.2769 -0.5170 15.1702 0.0000 31.5444 0.0000
# 6 0.0000 0.0000 0.0000 12.2002 0.0000 23.2958
#
#
#
# Elastic Compliance Matrix: (Units=1/GPa)
#
#
# Indices 1 2 3 4 5 6 
#
# 1 0.006647 -0.003013 -0.001241 0.000000 -0.000143 0.000000
# 2 -0.003013 0.021660 -0.002567 0.000000 0.001902 0.000000
# 3 -0.001241 -0.002567 0.013636 0.000000 -0.006471 0.000000
# 4 0.000000 0.000000 0.000000 0.044574 0.000000 -0.023344
# 5 -0.000143 0.001902 -0.006471 0.000000 0.034859 0.000000
# 6 0.000000 0.000000 0.000000 -0.023344 0.000000 0.055151
#
#
# Mechanical properties :
#
#
# Convention : Reuss Voigt Hill
#
# Bulk Modulus (GPa) = 35.33387 46.52773 40.93080
# Shear Modulus (GPa) = 25.04968 32.95654 29.00311
#
# Velocity S-wave (km/s) = 3.35387 3.84694 3.60884
# Velocity P-wave (km/s) = 5.55558 6.37378 5.97869
#
# Compressibility (1/GPa) = 0.02830145
#
# Stress axis : x y z
#
# Youngs Moduli (GPa) = 150.45223 46.16739 73.33474
#
# Poissons Ratio (x) = 0.13909 0.09102
# Poissons Ratio (y) = 0.45329 0.18824
# Poissons Ratio (z) = 0.18673 0.11850
#
# Static dielectric constant tensor:
#      x y z
#    x 1.832910 0.000000 -0.014580 
#    y 0.000000 1.868890 0.000000 
#    z -0.014580 0.000000 1.878060 
# 
# From -- ./inp_files/57616.got.cif
#   From: 2010.05.17/outbox.cif.g08.bks.cpg/sg5_29_cif.got.tgz:57616.got - 2010.06.03 18:56:24.
