data_PCOD9120578
_publ_section_title
;
Structure prediction by ZEFSAII (Michael W. Deem and Ramdas Pophale) SiO2 
 PCOD9120578
Probable space group: C 2
;
_chemical_formula_sum "Si O2"
_cell_formula_units_Z 30
_cell_length_a 19.616267
_cell_length_b 8.263634
_cell_length_c 8.318790
_cell_angle_alpha 90.000000
_cell_angle_beta 79.756222
_cell_angle_gamma 90.000000
_cell_volume 1326.994690
_symmetry_space_group_name_H-M "C 2"
_symmetry_group_IT_number 5
_symmetry_cell_setting 'monoclinic'
loop_
_space_group_symop_operation_xyz
x,y,z
-x,y,-z
1/2+x,1/2+y,z
1/2-x,1/2+y,-z
loop_
_atom_site_type_symbol
_atom_site_label
_atom_site_fract_x
_atom_site_fract_y
_atom_site_fract_z
Si Si1 0.245015 0.731220 0.321605
Si Si2 0.294858 0.146163 0.001807
Si Si3 0.361102 0.530883 0.922094
Si Si4 0.388906 0.721001 0.617197
Si Si5 0.500000 0.478017 0.000000
Si Si6 0.236288 0.854523 0.668866
Si Si7 0.525089 0.747580 0.727230
Si Si8 0.873241 0.372778 0.101526
O O1 0.213197 0.782066 0.505970
O O2 0.273859 0.547335 0.326572
O O3 0.308536 0.850010 0.250793
O O4 0.200476 0.729391 0.175036
O O5 0.223024 0.041217 0.027181
O O6 0.291481 0.260169 0.161501
O O7 0.356188 0.021119 0.997568
O O8 0.374747 0.559683 0.726946
O O9 0.420995 0.417481 0.980272
O O10 0.375829 0.707252 0.999533
O O11 0.318889 0.821815 0.642750
O O12 0.453989 0.802692 0.678458
O O13 0.419040 0.695953 0.428732
O O14 0.486059 0.589961 0.160141
O O15 0.557981 0.883849 0.824680
#
# Coordination Sequence:
#
# PCOD9120578 Si02
#       8
#     4   4   4   4   2   4   4   4
#     4  11  21  35  52  77 111 143 179 220 265 321
#     4  10  20  34  52  78 112 144 177 221 269 322
#     4   8  16  27  46  70 103 133 170 216 262 309
#     4   9  16  29  45  74 100 130 172 224 266 303
#     4   8  14  26  42  68  96 134 166 212 266 302
#     4  11  22  34  54  80 109 143 180 218 269 324
#     4   9  16  27  48  70 102 128 170 224 265 309
#     4  10  18  33  51  77 105 140 176 216 269 318
#
# _framework density 22.607475999999998
#
# number of rings (size 3 to 8) (size 9 to 14) (size 15 to 20)
#    0.000    2.400    1.333    3.200    0.000    0.000 
#    0.000    0.000    0.000    0.000    0.000   16.800 
#    0.000   16.000    0.000    0.000    0.000    0.000 
#
# Total GULP energy -83585.815353 kJ/mol
# GULP energy per Si atom -5572.387690 kJ/mol
# Density = 2.255602 g / cm^3
# Si number density = 22.607476 Si / 1000 Ang^3
#
#
#
# Elastic Constant Matrix: (Units=GPa)
#
#
# Indices 1 2 3 4 5 6 
#
# 1 86.0794 -1.9465 23.2578 0.0000 5.2044 0.0000
# 2 -1.9465 61.9145 24.5389 0.0000 6.7197 0.0000
# 3 23.2578 24.5389 149.1183 0.0000 14.5881 0.0000
# 4 0.0000 0.0000 0.0000 27.8838 0.0000 2.7825
# 5 5.2044 6.7197 14.5881 0.0000 34.0583 0.0000
# 6 0.0000 0.0000 0.0000 2.7825 0.0000 20.3208
#
#
#
# Elastic Compliance Matrix: (Units=1/GPa)
#
#
# Indices 1 2 3 4 5 6 
#
# 1 0.012266 0.001319 -0.002005 0.000000 -0.001276 0.000000
# 2 0.001319 0.017592 -0.002861 0.000000 -0.002447 0.000000
# 3 -0.002005 -0.002861 0.007728 0.000000 -0.002439 0.000000
# 4 0.000000 0.000000 0.000000 0.036360 0.000000 -0.004979
# 5 -0.001276 -0.002447 -0.002439 0.000000 0.031084 0.000000
# 6 0.000000 0.000000 0.000000 -0.004979 0.000000 0.049893
#
#
# Mechanical properties :
#
#
# Convention : Reuss Voigt Hill
#
# Bulk Modulus (GPa) = 32.79650 43.20140 37.99895
# Shear Modulus (GPa) = 29.03898 33.20338 31.12118
#
# Velocity S-wave (km/s) = 3.58786 3.83651 3.71427
# Velocity P-wave (km/s) = 5.63046 6.22703 5.93624
#
# Compressibility (1/GPa) = 0.03049106
#
# Stress axis : x y z
#
# Youngs Moduli (GPa) = 81.52651 56.84281 129.39365
#
# Poissons Ratio (x) = -0.07497 0.25948
# Poissons Ratio (y) = -0.10752 0.37024
# Poissons Ratio (z) = 0.16349 0.16265
#
# Static dielectric constant tensor:
#      x y z
#    x 1.946160 0.000000 0.014610 
#    y 0.000000 1.879300 0.000000 
#    z 0.014610 0.000000 1.914340 
# 
# From -- ./inp_files/28941.got.cif
#   From: 2010.05.17/outbox.cif.g08.bks.cpg/sg5_15_cif.got.tgz:28941.got - 2010.06.03 18:56:24.
