data_PCOD9120542
_publ_section_title
;
Structure prediction by ZEFSAII (Michael W. Deem and Ramdas Pophale) SiO2 
 PCOD9120542
Probable space group: C 2
;
_chemical_formula_sum "Si O2"
_cell_formula_units_Z 30
_cell_length_a 19.612211
_cell_length_b 8.491147
_cell_length_c 10.095050
_cell_angle_alpha 90.000000
_cell_angle_beta 102.421793
_cell_angle_gamma 90.000000
_cell_volume 1641.775989
_symmetry_space_group_name_H-M "C 2"
_symmetry_group_IT_number 5
_symmetry_cell_setting 'monoclinic'
loop_
_space_group_symop_operation_xyz
x,y,z
-x,y,-z
1/2+x,1/2+y,z
1/2-x,1/2+y,-z
loop_
_atom_site_type_symbol
_atom_site_label
_atom_site_fract_x
_atom_site_fract_y
_atom_site_fract_z
Si Si1 0.558874 0.790280 0.366673
Si Si2 0.575648 0.686984 0.090774
Si Si3 0.444273 0.315280 0.863154
Si Si4 0.594268 0.925889 0.647078
Si Si5 0.500000 0.506101 0.500000
Si Si6 0.935506 0.771752 0.279311
Si Si7 0.679201 0.841467 0.929517
Si Si8 0.665821 0.208169 0.000791
O O1 0.588186 0.780730 0.232090
O O2 0.602637 0.877287 0.498294
O O3 0.482182 0.868568 0.336419
O O4 0.542388 0.616975 0.417020
O O5 0.569737 0.502430 0.127279
O O6 0.500000 0.731694 0.000000
O O7 0.632682 0.729843 0.004704
O O8 0.485758 0.265340 0.749195
O O9 0.500000 0.270940 0.000000
O O10 0.373358 0.231432 0.875873
O O11 0.649064 0.844940 0.767936
O O12 0.590295 0.112418 0.663468
O O13 0.444764 0.406108 0.392115
O O14 0.882235 0.791802 0.133475
O O15 0.670771 0.022669 0.972588
O O16 0.758527 0.785659 0.967515
#
# Coordination Sequence:
#
# PCOD9120542 Si02
#       8
#     4   4   4   4   2   4   4   4
#     4  10  20  33  53  89 115 145 185 231 279 334
#     4  11  20  34  58  85 115 145 187 232 280 326
#     4   9  19  33  55  85 111 138 181 236 273 327
#     4   9  20  34  56  83 113 148 182 229 281 331
#     4  10  18  32  56  86 112 148 184 226 284 326
#     4  10  19  36  58  84 112 147 184 235 277 332
#     4  11  22  37  60  80 113 153 186 236 278 339
#     4  10  23  37  57  83 112 146 192 228 288 332
#
# _framework density 18.272894000000001
#
# number of rings (size 3 to 8) (size 9 to 14) (size 15 to 20)
#    0.000    2.133    2.667    1.600    1.867    2.667 
#    0.000    0.000    2.933    0.000    0.000    0.000 
#    0.000    0.000    0.000    0.000    0.000    0.000 
#
# Total GULP energy -83625.671755 kJ/mol
# GULP energy per Si atom -5575.044784 kJ/mol
# Density = 1.823130 g / cm^3
# Si number density = 18.272894 Si / 1000 Ang^3
#
#
#
# Elastic Constant Matrix: (Units=GPa)
#
#
# Indices 1 2 3 4 5 6 
#
# 1 96.8763 11.0669 29.6614 0.0000 6.5592 0.0000
# 2 11.0669 34.5045 27.4891 0.0000 4.8258 0.0000
# 3 29.6614 27.4891 87.8418 0.0000 8.3103 0.0000
# 4 0.0000 0.0000 0.0000 23.8555 0.0000 2.6875
# 5 6.5592 4.8258 8.3103 0.0000 19.3679 0.0000
# 6 0.0000 0.0000 0.0000 2.6875 0.0000 20.0522
#
#
#
# Elastic Compliance Matrix: (Units=1/GPa)
#
#
# Indices 1 2 3 4 5 6 
#
# 1 0.011623 -0.000605 -0.003520 0.000000 -0.002275 0.000000
# 2 -0.000605 0.039040 -0.011582 0.000000 -0.004553 0.000000
# 3 -0.003520 -0.011582 0.016480 0.000000 -0.002993 0.000000
# 4 0.000000 0.000000 0.000000 0.042562 0.000000 -0.005704
# 5 -0.002275 -0.004553 -0.002993 0.000000 0.054821 0.000000
# 6 0.000000 0.000000 0.000000 -0.005704 0.000000 0.050634
#
#
# Mechanical properties :
#
#
# Convention : Reuss Voigt Hill
#
# Bulk Modulus (GPa) = 27.98881 39.51749 33.75315
# Shear Modulus (GPa) = 19.34345 22.72212 21.03279
#
# Velocity S-wave (km/s) = 3.25712 3.53014 3.39638
# Velocity P-wave (km/s) = 5.43098 6.18782 5.82171
#
# Compressibility (1/GPa) = 0.03572857
#
# Stress axis : x y z
#
# Youngs Moduli (GPa) = 86.03298 25.61492 60.67824
#
# Poissons Ratio (x) = 0.01551 0.21360
# Poissons Ratio (y) = 0.05209 0.70277
# Poissons Ratio (z) = 0.30285 0.29667
#
# Static dielectric constant tensor:
#      x y z
#    x 1.596390 0.000000 -0.004720 
#    y 0.000000 1.661580 0.000000 
#    z -0.004720 0.000000 1.657240 
# 
# From -- ./inp_files/44180.got.cif
#   From: 2010.05.17/outbox.cif.g08.bks.cpg/sg5_23_cif.got.tgz:44180.got - 2010.06.03 18:56:24.
