data_PCOD9120232
_publ_section_title
;
Structure prediction by ZEFSAII (Michael W. Deem and Ramdas Pophale) SiO2 
 PCOD9120232
Probable space group: C 2
;
_chemical_formula_sum "Si O2"
_cell_formula_units_Z 32
_cell_length_a 13.072111
_cell_length_b 15.839356
_cell_length_c 11.211738
_cell_angle_alpha 90.000000
_cell_angle_beta 147.527717
_cell_angle_gamma 90.000000
_cell_volume 1246.357864
_symmetry_space_group_name_H-M "C 2"
_symmetry_group_IT_number 5
_symmetry_cell_setting 'monoclinic'
loop_
_space_group_symop_operation_xyz
x,y,z
-x,y,-z
1/2+x,1/2+y,z
1/2-x,1/2+y,-z
loop_
_atom_site_type_symbol
_atom_site_label
_atom_site_fract_x
_atom_site_fract_y
_atom_site_fract_z
Si Si1 0.700413 0.476400 0.364908
Si Si2 0.798637 0.035459 0.245829
Si Si3 0.222840 0.804687 0.493843
Si Si4 0.209733 0.605599 0.922318
Si Si5 0.750694 0.444169 0.142324
Si Si6 0.815063 0.635940 0.634777
Si Si7 0.768794 0.713687 0.261107
Si Si8 0.717029 0.358656 0.896043
O O1 0.789048 0.399547 0.530254
O O2 0.771907 0.454676 0.302222
O O3 0.729990 0.567848 0.454913
O O4 0.469387 0.464802 0.116788
O O5 0.689444 0.084619 0.244515
O O6 0.000000 0.014547 0.500000
O O7 0.736127 0.946015 0.127558
O O8 0.829224 0.094680 0.160063
O O9 0.253115 0.733708 0.420440
O O10 0.293312 0.747686 0.673051
O O11 0.006533 0.832809 0.317891
O O12 0.126515 0.515625 0.800521
O O13 0.298784 0.635147 0.884931
O O14 0.026284 0.654191 0.790159
O O15 0.786214 0.360236 0.101091
O O16 0.705814 0.786620 0.110065
O O17 0.000000 0.700844 0.500000
#
# Coordination Sequence:
#
# PCOD9120232 Si02
#       8
#     4   4   4   4   4   4   4   4
#     4  10  21  38  62  91 130 172 217 267 324 396
#     4  11  23  41  64  90 129 173 213 266 329 397
#     4  10  20  35  61  97 122 167 225 262 314 387
#     4  11  22  36  60  99 123 163 214 275 333 374
#     4   9  20  36  58  89 125 169 215 260 326 390
#     4  12  22  38  65  97 130 162 220 280 326 378
#     4  10  17  32  56  90 120 151 205 267 306 371
#     4   9  17  35  60  88 116 162 220 257 304 378
#
# _framework density 25.674810999999998
#
# number of rings (size 3 to 8) (size 9 to 14) (size 15 to 20)
#    0.000    1.750    2.500    5.250    0.000    1.000 
#    4.500    0.000   13.750    0.000    6.500    0.000 
#    0.000    0.000    0.000    0.000    0.000    0.000 
#
# Total GULP energy -89068.891786 kJ/mol
# GULP energy per Si atom -5566.805737 kJ/mol
# Density = 2.561637 g / cm^3
# Si number density = 25.674811 Si / 1000 Ang^3
#
#
#
# Elastic Constant Matrix: (Units=GPa)
#
#
# Indices 1 2 3 4 5 6 
#
# 1 78.0282 15.7253 31.6714 0.0000 -24.4309 0.0000
# 2 15.7253 147.3022 21.8569 0.0000 -21.9593 0.0000
# 3 31.6714 21.8569 69.3646 0.0000 -22.0897 0.0000
# 4 0.0000 0.0000 0.0000 22.1914 0.0000 -18.3896
# 5 -24.4309 -21.9593 -22.0897 0.0000 53.0234 0.0000
# 6 0.0000 0.0000 0.0000 -18.3896 0.0000 37.2641
#
#
#
# Elastic Compliance Matrix: (Units=1/GPa)
#
#
# Indices 1 2 3 4 5 6 
#
# 1 0.016925 -0.000133 -0.006018 0.000000 0.005236 0.000000
# 2 -0.000133 0.007380 -0.001511 0.000000 0.002365 0.000000
# 3 -0.006018 -0.001511 0.019091 0.000000 0.004555 0.000000
# 4 0.000000 0.000000 0.000000 0.076241 0.000000 0.037625
# 5 0.005236 0.002365 0.004555 0.000000 0.024149 0.000000
# 6 0.000000 0.000000 0.000000 0.037625 0.000000 0.045403
#
#
# Mechanical properties :
#
#
# Convention : Reuss Voigt Hill
#
# Bulk Modulus (GPa) = 35.62524 48.13355 41.87940
# Shear Modulus (GPa) = 23.37845 37.52518 30.45182
#
# Velocity S-wave (km/s) = 3.02082 3.82718 3.44766
# Velocity P-wave (km/s) = 5.10616 6.19014 5.67409
#
# Compressibility (1/GPa) = 0.02806998
#
# Stress axis : x y z
#
# Youngs Moduli (GPa) = 59.08433 135.50407 52.38013
#
# Poissons Ratio (x) = 0.01806 0.31525
# Poissons Ratio (y) = 0.00787 0.07916
# Poissons Ratio (z) = 0.35560 0.20479
#
# Static dielectric constant tensor:
#      x y z
#    x 2.146580 0.000000 0.112800 
#    y 0.000000 2.062380 0.000000 
#    z 0.112800 0.000000 2.162970 
# 
# From -- ./inp_files/43088.got.cif
#   From: 2010.05.17/outbox.cif.g08.bks.cpg/sg5_22_cif.got.tgz:43088.got - 2010.06.03 18:56:24.
