data_PCOD9120925
_publ_section_title
;
Structure prediction by ZEFSAII (Michael W. Deem and Ramdas Pophale) SiO2 
 PCOD9120925
Probable space group: C 2
;
_chemical_formula_sum "Si O2"
_cell_formula_units_Z 28
_cell_length_a 12.321527
_cell_length_b 7.854742
_cell_length_c 14.859154
_cell_angle_alpha 90.000000
_cell_angle_beta 61.392855
_cell_angle_gamma 90.000000
_cell_volume 1262.545690
_symmetry_space_group_name_H-M "C 2"
_symmetry_group_IT_number 5
_symmetry_cell_setting 'monoclinic'
loop_
_space_group_symop_operation_xyz
x,y,z
-x,y,-z
1/2+x,1/2+y,z
1/2-x,1/2+y,-z
loop_
_atom_site_type_symbol
_atom_site_label
_atom_site_fract_x
_atom_site_fract_y
_atom_site_fract_z
Si Si1 0.529376 0.169100 0.661956
Si Si2 0.000000 0.451112 0.500000
Si Si3 0.437815 0.542108 0.718756
Si Si4 0.189253 0.567316 0.140502
Si Si5 0.500000 0.330797 0.000000
Si Si6 0.282068 0.736861 0.630571
Si Si7 0.240485 0.178673 0.079574
Si Si8 0.120693 0.026330 0.792031
O O1 0.495889 0.366986 0.660635
O O2 0.675198 0.138019 0.619451
O O3 0.481215 0.062565 0.596508
O O4 0.448906 0.124322 0.782202
O O5 0.121830 0.339170 0.468541
O O6 0.373376 0.639612 0.662549
O O7 0.325899 0.534291 0.835711
O O8 0.548069 0.616082 0.739138
O O9 0.184482 0.362766 0.128473
O O10 0.276089 0.620158 0.190049
O O11 0.257018 0.639635 0.026384
O O12 0.383033 0.208954 0.044282
O O13 0.476721 0.450177 0.096450
O O14 0.197859 0.869336 0.719949
#
# Coordination Sequence:
#
# PCOD9120925 Si02
#       8
#     4   2   4   4   2   4   4   4
#     4  11  26  46  74 102 138 175 233 292 344 414
#     4  12  26  50  72 102 134 184 226 290 364 400
#     4  11  22  42  69 103 134 184 227 277 346 409
#     4  11  21  42  64 103 144 185 230 281 341 405
#     4  10  18  36  64  90 146 184 216 272 332 386
#     4  11  24  47  72 100 137 179 227 289 349 404
#     4  11  21  36  67  98 145 190 227 272 340 409
#     4  10  20  40  67  95 142 182 219 286 331 396
#
# _framework density 22.177413999999999
#
# number of rings (size 3 to 8) (size 9 to 14) (size 15 to 20)
#    0.000    1.143    4.286    4.286    0.000    4.000 
#    5.143    1.429    3.143    0.000    0.000    0.000 
#    0.000    0.000    0.000    0.000    0.000    0.000 
#
# Total GULP energy -78108.500055 kJ/mol
# GULP energy per Si atom -5579.178575 kJ/mol
# Density = 2.212694 g / cm^3
# Si number density = 22.177414 Si / 1000 Ang^3
#
#
#
# Elastic Constant Matrix: (Units=GPa)
#
#
# Indices 1 2 3 4 5 6 
#
# 1 130.9736 45.2718 13.9938 0.0000 -6.8913 0.0000
# 2 45.2718 29.2246 10.3173 0.0000 -4.4872 0.0000
# 3 13.9938 10.3173 62.9041 0.0000 -14.7782 0.0000
# 4 0.0000 0.0000 0.0000 38.0038 0.0000 -2.5631
# 5 -6.8913 -4.4872 -14.7782 0.0000 29.6704 0.0000
# 6 0.0000 0.0000 0.0000 -2.5631 0.0000 34.1764
#
#
#
# Elastic Compliance Matrix: (Units=1/GPa)
#
#
# Indices 1 2 3 4 5 6 
#
# 1 0.016455 -0.025668 0.000606 0.000000 0.000242 0.000000
# 2 -0.025668 0.076574 -0.006262 0.000000 0.002500 0.000000
# 3 0.000606 -0.006262 0.018800 0.000000 0.008558 0.000000
# 4 0.000000 0.000000 0.000000 0.026447 0.000000 0.001983
# 5 0.000242 0.002500 0.008558 0.000000 0.038400 0.000000
# 6 0.000000 0.000000 0.000000 0.001983 0.000000 0.029409
#
#
# Mechanical properties :
#
#
# Convention : Reuss Voigt Hill
#
# Bulk Modulus (GPa) = 20.33257 40.25201 30.29229
# Shear Modulus (GPa) = 17.53607 30.60474 24.07040
#
# Velocity S-wave (km/s) = 2.81502 3.71886 3.29805
# Velocity P-wave (km/s) = 4.44453 6.05221 5.30957
#
# Compressibility (1/GPa) = 0.04918217
#
# Stress axis : x y z
#
# Youngs Moduli (GPa) = 60.77072 13.05923 53.19176
#
# Poissons Ratio (x) = 0.33520 -0.03224
# Poissons Ratio (y) = 1.55985 0.33309
# Poissons Ratio (z) = -0.03683 0.08178
#
# Static dielectric constant tensor:
#      x y z
#    x 1.876850 0.000000 0.033400 
#    y 0.000000 1.871500 0.000000 
#    z 0.033400 0.000000 1.821510 
# 
# From -- ./inp_files/52395.got.cif
#   From: 2010.05.17/outbox.cif.g08.bks.cpg/sg5_27_cif.got.tgz:52395.got - 2010.06.03 18:56:24.
