data_PCOD9120823
_publ_section_title
;
Structure prediction by ZEFSAII (Michael W. Deem and Ramdas Pophale) SiO2 
 PCOD9120823
Probable space group: C 2
;
_chemical_formula_sum "Si O2"
_cell_formula_units_Z 32
_cell_length_a 19.098857
_cell_length_b 14.545540
_cell_length_c 11.964673
_cell_angle_alpha 90.000000
_cell_angle_beta 150.841626
_cell_angle_gamma 90.000000
_cell_volume 1619.451439
_symmetry_space_group_name_H-M "C 2"
_symmetry_group_IT_number 5
_symmetry_cell_setting 'monoclinic'
loop_
_space_group_symop_operation_xyz
x,y,z
-x,y,-z
1/2+x,1/2+y,z
1/2-x,1/2+y,-z
loop_
_atom_site_type_symbol
_atom_site_label
_atom_site_fract_x
_atom_site_fract_y
_atom_site_fract_z
Si Si1 0.942615 0.421340 0.080349
Si Si2 0.871428 0.410099 0.236020
Si Si3 0.729888 0.992358 0.363121
Si Si4 0.325758 0.237131 0.006577
Si Si5 0.358488 0.313297 0.601969
Si Si6 0.670827 0.188447 0.238119
Si Si7 0.332078 0.111680 0.229384
Si Si8 0.131184 0.224499 0.115357
O O1 0.927042 0.433738 0.189781
O O2 0.091191 0.463009 0.242828
O O3 0.818203 0.469156 0.831760
O O4 0.934142 0.312978 0.040392
O O5 0.766746 0.323922 0.083849
O O6 0.800082 0.503563 0.180963
O O7 0.000000 0.387544 0.500000
O O8 0.852029 0.922387 0.573126
O O9 0.752237 0.100919 0.403224
O O10 0.279663 0.205102 0.818829
O O11 0.488981 0.271061 0.218080
O O12 0.317409 0.158337 0.087584
O O13 0.320458 0.279004 0.673528
O O14 0.240994 0.268534 0.357140
O O15 0.500000 0.162914 0.000000
O O16 0.500000 0.122405 0.500000
O O17 0.223904 0.161745 0.162880
O O18 0.000000 0.178998 0.000000
#
# Coordination Sequence:
#
# PCOD9120823 Si02
#       8
#     4   4   4   4   4   4   4   4
#     4  10  18  35  64  90 117 155 215 260 293 370
#     4  11  26  40  63  91 127 169 211 258 326 380
#     4  10  19  37  64  93 117 163 215 257 308 370
#     4  11  23  43  61  91 132 167 207 266 321 378
#     4  10  22  38  62  94 126 163 210 267 317 367
#     4  10  21  38  61  91 125 165 205 251 317 385
#     4  11  23  42  67  93 126 171 218 258 319 390
#     4  11  20  39  65  96 124 163 214 266 310 367
#
# _framework density 19.759775999999999
#
# number of rings (size 3 to 8) (size 9 to 14) (size 15 to 20)
#    0.000    1.500    6.250    0.750    3.500    0.000 
#    2.250    0.625    0.000    0.000    0.000    0.000 
#    0.000    0.000    0.000    0.000    0.000    0.000 
#
# Total GULP energy -89365.714974 kJ/mol
# GULP energy per Si atom -5585.357186 kJ/mol
# Density = 1.971480 g / cm^3
# Si number density = 19.759776 Si / 1000 Ang^3
#
#
#
# Elastic Constant Matrix: (Units=GPa)
#
#
# Indices 1 2 3 4 5 6 
#
# 1 86.6420 0.2126 13.1612 0.0000 -12.5836 0.0000
# 2 0.2126 60.1016 14.7115 0.0000 -0.2611 0.0000
# 3 13.1612 14.7115 33.8901 0.0000 -4.9100 0.0000
# 4 0.0000 0.0000 0.0000 20.5966 0.0000 -5.3146
# 5 -12.5836 -0.2611 -4.9100 0.0000 23.8003 0.0000
# 6 0.0000 0.0000 0.0000 -5.3146 0.0000 19.9222
#
#
#
# Elastic Compliance Matrix: (Units=1/GPa)
#
#
# Indices 1 2 3 4 5 6 
#
# 1 0.013125 0.001136 -0.004724 0.000000 0.005977 0.000000
# 2 0.001136 0.018768 -0.008732 0.000000 -0.000995 0.000000
# 3 -0.004724 -0.008732 0.035827 0.000000 0.004798 0.000000
# 4 0.000000 0.000000 0.000000 0.052141 0.000000 0.013910
# 5 0.005977 -0.000995 0.004798 0.000000 0.046155 0.000000
# 6 0.000000 0.000000 0.000000 0.013910 0.000000 0.053906
#
#
# Mechanical properties :
#
#
# Convention : Reuss Voigt Hill
#
# Bulk Modulus (GPa) = 23.21320 26.31160 24.76240
# Shear Modulus (GPa) = 19.31082 23.03370 21.17226
#
# Velocity S-wave (km/s) = 3.12954 3.41792 3.27690
# Velocity P-wave (km/s) = 4.98316 5.37781 5.18424
#
# Compressibility (1/GPa) = 0.04307893
#
# Stress axis : x y z
#
# Youngs Moduli (GPa) = 76.19249 53.28338 27.91159
#
# Poissons Ratio (x) = -0.06052 0.13186
# Poissons Ratio (y) = -0.08655 0.24373
# Poissons Ratio (z) = 0.35994 0.46528
#
# Static dielectric constant tensor:
#      x y z
#    x 1.682520 0.000000 -0.011940 
#    y 0.000000 1.709110 0.000000 
#    z -0.011940 0.000000 1.706600 
# 
# From -- ./inp_files/44977.got.cif
#   From: 2010.05.17/outbox.cif.g08.bks.cpg/sg5_23_cif.got.tgz:44977.got - 2010.06.03 18:56:24.
