data_PCOD9120876
_publ_section_title
;
Structure prediction by ZEFSAII (Michael W. Deem and Ramdas Pophale) SiO2 
 PCOD9120876
Probable space group: C 2
;
_chemical_formula_sum "Si O2"
_cell_formula_units_Z 30
_cell_length_a 15.329689
_cell_length_b 12.170395
_cell_length_c 24.631528
_cell_angle_alpha 90.000000
_cell_angle_beta 160.534155
_cell_angle_gamma 90.000000
_cell_volume 1531.414840
_symmetry_space_group_name_H-M "C 2"
_symmetry_group_IT_number 5
_symmetry_cell_setting 'monoclinic'
loop_
_space_group_symop_operation_xyz
x,y,z
-x,y,-z
1/2+x,1/2+y,z
1/2-x,1/2+y,-z
loop_
_atom_site_type_symbol
_atom_site_label
_atom_site_fract_x
_atom_site_fract_y
_atom_site_fract_z
Si Si1 0.099125 0.877250 0.246067
Si Si2 0.812622 0.622691 0.679280
Si Si3 0.000000 0.852382 0.000000
Si Si4 0.886967 0.409000 0.517660
Si Si5 0.466509 0.709570 0.324724
Si Si6 0.318297 0.515284 0.498896
Si Si7 0.670690 0.925759 0.908066
Si Si8 0.722986 0.291673 0.591152
O O1 0.137642 0.745762 0.273083
O O2 0.145170 0.918572 0.334323
O O3 0.343806 0.926074 0.356139
O O4 0.841380 0.901787 0.061111
O O5 0.500000 0.600290 0.500000
O O6 0.855332 0.592415 0.641460
O O7 0.003615 0.536011 0.819537
O O8 0.791340 0.772866 0.847311
O O9 0.857366 0.922721 0.963638
O O10 0.912745 0.286892 0.557632
O O11 0.850373 0.482392 0.548397
O O12 0.445461 0.589444 0.339071
O O13 0.661942 0.712847 0.387706
O O14 0.372409 0.403136 0.496934
O O15 0.459615 0.832739 0.768234
O O16 0.500000 0.247865 0.500000
#
# Coordination Sequence:
#
# PCOD9120876 Si02
#       8
#     4   4   2   4   4   4   4   4
#     4  11  20  39  62  90 125 159 211 259 308 356
#     4  11  21  39  69  92 114 170 219 240 310 385
#     4  10  20  36  58  92 126 160 198 264 310 350
#     4  10  20  36  60  89 121 157 201 262 298 362
#     4  10  18  36  60  86 118 157 205 249 301 375
#     4  10  19  35  60  90 111 156 213 246 295 371
#     4  10  21  35  61  89 127 152 210 262 301 365
#     4   9  20  38  58  82 118 161 201 248 309 364
#
# _framework density 19.589728000000001
#
# number of rings (size 3 to 8) (size 9 to 14) (size 15 to 20)
#    0.000    1.867    4.000    2.400    0.000    0.000 
#    7.200    0.000    0.000    4.000    0.000    0.000 
#    0.000    0.000    0.000    0.000    0.000    0.000 
#
# Total GULP energy -83589.023370 kJ/mol
# GULP energy per Si atom -5572.601558 kJ/mol
# Density = 1.954514 g / cm^3
# Si number density = 19.589728 Si / 1000 Ang^3
#
#
#
# Elastic Constant Matrix: (Units=GPa)
#
#
# Indices 1 2 3 4 5 6 
#
# 1 95.2807 12.0448 52.2715 0.0011 -11.7416 0.0073
# 2 12.0448 55.7339 38.3358 0.0229 -8.4444 0.0001
# 3 52.2715 38.3358 110.7753 0.0317 -21.3040 0.0092
# 4 0.0011 0.0229 0.0317 29.0085 -0.0133 -3.0314
# 5 -11.7416 -8.4444 -21.3040 -0.0133 35.4826 0.0005
# 6 0.0073 0.0001 0.0092 -3.0314 0.0005 11.5876
#
#
#
# Elastic Compliance Matrix: (Units=1/GPa)
#
#
# Indices 1 2 3 4 5 6 
#
# 1 0.014358 0.002065 -0.007328 0.000006 0.000843 -0.000002
# 2 0.002065 0.023865 -0.009055 -0.000008 0.000926 0.000004
# 3 -0.007328 -0.009055 0.016662 -0.000009 0.005424 -0.000011
# 4 0.000006 -0.000008 -0.000009 0.035442 0.000007 0.009272
# 5 0.000843 0.000926 0.005424 0.000007 0.031939 -0.000004
# 6 -0.000002 0.000004 -0.000011 0.009272 -0.000004 0.088725
#
#
# Mechanical properties :
#
#
# Convention : Reuss Voigt Hill
#
# Bulk Modulus (GPa) = 38.09640 51.89935 44.99788
# Shear Modulus (GPa) = 20.13081 25.82493 22.97787
#
# Velocity S-wave (km/s) = 3.20913 3.63476 3.42856
# Velocity P-wave (km/s) = 5.76374 6.64575 6.22040
#
# Compressibility (1/GPa) = 0.02624920
#
# Stress axis : x y z
#
# Youngs Moduli (GPa) = 69.64679 41.90253 60.01746
#
# Poissons Ratio (x) = -0.08653 0.43979
# Poissons Ratio (y) = -0.14382 0.54347
# Poissons Ratio (z) = 0.51035 0.37943
#
# Static dielectric constant tensor:
#      x y z
#    x 1.752120 0.000010 0.000930 
#    y 0.000010 1.725950 -0.000020 
#    z 0.000930 -0.000020 1.692560 
# 
# From -- ./inp_files/68894.got.cif
#   From: 2010.05.17/outbox.cif.g08.bks.cpg/sg5_35_cif.got.tgz:68894.got - 2010.06.03 18:56:24.
