data_PCOD9120045
_publ_section_title
;
Structure prediction by ZEFSAII (Michael W. Deem and Ramdas Pophale) SiO2 
 PCOD9120045
Probable space group: C 2
;
_chemical_formula_sum "Si O2"
_cell_formula_units_Z 20
_cell_length_a 26.435671
_cell_length_b 5.208504
_cell_length_c 16.148966
_cell_angle_alpha 90.000000
_cell_angle_beta 156.398742
_cell_angle_gamma 90.000000
_cell_volume 890.243208
_symmetry_space_group_name_H-M "C 2"
_symmetry_group_IT_number 5
_symmetry_cell_setting 'monoclinic'
loop_
_space_group_symop_operation_xyz
x,y,z
-x,y,-z
1/2+x,1/2+y,z
1/2-x,1/2+y,-z
loop_
_atom_site_type_symbol
_atom_site_label
_atom_site_fract_x
_atom_site_fract_y
_atom_site_fract_z
Si Si1 0.973593 0.479890 0.697806
Si Si2 0.260009 0.182710 0.960760
Si Si3 0.808082 0.257305 0.315662
Si Si4 0.166421 0.301218 0.358868
Si Si5 0.772069 0.247218 0.722903
O O1 0.931926 0.296489 0.558663
O O2 0.946215 0.347068 0.744841
O O3 0.866082 0.698469 0.526755
O O4 0.109015 0.594857 0.884880
O O5 0.167554 0.231020 0.744664
O O6 0.277999 0.444548 0.038502
O O7 0.722591 0.508194 0.206628
O O8 0.735214 0.012179 0.241073
O O9 0.248312 0.564453 0.481159
O O10 0.136949 0.241899 0.219243
#
# Coordination Sequence:
#
# PCOD9120045 Si02
#       5
#     4   4   4   4   4
#     4   9  23  39  68  92 129 171 209 264 330 381
#     4  12  28  45  62  93 132 169 229 285 316 374
#     4  10  21  41  63  92 127 165 217 265 326 387
#     4  10  16  32  64  99 126 165 208 246 320 409
#     4   9  18  37  65  94 127 165 207 256 322 405
#
# _framework density 22.465772000000001
#
# number of rings (size 3 to 8) (size 9 to 14) (size 15 to 20)
#    1.200    0.800    2.000    1.200    2.800    0.800 
#    0.000    1.000    0.000    7.200    0.000    0.000 
#    0.000    0.000    0.000    0.000    0.000    0.000 
#
# Total GULP energy -55796.120593 kJ/mol
# GULP energy per Si atom -5579.612059 kJ/mol
# Density = 2.241464 g / cm^3
# Si number density = 22.465772 Si / 1000 Ang^3
#
#
#
# Elastic Constant Matrix: (Units=GPa)
#
#
# Indices 1 2 3 4 5 6 
#
# 1 92.5369 19.9639 19.3584 0.0000 -19.5901 0.0000
# 2 19.9639 124.9781 5.5310 0.0002 -8.4564 -0.0001
# 3 19.3584 5.5310 40.3088 0.0001 3.8015 0.0000
# 4 0.0000 0.0002 0.0001 7.3900 0.0000 -6.8970
# 5 -19.5901 -8.4564 3.8015 0.0000 37.0021 0.0000
# 6 0.0000 -0.0001 0.0000 -6.8970 0.0000 46.1049
#
#
#
# Elastic Compliance Matrix: (Units=1/GPa)
#
#
# Indices 1 2 3 4 5 6 
#
# 1 0.014382 -0.001422 -0.007472 0.000000 0.008057 0.000000
# 2 -0.001422 0.008336 -0.000575 0.000000 0.001212 0.000000
# 3 -0.007472 -0.000575 0.029144 0.000000 -0.007081 0.000000
# 4 0.000000 0.000000 0.000000 0.157276 0.000000 0.023527
# 5 0.008057 0.001212 -0.007081 0.000000 0.032296 0.000000
# 6 0.000000 0.000000 0.000000 0.023527 0.000000 0.025209
#
#
# Mechanical properties :
#
#
# Convention : Reuss Voigt Hill
#
# Bulk Modulus (GPa) = 30.37291 38.61450 34.49370
# Shear Modulus (GPa) = 16.86030 32.29744 24.57887
#
# Velocity S-wave (km/s) = 2.74248 3.79572 3.31124
# Velocity P-wave (km/s) = 4.85564 6.03618 5.47780
#
# Compressibility (1/GPa) = 0.03292408
#
# Stress axis : x y z
#
# Youngs Moduli (GPa) = 69.53175 119.96282 34.31286
#
# Poissons Ratio (x) = 0.17053 0.25638
# Poissons Ratio (y) = 0.09884 0.01974
# Poissons Ratio (z) = 0.51952 0.06902
#
# Static dielectric constant tensor:
#      x y z
#    x 1.844370 0.000000 -0.021770 
#    y 0.000000 1.789490 0.000000 
#    z -0.021770 0.000000 1.899320 
# 
# From -- ./inp_files/55117.got.cif
#   From: 2010.05.17/outbox.cif.g08.bks.cpg/sg5_28_cif.got.tgz:55117.got - 2010.06.03 18:56:24.
