data_PCOD9120850
_publ_section_title
;
Structure prediction by ZEFSAII (Michael W. Deem and Ramdas Pophale) SiO2 
 PCOD9120850
Probable space group: C 2
;
_chemical_formula_sum "Si O2"
_cell_formula_units_Z 32
_cell_length_a 24.465986
_cell_length_b 9.636169
_cell_length_c 18.208310
_cell_angle_alpha 90.000000
_cell_angle_beta 157.720100
_cell_angle_gamma 90.000000
_cell_volume 1627.521409
_symmetry_space_group_name_H-M "C 2"
_symmetry_group_IT_number 5
_symmetry_cell_setting 'monoclinic'
loop_
_space_group_symop_operation_xyz
x,y,z
-x,y,-z
1/2+x,1/2+y,z
1/2-x,1/2+y,-z
loop_
_atom_site_type_symbol
_atom_site_label
_atom_site_fract_x
_atom_site_fract_y
_atom_site_fract_z
Si Si1 0.409821 0.474960 0.637726
Si Si2 0.042228 0.708524 0.838737
Si Si3 0.166465 0.538370 0.730242
Si Si4 0.846823 0.212306 0.452491
Si Si5 0.877324 0.422301 0.628136
Si Si6 0.107453 0.844204 0.070547
Si Si7 0.611632 0.722603 0.936851
Si Si8 0.346341 0.788643 0.180376
O O1 0.488505 0.331350 0.718737
O O2 0.357969 0.564536 0.504816
O O3 0.271847 0.444197 0.515987
O O4 0.523351 0.577999 0.818552
O O5 0.953023 0.570918 0.712268
O O6 0.024967 0.776367 0.898713
O O7 0.213644 0.695674 0.042443
O O8 0.272510 0.455505 0.806450
O O9 0.172625 0.443235 0.811641
O O10 0.000000 0.547410 0.500000
O O11 0.244219 0.684549 0.841306
O O12 0.846841 0.332327 0.516403
O O13 0.705654 0.226387 0.229375
O O14 0.997371 0.238212 0.598110
O O15 0.993629 0.331327 0.818571
O O16 0.000000 0.897790 0.000000
O O17 0.650203 0.776802 0.903231
#
# Coordination Sequence:
#
# PCOD9120850 Si02
#       8
#     4   4   4   4   4   4   4   4
#     4  10  18  36  56  89 115 154 200 250 295 357
#     4  11  21  34  63  83 117 161 197 241 310 360
#     4  11  21  39  64  87 121 166 204 249 307 366
#     4  10  22  34  60  86 118 153 199 253 292 356
#     4  10  21  35  57  86 118 156 198 252 304 357
#     4  11  21  36  59  89 120 160 201 245 299 368
#     4  10  22  36  61  88 125 151 205 258 299 358
#     4   9  20  34  57  86 115 146 199 250 296 349
#
# _framework density 19.661799999999999
#
# number of rings (size 3 to 8) (size 9 to 14) (size 15 to 20)
#    0.000    2.000    3.750    3.000    3.500    0.000 
#    0.000    0.000    8.250    0.750    0.000    0.000 
#    0.000    0.000    0.000    0.000    0.000    0.000 
#
# Total GULP energy -89213.032774 kJ/mol
# GULP energy per Si atom -5575.814548 kJ/mol
# Density = 1.961705 g / cm^3
# Si number density = 19.661800 Si / 1000 Ang^3
#
#
#
# Elastic Constant Matrix: (Units=GPa)
#
#
# Indices 1 2 3 4 5 6 
#
# 1 60.8351 8.3382 31.1035 0.0000 19.9253 0.0000
# 2 8.3382 89.4948 36.9717 0.0000 -0.1798 0.0000
# 3 31.1035 36.9717 109.7803 0.0000 12.0402 0.0000
# 4 0.0000 0.0000 0.0000 18.4421 0.0000 -3.9854
# 5 19.9253 -0.1798 12.0402 0.0000 37.4609 0.0000
# 6 0.0000 0.0000 0.0000 -3.9854 0.0000 14.9483
#
#
#
# Elastic Compliance Matrix: (Units=1/GPa)
#
#
# Indices 1 2 3 4 5 6 
#
# 1 0.022484 0.000059 -0.005264 0.000000 -0.010267 0.000000
# 2 0.000059 0.013064 -0.004581 0.000000 0.001504 0.000000
# 3 -0.005264 -0.004581 0.012271 0.000000 -0.001166 0.000000
# 4 0.000000 0.000000 0.000000 0.057539 0.000000 0.015341
# 5 -0.010267 0.001504 -0.001166 0.000000 0.032537 0.000000
# 6 0.000000 0.000000 0.000000 0.015341 0.000000 0.070988
#
#
# Mechanical properties :
#
#
# Convention : Reuss Voigt Hill
#
# Bulk Modulus (GPa) = 35.40238 45.88188 40.64213
# Shear Modulus (GPa) = 21.01978 26.41671 23.71824
#
# Velocity S-wave (km/s) = 3.27321 3.66943 3.47697
# Velocity P-wave (km/s) = 5.68594 6.42955 6.06915
#
# Compressibility (1/GPa) = 0.02824669
#
# Stress axis : x y z
#
# Youngs Moduli (GPa) = 44.47624 76.54644 81.49038
#
# Poissons Ratio (x) = -0.00454 0.42898
# Poissons Ratio (y) = -0.00264 0.37334
# Poissons Ratio (z) = 0.23413 0.35069
#
# Static dielectric constant tensor:
#      x y z
#    x 1.732060 0.000000 0.007710 
#    y 0.000000 1.694480 0.000000 
#    z 0.007710 0.000000 1.724600 
# 
# From -- ./inp_files/67604.got.cif
#   From: 2010.05.17/outbox.cif.g08.bks.cpg/sg5_34_cif.got.tgz:67604.got - 2010.06.03 18:56:24.
