data_PCOD9120752
_publ_section_title
;
Structure prediction by ZEFSAII (Michael W. Deem and Ramdas Pophale) SiO2 
 PCOD9120752
Probable space group: C 2
;
_chemical_formula_sum "Si O2"
_cell_formula_units_Z 32
_cell_length_a 21.554194
_cell_length_b 9.224307
_cell_length_c 27.623611
_cell_angle_alpha 90.000000
_cell_angle_beta 18.383553
_cell_angle_gamma 90.000000
_cell_volume 1732.110181
_symmetry_space_group_name_H-M "C 2"
_symmetry_group_IT_number 5
_symmetry_cell_setting 'monoclinic'
loop_
_space_group_symop_operation_xyz
x,y,z
-x,y,-z
1/2+x,1/2+y,z
1/2-x,1/2+y,-z
loop_
_atom_site_type_symbol
_atom_site_label
_atom_site_fract_x
_atom_site_fract_y
_atom_site_fract_z
Si Si1 0.466641 0.107340 0.836084
Si Si2 0.925882 0.381735 0.318249
Si Si3 0.045750 0.076420 0.696520
Si Si4 0.210471 0.225082 0.868198
Si Si5 0.762359 0.349129 0.043445
Si Si6 0.505781 0.474667 0.373738
Si Si7 0.470915 0.979543 0.391453
Si Si8 0.414222 0.726597 0.510411
O O1 0.301692 0.228848 0.948304
O O2 0.680376 0.183662 0.685681
O O3 0.478499 0.021391 0.776389
O O4 0.412513 0.975988 0.913689
O O5 0.027643 0.230905 0.231171
O O6 0.700533 0.390776 0.467853
O O7 0.932169 0.390367 0.371171
O O8 0.273712 0.073457 0.541061
O O9 0.935941 0.940587 0.800121
O O10 0.017924 0.059464 0.659573
O O11 0.189407 0.270263 0.940841
O O12 0.319460 0.361662 0.762300
O O13 0.345696 0.084799 0.755721
O O14 0.000000 0.203074 0.000000
O O15 0.519137 0.590169 0.406527
O O16 0.466024 0.867602 0.439573
O O17 0.500000 0.746753 0.500000
#
# Coordination Sequence:
#
# PCOD9120752 Si02
#       8
#     4   4   4   4   4   4   4   4
#     4  11  23  41  63  95 131 164 202 258 319 375
#     4  10  18  34  65  94 117 155 212 268 300 352
#     4  10  18  34  65  94 117 155 212 268 300 352
#     4  11  24  42  63  91 127 169 207 257 314 375
#     4  11  23  41  63  95 131 164 202 258 319 375
#     4   9  20  34  62  90 117 160 208 256 305 362
#     4  11  20  40  64  90 125 160 222 256 307 370
#     4  11  24  42  63  91 127 169 207 257 314 375
#
# _framework density 18.474575000000002
#
# number of rings (size 3 to 8) (size 9 to 14) (size 15 to 20)
#    0.000    1.500    5.000    0.750    1.750    0.000 
#    2.250    1.250    0.000    0.000    0.000    0.000 
#    0.000    0.000    0.000    0.000    0.000    0.000 
#
# Total GULP energy -89093.302159 kJ/mol
# GULP energy per Si atom -5568.331385 kJ/mol
# Density = 1.843253 g / cm^3
# Si number density = 18.474575 Si / 1000 Ang^3
#
#
#
# Elastic Constant Matrix: (Units=GPa)
#
#
# Indices 1 2 3 4 5 6 
#
# 1 102.9609 43.5506 31.1259 0.0000 10.0700 -0.0003
# 2 43.5506 94.2057 20.8415 -0.0079 3.0590 0.0001
# 3 31.1259 20.8415 56.4972 -0.0227 6.0021 -0.0053
# 4 0.0000 -0.0079 -0.0227 42.2389 -0.0005 12.2029
# 5 10.0700 3.0590 6.0021 -0.0005 28.0631 0.0003
# 6 -0.0003 0.0001 -0.0053 12.2029 0.0003 30.1687
#
#
#
# Elastic Compliance Matrix: (Units=1/GPa)
#
#
# Indices 1 2 3 4 5 6 
#
# 1 0.013810 -0.005087 -0.005387 -0.000004 -0.003249 0.000001
# 2 -0.005087 0.013436 -0.002243 0.000002 0.000841 -0.000001
# 3 -0.005387 -0.002243 0.021758 0.000012 -0.002476 -0.000001
# 4 -0.000004 0.000002 0.000012 0.026808 -0.000001 -0.010843
# 5 -0.003249 0.000841 -0.002476 -0.000001 0.037238 -0.000001
# 6 0.000001 -0.000001 -0.000001 -0.010843 -0.000001 0.037533
#
#
# Mechanical properties :
#
#
# Convention : Reuss Voigt Hill
#
# Bulk Modulus (GPa) = 42.42597 49.41112 45.91854
# Shear Modulus (GPa) = 27.19262 30.63721 28.91491
#
# Velocity S-wave (km/s) = 3.84069 4.07670 3.96045
# Velocity P-wave (km/s) = 6.53316 6.99734 6.76923
#
# Compressibility (1/GPa) = 0.02357047
#
# Stress axis : x y z
#
# Youngs Moduli (GPa) = 72.40890 74.42810 45.95971
#
# Poissons Ratio (x) = 0.37863 0.24757
# Poissons Ratio (y) = 0.36836 0.10309
# Poissons Ratio (z) = 0.39005 0.16694
#
# Static dielectric constant tensor:
#      x y z
#    x 1.606840 0.000000 0.025460 
#    y 0.000000 1.688240 0.000000 
#    z 0.025460 0.000000 1.657730 
# 
# From -- ./inp_files/71074.got.cif
#   From: 2010.05.17/outbox.cif.g08.bks.cpg/sg5_36_cif.got.tgz:71074.got - 2010.06.03 18:56:24.
