data_PCOD9120963
_publ_section_title
;
Structure prediction by ZEFSAII (Michael W. Deem and Ramdas Pophale) SiO2 
 PCOD9120963
Probable space group: C 2
;
_chemical_formula_sum "Si O2"
_cell_formula_units_Z 26
_cell_length_a 22.109679
_cell_length_b 6.952126
_cell_length_c 9.073377
_cell_angle_alpha 90.000000
_cell_angle_beta 130.921891
_cell_angle_gamma 90.000000
_cell_volume 1053.811296
_symmetry_space_group_name_H-M "C 2"
_symmetry_group_IT_number 5
_symmetry_cell_setting 'monoclinic'
loop_
_space_group_symop_operation_xyz
x,y,z
-x,y,-z
1/2+x,1/2+y,z
1/2-x,1/2+y,-z
loop_
_atom_site_type_symbol
_atom_site_label
_atom_site_fract_x
_atom_site_fract_y
_atom_site_fract_z
Si Si1 0.807018 0.147660 0.780382
Si Si2 0.839841 0.891198 0.561456
Si Si3 0.966270 0.315653 0.110921
Si Si4 0.000000 0.329288 0.500000
Si Si5 0.510616 0.351963 0.847225
Si Si6 0.165265 0.104103 0.717348
Si Si7 0.324058 0.325042 0.032214
O O1 0.731781 0.245869 0.583509
O O2 0.842009 0.983388 0.726794
O O3 0.793784 0.019770 0.902891
O O4 0.870702 0.310138 0.929736
O O5 0.923878 0.799542 0.646984
O O6 0.829610 0.081951 0.447984
O O7 0.993622 0.403759 0.314460
O O8 0.984910 0.085466 0.159089
O O9 0.000000 0.370767 0.000000
O O10 0.915066 0.216269 0.368334
O O11 0.500000 0.299755 0.000000
O O12 0.590988 0.270487 0.904088
O O13 0.250400 0.185988 0.899765
O O14 0.158842 0.891207 0.775210
#
# Coordination Sequence:
#
# PCOD9120963 Si02
#       7
#     4   4   4   2   4   4   4
#     4  11  22  39  62  95 129 158 217 271 323 385
#     4  12  22  37  67  93 123 170 214 266 328 389
#     4  10  18  37  61  92 120 164 223 270 298 396
#     4  12  20  38  68  94 120 182 228 254 326 412
#     4  10  18  38  64  84 121 171 219 254 309 402
#     4  12  23  38  64  95 123 170 215 263 327 389
#     4  11  23  42  62  91 131 164 210 274 318 385
#
# _framework density 24.672346999999998
#
# number of rings (size 3 to 8) (size 9 to 14) (size 15 to 20)
#    0.000    0.923    9.231    1.846    0.000    0.000 
#    0.000    1.538    3.385    0.000    0.000    0.000 
#    0.000    0.000    0.000    0.000    0.000    0.000 
#
# Total GULP energy -72500.060639 kJ/mol
# GULP energy per Si atom -5576.927741 kJ/mol
# Density = 2.461619 g / cm^3
# Si number density = 24.672347 Si / 1000 Ang^3
#
#
#
# Elastic Constant Matrix: (Units=GPa)
#
#
# Indices 1 2 3 4 5 6 
#
# 1 149.0326 39.0204 76.2536 0.0000 21.7559 0.0000
# 2 39.0204 54.7203 24.9317 0.0000 11.5125 0.0000
# 3 76.2536 24.9317 169.0556 0.0000 15.1197 0.0000
# 4 0.0000 0.0000 0.0000 17.5977 0.0000 29.0136
# 5 21.7559 11.5125 15.1197 0.0000 65.2319 0.0000
# 6 0.0000 0.0000 0.0000 29.0136 0.0000 -14.1979
#
#
#
# Elastic Compliance Matrix: (Units=1/GPa)
#
#
# Indices 1 2 3 4 5 6 
#
# 1 0.010209 -0.005260 -0.003684 0.000000 -0.001623 0.000000
# 2 -0.005260 0.022833 -0.000808 0.000000 -0.002088 0.000000
# 3 -0.003684 -0.000808 0.007734 0.000000 -0.000421 0.000000
# 4 0.000000 0.000000 0.000000 0.013006 0.000000 0.026578
# 5 -0.001623 -0.002088 -0.000421 0.000000 0.016337 0.000000
# 6 0.000000 0.000000 0.000000 0.026578 0.000000 -0.016120
#
#
# Mechanical properties :
#
#
# Convention : Reuss Voigt Hill
#
# Bulk Modulus (GPa) = 47.01063 72.57997 59.79530
# Shear Modulus (GPa) = 62.04003 29.23319 45.63661
#
# Velocity S-wave (km/s) = 5.01998 3.44591 4.30549
# Velocity P-wave (km/s) = 7.25917 6.73155 7.00033
#
# Compressibility (1/GPa) = 0.02127178
#
# Stress axis : x y z
#
# Youngs Moduli (GPa) = 97.95343 43.79614 129.30368
#
# Poissons Ratio (x) = 0.23037 0.47635
# Poissons Ratio (y) = 0.51523 0.10448
# Poissons Ratio (z) = 0.36086 0.03539
#
# Static dielectric constant tensor:
#      x y z
#    x 1.973770 0.000000 0.032780 
#    y 0.000000 1.971930 0.000000 
#    z 0.032780 0.000000 2.062080 
# 
# From -- ./inp_files/29141.got.cif
#   From: 2010.05.17/outbox.cif.g08.bks.cpg/sg5_15_cif.got.tgz:29141.got - 2010.06.03 18:56:24.
