data_PCOD9120438
_publ_section_title
;
Structure prediction by ZEFSAII (Michael W. Deem and Ramdas Pophale) SiO2 
 PCOD9120438
Probable space group: C 2
;
_chemical_formula_sum "Si O2"
_cell_formula_units_Z 32
_cell_length_a 7.193242
_cell_length_b 18.443329
_cell_length_c 9.493569
_cell_angle_alpha 90.000000
_cell_angle_beta 89.293756
_cell_angle_gamma 90.000000
_cell_volume 1259.390760
_symmetry_space_group_name_H-M "C 2"
_symmetry_group_IT_number 5
_symmetry_cell_setting 'monoclinic'
loop_
_space_group_symop_operation_xyz
x,y,z
-x,y,-z
1/2+x,1/2+y,z
1/2-x,1/2+y,-z
loop_
_atom_site_type_symbol
_atom_site_label
_atom_site_fract_x
_atom_site_fract_y
_atom_site_fract_z
Si Si1 0.841873 0.044830 0.279709
Si Si2 0.267823 0.355166 0.781883
Si Si3 0.782566 0.965821 0.015706
Si Si4 0.273040 0.698930 0.161377
Si Si5 0.209865 0.560897 0.766883
Si Si6 0.742990 0.458852 0.449649
Si Si7 0.224750 0.214422 0.169124
Si Si8 0.394614 0.827163 0.630310
O O1 0.745964 0.120441 0.232097
O O2 0.064233 0.056305 0.256095
O O3 0.825543 0.017647 0.437964
O O4 0.754259 0.983420 0.177866
O O5 0.266188 0.387890 0.939950
O O6 0.320028 0.270953 0.772139
O O7 0.364936 0.411846 0.673108
O O8 0.055426 0.355648 0.731335
O O9 0.677608 0.022636 0.916571
O O10 0.000000 0.983744 0.000000
O O11 0.498208 0.707994 0.170706
O O12 0.226253 0.707663 0.996142
O O13 0.125772 0.509476 0.648525
O O14 0.174636 0.645381 0.763998
O O15 0.809321 0.393275 0.545750
O O16 0.247038 0.283353 0.270428
O O17 0.500000 0.783403 0.500000
#
# Coordination Sequence:
#
# PCOD9120438 Si02
#       8
#     4   4   4   4   4   4   4   4
#     4  10  18  30  51  77 103 126 170 212 255 305
#     4   9  19  34  51  70 104 138 165 209 261 297
#     4   9  17  31  51  75 101 133 164 207 255 302
#     4   9  17  30  51  77 101 129 167 215 259 305
#     4   9  17  31  49  74 104 128 160 210 263 304
#     4  10  20  30  45  74 102 136 166 201 253 306
#     4   9  16  29  51  76 102 128 163 213 267 303
#     4   9  19  33  47  73 106 134 172 207 253 307
#
# _framework density 25.409113999999999
#
# number of rings (size 3 to 8) (size 9 to 14) (size 15 to 20)
#    0.000    2.750    1.250    0.375    1.750    4.000 
#    0.000    0.000    0.000    1.500    0.000   14.000 
#    0.000    0.000    0.000    0.000    0.000    0.000 
#
# Total GULP energy -89192.858858 kJ/mol
# GULP energy per Si atom -5574.553679 kJ/mol
# Density = 2.535128 g / cm^3
# Si number density = 25.409114 Si / 1000 Ang^3
#
#
#
# Elastic Constant Matrix: (Units=GPa)
#
#
# Indices 1 2 3 4 5 6 
#
# 1 76.7459 9.6954 22.4983 0.0000 -5.6908 0.0000
# 2 9.6954 173.0363 89.5700 0.0000 2.5324 0.0000
# 3 22.4983 89.5700 165.6681 0.0000 6.7705 0.0000
# 4 0.0000 0.0000 0.0000 36.4598 0.0000 4.4810
# 5 -5.6908 2.5324 6.7705 0.0000 20.3971 0.0000
# 6 0.0000 0.0000 0.0000 4.4810 0.0000 14.5758
#
#
#
# Elastic Compliance Matrix: (Units=1/GPa)
#
#
# Indices 1 2 3 4 5 6 
#
# 1 0.013995 0.000319 -0.002262 0.000000 0.004616 0.000000
# 2 0.000319 0.008036 -0.004411 0.000000 0.000555 0.000000
# 3 -0.002262 -0.004411 0.008852 0.000000 -0.003022 0.000000
# 4 0.000000 0.000000 0.000000 0.028504 0.000000 -0.008763
# 5 0.004616 0.000555 -0.003022 0.000000 0.051248 0.000000
# 6 0.000000 0.000000 0.000000 -0.008763 0.000000 0.071301
#
#
# Mechanical properties :
#
#
# Convention : Reuss Voigt Hill
#
# Bulk Modulus (GPa) = 55.01838 73.21976 64.11907
# Shear Modulus (GPa) = 24.91247 33.86565 29.38906
#
# Velocity S-wave (km/s) = 3.13462 3.65473 3.40462
# Velocity P-wave (km/s) = 5.89925 6.83289 6.38316
#
# Compressibility (1/GPa) = 0.01817575
#
# Stress axis : x y z
#
# Youngs Moduli (GPa) = 71.45415 124.43346 112.97346
#
# Poissons Ratio (x) = -0.03970 0.25551
# Poissons Ratio (y) = -0.02280 0.49832
# Poissons Ratio (z) = 0.16161 0.54887
#
# Static dielectric constant tensor:
#      x y z
#    x 2.226850 0.000000 -0.040020 
#    y 0.000000 2.045260 0.000000 
#    z -0.040020 0.000000 2.020390 
# 
# From -- ./inp_files/21275.got.cif
#   From: 2010.05.17/outbox.cif.g08.bks.cpg/sg5_11_cif.got.tgz:21275.got - 2010.06.03 18:56:24.
