data_PCOD9120620
_publ_section_title
;
Structure prediction by ZEFSAII (Michael W. Deem and Ramdas Pophale) SiO2 
 PCOD9120620
Probable space group: C 2
;
_chemical_formula_sum "Si O2"
_cell_formula_units_Z 32
_cell_length_a 28.058972
_cell_length_b 6.946146
_cell_length_c 9.962942
_cell_angle_alpha 90.000000
_cell_angle_beta 40.134044
_cell_angle_gamma 90.000000
_cell_volume 1251.638044
_symmetry_space_group_name_H-M "C 2"
_symmetry_group_IT_number 5
_symmetry_cell_setting 'monoclinic'
loop_
_space_group_symop_operation_xyz
x,y,z
-x,y,-z
1/2+x,1/2+y,z
1/2-x,1/2+y,-z
loop_
_atom_site_type_symbol
_atom_site_label
_atom_site_fract_x
_atom_site_fract_y
_atom_site_fract_z
Si Si1 0.845729 0.782780 0.158762
Si Si2 0.046558 0.347985 0.280654
Si Si3 0.790621 0.528712 0.603984
Si Si4 0.578287 0.286272 0.270197
Si Si5 0.191081 0.365526 0.834067
Si Si6 0.046614 0.469248 0.772541
Si Si7 0.431539 0.411492 0.229006
Si Si8 0.170705 0.879778 0.312911
O O1 0.770086 0.865797 0.263353
O O2 0.741198 0.707982 0.648088
O O3 0.870622 0.871228 0.245522
O O4 0.907508 0.830565 0.914877
O O5 0.076410 0.552360 0.275551
O O6 0.000000 0.253266 0.500000
O O7 0.989349 0.387473 0.283810
O O8 0.120868 0.263790 0.054389
O O9 0.837531 0.551140 0.183781
O O10 0.866754 0.434017 0.392413
O O11 0.820483 0.651018 0.667663
O O12 0.500000 0.340921 0.500000
O O13 0.640314 0.382315 0.229710
O O14 0.247119 0.447390 0.827618
O O15 0.039911 0.701367 0.785434
O O16 0.000000 0.405723 0.000000
O O17 0.387187 0.477620 0.457304
O O18 0.500000 0.502626 0.000000
#
# Coordination Sequence:
#
# PCOD9120620 Si02
#       8
#     4   4   4   4   4   4   4   4
#     4  11  22  35  65  87 115 164 202 246 310 369
#     4  10  19  34  65  88 119 164 213 245 305 378
#     4   9  21  40  58  91 125 156 198 261 306 356
#     4  10  18  33  58  90 113 158 208 240 297 374
#     4   9  21  40  57  92 120 157 200 258 304 361
#     4  10  19  36  63  87 122 168 202 252 312 368
#     4  10  18  33  59  88 112 158 203 239 298 366
#     4   9  20  35  57  81 124 151 184 261 300 338
#
# _framework density 25.566495
#
# number of rings (size 3 to 8) (size 9 to 14) (size 15 to 20)
#    0.750    1.500    0.000    6.750    0.000    6.000 
#    0.000    0.625    5.500    1.500    0.000    0.000 
#    0.000    0.000    0.000    0.000    0.000    0.000 
#
# Total GULP energy -89300.066035 kJ/mol
# GULP energy per Si atom -5581.254127 kJ/mol
# Density = 2.550830 g / cm^3
# Si number density = 25.566495 Si / 1000 Ang^3
#
#
#
# Elastic Constant Matrix: (Units=GPa)
#
#
# Indices 1 2 3 4 5 6 
#
# 1 130.6091 8.3117 63.0362 0.0000 4.2996 0.0000
# 2 8.3117 88.0256 13.7972 0.0000 -6.1504 0.0000
# 3 63.0362 13.7972 170.1499 0.0000 -28.3702 0.0000
# 4 0.0000 0.0000 0.0000 -5.1313 0.0000 -16.0083
# 5 4.2996 -6.1504 -28.3702 0.0000 48.9087 0.0000
# 6 0.0000 0.0000 0.0000 -16.0083 0.0000 5.3126
#
#
#
# Elastic Compliance Matrix: (Units=1/GPa)
#
#
# Indices 1 2 3 4 5 6 
#
# 1 0.009798 -0.000508 -0.004144 0.000000 -0.003329 0.000000
# 2 -0.000508 0.011578 -0.000554 0.000000 0.001179 0.000000
# 3 -0.004144 -0.000554 0.008310 0.000000 0.005115 0.000000
# 4 0.000000 0.000000 0.000000 -0.018738 0.000000 -0.056461
# 5 -0.003329 0.001179 0.005115 0.000000 0.023854 0.000000
# 6 0.000000 0.000000 0.000000 -0.056461 0.000000 0.018098
#
#
# Mechanical properties :
#
#
# Convention : Reuss Voigt Hill
#
# Bulk Modulus (GPa) = 51.88346 62.11942 57.00144
# Shear Modulus (GPa) = 71.69725 30.06062 50.87894
#
# Velocity S-wave (km/s) = 5.30135 3.43269 4.46585
# Velocity P-wave (km/s) = 7.60329 6.32938 6.99539
#
# Compressibility (1/GPa) = 0.01927397
#
# Stress axis : x y z
#
# Youngs Moduli (GPa) = 102.05800 86.37415 120.33466
#
# Poissons Ratio (x) = 0.04390 0.49865
# Poissons Ratio (y) = 0.05187 0.06665
# Poissons Ratio (z) = 0.42292 0.04784
#
# Static dielectric constant tensor:
#      x y z
#    x 1.957000 0.000000 -0.016010 
#    y 0.000000 2.072500 0.000000 
#    z -0.016010 0.000000 2.086300 
# 
# From -- ./inp_files/31931.got.cif
#   From: 2010.05.17/outbox.cif.g08.bks.cpg/sg5_16_cif.got.tgz:31931.got - 2010.06.03 18:56:24.
