data_PCOD9120928
_publ_section_title
;
Structure prediction by ZEFSAII (Michael W. Deem and Ramdas Pophale) SiO2 
 PCOD9120928
Probable space group: C 2
;
_chemical_formula_sum "Si O2"
_cell_formula_units_Z 28
_cell_length_a 14.279556
_cell_length_b 7.283359
_cell_length_c 11.930133
_cell_angle_alpha 90.000000
_cell_angle_beta 57.637426
_cell_angle_gamma 90.000000
_cell_volume 1048.051832
_symmetry_space_group_name_H-M "C 2"
_symmetry_group_IT_number 5
_symmetry_cell_setting 'monoclinic'
loop_
_space_group_symop_operation_xyz
x,y,z
-x,y,-z
1/2+x,1/2+y,z
1/2-x,1/2+y,-z
loop_
_atom_site_type_symbol
_atom_site_label
_atom_site_fract_x
_atom_site_fract_y
_atom_site_fract_z
Si Si1 0.096951 0.959570 0.027158
Si Si2 0.114931 0.518447 0.977420
Si Si3 0.916617 0.409253 0.392823
Si Si4 0.209968 0.105575 0.310799
Si Si5 0.799589 0.742773 0.492451
Si Si6 0.838884 0.447933 0.817633
Si Si7 0.505561 0.511223 0.337866
O O1 0.108369 0.734134 0.020070
O O2 0.215443 0.037302 0.905642
O O3 0.059164 0.011591 0.178062
O O4 0.000000 0.001304 0.000000
O O5 0.148786 0.395717 0.059856
O O6 0.198947 0.512528 0.823487
O O7 0.000000 0.460897 0.000000
O O8 0.852214 0.557936 0.510616
O O9 0.811648 0.330994 0.384908
O O10 0.961848 0.213013 0.400269
O O11 0.031647 0.512933 0.284209
O O12 0.258902 0.178888 0.395096
O O13 0.179032 0.287678 0.259595
O O14 0.103668 0.972485 0.363469
O O15 0.899175 0.881908 0.406482
#
# Coordination Sequence:
#
# PCOD9120928 Si02
#       7
#     4   4   4   4   4   4   4
#     4  10  20  38  67 101 142 187 228 295 373 443
#     4  10  18  36  65 100 141 184 230 289 369 440
#     4  11  25  44  73 102 141 191 248 310 363 443
#     4  10  23  40  70 104 140 192 237 305 365 436
#     4  12  24  50  74 100 144 196 254 303 373 439
#     4  10  20  37  64 103 140 176 237 289 360 438
#     4  11  22  44  72 102 143 191 241 306 370 444
#
# _framework density 26.716234
#
# number of rings (size 3 to 8) (size 9 to 14) (size 15 to 20)
#    0.000    1.429    2.857    4.286    0.000    2.286 
#    0.000   12.857    9.429    0.000    0.000    0.000 
#    0.000    0.000    0.000    0.000    0.000    0.000 
#
# Total GULP energy -78079.477002 kJ/mol
# GULP energy per Si atom -5577.105500 kJ/mol
# Density = 2.665543 g / cm^3
# Si number density = 26.716234 Si / 1000 Ang^3
#
#
#
# Elastic Constant Matrix: (Units=GPa)
#
#
# Indices 1 2 3 4 5 6 
#
# 1 179.2104 34.6657 94.5253 0.0000 -32.1005 0.0000
# 2 34.6657 99.7934 32.0691 0.0000 -3.8738 0.0000
# 3 94.5253 32.0691 136.5178 0.0000 -29.8234 0.0000
# 4 0.0000 0.0000 0.0000 28.3986 0.0000 -13.5103
# 5 -32.1005 -3.8738 -29.8234 0.0000 83.4455 0.0000
# 6 0.0000 0.0000 0.0000 -13.5103 0.0000 36.3311
#
#
#
# Elastic Compliance Matrix: (Units=1/GPa)
#
#
# Indices 1 2 3 4 5 6 
#
# 1 0.009071 -0.001273 -0.005675 0.000000 0.001402 0.000000
# 2 -0.001273 0.011032 -0.001850 0.000000 -0.000639 0.000000
# 3 -0.005675 -0.001850 0.012142 0.000000 0.002070 0.000000
# 4 0.000000 0.000000 0.000000 0.042782 0.000000 0.015909
# 5 0.001402 -0.000639 0.002070 0.000000 0.013233 0.000000
# 6 0.000000 0.000000 0.000000 0.015909 0.000000 0.033441
#
#
# Mechanical properties :
#
#
# Convention : Reuss Voigt Hill
#
# Bulk Modulus (GPa) = 68.26498 82.00464 75.13481
# Shear Modulus (GPa) = 34.67891 46.58580 40.63236
#
# Velocity S-wave (km/s) = 3.60675 4.18033 3.90409
# Velocity P-wave (km/s) = 6.55379 7.35265 6.96469
#
# Compressibility (1/GPa) = 0.01464880
#
# Stress axis : x y z
#
# Youngs Moduli (GPa) = 110.24270 90.64131 82.36174
#
# Poissons Ratio (x) = 0.11536 0.46744
# Poissons Ratio (y) = 0.14031 0.15236
# Poissons Ratio (z) = 0.62568 0.16767
#
# Static dielectric constant tensor:
#      x y z
#    x 2.049610 0.000000 -0.135230 
#    y 0.000000 2.178530 0.000000 
#    z -0.135230 0.000000 2.070650 
# 
# From -- ./inp_files/54130.got.cif
#   From: 2010.05.17/outbox.cif.g08.bks.cpg/sg5_28_cif.got.tgz:54130.got - 2010.06.03 18:56:24.
