data_PCOD9120621
_publ_section_title
;
Structure prediction by ZEFSAII (Michael W. Deem and Ramdas Pophale) SiO2 
 PCOD9120621
Probable space group: C 2
;
_chemical_formula_sum "Si O2"
_cell_formula_units_Z 26
_cell_length_a 7.397640
_cell_length_b 17.223858
_cell_length_c 14.162029
_cell_angle_alpha 90.000000
_cell_angle_beta 44.150113
_cell_angle_gamma 90.000000
_cell_volume 1256.885057
_symmetry_space_group_name_H-M "C 2"
_symmetry_group_IT_number 5
_symmetry_cell_setting 'monoclinic'
loop_
_space_group_symop_operation_xyz
x,y,z
-x,y,-z
1/2+x,1/2+y,z
1/2-x,1/2+y,-z
loop_
_atom_site_type_symbol
_atom_site_label
_atom_site_fract_x
_atom_site_fract_y
_atom_site_fract_z
Si Si1 0.000000 0.250000 0.500000
Si Si2 0.015697 0.500710 0.761164
Si Si3 0.266022 0.877929 0.459150
Si Si4 0.439700 0.508830 0.336304
Si Si5 0.000000 0.636185 0.500000
Si Si6 0.765357 0.043071 0.957850
Si Si7 0.034494 0.675167 0.285115
Si Si8 0.500000 0.675028 0.000000
O O1 0.101864 0.302324 0.548183
O O2 0.243755 0.200783 0.372440
O O3 0.048456 0.430727 0.676254
O O4 0.300358 0.515283 0.698871
O O5 0.941209 0.582668 0.742028
O O6 0.819457 0.489189 0.922236
O O7 0.193929 0.930882 0.576923
O O8 0.000000 0.864762 0.500000
O O9 0.244154 0.579733 0.428688
O O10 0.532620 0.509175 0.193094
O O11 0.928114 0.685839 0.617846
O O12 0.878097 0.120418 0.963776
O O13 0.500000 0.060133 0.000000
O O14 0.256018 0.716409 0.140261
#
# Coordination Sequence:
#
# PCOD9120621 Si02
#       8
#     2   4   4   4   2   4   4   2
#     4  12  27  42  62  93 132 168 214 260 321 366
#     4   9  19  37  62  92 123 158 205 259 310 370
#     4  10  22  39  62  91 128 166 205 260 312 375
#     4  10  18  33  58  94 122 154 202 255 311 360
#     4  12  19  30  62  95 120 158 204 260 305 364
#     4   9  18  32  57  96 127 151 195 266 312 362
#     4  11  23  38  64  94 127 165 210 263 310 377
#     4  10  20  38  58  90 128 166 204 252 318 372
#
# _framework density 20.686060999999999
#
# number of rings (size 3 to 8) (size 9 to 14) (size 15 to 20)
#    0.000    1.846    3.077    1.385    2.154    0.000 
#    0.000    0.000    8.462    1.846    0.000    0.000 
#    0.000    0.000    0.000    0.000    0.000    0.000 
#
# Total GULP energy -72605.512415 kJ/mol
# GULP energy per Si atom -5585.039417 kJ/mol
# Density = 2.063898 g / cm^3
# Si number density = 20.686061 Si / 1000 Ang^3
#
#
#
# Elastic Constant Matrix: (Units=GPa)
#
#
# Indices 1 2 3 4 5 6 
#
# 1 78.3557 21.4087 41.1735 0.0000 -3.2322 0.0000
# 2 21.4087 37.2409 22.9106 0.0000 2.2279 0.0000
# 3 41.1735 22.9106 174.9230 0.0000 2.4983 0.0000
# 4 0.0000 0.0000 0.0000 1.1570 0.0000 0.1291
# 5 -3.2322 2.2279 2.4983 0.0000 39.4660 0.0000
# 6 0.0000 0.0000 0.0000 0.1291 0.0000 18.0338
#
#
#
# Elastic Compliance Matrix: (Units=1/GPa)
#
#
# Indices 1 2 3 4 5 6 
#
# 1 0.016499 -0.007827 -0.002887 0.000000 0.001976 0.000000
# 2 -0.007827 0.032997 -0.002446 0.000000 -0.002349 0.000000
# 3 -0.002887 -0.002446 0.006724 0.000000 -0.000524 0.000000
# 4 0.000000 0.000000 0.000000 0.865025 0.000000 -0.006192
# 5 0.001976 -0.002349 -0.000524 0.000000 0.025666 0.000000
# 6 0.000000 0.000000 0.000000 -0.006192 0.000000 0.055496
#
#
# Mechanical properties :
#
#
# Convention : Reuss Voigt Hill
#
# Bulk Modulus (GPa) = 33.44388 51.27834 42.36111
# Shear Modulus (GPa) = 4.81374 25.39979 15.10676
#
# Velocity S-wave (km/s) = 1.52712 3.50790 2.70531
# Velocity P-wave (km/s) = 4.39453 6.42260 5.50280
#
# Compressibility (1/GPa) = 0.02990084
#
# Stress axis : x y z
#
# Youngs Moduli (GPa) = 60.60872 30.30574 148.71897
#
# Poissons Ratio (x) = 0.23721 0.42930
# Poissons Ratio (y) = 0.47440 0.36374
# Poissons Ratio (z) = 0.17496 0.07412
#
# Static dielectric constant tensor:
#      x y z
#    x 1.782760 0.000000 -0.009200 
#    y 0.000000 1.712400 0.000000 
#    z -0.009200 0.000000 1.797230 
# 
# From -- ./inp_files/51473.got.cif
#   From: 2010.05.17/outbox.cif.g08.bks.cpg/sg5_26_cif.got.tgz:51473.got - 2010.06.03 18:56:24.
