data_PCOD9120469
_publ_section_title
;
Structure prediction by ZEFSAII (Michael W. Deem and Ramdas Pophale) SiO2 
 PCOD9120469
Probable space group: C 2
;
_chemical_formula_sum "Si O2"
_cell_formula_units_Z 26
_cell_length_a 24.738373
_cell_length_b 5.452372
_cell_length_c 8.659728
_cell_angle_alpha 90.000000
_cell_angle_beta 98.317772
_cell_angle_gamma 90.000000
_cell_volume 1155.761724
_symmetry_space_group_name_H-M "C 2"
_symmetry_group_IT_number 5
_symmetry_cell_setting 'monoclinic'
loop_
_space_group_symop_operation_xyz
x,y,z
-x,y,-z
1/2+x,1/2+y,z
1/2-x,1/2+y,-z
loop_
_atom_site_type_symbol
_atom_site_label
_atom_site_fract_x
_atom_site_fract_y
_atom_site_fract_z
Si Si1 0.500000 0.509001 0.000000
Si Si2 0.870794 0.277958 0.555540
Si Si3 0.553451 0.268506 0.754102
Si Si4 0.789547 0.274175 0.234114
Si Si5 0.683892 0.276727 0.405968
Si Si6 0.991488 0.255888 0.691361
Si Si7 0.682052 0.272441 0.767644
O O1 0.456677 0.337699 0.070152
O O2 0.525385 0.684562 0.139979
O O3 0.840954 0.275812 0.376641
O O4 0.849557 0.525641 0.627976
O O5 0.935753 0.289441 0.576393
O O6 0.851328 0.024201 0.625727
O O7 0.524868 0.506961 0.665362
O O8 0.616627 0.265049 0.738360
O O9 0.524883 0.009603 0.707040
O O10 0.735424 0.277458 0.315361
O O11 0.796020 0.526397 0.147291
O O12 0.797102 0.021430 0.149103
O O13 0.701996 0.275413 0.595465
#
# Coordination Sequence:
#
# PCOD9120469 Si02
#       7
#     2   4   4   4   4   4   4
#     4   8  22  36  58  66 106 128 174 224 254 294
#     4  10  18  31  51  75 104 138 175 197 249 301
#     4  10  20  35  52  76 102 131 175 211 256 301
#     4  10  19  33  50  76 112 138 170 201 241 302
#     4  10  19  33  50  76 112 138 170 201 241 302
#     4  10  20  35  52  76 102 131 175 211 256 301
#     4  10  18  31  51  75 104 138 175 197 249 301
#
# _framework density 22.495985999999998
#
# number of rings (size 3 to 8) (size 9 to 14) (size 15 to 20)
#    0.923    1.231    0.000    6.923    0.000    0.000 
#    0.000   18.462    0.000    0.000    0.000    6.462 
#    0.000    0.000    0.000    0.000    0.000    0.000 
#
# Total GULP energy -72554.220729 kJ/mol
# GULP energy per Si atom -5581.093902 kJ/mol
# Density = 2.244478 g / cm^3
# Si number density = 22.495986 Si / 1000 Ang^3
#
#
#
# Elastic Constant Matrix: (Units=GPa)
#
#
# Indices 1 2 3 4 5 6 
#
# 1 104.6569 79.0550 24.6224 0.0000 -0.6545 0.0000
# 2 79.0550 270.8562 13.3609 0.0000 0.6422 0.0000
# 3 24.6224 13.3609 43.8632 0.0000 2.4049 0.0000
# 4 0.0000 0.0000 0.0000 2.6369 0.0000 -11.0399
# 5 -0.6545 0.6422 2.4049 0.0000 16.6783 0.0000
# 6 0.0000 0.0000 0.0000 -11.0399 0.0000 46.0941
#
#
#
# Elastic Compliance Matrix: (Units=1/GPa)
#
#
# Indices 1 2 3 4 5 6 
#
# 1 0.014004 -0.003756 -0.006809 0.000000 0.001676 0.000000
# 2 -0.003756 0.004755 0.000683 0.000000 -0.000429 0.000000
# 3 -0.006809 0.000683 0.026639 0.000000 -0.004135 0.000000
# 4 0.000000 0.000000 0.000000********** 0.000000-33.302574
# 5 0.001676 -0.000429 -0.004135 0.000000 0.060637 0.000000
# 6 0.000000 0.000000 0.000000-33.302574 0.000000 -7.954511
#
#
# Mechanical properties :
#
#
# Convention : Reuss Voigt Hill
#
# Bulk Modulus (GPa) = 39.00816 72.60587 55.80701
# Shear Modulus (GPa) = -0.03404 33.23774 16.60185
#
# Velocity S-wave (km/s) = -0.12315 3.84799 2.71955
# Velocity P-wave (km/s) = 4.16623 7.21719 5.89259
#
# Compressibility (1/GPa) = 0.02563566
#
# Stress axis : x y z
#
# Youngs Moduli (GPa) = 71.40646 210.28515 37.53885
#
# Poissons Ratio (x) = 0.78974 0.25561
# Poissons Ratio (y) = 0.26817 -0.02564
# Poissons Ratio (z) = 0.48622 -0.14366
#
# Static dielectric constant tensor:
#      x y z
#    x 1.785900 0.000000 -0.019310 
#    y 0.000000 1.917300 0.000000 
#    z -0.019310 0.000000 1.864620 
# 
# From -- ./inp_files/55205.got.cif
#   From: 2010.05.17/outbox.cif.g08.bks.cpg/sg5_28_cif.got.tgz:55205.got - 2010.06.03 18:56:24.
