data_PCOD9120828
_publ_section_title
;
Structure prediction by ZEFSAII (Michael W. Deem and Ramdas Pophale) SiO2 
 PCOD9120828
Probable space group: C 2
;
_chemical_formula_sum "Si O2"
_cell_formula_units_Z 32
_cell_length_a 8.659148
_cell_length_b 14.881784
_cell_length_c 11.983881
_cell_angle_alpha 90.000000
_cell_angle_beta 92.121782
_cell_angle_gamma 90.000000
_cell_volume 1543.226914
_symmetry_space_group_name_H-M "C 2"
_symmetry_group_IT_number 5
_symmetry_cell_setting 'monoclinic'
loop_
_space_group_symop_operation_xyz
x,y,z
-x,y,-z
1/2+x,1/2+y,z
1/2-x,1/2+y,-z
loop_
_atom_site_type_symbol
_atom_site_label
_atom_site_fract_x
_atom_site_fract_y
_atom_site_fract_z
Si Si1 0.457739 0.978270 0.127810
Si Si2 0.385149 0.246360 0.400481
Si Si3 0.853859 0.056509 0.301203
Si Si4 0.816832 0.548906 0.471722
Si Si5 0.901551 0.668189 0.792448
Si Si6 0.835903 0.978563 0.744591
Si Si7 0.208767 0.369927 0.234735
Si Si8 0.989485 0.835398 0.117741
O O1 0.278693 0.988089 0.154433
O O2 0.533950 0.894777 0.198765
O O3 0.526646 0.073827 0.168723
O O4 0.500000 0.965034 0.000000
O O5 0.500000 0.283165 0.500000
O O6 0.306913 0.154605 0.441035
O O7 0.496311 0.208847 0.305265
O O8 0.260440 0.316245 0.347230
O O9 0.796700 0.039072 0.426016
O O10 0.768354 0.144933 0.255386
O O11 0.783062 0.969402 0.238334
O O12 0.033837 0.053273 0.277804
O O13 0.766623 0.484449 0.369519
O O14 0.000000 0.533134 0.500000
O O15 0.916781 0.742747 0.887279
O O16 0.930187 0.889163 0.778423
O O17 0.309707 0.320690 0.142378
O O18 0.000000 0.884752 0.000000
#
# Coordination Sequence:
#
# PCOD9120828 Si02
#       8
#     4   4   4   4   4   4   4   4
#     4  11  21  39  64  88 121 167 215 258 309 363
#     4  10  18  35  65  90 121 163 207 253 317 375
#     4  10  20  37  60  89 128 159 203 255 313 380
#     4  11  19  38  64  89 124 167 204 257 311 382
#     4  10  19  38  61  90 119 165 211 250 305 386
#     4  11  23  38  61  92 124 166 205 265 315 371
#     4   9  21  36  59  89 120 160 211 252 299 379
#     4  10  21  39  61  89 126 164 210 261 312 366
#
# _framework density 20.735769000000001
#
# number of rings (size 3 to 8) (size 9 to 14) (size 15 to 20)
#    0.000    1.750    3.750    2.250    0.000    3.000 
#    2.250    0.000    0.000    0.000    0.000    0.000 
#    0.000    0.000    0.000    0.000    0.000    0.000 
#
# Total GULP energy -89100.039213 kJ/mol
# GULP energy per Si atom -5568.752451 kJ/mol
# Density = 2.068857 g / cm^3
# Si number density = 20.735769 Si / 1000 Ang^3
#
#
#
# Elastic Constant Matrix: (Units=GPa)
#
#
# Indices 1 2 3 4 5 6 
#
# 1 112.1383 34.3896 37.8810 0.0000 -13.6711 0.0000
# 2 34.3896 68.3075 18.0053 0.0000 15.6218 0.0000
# 3 37.8810 18.0053 81.3011 0.0000 -2.3685 0.0000
# 4 0.0000 0.0000 0.0000 29.8913 0.0000 19.7384
# 5 -13.6711 15.6218 -2.3685 0.0000 30.9884 0.0000
# 6 0.0000 0.0000 0.0000 19.7384 0.0000 66.2896
#
#
#
# Elastic Compliance Matrix: (Units=1/GPa)
#
#
# Indices 1 2 3 4 5 6 
#
# 1 0.014203 -0.008275 -0.004491 0.000000 0.010094 0.000000
# 2 -0.008275 0.022715 -0.001618 0.000000 -0.015225 0.000000
# 3 -0.004491 -0.001618 0.014750 0.000000 -0.000038 0.000000
# 4 0.000000 0.000000 0.000000 0.041642 0.000000 -0.012399
# 5 0.010094 -0.015225 -0.000038 0.000000 0.044396 0.000000
# 6 0.000000 0.000000 0.000000 -0.012399 0.000000 0.018777
#
#
# Mechanical properties :
#
#
# Convention : Reuss Voigt Hill
#
# Bulk Modulus (GPa) = 43.67149 49.14430 46.40790
# Shear Modulus (GPa) = 25.92219 36.86526 31.39373
#
# Velocity S-wave (km/s) = 3.53954 4.22104 3.89522
# Velocity P-wave (km/s) = 6.14907 6.89260 6.53143
#
# Compressibility (1/GPa) = 0.02289823
#
# Stress axis : x y z
#
# Youngs Moduli (GPa) = 70.40707 44.02468 67.79798
#
# Poissons Ratio (x) = 0.36432 0.30448
# Poissons Ratio (y) = 0.58265 0.10971
# Poissons Ratio (z) = 0.31619 0.07124
#
# Static dielectric constant tensor:
#      x y z
#    x 1.687930 0.000000 -0.024310 
#    y 0.000000 1.764960 0.000000 
#    z -0.024310 0.000000 1.820560 
# 
# From -- ./inp_files/36391.got.cif
#   From: 2010.05.17/outbox.cif.g08.bks.cpg/sg5_19_cif.got.tgz:36391.got - 2010.06.03 18:56:24.
