data_PCOD9120504
_publ_section_title
;
Structure prediction by ZEFSAII (Michael W. Deem and Ramdas Pophale) SiO2 
 PCOD9120504
Probable space group: C 2
;
_chemical_formula_sum "Si O2"
_cell_formula_units_Z 30
_cell_length_a 21.581216
_cell_length_b 9.649461
_cell_length_c 9.311273
_cell_angle_alpha 90.000000
_cell_angle_beta 40.668109
_cell_angle_gamma 90.000000
_cell_volume 1263.630119
_symmetry_space_group_name_H-M "C 2"
_symmetry_group_IT_number 5
_symmetry_cell_setting 'monoclinic'
loop_
_space_group_symop_operation_xyz
x,y,z
-x,y,-z
1/2+x,1/2+y,z
1/2-x,1/2+y,-z
loop_
_atom_site_type_symbol
_atom_site_label
_atom_site_fract_x
_atom_site_fract_y
_atom_site_fract_z
Si Si1 0.000000 0.825140 0.500000
Si Si2 0.353641 0.247401 0.535425
Si Si3 0.068594 0.059540 0.206906
Si Si4 0.245786 0.482857 0.231176
Si Si5 0.412930 0.492711 0.260575
Si Si6 0.475540 0.861195 0.693127
Si Si7 0.826921 0.208855 0.562770
Si Si8 0.278314 0.965468 0.073233
O O1 0.050224 0.744316 0.538401
O O2 0.077264 0.932346 0.299865
O O3 0.370983 0.342434 0.366100
O O4 0.274421 0.330361 0.768352
O O5 0.322626 0.090946 0.572384
O O6 0.074286 0.212569 0.259100
O O7 0.965693 0.032885 0.319605
O O8 0.148676 0.043534 0.948741
O O9 0.246392 0.334567 0.302395
O O10 0.222275 0.473308 0.100652
O O11 0.339611 0.620045 0.394422
O O12 0.500000 0.493670 0.000000
O O13 0.500000 0.932071 0.500000
O O14 0.574703 0.802949 0.585914
O O15 0.391071 0.947794 0.916634
O O16 0.778785 0.097543 0.759869
#
# Coordination Sequence:
#
# PCOD9120504 Si02
#       8
#     2   4   4   4   4   4   4   4
#     4  10  18  32  50  88 120 158 194 230 294 370
#     4  10  21  33  57  85 115 155 195 238 294 364
#     4  10  19  31  60  80 116 151 193 243 302 354
#     4  12  20  34  51  90 123 149 184 244 300 352
#     4   9  21  44  62  76 104 156 208 251 302 363
#     4  11  18  33  53  85 119 170 193 224 297 363
#     4  10  23  36  56  85 119 153 205 241 295 364
#     4  11  20  33  55  85 126 164 186 233 289 375
#
# _framework density 23.741123999999999
#
# number of rings (size 3 to 8) (size 9 to 14) (size 15 to 20)
#    0.000    1.600    4.667    2.400    0.000    1.067 
#    2.400    2.000    0.000    0.000    0.000    0.000 
#    0.000    0.000    0.000    0.000    0.000    0.000 
#
# Total GULP energy -83577.225014 kJ/mol
# GULP energy per Si atom -5571.815001 kJ/mol
# Density = 2.368709 g / cm^3
# Si number density = 23.741124 Si / 1000 Ang^3
#
#
#
# Elastic Constant Matrix: (Units=GPa)
#
#
# Indices 1 2 3 4 5 6 
#
# 1 55.6026 9.0720 15.6536 0.0000 -6.1879 0.0000
# 2 9.0720 141.4213 50.6855 0.0000 6.6096 0.0000
# 3 15.6536 50.6855 144.2670 0.0000 2.3823 0.0000
# 4 0.0000 0.0000 0.0000 35.2991 0.0000 -16.4669
# 5 -6.1879 6.6096 2.3823 0.0000 31.6456 0.0000
# 6 0.0000 0.0000 0.0000 -16.4669 0.0000 -5.4266
#
#
#
# Elastic Compliance Matrix: (Units=1/GPa)
#
#
# Indices 1 2 3 4 5 6 
#
# 1 0.019082 -0.000740 -0.001877 0.000000 0.004027 0.000000
# 2 -0.000740 0.008188 -0.002769 0.000000 -0.001646 0.000000
# 3 -0.001877 -0.002769 0.008115 0.000000 -0.000400 0.000000
# 4 0.000000 0.000000 0.000000 0.011728 0.000000 -0.035588
# 5 0.004027 -0.001646 -0.000400 0.000000 0.032761 0.000000
# 6 0.000000 0.000000 0.000000 -0.035588 0.000000 -0.076287
#
#
# Mechanical properties :
#
#
# Convention : Reuss Voigt Hill
#
# Bulk Modulus (GPa) = 40.62909 54.67924 47.65417
# Shear Modulus (GPa) = 221.60302 30.02894 125.81598
#
# Velocity S-wave (km/s) = 9.67182 3.56033 7.28766
# Velocity P-wave (km/s) = 11.91117 6.32319 9.53569
#
# Compressibility (1/GPa) = 0.02461290
#
# Stress axis : x y z
#
# Youngs Moduli (GPa) = 52.40525 122.13060 123.23168
#
# Poissons Ratio (x) = 0.09032 0.23133
# Poissons Ratio (y) = 0.03875 0.34126
# Poissons Ratio (z) = 0.09837 0.33821
#
# Static dielectric constant tensor:
#      x y z
#    x 2.111230 0.000000 -0.078510 
#    y 0.000000 1.932680 0.000000 
#    z -0.078510 0.000000 1.962580 
# 
# From -- ./inp_files/41751.got.cif
#   From: 2010.05.17/outbox.cif.g08.bks.cpg/sg5_21_cif.got.tgz:41751.got - 2010.06.03 18:56:24.
