data_PCOD9120130
_publ_section_title
;
Structure prediction by ZEFSAII (Michael W. Deem and Ramdas Pophale) SiO2 
 PCOD9120130
Probable space group: C 2
;
_chemical_formula_sum "Si O2"
_cell_formula_units_Z 32
_cell_length_a 22.387090
_cell_length_b 5.652860
_cell_length_c 11.880527
_cell_angle_alpha 90.000000
_cell_angle_beta 118.775711
_cell_angle_gamma 90.000000
_cell_volume 1317.828410
_symmetry_space_group_name_H-M "C 2"
_symmetry_group_IT_number 5
_symmetry_cell_setting 'monoclinic'
loop_
_space_group_symop_operation_xyz
x,y,z
-x,y,-z
1/2+x,1/2+y,z
1/2-x,1/2+y,-z
loop_
_atom_site_type_symbol
_atom_site_label
_atom_site_fract_x
_atom_site_fract_y
_atom_site_fract_z
Si Si1 0.815789 0.948400 0.772247
Si Si2 0.519069 0.948400 0.149588
Si Si3 0.687649 0.448399 0.830147
Si Si4 0.336608 0.948399 0.088707
Si Si5 0.310174 0.948401 0.513116
Si Si6 0.471542 0.448400 0.843981
Si Si7 0.685133 0.448401 0.557169
Si Si8 0.350403 0.948400 0.869082
O O1 0.751186 0.948400 0.634336
O O2 0.890155 0.948400 0.783851
O O3 0.814507 0.704222 0.838572
O O4 0.814507 0.192579 0.838572
O O5 0.505810 0.693377 0.190151
O O6 0.601998 0.948400 0.198265
O O7 0.505810 0.203423 0.190151
O O8 0.500000 0.948400 0.000000
O O9 0.655830 0.195058 0.838554
O O10 0.685090 0.448400 0.691634
O O11 0.655830 0.701739 0.838555
O O12 0.760486 0.448399 0.963309
O O13 0.386169 0.948400 0.024517
O O14 0.344582 0.694972 0.519926
O O15 0.264434 0.948401 0.584961
O O16 0.344582 0.201829 0.519926
O O17 0.500000 0.448400 0.000000
#
# Coordination Sequence:
#
# PCOD9120130 Si02
#       8
#     4   4   4   4   4   4   4   4
#     4  10  17  26  42  60  82 109 133 165 199 241
#     4   8  14  24  37  54  78 108 129 150 192 241
#     4  10  19  30  41  55  78 106 136 173 204 233
#     4  10  19  28  41  58  76 105 141 167 200 241
#     4  10  19  30  45  62  77 104 143 173 209 248
#     4   8  14  23  35  54  79 107 127 147 188 239
#     4  10  20  32  44  58  80 106 138 180 211 238
#     4  10  18  27  41  61  84 109 135 167 199 241
#
# _framework density 24.282371999999999
#
# number of rings (size 3 to 8) (size 9 to 14) (size 15 to 20)
#    0.000    2.500    0.000    3.750    0.000    2.000 
#    0.000    0.000    0.000    0.000    0.000    0.000 
#    0.000    0.000    0.000  108.000    0.000    0.000 
#
# Total GULP energy -89218.123662 kJ/mol
# GULP energy per Si atom -5576.132729 kJ/mol
# Density = 2.422710 g / cm^3
# Si number density = 24.282372 Si / 1000 Ang^3
#
#
#
# Elastic Constant Matrix: (Units=GPa)
#
#
# Indices 1 2 3 4 5 6 
#
# 1 22.9930 12.8368 2.3693 0.0000 0.8345 0.0000
# 2 12.8368 346.1286 64.1866 0.0000 -23.5288 0.0000
# 3 2.3693 64.1866 101.1354 0.0000 -27.4558 0.0000
# 4 0.0000 0.0000 0.0000 42.3189 0.0000 -6.1174
# 5 0.8345 -23.5288 -27.4558 0.0000 36.7503 0.0000
# 6 0.0000 0.0000 0.0000 -6.1174 0.0000 20.6579
#
#
#
# Elastic Compliance Matrix: (Units=1/GPa)
#
#
# Indices 1 2 3 4 5 6 
#
# 1 0.044608 -0.001707 -0.000669 0.000000 -0.002606 0.000000
# 2 -0.001707 0.003354 -0.001875 0.000000 0.000785 0.000000
# 3 -0.000669 -0.001875 0.013512 0.000000 0.008909 0.000000
# 4 0.000000 0.000000 0.000000 0.024687 0.000000 0.007311
# 5 -0.002606 0.000785 0.008909 0.000000 0.034428 0.000000
# 6 0.000000 0.000000 0.000000 0.007311 0.000000 0.050572
#
#
# Mechanical properties :
#
#
# Convention : Reuss Voigt Hill
#
# Bulk Modulus (GPa) = 18.87830 69.89362 44.38596
# Shear Modulus (GPa) = 25.33932 46.00304 35.67118
#
# Velocity S-wave (km/s) = 3.23387 4.35731 3.83693
# Velocity P-wave (km/s) = 4.66211 7.35942 6.16021
#
# Compressibility (1/GPa) = 0.05297086
#
# Stress axis : x y z
#
# Youngs Moduli (GPa) = 22.41742 298.19310 74.00681
#
# Poissons Ratio (x) = 0.50916 0.04949
# Poissons Ratio (y) = 0.03828 0.13878
# Poissons Ratio (z) = 0.01499 0.55920
#
# Static dielectric constant tensor:
#      x y z
#    x 2.115050 0.000000 0.041100 
#    y 0.000000 2.057500 0.000000 
#    z 0.041100 0.000000 1.959690 
# 
# From -- ./inp_files/46950.got.cif
#   From: 2010.05.17/outbox.cif.g08.bks.cpg/sg5_24_cif.got.tgz:46950.got - 2010.06.03 18:56:24.
