data_PCOD9120310
_publ_section_title
;
Structure prediction by ZEFSAII (Michael W. Deem and Ramdas Pophale) SiO2 
 PCOD9120310
Probable space group: C 2
;
_chemical_formula_sum "Si O2"
_cell_formula_units_Z 32
_cell_length_a 9.324757
_cell_length_b 19.312406
_cell_length_c 11.295724
_cell_angle_alpha 90.000000
_cell_angle_beta 116.559639
_cell_angle_gamma 90.000000
_cell_volume 1819.505954
_symmetry_space_group_name_H-M "C 2"
_symmetry_group_IT_number 5
_symmetry_cell_setting 'monoclinic'
loop_
_space_group_symop_operation_xyz
x,y,z
-x,y,-z
1/2+x,1/2+y,z
1/2-x,1/2+y,-z
loop_
_atom_site_type_symbol
_atom_site_label
_atom_site_fract_x
_atom_site_fract_y
_atom_site_fract_z
Si Si1 0.733946 0.571770 0.035944
Si Si2 0.827042 0.849728 0.873179
Si Si3 0.313474 0.190839 0.897356
Si Si4 0.448141 0.944034 0.111232
Si Si5 0.607875 0.610809 0.644470
Si Si6 0.211981 0.950352 0.644010
Si Si7 0.924081 0.052060 0.786961
Si Si8 0.896661 0.912422 0.653554
O O1 0.886798 0.523307 0.075598
O O2 0.693475 0.580714 0.157891
O O3 0.736517 0.645076 0.972711
O O4 0.587283 0.531989 0.917050
O O5 0.771675 0.771365 0.877842
O O6 0.696070 0.901818 0.880263
O O7 0.852424 0.858857 0.740507
O O8 0.000000 0.861223 0.000000
O O9 0.255128 0.153873 0.754124
O O10 0.500000 0.186742 0.000000
O O11 0.607263 0.942523 0.248293
O O12 0.500000 0.918668 0.000000
O O13 0.500000 0.641391 0.500000
O O14 0.664755 0.532743 0.628259
O O15 0.482661 0.601969 0.705892
O O16 0.185147 0.915631 0.505711
O O17 0.085734 0.915984 0.689528
O O18 0.853408 0.984878 0.699895
#
# Coordination Sequence:
#
# PCOD9120310 Si02
#       8
#     4   4   4   4   4   4   4   4
#     4  10  18  32  57  83 110 142 195 244 286 334
#     4  11  23  40  58  80 119 163 194 239 301 361
#     4  10  22  38  57  81 113 158 198 239 293 352
#     4  12  22  34  57  91 115 147 197 256 291 340
#     4  10  17  35  59  85 115 151 192 236 300 354
#     4  10  20  34  62  89 115 145 196 250 289 346
#     4   9  16  30  55  83 106 146 186 231 289 345
#     4  10  18  37  57  83 116 154 187 231 298 358
#
# _framework density 17.587192999999999
#
# number of rings (size 3 to 8) (size 9 to 14) (size 15 to 20)
#    0.000    1.750    3.750    4.875    0.000    0.500 
#    6.750    0.000    0.000    0.000    0.000    0.000 
#    0.000    0.000    0.000    0.000    0.000    0.000 
#
# Total GULP energy -89111.313487 kJ/mol
# GULP energy per Si atom -5569.457093 kJ/mol
# Density = 1.754716 g / cm^3
# Si number density = 17.587193 Si / 1000 Ang^3
#
#
#
# Elastic Constant Matrix: (Units=GPa)
#
#
# Indices 1 2 3 4 5 6 
#
# 1 83.0914 36.3094 57.1899 0.0000 -9.4484 0.0000
# 2 36.3094 79.1472 33.3324 0.0000 -6.3025 0.0000
# 3 57.1899 33.3324 110.2838 0.0000 -9.0933 0.0000
# 4 0.0000 0.0000 0.0000 12.8249 0.0000 0.1694
# 5 -9.4484 -6.3025 -9.0933 0.0000 37.0500 0.0000
# 6 0.0000 0.0000 0.0000 0.1694 0.0000 14.6552
#
#
#
# Elastic Compliance Matrix: (Units=1/GPa)
#
#
# Indices 1 2 3 4 5 6 
#
# 1 0.020919 -0.005650 -0.008961 0.000000 0.002174 0.000000
# 2 -0.005650 0.016077 -0.001860 0.000000 0.000837 0.000000
# 3 -0.008961 -0.001860 0.014353 0.000000 0.000921 0.000000
# 4 0.000000 0.000000 0.000000 0.077985 0.000000 -0.000902
# 5 0.002174 0.000837 0.000921 0.000000 0.027913 0.000000
# 6 0.000000 0.000000 0.000000 -0.000902 0.000000 0.068246
#
#
# Mechanical properties :
#
#
# Convention : Reuss Voigt Hill
#
# Bulk Modulus (GPa) = 54.32959 58.46509 56.39734
# Shear Modulus (GPa) = 18.89866 22.61873 20.75870
#
# Velocity S-wave (km/s) = 3.28162 3.59010 3.43932
# Velocity P-wave (km/s) = 6.73181 7.10635 6.92162
#
# Compressibility (1/GPa) = 0.01840617
#
# Stress axis : x y z
#
# Youngs Moduli (GPa) = 47.80445 62.20218 69.67385
#
# Poissons Ratio (x) = 0.35142 0.62434
# Poissons Ratio (y) = 0.27008 0.12961
# Poissons Ratio (z) = 0.42837 0.11571
#
# Static dielectric constant tensor:
#      x y z
#    x 1.621740 0.000000 -0.008810 
#    y 0.000000 1.610220 0.000000 
#    z -0.008810 0.000000 1.645510 
# 
# From -- ./inp_files/37204.got.cif
#   From: 2010.05.17/outbox.cif.g08.bks.cpg/sg5_19_cif.got.tgz:37204.got - 2010.06.03 18:56:24.
