data_PCOD9120719
_publ_section_title
;
Structure prediction by ZEFSAII (Michael W. Deem and Ramdas Pophale) SiO2 
 PCOD9120719
Probable space group: C 2
;
_chemical_formula_sum "Si O2"
_cell_formula_units_Z 26
_cell_length_a 9.754927
_cell_length_b 27.334825
_cell_length_c 5.127411
_cell_angle_alpha 90.000000
_cell_angle_beta 77.009116
_cell_angle_gamma 90.000000
_cell_volume 1332.227309
_symmetry_space_group_name_H-M "C 2"
_symmetry_group_IT_number 5
_symmetry_cell_setting 'monoclinic'
loop_
_space_group_symop_operation_xyz
x,y,z
-x,y,-z
1/2+x,1/2+y,z
1/2-x,1/2+y,-z
loop_
_atom_site_type_symbol
_atom_site_label
_atom_site_fract_x
_atom_site_fract_y
_atom_site_fract_z
Si Si1 0.148005 0.618980 0.571430
Si Si2 0.898445 0.309327 0.294561
Si Si3 0.834364 0.958585 0.087044
Si Si4 0.248583 0.065610 0.987138
Si Si5 0.333716 0.393118 0.591154
Si Si6 0.354193 0.699270 0.402452
Si Si7 0.500000 0.623919 0.000000
O O1 0.150440 0.587499 0.835002
O O2 0.228696 0.670102 0.595033
O O3 0.000000 0.630352 0.500000
O O4 0.221949 0.585670 0.316547
O O5 0.773685 0.348245 0.378397
O O6 0.832762 0.254570 0.322465
O O7 0.000000 0.313016 0.500000
O O8 0.000000 0.315661 0.000000
O O9 0.809803 0.917733 0.880373
O O10 0.752700 0.007523 0.043503
O O11 0.806232 0.933845 0.378788
O O12 0.000000 0.971372 0.000000
O O13 0.094035 0.087379 0.133698
O O14 0.500000 0.379392 0.500000
O O15 0.500000 0.698772 0.500000
O O16 0.387549 0.662545 0.154358
#
# Coordination Sequence:
#
# PCOD9120719 Si02
#       7
#     4   4   4   4   4   4   2
#     4  11  24  38  56  88 129 162 193 243 310 380
#     4  11  23  40  64  90 124 160 208 258 319 364
#     4  10  20  38  62  91 116 155 210 263 299 359
#     4  11  21  37  62  86 123 155 202 249 310 353
#     4  10  22  40  62  89 122 156 209 260 310 365
#     4  10  20  37  61  87 119 152 209 250 294 364
#     4  10  18  34  60  94 112 146 200 254 298 342
#
# _framework density 19.516192
#
# number of rings (size 3 to 8) (size 9 to 14) (size 15 to 20)
#    0.000    1.538    3.077    2.308    0.000    0.615 
#    0.000    7.692    0.000    3.692    0.000    0.000 
#    0.000    0.000    0.000    0.000    0.000    0.000 
#
# Total GULP energy -72435.725798 kJ/mol
# GULP energy per Si atom -5571.978908 kJ/mol
# Density = 1.947177 g / cm^3
# Si number density = 19.516192 Si / 1000 Ang^3
#
#
#
# Elastic Constant Matrix: (Units=GPa)
#
#
# Indices 1 2 3 4 5 6 
#
# 1 91.8477 60.4085 15.6594 0.0000 9.9844 0.0000
# 2 60.4085 117.1110 10.0103 0.0000 -5.9543 0.0000
# 3 15.6594 10.0103 74.0751 0.0000 15.3204 0.0000
# 4 0.0000 0.0000 0.0000 25.4632 0.0000 5.9479
# 5 9.9844 -5.9543 15.3204 0.0000 24.0400 0.0000
# 6 0.0000 0.0000 0.0000 5.9479 0.0000 18.0576
#
#
#
# Elastic Compliance Matrix: (Units=1/GPa)
#
#
# Indices 1 2 3 4 5 6 
#
# 1 0.018707 -0.010109 -0.000534 0.000000 -0.009933 0.000000
# 2 -0.010109 0.014338 -0.001616 0.000000 0.008780 0.000000
# 3 -0.000534 -0.001616 0.015973 0.000000 -0.010358 0.000000
# 4 0.000000 0.000000 0.000000 0.042546 0.000000 -0.014014
# 5 -0.009933 0.008780 -0.010358 0.000000 0.054499 0.000000
# 6 0.000000 0.000000 0.000000 -0.014014 0.000000 0.059994
#
#
# Mechanical properties :
#
#
# Convention : Reuss Voigt Hill
#
# Bulk Modulus (GPa) = 40.81750 50.57672 45.69711
# Shear Modulus (GPa) = 20.94304 26.64252 23.79278
#
# Velocity S-wave (km/s) = 3.27939 3.69880 3.49539
# Velocity P-wave (km/s) = 5.94132 6.64929 6.30525
#
# Compressibility (1/GPa) = 0.02449930
#
# Stress axis : x y z
#
# Youngs Moduli (GPa) = 53.45567 69.74535 62.60371
#
# Poissons Ratio (x) = 0.70505 0.03345
# Poissons Ratio (y) = 0.54038 0.10120
# Poissons Ratio (z) = 0.02856 0.11274
#
# Static dielectric constant tensor:
#      x y z
#    x 1.766400 0.000000 -0.049380 
#    y 0.000000 1.662340 0.000000 
#    z -0.049380 0.000000 1.671690 
# 
# From -- ./inp_files/3598.got.cif
#   From: 2010.05.17/outbox.cif.g08.bks.cpg/sg5_2_cif.got.tgz:3598.got - 2010.06.03 18:56:24.
