data_PCOD9120715
_publ_section_title
;
Structure prediction by ZEFSAII (Michael W. Deem and Ramdas Pophale) SiO2 
 PCOD9120715
Probable space group: C 2
;
_chemical_formula_sum "Si O2"
_cell_formula_units_Z 32
_cell_length_a 29.320032
_cell_length_b 13.355976
_cell_length_c 10.197547
_cell_angle_alpha 90.000000
_cell_angle_beta 26.890609
_cell_angle_gamma 90.000000
_cell_volume 1806.139804
_symmetry_space_group_name_H-M "C 2"
_symmetry_group_IT_number 5
_symmetry_cell_setting 'monoclinic'
loop_
_space_group_symop_operation_xyz
x,y,z
-x,y,-z
1/2+x,1/2+y,z
1/2-x,1/2+y,-z
loop_
_atom_site_type_symbol
_atom_site_label
_atom_site_fract_x
_atom_site_fract_y
_atom_site_fract_z
Si Si1 0.759311 0.191050 0.528512
Si Si2 0.402143 0.883245 0.158782
Si Si3 0.571811 0.378982 0.200375
Si Si4 0.027748 0.762051 0.077340
Si Si5 0.341952 0.157610 0.959605
Si Si6 0.757210 0.034778 0.316202
Si Si7 0.980948 0.467518 0.688977
Si Si8 0.139325 0.610407 0.381672
O O1 0.830289 0.287047 0.345708
O O2 0.748947 0.152323 0.704216
O O3 0.794303 0.107538 0.336365
O O4 0.643517 0.222120 0.786976
O O5 0.339704 0.976654 0.377299
O O6 0.500000 0.869404 0.000000
O O7 0.428093 0.907978 0.941029
O O8 0.500000 0.416488 0.500000
O O9 0.518678 0.355905 0.198173
O O10 0.609166 0.267639 0.147570
O O11 0.662913 0.452975 0.936446
O O12 0.949785 0.679888 0.332548
O O13 0.000000 0.784764 0.000000
O O14 0.320219 0.147928 0.861800
O O15 0.417233 0.067713 0.811003
O O16 0.721464 0.097671 0.282632
O O17 0.000000 0.414944 0.500000
O O18 0.085343 0.505704 0.484356
#
# Coordination Sequence:
#
# PCOD9120715 Si02
#       8
#     4   4   4   4   4   4   4   4
#     4  11  23  38  58  93 126 158 196 254 311 352
#     4  12  23  39  63  91 124 163 205 249 301 372
#     4  11  21  40  61  88 125 164 195 245 316 368
#     4  11  19  34  61  91 118 147 202 263 300 337
#     4  10  18  34  60  89 121 148 196 260 307 339
#     4  12  23  38  64  94 119 159 213 248 300 363
#     4  10  19  33  58  91 120 151 196 259 305 342
#     4  11  19  33  59  95 115 146 205 261 293 346
#
# _framework density 17.717343
#
# number of rings (size 3 to 8) (size 9 to 14) (size 15 to 20)
#    0.000    1.000   10.000    0.375    0.000    0.000 
#    0.000   10.000    0.000    0.000    0.000    0.000 
#    0.000    0.000    0.000    0.000    0.000    0.000 
#
# Total GULP energy -89228.944076 kJ/mol
# GULP energy per Si atom -5576.809005 kJ/mol
# Density = 1.767702 g / cm^3
# Si number density = 17.717343 Si / 1000 Ang^3
#
#
#
# Elastic Constant Matrix: (Units=GPa)
#
#
# Indices 1 2 3 4 5 6 
#
# 1 113.2402 38.0918 62.3054 0.0000 36.4792 0.0000
# 2 38.0918 54.9060 32.3010 0.0000 6.4711 0.0000
# 3 62.3054 32.3010 93.5987 0.0000 34.4683 0.0000
# 4 0.0000 0.0000 0.0000 27.6674 0.0000 1.4121
# 5 36.4792 6.4711 34.4683 0.0000 36.5936 0.0000
# 6 0.0000 0.0000 0.0000 1.4121 0.0000 18.3371
#
#
#
# Elastic Compliance Matrix: (Units=1/GPa)
#
#
# Indices 1 2 3 4 5 6 
#
# 1 0.018178 -0.008404 -0.004707 0.000000 -0.012202 0.000000
# 2 -0.008404 0.027399 -0.007904 0.000000 0.010977 0.000000
# 3 -0.004707 -0.007904 0.021898 0.000000 -0.014536 0.000000
# 4 0.000000 0.000000 0.000000 0.036286 0.000000 -0.002794
# 5 -0.012202 0.010977 -0.014536 0.000000 0.051241 0.000000
# 6 0.000000 0.000000 0.000000 -0.002794 0.000000 0.054749
#
#
# Mechanical properties :
#
#
# Convention : Reuss Voigt Hill
#
# Bulk Modulus (GPa) = 39.29940 58.57124 48.93532
# Shear Modulus (GPa) = 19.21126 25.12273 22.16699
#
# Velocity S-wave (km/s) = 3.29647 3.76968 3.54099
# Velocity P-wave (km/s) = 6.05957 7.21650 6.66319
#
# Compressibility (1/GPa) = 0.02544568
#
# Stress axis : x y z
#
# Youngs Moduli (GPa) = 55.01077 36.49710 45.66675
#
# Poissons Ratio (x) = 0.30673 0.21495
# Poissons Ratio (y) = 0.46232 0.36093
# Poissons Ratio (z) = 0.25894 0.28846
#
# Static dielectric constant tensor:
#      x y z
#    x 1.621320 0.000000 0.025010 
#    y 0.000000 1.600050 0.000000 
#    z 0.025010 0.000000 1.626250 
# 
# From -- ./inp_files/31957.got.cif
#   From: 2010.05.17/outbox.cif.g08.bks.cpg/sg5_16_cif.got.tgz:31957.got - 2010.06.03 18:56:24.
