data_PCOD9120600
_publ_section_title
;
Structure prediction by ZEFSAII (Michael W. Deem and Ramdas Pophale) SiO2 
 PCOD9120600
Probable space group: C 2
;
_chemical_formula_sum "Si O2"
_cell_formula_units_Z 24
_cell_length_a 18.037750
_cell_length_b 16.883014
_cell_length_c 11.745696
_cell_angle_alpha 90.000000
_cell_angle_beta 160.130226
_cell_angle_gamma 90.000000
_cell_volume 1215.741191
_symmetry_space_group_name_H-M "C 2"
_symmetry_group_IT_number 5
_symmetry_cell_setting 'monoclinic'
loop_
_space_group_symop_operation_xyz
x,y,z
-x,y,-z
1/2+x,1/2+y,z
1/2-x,1/2+y,-z
loop_
_atom_site_type_symbol
_atom_site_label
_atom_site_fract_x
_atom_site_fract_y
_atom_site_fract_z
Si Si1 0.451640 0.783750 0.697284
Si Si2 0.077653 0.050825 0.478292
Si Si3 0.312150 0.226147 0.465141
Si Si4 0.743100 0.638382 0.146902
Si Si5 0.772953 0.210867 0.240846
Si Si6 0.206796 0.882842 0.714419
O O1 0.327080 0.745047 0.624031
O O2 0.291151 0.781107 0.358652
O O3 0.647249 0.720496 0.955759
O O4 0.568022 0.866440 0.892829
O O5 0.230450 0.127860 0.695567
O O6 0.000000 0.049081 0.500000
O O7 0.190554 0.966216 0.626460
O O8 0.889962 0.070812 0.114079
O O9 0.227435 0.155821 0.260263
O O10 0.303685 0.307848 0.383085
O O11 0.561185 0.212161 0.858615
O O12 0.000000 0.629676 0.500000
O O13 0.000000 0.214160 0.500000
O O14 0.000000 0.878544 0.500000
#
# Coordination Sequence:
#
# PCOD9120600 Si02
#       6
#     4   4   4   4   4   4
#     4  10  20  34  55  83 111 145 186 227 275 332
#     4   9  19  34  54  82 109 139 188 235 275 325
#     4  11  20  34  56  84 112 143 184 231 276 333
#     4  10  18  33  57  80 106 144 186 228 274 326
#     4  10  19  36  59  84 108 141 185 232 275 331
#     4  10  19  35  55  77 107 148 187 225 273 329
#
# _framework density 19.741043999999999
#
# number of rings (size 3 to 8) (size 9 to 14) (size 15 to 20)
#    0.000    2.000    0.000    8.500    0.000    0.000 
#    0.000   12.500    0.000    8.000    0.000    0.000 
#    0.000    0.000    0.000    0.000    0.000    0.000 
#
# Total GULP energy -66823.861873 kJ/mol
# GULP energy per Si atom -5568.655156 kJ/mol
# Density = 1.969611 g / cm^3
# Si number density = 19.741044 Si / 1000 Ang^3
#
#
#
# Elastic Constant Matrix: (Units=GPa)
#
#
# Indices 1 2 3 4 5 6 
#
# 1 91.3110 21.3666 37.1280 0.0000 -9.7063 0.0000
# 2 21.3666 89.6693 35.3290 0.0000 -11.4391 0.0000
# 3 37.1280 35.3290 113.1403 0.0000 -22.1905 0.0000
# 4 0.0000 0.0000 0.0000 27.7387 0.0000 -12.0100
# 5 -9.7063 -11.4391 -22.1905 0.0000 35.9863 0.0000
# 6 0.0000 0.0000 0.0000 -12.0100 0.0000 10.8370
#
#
#
# Elastic Compliance Matrix: (Units=1/GPa)
#
#
# Indices 1 2 3 4 5 6 
#
# 1 0.012853 -0.001554 -0.003583 0.000000 0.000764 0.000000
# 2 -0.001554 0.013009 -0.003212 0.000000 0.001736 0.000000
# 3 -0.003583 -0.003212 0.012090 0.000000 0.005468 0.000000
# 4 0.000000 0.000000 0.000000 0.069306 0.000000 0.076808
# 5 0.000764 0.001736 0.005468 0.000000 0.031917 0.000000
# 6 0.000000 0.000000 0.000000 0.076808 0.000000 0.177398
#
#
# Mechanical properties :
#
#
# Convention : Reuss Voigt Hill
#
# Bulk Modulus (GPa) = 47.04802 53.52977 50.28889
# Shear Modulus (GPa) = 14.69050 28.26551 21.47801
#
# Velocity S-wave (km/s) = 2.73089 3.78804 3.30204
# Velocity P-wave (km/s) = 5.81618 6.80494 6.32990
#
# Compressibility (1/GPa) = 0.02125488
#
# Stress axis : x y z
#
# Youngs Moduli (GPa) = 77.80176 76.86869 82.71491
#
# Poissons Ratio (x) = 0.11942 0.29637
# Poissons Ratio (y) = 0.12087 0.26568
# Poissons Ratio (z) = 0.27876 0.24690
#
# Static dielectric constant tensor:
#      x y z
#    x 1.797110 0.000000 -0.031250 
#    y 0.000000 1.702670 0.000000 
#    z -0.031250 0.000000 1.742030 
# 
# From -- ./inp_files/15730.got.cif
#   From: 2010.05.17/outbox.cif.g08.bks.cpg/sg5_8_cif.got.tgz:15730.got - 2010.06.03 18:56:24.
