data_PCOD9120634
_publ_section_title
;
Structure prediction by ZEFSAII (Michael W. Deem and Ramdas Pophale) SiO2 
 PCOD9120634
Probable space group: C 2
;
_chemical_formula_sum "Si O2"
_cell_formula_units_Z 24
_cell_length_a 5.178145
_cell_length_b 14.313612
_cell_length_c 16.120351
_cell_angle_alpha 90.000000
_cell_angle_beta 72.543994
_cell_angle_gamma 90.000000
_cell_volume 1139.783708
_symmetry_space_group_name_H-M "C 2"
_symmetry_group_IT_number 5
_symmetry_cell_setting 'monoclinic'
loop_
_space_group_symop_operation_xyz
x,y,z
-x,y,-z
1/2+x,1/2+y,z
1/2-x,1/2+y,-z
loop_
_atom_site_type_symbol
_atom_site_label
_atom_site_fract_x
_atom_site_fract_y
_atom_site_fract_z
Si Si1 0.621219 0.381430 0.079400
Si Si2 0.686894 0.686714 0.873253
Si Si3 0.156833 0.327530 0.399929
Si Si4 0.797389 0.571983 0.125680
Si Si5 0.265755 0.275721 0.690282
Si Si6 0.519202 0.445264 0.742064
O O1 0.765306 0.284021 0.084499
O O2 0.803065 0.472233 0.080055
O O3 0.404443 0.398144 0.175866
O O4 0.500000 0.383020 0.000000
O O5 0.386993 0.644183 0.908237
O O6 0.741137 0.709009 0.771151
O O7 0.914425 0.613890 0.880849
O O8 0.439937 0.272324 0.381396
O O9 0.246083 0.425133 0.346408
O O10 0.000000 0.341608 0.500000
O O11 0.971121 0.272579 0.352708
O O12 0.612061 0.544070 0.223745
O O13 0.279598 0.379509 0.729899
#
# Coordination Sequence:
#
# PCOD9120634 Si02
#       6
#     4   4   4   4   4   4
#     4   9  21  42  62  92 129 161 208 260 298 365
#     4  11  22  39  64  90 122 166 206 248 310 363
#     4  10  18  33  63  93 115 161 207 245 311 372
#     4  10  23  37  63  90 121 164 205 254 303 366
#     4   9  19  34  58  88 121 152 206 242 308 357
#     4   7  20  34  59  85 119 158 201 244 305 352
#
# _framework density 21.056628
#
# number of rings (size 3 to 8) (size 9 to 14) (size 15 to 20)
#    2.000    0.667    0.000    1.500    2.333    2.667 
#    0.000    1.667    0.000    4.000    0.000    0.000 
#    0.000    0.000    0.000    0.000    0.000    0.000 
#
# Total GULP energy -66827.787639 kJ/mol
# GULP energy per Si atom -5568.982303 kJ/mol
# Density = 2.100870 g / cm^3
# Si number density = 21.056628 Si / 1000 Ang^3
#
#
#
# Elastic Constant Matrix: (Units=GPa)
#
#
# Indices 1 2 3 4 5 6 
#
# 1 73.9515 5.1264 18.9962 0.0000 -1.8059 0.0000
# 2 5.1264 71.8574 19.7601 0.0000 1.1690 0.0000
# 3 18.9962 19.7601 113.0603 0.0000 -18.2514 0.0000
# 4 0.0000 0.0000 0.0000 10.1689 0.0000 16.9836
# 5 -1.8059 1.1690 -18.2514 0.0000 31.9857 0.0000
# 6 0.0000 0.0000 0.0000 16.9836 0.0000 -21.7718
#
#
#
# Elastic Compliance Matrix: (Units=1/GPa)
#
#
# Indices 1 2 3 4 5 6 
#
# 1 0.014151 -0.000338 -0.002410 0.000000 -0.000564 0.000000
# 2 -0.000338 0.014768 -0.002880 0.000000 -0.002202 0.000000
# 3 -0.002410 -0.002880 0.010737 0.000000 0.006096 0.000000
# 4 0.000000 0.000000 0.000000 0.042703 0.000000 0.033312
# 5 -0.000564 -0.002202 0.006096 0.000000 0.034791 0.000000
# 6 0.000000 0.000000 0.000000 0.033312 0.000000 -0.019945
#
#
# Mechanical properties :
#
#
# Convention : Reuss Voigt Hill
#
# Bulk Modulus (GPa) = 35.20884 38.51494 36.86189
# Shear Modulus (GPa) = 42.39912 18.40900 30.40406
#
# Velocity S-wave (km/s) = 4.49216 2.96000 3.80402
# Velocity P-wave (km/s) = 6.60782 5.47841 6.06944
#
# Compressibility (1/GPa) = 0.02840196
#
# Stress axis : x y z
#
# Youngs Moduli (GPa) = 70.66647 67.71263 93.13522
#
# Poissons Ratio (x) = 0.02287 0.22442
# Poissons Ratio (y) = 0.02387 0.26822
# Poissons Ratio (z) = 0.17028 0.19500
#
# Static dielectric constant tensor:
#      x y z
#    x 1.769900 0.000000 -0.041860 
#    y 0.000000 1.764020 0.000000 
#    z -0.041860 0.000000 1.817940 
# 
# From -- ./inp_files/48816.got.cif
#   From: 2010.05.17/outbox.cif.g08.bks.cpg/sg5_25_cif.got.tgz:48816.got - 2010.06.03 18:56:24.
