data_PCOD9120532
_publ_section_title
;
Structure prediction by ZEFSAII (Michael W. Deem and Ramdas Pophale) SiO2 
 PCOD9120532
Probable space group: C 2
;
_chemical_formula_sum "Si O2"
_cell_formula_units_Z 28
_cell_length_a 5.015001
_cell_length_b 31.682459
_cell_length_c 7.498603
_cell_angle_alpha 90.000000
_cell_angle_beta 70.553474
_cell_angle_gamma 90.000000
_cell_volume 1123.466531
_symmetry_space_group_name_H-M "C 2"
_symmetry_group_IT_number 5
_symmetry_cell_setting 'monoclinic'
loop_
_space_group_symop_operation_xyz
x,y,z
-x,y,-z
1/2+x,1/2+y,z
1/2-x,1/2+y,-z
loop_
_atom_site_type_symbol
_atom_site_label
_atom_site_fract_x
_atom_site_fract_y
_atom_site_fract_z
Si Si1 0.499560 0.810480 0.715832
Si Si2 0.106013 0.404939 0.269591
Si Si3 0.000000 0.694049 0.500000
Si Si4 0.500000 0.690234 0.000000
Si Si5 0.601539 0.453827 0.270003
Si Si6 0.678416 0.537419 0.639876
Si Si7 0.485558 0.256341 0.779796
Si Si8 0.436551 0.630544 0.300784
O O1 0.500000 0.811476 0.500000
O O2 0.456092 0.858508 0.787105
O O3 0.787292 0.790978 0.726969
O O4 0.230935 0.781603 0.826616
O O5 0.431909 0.417108 0.209522
O O6 0.000000 0.405463 0.500000
O O7 0.927682 0.441399 0.210078
O O8 0.152651 0.726493 0.598772
O O9 0.829381 0.661200 0.654473
O O10 0.242378 0.722931 0.094888
O O11 0.624402 0.657506 0.122926
O O12 0.500000 0.453553 0.500000
O O13 0.477511 0.498403 0.229601
O O14 0.500000 0.542538 0.500000
O O15 0.643842 0.583136 0.737753
O O16 0.000000 0.529060 0.500000
O O17 0.500000 0.631418 0.500000
#
# Coordination Sequence:
#
# PCOD9120532 Si02
#       8
#     4   4   2   2   4   4   4   4
#     4  11  20  36  57  87 120 169 215 264 325 390
#     4   9  17  27  47  78 120 154 197 255 314 374
#     4  10  20  36  58  84 116 166 220 262 314 384
#     4  10  26  44  62  98 128 176 224 278 330 394
#     4   9  15  26  45  78 118 155 194 255 311 373
#     4  10  18  32  55  85 120 167 213 258 323 384
#     4  11  23  37  58  85 123 164 217 270 318 383
#     4  10  22  41  64  90 128 176 218 271 327 390
#
# _framework density 24.922864000000001
#
# number of rings (size 3 to 8) (size 9 to 14) (size 15 to 20)
#    0.000    2.000    2.143    3.000    4.000    2.857 
#    2.571    0.000    0.000    0.000    0.000    4.000 
#    0.000    6.857    0.000    0.000    0.000    0.000 
#
# Total GULP energy -78074.318540 kJ/mol
# GULP energy per Si atom -5576.737039 kJ/mol
# Density = 2.486614 g / cm^3
# Si number density = 24.922864 Si / 1000 Ang^3
#
#
#
# Elastic Constant Matrix: (Units=GPa)
#
#
# Indices 1 2 3 4 5 6 
#
# 1 114.2282 39.6180 -4.3802 0.0000 3.9400 0.0000
# 2 39.6180 207.1611 20.2911 0.0000 11.7769 0.0000
# 3 -4.3802 20.2911 63.0821 0.0000 16.5239 0.0000
# 4 0.0000 0.0000 0.0000 22.3702 0.0000 5.5901
# 5 3.9400 11.7769 16.5239 0.0000 19.5826 0.0000
# 6 0.0000 0.0000 0.0000 5.5901 0.0000 35.4217
#
#
#
# Elastic Compliance Matrix: (Units=1/GPa)
#
#
# Indices 1 2 3 4 5 6 
#
# 1 0.009561 -0.001878 0.001895 0.000000 -0.002393 0.000000
# 2 -0.001878 0.005422 -0.001437 0.000000 -0.001670 0.000000
# 3 0.001895 -0.001437 0.020950 0.000000 -0.017195 0.000000
# 4 0.000000 0.000000 0.000000 0.046538 0.000000 -0.007344
# 5 -0.002393 -0.001670 -0.017195 0.000000 0.067061 0.000000
# 6 0.000000 0.000000 0.000000 -0.007344 0.000000 0.029390
#
#
# Mechanical properties :
#
#
# Convention : Reuss Voigt Hill
#
# Bulk Modulus (GPa) = 30.21789 55.05881 42.63835
# Shear Modulus (GPa) = 25.93453 37.40441 31.66947
#
# Velocity S-wave (km/s) = 3.22932 3.87823 3.56855
# Velocity P-wave (km/s) = 5.10447 6.49568 5.84164
#
# Compressibility (1/GPa) = 0.03309298
#
# Stress axis : x y z
#
# Youngs Moduli (GPa) = 104.59199 184.43297 47.73227
#
# Poissons Ratio (x) = 0.34637 -0.09044
# Poissons Ratio (y) = 0.19643 0.06859
# Poissons Ratio (z) = -0.19818 0.26501
#
# Static dielectric constant tensor:
#      x y z
#    x 1.966790 0.000000 -0.110170 
#    y 0.000000 1.969270 0.000000 
#    z -0.110170 0.000000 1.776620 
# 
# From -- ./inp_files/13205.got.cif
#   From: 2010.05.17/outbox.cif.g08.bks.cpg/sg5_7_cif.got.tgz:13205.got - 2010.06.03 18:56:24.
