data_PCOD9120943
_publ_section_title
;
Structure prediction by ZEFSAII (Michael W. Deem and Ramdas Pophale) SiO2 
 PCOD9120943
Probable space group: C 2
;
_chemical_formula_sum "Si O2"
_cell_formula_units_Z 32
_cell_length_a 30.842387
_cell_length_b 11.804811
_cell_length_c 8.630309
_cell_angle_alpha 90.000000
_cell_angle_beta 30.144432
_cell_angle_gamma 90.000000
_cell_volume 1577.953038
_symmetry_space_group_name_H-M "C 2"
_symmetry_group_IT_number 5
_symmetry_cell_setting 'monoclinic'
loop_
_space_group_symop_operation_xyz
x,y,z
-x,y,-z
1/2+x,1/2+y,z
1/2-x,1/2+y,-z
loop_
_atom_site_type_symbol
_atom_site_label
_atom_site_fract_x
_atom_site_fract_y
_atom_site_fract_z
Si Si1 0.225955 0.683460 0.453721
Si Si2 0.557547 0.862324 0.185106
Si Si3 0.322644 0.639042 0.475723
Si Si4 0.526315 0.601312 0.200370
Si Si5 0.762108 0.399471 0.206380
Si Si6 0.360059 0.528068 0.871895
Si Si7 0.418343 0.015867 0.172618
Si Si8 0.287714 0.864676 0.767748
O O1 0.276984 0.682714 0.457842
O O2 0.198872 0.805667 0.474662
O O3 0.144050 0.602779 0.719982
O O4 0.290742 0.626776 0.126371
O O5 0.500000 0.911807 0.500000
O O6 0.532493 0.731164 0.241022
O O7 0.654741 0.881418 0.941859
O O8 0.546720 0.924615 0.057006
O O9 0.274670 0.525038 0.673464
O O10 0.310497 0.740457 0.633819
O O11 0.420508 0.607237 0.123727
O O12 0.427703 0.560491 0.526742
O O13 0.582775 0.525885 0.147243
O O14 0.785755 0.369443 0.958140
O O15 0.303762 0.416535 0.010613
O O16 0.359787 0.948846 0.476542
O O17 0.500000 0.072922 0.000000
#
# Coordination Sequence:
#
# PCOD9120943 Si02
#       8
#     4   4   4   4   4   4   4   4
#     4  10  21  41  67  89 130 175 220 266 336 404
#     4  12  20  38  65  99 127 166 228 280 331 390
#     4  11  23  41  69  99 127 176 231 268 336 406
#     4  10  18  36  67  98 124 168 222 276 330 387
#     4  12  24  41  68  94 133 176 217 280 331 403
#     4   9  19  37  65  93 129 166 210 275 335 386
#     4  11  23  42  64  96 133 174 216 282 333 399
#     4  11  25  41  64  98 136 172 221 274 340 401
#
# _framework density 20.279437000000001
#
# number of rings (size 3 to 8) (size 9 to 14) (size 15 to 20)
#    0.000    1.250    6.250    0.750    7.000    0.000 
#    0.000    1.875    2.750    0.000    0.000    0.000 
#    0.000    0.000    0.000    0.000    0.000    0.000 
#
# Total GULP energy -89355.221457 kJ/mol
# GULP energy per Si atom -5584.701341 kJ/mol
# Density = 2.023328 g / cm^3
# Si number density = 20.279437 Si / 1000 Ang^3
#
#
#
# Elastic Constant Matrix: (Units=GPa)
#
#
# Indices 1 2 3 4 5 6 
#
# 1 58.8880 8.6075 22.7144 0.0000 9.4648 0.0000
# 2 8.6075 73.7068 30.3499 0.0000 8.8851 0.0000
# 3 22.7144 30.3499 109.7674 0.0000 5.0803 0.0000
# 4 0.0000 0.0000 0.0000 19.8406 0.0000 4.2921
# 5 9.4648 8.8851 5.0803 0.0000 37.7042 0.0000
# 6 0.0000 0.0000 0.0000 4.2921 0.0000 16.7131
#
#
#
# Elastic Compliance Matrix: (Units=1/GPa)
#
#
# Indices 1 2 3 4 5 6 
#
# 1 0.019123 -0.000194 -0.003707 0.000000 -0.004255 0.000000
# 2 -0.000194 0.015671 -0.004150 0.000000 -0.003085 0.000000
# 3 -0.003707 -0.004150 0.011005 0.000000 0.000426 0.000000
# 4 0.000000 0.000000 0.000000 0.053367 0.000000 -0.013705
# 5 -0.004255 -0.003085 0.000426 0.000000 0.028260 0.000000
# 6 0.000000 0.000000 0.000000 -0.013705 0.000000 0.063353
#
#
# Mechanical properties :
#
#
# Convention : Reuss Voigt Hill
#
# Bulk Modulus (GPa) = 33.67247 40.63398 37.15322
# Shear Modulus (GPa) = 23.06496 26.89760 24.98128
#
# Velocity S-wave (km/s) = 3.37613 3.64586 3.51358
# Velocity P-wave (km/s) = 5.64251 6.14846 5.90091
#
# Compressibility (1/GPa) = 0.02969785
#
# Stress axis : x y z
#
# Youngs Moduli (GPa) = 52.29186 63.81388 90.86856
#
# Poissons Ratio (x) = 0.01238 0.33682
# Poissons Ratio (y) = 0.01014 0.37709
# Poissons Ratio (z) = 0.19383 0.26482
#
# Static dielectric constant tensor:
#      x y z
#    x 1.733650 0.000000 -0.019770 
#    y 0.000000 1.701890 0.000000 
#    z -0.019770 0.000000 1.753560 
# 
# From -- ./inp_files/32618.got.cif
#   From: 2010.05.17/outbox.cif.g08.bks.cpg/sg5_17_cif.got.tgz:32618.got - 2010.06.03 18:56:24.
