data_PCOD9120069
_publ_section_title
;
Structure prediction by ZEFSAII (Michael W. Deem and Ramdas Pophale) SiO2 
 PCOD9120069
Probable space group: C 2
;
_chemical_formula_sum "Si O2"
_cell_formula_units_Z 26
_cell_length_a 20.493717
_cell_length_b 11.465532
_cell_length_c 13.281083
_cell_angle_alpha 90.000000
_cell_angle_beta 161.527954
_cell_angle_gamma 90.000000
_cell_volume 988.760486
_symmetry_space_group_name_H-M "C 2"
_symmetry_group_IT_number 5
_symmetry_cell_setting 'monoclinic'
loop_
_space_group_symop_operation_xyz
x,y,z
-x,y,-z
1/2+x,1/2+y,z
1/2-x,1/2+y,-z
loop_
_atom_site_type_symbol
_atom_site_label
_atom_site_fract_x
_atom_site_fract_y
_atom_site_fract_z
Si Si1 0.862145 0.741780 0.629026
Si Si2 0.942686 0.892398 0.208637
Si Si3 0.784485 0.122882 0.244109
Si Si4 0.801670 0.376343 0.960481
Si Si5 0.955616 0.151044 0.703426
Si Si6 0.360575 0.965968 0.384227
Si Si7 0.500000 0.427739 0.000000
O O1 0.693730 0.652139 0.420029
O O2 0.845559 0.831334 0.513050
O O3 0.061604 0.669344 0.885055
O O4 0.892400 0.837242 0.763616
O O5 0.882618 0.856430 0.231064
O O6 0.750820 0.867968 0.849649
O O7 0.950413 0.030007 0.197065
O O8 0.815385 0.174894 0.400156
O O9 0.000000 0.141841 0.500000
O O10 0.749291 0.982657 0.187884
O O11 0.883142 0.253319 0.041673
O O12 0.975980 0.423792 0.293993
O O13 0.500000 0.030398 0.500000
O O14 0.166998 0.998645 0.175880
#
# Coordination Sequence:
#
# PCOD9120069 Si02
#       7
#     4   4   4   4   4   4   2
#     4  11  22  39  66 100 136 185 239 298 358 438
#     4  10  23  40  67 100 139 185 237 301 366 442
#     4  12  24  43  71 103 138 188 244 301 359 442
#     4  11  23  43  71 101 135 185 240 305 355 437
#     4  12  23  43  67 105 144 185 236 293 377 431
#     4   9  19  37  61  93 126 170 227 284 350 419
#     4  10  16  34  60  96 120 172 222 286 346 418
#
# _framework density 26.295551
#
# number of rings (size 3 to 8) (size 9 to 14) (size 15 to 20)
#    0.000    1.231    4.615    1.846    2.154    3.077 
#    0.000    3.846    0.000    1.846    0.000    0.000 
#    0.000    0.000    0.000    0.000    0.000    0.000 
#
# Total GULP energy -72449.772552 kJ/mol
# GULP energy per Si atom -5573.059427 kJ/mol
# Density = 2.623570 g / cm^3
# Si number density = 26.295551 Si / 1000 Ang^3
#
#
#
# Elastic Constant Matrix: (Units=GPa)
#
#
# Indices 1 2 3 4 5 6 
#
# 1 140.3653 39.7303 48.0084 0.0000 37.1170 0.0000
# 2 39.7303 84.2218 36.7758 0.0000 26.2165 0.0000
# 3 48.0084 36.7758 78.1371 0.0000 31.3630 0.0000
# 4 0.0000 0.0000 0.0000 37.9856 0.0000 6.1313
# 5 37.1170 26.2165 31.3630 0.0000 53.0004 0.0000
# 6 0.0000 0.0000 0.0000 6.1313 0.0000 36.2022
#
#
#
# Elastic Compliance Matrix: (Units=1/GPa)
#
#
# Indices 1 2 3 4 5 6 
#
# 1 0.009931 -0.001884 -0.003669 0.000000 -0.003852 0.000000
# 2 -0.001884 0.016064 -0.004910 0.000000 -0.003722 0.000000
# 3 -0.003669 -0.004910 0.020141 0.000000 -0.006920 0.000000
# 4 0.000000 0.000000 0.000000 0.027066 0.000000 -0.004584
# 5 -0.003852 -0.003722 -0.006920 0.000000 0.027501 0.000000
# 6 0.000000 0.000000 0.000000 -0.004584 0.000000 0.028399
#
#
# Mechanical properties :
#
#
# Convention : Reuss Voigt Hill
#
# Bulk Modulus (GPa) = 39.66458 61.30589 50.48523
# Shear Modulus (GPa) = 31.55964 37.31829 34.43896
#
# Velocity S-wave (km/s) = 3.46813 3.77130 3.62289
# Velocity P-wave (km/s) = 5.58159 6.50602 6.06146
#
# Compressibility (1/GPa) = 0.02521141
#
# Stress axis : x y z
#
# Youngs Moduli (GPa) = 100.69600 62.24990 49.65053
#
# Poissons Ratio (x) = 0.11726 0.18217
# Poissons Ratio (y) = 0.18967 0.24376
# Poissons Ratio (z) = 0.36946 0.30562
#
# Static dielectric constant tensor:
#      x y z
#    x 2.101890 0.000000 -0.048180 
#    y 0.000000 2.191820 0.000000 
#    z -0.048180 0.000000 2.333150 
# 
# From -- ./inp_files/29398.got.cif
#   From: 2010.05.17/outbox.cif.g08.bks.cpg/sg5_15_cif.got.tgz:29398.got - 2010.06.03 18:56:24.
