data_PCOD9120842
_publ_section_title
;
Structure prediction by ZEFSAII (Michael W. Deem and Ramdas Pophale) SiO2 
 PCOD9120842
Probable space group: C 2
;
_chemical_formula_sum "Si O2"
_cell_formula_units_Z 28
_cell_length_a 18.672404
_cell_length_b 12.940732
_cell_length_c 22.100694
_cell_angle_alpha 90.000000
_cell_angle_beta 163.645353
_cell_angle_gamma 90.000000
_cell_volume 1503.730131
_symmetry_space_group_name_H-M "C 2"
_symmetry_group_IT_number 5
_symmetry_cell_setting 'monoclinic'
loop_
_space_group_symop_operation_xyz
x,y,z
-x,y,-z
1/2+x,1/2+y,z
1/2-x,1/2+y,-z
loop_
_atom_site_type_symbol
_atom_site_label
_atom_site_fract_x
_atom_site_fract_y
_atom_site_fract_z
Si Si1 0.500000 0.307570 0.500000
Si Si2 0.494729 0.126820 0.588318
Si Si3 0.513744 0.883773 0.864572
Si Si4 0.668635 0.102823 0.946128
Si Si5 0.094433 0.236449 0.338388
Si Si6 0.066613 0.981913 0.189701
Si Si7 0.500000 0.499568 0.000000
Si Si8 0.947268 0.808887 0.718547
O O1 0.543738 0.231275 0.591596
O O2 0.766439 0.365857 0.705296
O O3 0.329746 0.162023 0.511820
O O4 0.753952 0.069912 0.811568
O O5 0.314835 0.051799 0.402710
O O6 0.462939 0.813555 0.763789
O O7 0.799967 0.845093 0.114370
O O8 0.534168 0.003771 0.865029
O O9 0.854857 0.159735 0.145388
O O10 0.492871 0.193513 0.779258
O O11 0.840926 0.056877 0.030989
O O12 0.189709 0.305217 0.471027
O O13 0.069744 0.887021 0.238970
O O14 0.042575 0.947502 0.100368
#
# Coordination Sequence:
#
# PCOD9120842 Si02
#       8
#     2   4   4   4   4   4   2   4
#     4  10  18  36  54  82 126 148 186 242 284 348
#     4  10  20  32  52  83 117 146 188 233 289 347
#     4   9  20  34  55  86 116 150 190 240 289 342
#     4   9  19  36  54  83 114 150 195 243 287 339
#     4   9  19  33  55  83 113 151 190 237 292 342
#     4  10  21  35  53  88 118 146 192 242 283 346
#     4  12  20  32  58  80 118 156 180 232 298 338
#     4  10  20  35  58  82 114 154 196 238 287 342
#
# _framework density 18.620360999999999
#
# number of rings (size 3 to 8) (size 9 to 14) (size 15 to 20)
#    0.000    2.286    1.429    1.714    2.000    6.857 
#    0.000    0.000    3.143    0.000    7.429    0.000 
#    0.000    0.000    0.000    0.000    0.000    0.000 
#
# Total GULP energy -78006.107096 kJ/mol
# GULP energy per Si atom -5571.864793 kJ/mol
# Density = 1.857798 g / cm^3
# Si number density = 18.620361 Si / 1000 Ang^3
#
#
#
# Elastic Constant Matrix: (Units=GPa)
#
#
# Indices 1 2 3 4 5 6 
#
# 1 63.4383 27.0773 35.7868 0.0265 -2.5584 -0.0080
# 2 27.0773 91.8197 20.2501 0.0428 12.9047 0.0090
# 3 35.7868 20.2501 63.7906 -0.0097 3.1029 0.0041
# 4 0.0265 0.0428 -0.0097 24.8485 0.0026 8.0811
# 5 -2.5584 12.9047 3.1029 0.0026 29.0867 -0.0102
# 6 -0.0080 0.0090 0.0041 8.0811 -0.0102 18.0084
#
#
#
# Elastic Compliance Matrix: (Units=1/GPa)
#
#
# Indices 1 2 3 4 5 6 
#
# 1 0.025692 -0.005583 -0.012939 -0.000035 0.006117 0.000036
# 2 -0.005583 0.013638 -0.000884 -0.000015 -0.006448 -0.000006
# 3 -0.012939 -0.000884 0.023373 0.000034 -0.003239 -0.000028
# 4 -0.000035 -0.000015 0.000034 0.047121 -0.000012 -0.021145
# 5 0.006117 -0.006448 -0.003239 -0.000012 0.038124 0.000034
# 6 0.000036 -0.000006 -0.000028 -0.021145 0.000034 0.065018
#
#
# Mechanical properties :
#
#
# Convention : Reuss Voigt Hill
#
# Bulk Modulus (GPa) = 41.85340 42.80856 42.33098
# Shear Modulus (GPa) = 19.24996 23.45100 21.35048
#
# Velocity S-wave (km/s) = 3.21878 3.55269 3.38985
# Velocity P-wave (km/s) = 6.02828 6.31418 6.17289
#
# Compressibility (1/GPa) = 0.02389292
#
# Stress axis : x y z
#
# Youngs Moduli (GPa) = 38.92290 73.32274 42.78422
#
# Poissons Ratio (x) = 0.40933 0.55357
# Poissons Ratio (y) = 0.21729 0.03782
# Poissons Ratio (z) = 0.50361 0.06481
#
# Static dielectric constant tensor:
#      x y z
#    x 1.689280 0.000000 -0.005610 
#    y 0.000000 1.622320 -0.000030 
#    z -0.005610 -0.000030 1.680490 
# 
# From -- ./inp_files/9704.got.cif
#   From: 2010.05.17/outbox.cif.g08.bks.cpg/sg5_5_cif.got.tgz:9704.got - 2010.06.03 18:56:24.
