data_PCOD9120782
_publ_section_title
;
Structure prediction by ZEFSAII (Michael W. Deem and Ramdas Pophale) SiO2 
 PCOD9120782
Probable space group: C 2
;
_chemical_formula_sum "Si O2"
_cell_formula_units_Z 26
_cell_length_a 16.733858
_cell_length_b 8.629079
_cell_length_c 27.397623
_cell_angle_alpha 90.000000
_cell_angle_beta 18.091771
_cell_angle_gamma 90.000000
_cell_volume 1228.544333
_symmetry_space_group_name_H-M "C 2"
_symmetry_group_IT_number 5
_symmetry_cell_setting 'monoclinic'
loop_
_space_group_symop_operation_xyz
x,y,z
-x,y,-z
1/2+x,1/2+y,z
1/2-x,1/2+y,-z
loop_
_atom_site_type_symbol
_atom_site_label
_atom_site_fract_x
_atom_site_fract_y
_atom_site_fract_z
Si Si1 0.296515 0.572270 0.484238
Si Si2 0.000000 0.424300 0.500000
Si Si3 0.485207 0.046013 0.954990
Si Si4 0.261643 0.677640 0.705501
Si Si5 0.219052 0.352609 0.685852
Si Si6 0.551951 0.608068 0.713333
Si Si7 0.126776 0.779399 0.298272
O O1 0.451090 0.648772 0.439197
O O2 0.436148 0.616299 0.351946
O O3 0.373613 0.392362 0.446848
O O4 0.000422 0.626734 0.651457
O O5 0.193777 0.322024 0.354880
O O6 0.179208 0.528683 0.429490
O O7 0.659903 0.890047 0.851145
O O8 0.580626 0.164193 0.858087
O O9 0.500000 0.119289 0.000000
O O10 0.183226 0.009348 0.128211
O O11 0.162397 0.529307 0.732606
O O12 0.500000 0.357945 0.500000
O O13 0.043566 0.268475 0.748172
O O14 0.253265 0.260896 0.717346
#
# Coordination Sequence:
#
# PCOD9120782 Si02
#       7
#     4   2   4   4   4   4   4
#     4  10  19  35  60  91 111 162 202 248 285 363
#     4  12  24  36  60 100 120 146 212 260 298 344
#     4  10  21  40  60  90 121 163 198 247 309 357
#     4  10  23  37  59  88 126 154 199 250 306 355
#     4  10  18  35  57  85 116 156 196 240 298 355
#     4  12  21  38  66  89 120 162 207 249 297 370
#     4  10  20  35  61  91 118 154 208 248 301 351
#
# _framework density 21.163257999999999
#
# number of rings (size 3 to 8) (size 9 to 14) (size 15 to 20)
#    0.000    1.846    6.154    0.923    0.000    2.462 
#    0.000    0.000    0.000    3.692    0.000    0.000 
#    0.000    0.000    0.000    0.000    0.000    0.000 
#
# Total GULP energy -72379.625640 kJ/mol
# GULP energy per Si atom -5567.663511 kJ/mol
# Density = 2.111509 g / cm^3
# Si number density = 21.163258 Si / 1000 Ang^3
#
#
#
# Elastic Constant Matrix: (Units=GPa)
#
#
# Indices 1 2 3 4 5 6 
#
# 1 71.0482 16.5691 -10.7010 0.0048 15.4857 0.0034
# 2 16.5691 37.5698 9.7350 0.0097 3.7202 -0.0004
# 3 -10.7010 9.7350 82.0269 -0.0240 10.8054 -0.0200
# 4 0.0048 0.0097 -0.0240 19.8351 -0.0098 -6.2574
# 5 15.4857 3.7202 10.8054 -0.0098 32.9137 0.0008
# 6 0.0034 -0.0004 -0.0200 -6.2574 0.0008 22.5471
#
#
#
# Elastic Compliance Matrix: (Units=1/GPa)
#
#
# Indices 1 2 3 4 5 6 
#
# 1 0.018852 -0.008603 0.004725 0.000001 -0.009449 0.000002
# 2 -0.008603 0.031531 -0.005151 -0.000021 0.002175 -0.000009
# 3 0.004725 -0.005151 0.014251 0.000021 -0.006320 0.000018
# 4 0.000001 -0.000021 0.000021 0.055253 0.000011 0.015334
# 5 -0.009449 0.002175 -0.006320 0.000011 0.036657 -0.000002
# 6 0.000002 -0.000009 0.000018 0.015334 -0.000002 0.048607
#
#
# Mechanical properties :
#
#
# Convention : Reuss Voigt Hill
#
# Bulk Modulus (GPa) = 21.46996 24.65013 23.06004
# Shear Modulus (GPa) = 20.94374 26.72864 23.83619
#
# Velocity S-wave (km/s) = 3.14925 3.55769 3.35968
# Velocity P-wave (km/s) = 4.83639 5.34314 5.09606
#
# Compressibility (1/GPa) = 0.04657671
#
# Stress axis : x y z
#
# Youngs Moduli (GPa) = 53.04368 31.71529 70.16877
#
# Poissons Ratio (x) = 0.27285 -0.33156
# Poissons Ratio (y) = 0.45634 0.36143
# Poissons Ratio (z) = -0.25064 0.16336
#
# Static dielectric constant tensor:
#      x y z
#    x 1.846220 -0.000010 -0.029680 
#    y -0.000010 1.814080 0.000030 
#    z -0.029680 0.000030 1.796220 
# 
# From -- ./inp_files/72081.got.cif
#   From: 2010.05.17/outbox.cif.g08.bks.cpg/sg5_37_cif.got.tgz:72081.got - 2010.06.03 18:56:24.
