data_PCOD9120227
_publ_section_title
;
Structure prediction by ZEFSAII (Michael W. Deem and Ramdas Pophale) SiO2 
 PCOD9120227
Probable space group: C 2
;
_chemical_formula_sum "Si O2"
_cell_formula_units_Z 28
_cell_length_a 25.948911
_cell_length_b 7.226626
_cell_length_c 23.115932
_cell_angle_alpha 90.000000
_cell_angle_beta 15.156570
_cell_angle_gamma 90.000000
_cell_volume 1133.358835
_symmetry_space_group_name_H-M "C 2"
_symmetry_group_IT_number 5
_symmetry_cell_setting 'monoclinic'
loop_
_space_group_symop_operation_xyz
x,y,z
-x,y,-z
1/2+x,1/2+y,z
1/2-x,1/2+y,-z
loop_
_atom_site_type_symbol
_atom_site_label
_atom_site_fract_x
_atom_site_fract_y
_atom_site_fract_z
Si Si1 0.730441 0.394470 0.125128
Si Si2 0.807573 0.820314 0.460573
Si Si3 0.733595 0.419192 0.247770
Si Si4 0.476556 0.946000 0.750271
Si Si5 0.333010 0.463565 0.003608
Si Si6 0.256216 0.367579 0.637996
Si Si7 0.547426 0.543444 0.008681
O O1 0.799686 0.480390 0.111511
O O2 0.494427 0.372888 0.382194
O O3 0.812004 0.484905 0.978134
O O4 0.809279 0.184918 0.034130
O O5 0.630552 0.798392 0.607330
O O6 0.988447 0.909152 0.230861
O O7 0.719505 0.928417 0.611564
O O8 0.893527 0.630808 0.392956
O O9 0.500000 0.449710 0.500000
O O10 0.803694 0.470629 0.237038
O O11 0.786770 0.199200 0.185812
O O12 0.367274 0.896508 0.809719
O O13 0.382127 0.413782 0.016160
O O14 0.140370 0.170813 0.769290
O O15 0.500000 0.444990 0.000000
#
# Coordination Sequence:
#
# PCOD9120227 Si02
#       7
#     4   4   4   4   4   4   4
#     4  10  19  36  57  87 117 154 193 243 298 350
#     4  12  24  36  60  86 122 161 201 245 290 359
#     4   8  16  29  53  81 116 147 186 245 294 334
#     4  12  23  39  56  87 125 162 199 241 297 353
#     4  11  21  38  60  84 123 155 193 249 297 358
#     4  10  17  32  54  87 117 147 192 247 295 340
#     4   9  18  32  56  88 120 148 193 246 299 354
#
# _framework density 24.705325999999999
#
# number of rings (size 3 to 8) (size 9 to 14) (size 15 to 20)
#    0.000    1.714    2.857    3.429    0.000    0.000 
#    0.000    0.000    0.000    1.714    0.000   30.000 
#    0.000    0.000    0.000    0.000    0.000    0.000 
#
# Total GULP energy -78095.873229 kJ/mol
# GULP energy per Si atom -5578.276659 kJ/mol
# Density = 2.464910 g / cm^3
# Si number density = 24.705326 Si / 1000 Ang^3
#
#
#
# Elastic Constant Matrix: (Units=GPa)
#
#
# Indices 1 2 3 4 5 6 
#
# 1 235.7770 3.4039 27.9163 0.0017 -9.1641 0.0003
# 2 3.4039 36.5711 -1.0624 -0.0365 -7.6002 0.0129
# 3 27.9163 -1.0624 82.3708 -0.0026 -15.7835 0.0035
# 4 0.0017 -0.0365 -0.0026 21.8119 0.0090 1.3921
# 5 -9.1641 -7.6002 -15.7835 0.0090 36.3508 0.0001
# 6 0.0003 0.0129 0.0035 1.3921 0.0001 9.4685
#
#
#
# Elastic Compliance Matrix: (Units=1/GPa)
#
#
# Indices 1 2 3 4 5 6 
#
# 1 0.004432 -0.000366 -0.001426 -0.000001 0.000422 0.000001
# 2 -0.000366 0.028824 0.001781 0.000049 0.006707 -0.000047
# 3 -0.001426 0.001781 0.013797 0.000003 0.006003 -0.000008
# 4 -0.000001 0.000049 0.000003 0.046281 0.000000 -0.006805
# 5 0.000422 0.006707 0.006003 0.000000 0.031625 -0.000012
# 6 0.000001 -0.000047 -0.000008 -0.006805 -0.000012 0.106614
#
#
# Mechanical properties :
#
#
# Convention : Reuss Voigt Hill
#
# Bulk Modulus (GPa) = 21.26290 46.13717 33.70003
# Shear Modulus (GPa) = 20.22069 35.15698 27.68884
#
# Velocity S-wave (km/s) = 2.86400 3.77643 3.35141
# Velocity P-wave (km/s) = 4.42289 6.14254 5.35223
#
# Compressibility (1/GPa) = 0.04703028
#
# Stress axis : x y z
#
# Youngs Moduli (GPa) = 225.64197 34.69349 72.48049
#
# Poissons Ratio (x) = 0.01271 0.10335
# Poissons Ratio (y) = 0.08266 -0.12910
# Poissons Ratio (z) = 0.32175 -0.06179
#
# Static dielectric constant tensor:
#      x y z
#    x 2.112540 0.000000 -0.000120 
#    y 0.000000 1.985770 0.000000 
#    z -0.000120 0.000000 1.957520 
# 
# From -- ./inp_files/62969.got.cif
#   From: 2010.05.17/outbox.cif.g08.bks.cpg/sg5_32_cif.got.tgz:62969.got - 2010.06.03 18:56:24.
