data_PCOD9120128
_publ_section_title
;
Structure prediction by ZEFSAII (Michael W. Deem and Ramdas Pophale) SiO2 
 PCOD9120128
Probable space group: C 2
;
_chemical_formula_sum "Si O2"
_cell_formula_units_Z 32
_cell_length_a 5.184879
_cell_length_b 31.425526
_cell_length_c 12.049250
_cell_angle_alpha 90.000000
_cell_angle_beta 92.445811
_cell_angle_gamma 90.000000
_cell_volume 1961.486785
_symmetry_space_group_name_H-M "C 2"
_symmetry_group_IT_number 5
_symmetry_cell_setting 'monoclinic'
loop_
_space_group_symop_operation_xyz
x,y,z
-x,y,-z
1/2+x,1/2+y,z
1/2-x,1/2+y,-z
loop_
_atom_site_type_symbol
_atom_site_label
_atom_site_fract_x
_atom_site_fract_y
_atom_site_fract_z
Si Si1 0.989564 0.196930 0.755797
Si Si2 0.024705 0.454438 0.133650
Si Si3 0.088061 0.278482 0.881364
Si Si4 0.576645 0.309179 0.773157
Si Si5 0.515225 0.605165 0.134549
Si Si6 0.524550 0.231014 0.369551
Si Si7 0.524733 0.400145 0.134830
Si Si8 0.515157 0.050785 0.134425
O O1 0.003953 0.149241 0.800229
O O2 0.212644 0.210702 0.673390
O O3 0.035042 0.228915 0.859681
O O4 0.713782 0.208164 0.697174
O O5 0.798410 0.422179 0.162470
O O6 0.998175 0.502464 0.177194
O O7 0.301938 0.433861 0.159017
O O8 0.000000 0.457598 0.000000
O O9 0.881701 0.301697 0.797065
O O10 0.385675 0.287894 0.861683
O O11 0.000000 0.292667 0.000000
O O12 0.494495 0.281090 0.665277
O O13 0.516254 0.358459 0.791345
O O14 0.780208 0.580751 0.164909
O O15 0.283002 0.573947 0.163591
O O16 0.500000 0.612379 0.000000
O O17 0.500000 0.226034 0.500000
O O18 0.500000 0.390324 0.000000
O O19 0.500000 0.048214 0.000000
#
# Coordination Sequence:
#
# PCOD9120128 Si02
#       8
#     4   4   4   4   4   4   4   4
#     4  10  20  32  49  71  90 119 156 189 230 276
#     4   9  17  27  40  60  90 129 160 181 213 257
#     4  10  18  29  43  63  95 124 149 180 223 276
#     4  10  20  30  45  67  89 122 159 189 227 273
#     4  10  18  29  46  69  99 127 155 188 219 265
#     4  10  21  37  52  66  91 120 152 199 241 274
#     4  10  17  26  41  62  91 121 155 192 219 258
#     4   9  17  28  42  62  93 132 162 184 216 259
#
# _framework density 16.314156000000001
#
# number of rings (size 3 to 8) (size 9 to 14) (size 15 to 20)
#    0.000    2.250    0.000    4.125    0.000    4.000 
#    0.000    3.750    0.000    0.000    0.000    0.000 
#    0.000   20.000    0.000    0.000    0.000    0.000 
#
# Total GULP energy -89139.408421 kJ/mol
# GULP energy per Si atom -5571.213026 kJ/mol
# Density = 1.627702 g / cm^3
# Si number density = 16.314156 Si / 1000 Ang^3
#
#
#
# Elastic Constant Matrix: (Units=GPa)
#
#
# Indices 1 2 3 4 5 6 
#
# 1 77.2882 11.7408 0.8016 0.0000 -11.7097 0.0000
# 2 11.7408 111.6267 11.5466 0.0000 -6.5591 0.0000
# 3 0.8016 11.5466 26.5290 0.0000 -4.8391 0.0000
# 4 0.0000 0.0000 0.0000 8.6666 0.0000 -2.9346
# 5 -11.7097 -6.5591 -4.8391 0.0000 9.8699 0.0000
# 6 0.0000 0.0000 0.0000 -2.9346 0.0000 11.1694
#
#
#
# Elastic Compliance Matrix: (Units=1/GPa)
#
#
# Indices 1 2 3 4 5 6 
#
# 1 0.016109 -0.000874 0.003595 0.000000 0.020293 0.000000
# 2 -0.000874 0.009626 -0.003499 0.000000 0.003645 0.000000
# 3 0.003595 -0.003499 0.043339 0.000000 0.023189 0.000000
# 4 0.000000 0.000000 0.000000 0.126654 0.000000 0.033276
# 5 0.020293 0.003645 0.023189 0.000000 0.139186 0.000000
# 6 0.000000 0.000000 0.000000 0.033276 0.000000 0.098273
#
#
# Mechanical properties :
#
#
# Convention : Reuss Voigt Hill
#
# Bulk Modulus (GPa) = 14.81053 29.29130 22.05091
# Shear Modulus (GPa) = 10.93500 18.69815 14.81658
#
# Velocity S-wave (km/s) = 2.59178 3.38913 3.01691
# Velocity P-wave (km/s) = 4.24905 5.77134 5.06769
#
# Compressibility (1/GPa) = 0.06751954
#
# Stress axis : x y z
#
# Youngs Moduli (GPa) = 62.07856 103.88082 23.07414
#
# Poissons Ratio (x) = 0.09077 -0.08296
# Poissons Ratio (y) = 0.05424 0.08073
# Poissons Ratio (z) = -0.22319 0.36343
#
# Static dielectric constant tensor:
#      x y z
#    x 1.562950 0.000000 -0.001430 
#    y 0.000000 1.555620 0.000000 
#    z -0.001430 0.000000 1.531520 
# 
# From -- ./inp_files/34362.got.cif
#   From: 2010.05.17/outbox.cif.g08.bks.cpg/sg5_18_cif.got.tgz:34362.got - 2010.06.03 18:56:24.
