data_PCOD9120490
_publ_section_title
;
Structure prediction by ZEFSAII (Michael W. Deem and Ramdas Pophale) SiO2 
 PCOD9120490
Probable space group: C 2
;
_chemical_formula_sum "Si O2"
_cell_formula_units_Z 24
_cell_length_a 8.316149
_cell_length_b 12.791213
_cell_length_c 14.880408
_cell_angle_alpha 90.000000
_cell_angle_beta 43.503081
_cell_angle_gamma 90.000000
_cell_volume 1089.646539
_symmetry_space_group_name_H-M "C 2"
_symmetry_group_IT_number 5
_symmetry_cell_setting 'monoclinic'
loop_
_space_group_symop_operation_xyz
x,y,z
-x,y,-z
1/2+x,1/2+y,z
1/2-x,1/2+y,-z
loop_
_atom_site_type_symbol
_atom_site_label
_atom_site_fract_x
_atom_site_fract_y
_atom_site_fract_z
Si Si1 0.563131 0.133560 0.065633
Si Si2 0.704015 0.909473 0.859333
Si Si3 0.255503 0.886563 0.356760
Si Si4 0.761004 0.180521 0.438060
Si Si5 0.038526 0.055267 0.799304
Si Si6 0.982526 0.608639 0.293331
O O1 0.413517 0.024318 0.116520
O O2 0.515932 0.169330 0.185857
O O3 0.833876 0.107949 0.940554
O O4 0.000000 0.696762 0.000000
O O5 0.934086 0.939326 0.823077
O O6 0.756584 0.855383 0.743448
O O7 0.500000 0.855739 0.000000
O O8 0.361936 0.793273 0.372235
O O9 0.000000 0.905176 0.500000
O O10 0.392789 0.992633 0.309520
O O11 0.500000 0.178003 0.500000
O O12 0.707020 0.159642 0.563269
O O13 0.917196 0.098575 0.320088
O O14 0.274424 0.084300 0.754962
#
# Coordination Sequence:
#
# PCOD9120490 Si02
#       6
#     4   4   4   4   4   4
#     4   8  16  30  52  79 104 137 174 209 261 321
#     4   8  16  31  53  75 101 138 175 208 258 317
#     4  10  19  33  52  75 105 141 177 213 257 316
#     4   9  19  32  49  75 107 138 175 215 258 312
#     4   9  16  31  54  77 104 134 171 218 260 306
#     4  10  18  31  56  81 104 140 177 219 263 300
#
# _framework density 22.025490000000001
#
# number of rings (size 3 to 8) (size 9 to 14) (size 15 to 20)
#    0.000    3.333    0.000    1.500    0.000    0.000 
#    0.000    5.000    0.000   87.000    0.000    0.000 
#    0.000    1.333    0.000    0.000    0.000    0.000 
#
# Total GULP energy -66827.431174 kJ/mol
# GULP energy per Si atom -5568.952598 kJ/mol
# Density = 2.197536 g / cm^3
# Si number density = 22.025490 Si / 1000 Ang^3
#
#
#
# Elastic Constant Matrix: (Units=GPa)
#
#
# Indices 1 2 3 4 5 6 
#
# 1 69.3662 14.3985 58.1684 0.0001 25.9795 -0.0001
# 2 14.3985 38.3443 25.4511 0.0000 7.5609 -0.0001
# 3 58.1684 25.4511 172.1398 0.0000 44.9332 -0.0001
# 4 0.0001 0.0000 0.0000 4.3300 0.0000 4.9713
# 5 25.9795 7.5609 44.9332 0.0000 52.1483 0.0001
# 6 -0.0001 -0.0001 -0.0001 4.9713 0.0001 4.4450
#
#
#
# Elastic Compliance Matrix: (Units=1/GPa)
#
#
# Indices 1 2 3 4 5 6 
#
# 1 0.021770 -0.003498 -0.005342 0.000003 -0.005735 -0.000003
# 2 -0.003498 0.029497 -0.003248 0.000003 0.000265 -0.000003
# 3 -0.005342 -0.003248 0.009389 0.000000 -0.004957 0.000000
# 4 0.000003 0.000003 0.000000 -0.813035 -0.000005 0.909306
# 5 -0.005735 0.000265 -0.004957 -0.000005 0.026266 0.000004
# 6 -0.000003 -0.000003 0.000000 0.909306 0.000004 -0.792005
#
#
# Mechanical properties :
#
#
# Convention : Reuss Voigt Hill
#
# Bulk Modulus (GPa) = 27.41315 52.87628 40.14471
# Shear Modulus (GPa) = -3.37432 24.30682 10.46625
#
# Velocity S-wave (km/s) = -1.23908 3.32562 2.18225
# Velocity P-wave (km/s) = 3.22893 6.22939 4.96142
#
# Compressibility (1/GPa) = 0.03647885
#
# Stress axis : x y z
#
# Youngs Moduli (GPa) = 45.93442 33.90198 106.51123
#
# Poissons Ratio (x) = 0.11859 0.56900
# Poissons Ratio (y) = 0.16068 0.34597
# Poissons Ratio (z) = 0.24539 0.11012
#
# Static dielectric constant tensor:
#      x y z
#    x 1.900870 0.000000 0.045160 
#    y 0.000000 1.882410 0.000000 
#    z 0.045160 0.000000 1.831030 
# 
# From -- ./inp_files/35798.got.cif
#   From: 2010.05.17/outbox.cif.g08.bks.cpg/sg5_18_cif.got.tgz:35798.got - 2010.06.03 18:56:24.
