data_PCOD9120847
_publ_section_title
;
Structure prediction by ZEFSAII (Michael W. Deem and Ramdas Pophale) SiO2 
 PCOD9120847
Probable space group: C 2
;
_chemical_formula_sum "Si O2"
_cell_formula_units_Z 30
_cell_length_a 8.785648
_cell_length_b 13.491517
_cell_length_c 24.290941
_cell_angle_alpha 90.000000
_cell_angle_beta 30.757539
_cell_angle_gamma 90.000000
_cell_volume 1472.464660
_symmetry_space_group_name_H-M "C 2"
_symmetry_group_IT_number 5
_symmetry_cell_setting 'monoclinic'
loop_
_space_group_symop_operation_xyz
x,y,z
-x,y,-z
1/2+x,1/2+y,z
1/2-x,1/2+y,-z
loop_
_atom_site_type_symbol
_atom_site_label
_atom_site_fract_x
_atom_site_fract_y
_atom_site_fract_z
Si Si1 0.272150 0.798190 0.233294
Si Si2 0.824824 0.011550 0.158959
Si Si3 0.500000 0.477470 0.500000
Si Si4 0.413460 0.105294 0.664062
Si Si5 0.402184 0.700615 0.969495
Si Si6 0.682755 0.664547 0.618830
Si Si7 0.768530 0.784179 0.173088
Si Si8 0.651575 0.486552 0.333219
O O1 0.039701 0.715474 0.326199
O O2 0.402510 0.765620 0.134118
O O3 0.547060 0.786371 0.190252
O O4 0.148832 0.907251 0.284444
O O5 0.816821 0.054393 0.222843
O O6 0.491417 0.021234 0.237250
O O7 0.031347 0.084668 0.060845
O O8 0.887386 0.895720 0.142442
O O9 0.567010 0.433156 0.418059
O O10 0.787334 0.543746 0.423636
O O11 0.276136 0.111349 0.646623
O O12 0.500000 0.728834 0.000000
O O13 0.052306 0.717749 0.072762
O O14 0.428805 0.743768 0.714442
O O15 0.549386 0.581601 0.619222
O O16 0.000000 0.707848 0.500000
#
# Coordination Sequence:
#
# PCOD9120847 Si02
#       8
#     4   4   2   4   4   4   4   4
#     4   9  21  41  59  88 123 160 205 249 309 367
#     4   9  21  41  61  88 120 161 207 248 305 376
#     4  10  18  36  56  84 118 170 204 244 296 362
#     4   9  19  38  56  83 121 155 203 250 304 360
#     4  11  22  38  65  92 123 156 203 262 312 360
#     4  11  21  38  58  91 127 159 205 262 304 347
#     4  10  22  40  63  91 119 167 208 245 305 378
#     4  10  20  38  63  87 126 163 206 253 304 366
#
# _framework density 20.374002999999998
#
# number of rings (size 3 to 8) (size 9 to 14) (size 15 to 20)
#    0.000    2.133    1.333    1.200    0.000    4.267 
#   20.400    2.667    0.000    0.000    0.000    0.000 
#    0.000    0.000    0.000    0.000    0.000    0.000 
#
# Total GULP energy -83639.434939 kJ/mol
# GULP energy per Si atom -5575.962329 kJ/mol
# Density = 2.032763 g / cm^3
# Si number density = 20.374003 Si / 1000 Ang^3
#
#
#
# Elastic Constant Matrix: (Units=GPa)
#
#
# Indices 1 2 3 4 5 6 
#
# 1 36.3420 12.2376 11.9343 0.0016 26.3572 0.0153
# 2 12.2376 90.6533 41.9773 -0.0022 9.8241 0.0089
# 3 11.9343 41.9773 84.8758 -0.0168 7.4221 0.0670
# 4 0.0016 -0.0022 -0.0168 17.3025 0.0022 4.1871
# 5 26.3572 9.8241 7.4221 0.0022 35.5456 -0.0214
# 6 0.0153 0.0089 0.0670 4.1871 -0.0214 2.8566
#
#
#
# Elastic Compliance Matrix: (Units=1/GPa)
#
#
# Indices 1 2 3 4 5 6 
#
# 1 0.061537 -0.001674 -0.003946 0.000206 -0.044344 -0.000866
# 2 -0.001674 0.014579 -0.006857 -0.000050 -0.001356 0.000188
# 3 -0.003946 -0.006857 0.015591 0.000139 0.001565 -0.000516
# 4 0.000206 -0.000050 0.000139 0.089568 -0.000252 -0.131294
# 5 -0.044344 -0.001356 0.001565 -0.000252 0.061063 0.001033
# 6 -0.000866 0.000188 -0.000516 -0.131294 0.001033 0.542546
#
#
# Mechanical properties :
#
#
# Convention : Reuss Voigt Hill
#
# Bulk Modulus (GPa) = 14.98051 38.24106 26.61078
# Shear Modulus (GPa) = 6.00898 20.85573 13.43236
#
# Velocity S-wave (km/s) = 1.71923 3.20292 2.57045
# Velocity P-wave (km/s) = 3.36299 5.69987 4.67965
#
# Compressibility (1/GPa) = 0.06675341
#
# Stress axis : x y z
#
# Youngs Moduli (GPa) = 16.25042 68.59225 64.13792
#
# Poissons Ratio (x) = 0.11484 0.25310
# Poissons Ratio (y) = 0.02721 0.43976
# Poissons Ratio (z) = 0.06413 0.47030
#
# Static dielectric constant tensor:
#      x y z
#    x 1.709230 0.000000 0.022850 
#    y 0.000000 1.774620 0.000000 
#    z 0.022850 0.000000 1.775020 
# 
# From -- ./inp_files/68008.got.cif
#   From: 2010.05.17/outbox.cif.g08.bks.cpg/sg5_35_cif.got.tgz:68008.got - 2010.06.03 18:56:24.
