data_PCOD9120574
_publ_section_title
;
Structure prediction by ZEFSAII (Michael W. Deem and Ramdas Pophale) SiO2 
 PCOD9120574
Probable space group: C 2
;
_chemical_formula_sum "Si O2"
_cell_formula_units_Z 28
_cell_length_a 27.753163
_cell_length_b 7.185607
_cell_length_c 9.363240
_cell_angle_alpha 90.000000
_cell_angle_beta 142.940162
_cell_angle_gamma 90.000000
_cell_volume 1125.294961
_symmetry_space_group_name_H-M "C 2"
_symmetry_group_IT_number 5
_symmetry_cell_setting 'monoclinic'
loop_
_space_group_symop_operation_xyz
x,y,z
-x,y,-z
1/2+x,1/2+y,z
1/2-x,1/2+y,-z
loop_
_atom_site_type_symbol
_atom_site_label
_atom_site_fract_x
_atom_site_fract_y
_atom_site_fract_z
Si Si1 0.943002 0.922460 0.728342
Si Si2 0.500000 0.066417 0.500000
Si Si3 0.228121 0.037921 0.237282
Si Si4 0.606520 0.004037 0.491678
Si Si5 0.726573 0.456333 0.564889
Si Si6 0.000000 0.496372 0.000000
Si Si7 0.554019 0.634731 0.768463
Si Si8 0.896230 0.556538 0.018751
O O1 0.915437 0.720102 0.600770
O O2 0.859323 0.013162 0.579172
O O3 0.996914 0.035211 0.746568
O O4 0.000000 0.902042 0.000000
O O5 0.567663 0.974885 0.554704
O O6 0.444085 0.168740 0.252512
O O7 0.300314 0.966203 0.308657
O O8 0.252620 0.251506 0.328961
O O9 0.225594 0.953414 0.390736
O O10 0.140588 0.036587 0.961625
O O11 0.557144 0.898306 0.250460
O O12 0.801989 0.578010 0.794311
O O13 0.066869 0.584961 0.050741
O O14 0.500000 0.638829 0.500000
O O15 0.580113 0.843229 0.882374
#
# Coordination Sequence:
#
# PCOD9120574 Si02
#       8
#     4   2   4   4   4   2   4   4
#     4  11  22  38  61  89 124 160 211 258 310 372
#     4  10  22  38  62  84 126 166 204 250 324 374
#     4  10  21  40  63  93 127 160 212 266 314 369
#     4  10  21  38  61  91 121 159 209 262 311 368
#     4  10  21  37  62  93 123 161 210 271 308 364
#     4  10  18  32  64  84 110 154 204 252 306 356
#     4  11  24  40  60  87 130 168 201 251 321 382
#     4  10  21  39  60  88 123 158 208 258 308 375
#
# _framework density 24.882365
#
# number of rings (size 3 to 8) (size 9 to 14) (size 15 to 20)
#    0.000    1.714    4.286    0.000    2.000    1.143 
#    0.000    0.000    0.000    1.714    0.000    0.000 
#    0.000    0.000    0.000    0.000    0.000    0.000 
#
# Total GULP energy -78189.464727 kJ/mol
# GULP energy per Si atom -5584.961766 kJ/mol
# Density = 2.482573 g / cm^3
# Si number density = 24.882365 Si / 1000 Ang^3
#
#
#
# Elastic Constant Matrix: (Units=GPa)
#
#
# Indices 1 2 3 4 5 6 
#
# 1 241.0350 39.6935 120.6327 0.0000 32.3084 0.0000
# 2 39.6935 74.3688 42.1764 0.0000 8.1026 0.0000
# 3 120.6327 42.1764 185.2240 0.0000 34.6170 0.0000
# 4 0.0000 0.0000 0.0000 19.9130 0.0000 4.1438
# 5 32.3084 8.1026 34.6170 0.0000 72.9505 0.0000
# 6 0.0000 0.0000 0.0000 4.1438 0.0000 31.2904
#
#
#
# Elastic Compliance Matrix: (Units=1/GPa)
#
#
# Indices 1 2 3 4 5 6 
#
# 1 0.006300 -0.001186 -0.003661 0.000000 -0.000921 0.000000
# 2 -0.001186 0.015664 -0.002817 0.000000 0.000122 0.000000
# 3 -0.003661 -0.002817 0.008848 0.000000 -0.002264 0.000000
# 4 0.000000 0.000000 0.000000 0.051642 0.000000 -0.006839
# 5 -0.000921 0.000122 -0.002264 0.000000 0.015177 0.000000
# 6 0.000000 0.000000 0.000000 -0.006839 0.000000 0.032864
#
#
# Mechanical properties :
#
#
# Convention : Reuss Voigt Hill
#
# Bulk Modulus (GPa) = 64.58451 100.62587 82.60519
# Shear Modulus (GPa) = 33.11642 44.70578 38.91110
#
# Velocity S-wave (km/s) = 3.65213 4.24333 3.95878
# Velocity P-wave (km/s) = 6.61788 8.03344 7.35978
#
# Compressibility (1/GPa) = 0.01548359
#
# Stress axis : x y z
#
# Youngs Moduli (GPa) = 158.74020 63.84113 113.02483
#
# Poissons Ratio (x) = 0.07571 0.41374
# Poissons Ratio (y) = 0.18826 0.31841
# Poissons Ratio (z) = 0.58108 0.17985
#
# Static dielectric constant tensor:
#      x y z
#    x 1.905270 0.000000 0.010940 
#    y 0.000000 2.195640 0.000000 
#    z 0.010940 0.000000 2.010680 
# 
# From -- ./inp_files/23599.got.cif
#   From: 2010.05.17/outbox.cif.g08.bks.cpg/sg5_12_cif.got.tgz:23599.got - 2010.06.03 18:56:24.
