data_PCOD9120321
_publ_section_title
;
Structure prediction by ZEFSAII (Michael W. Deem and Ramdas Pophale) SiO2 
 PCOD9120321
Probable space group: C 2
;
_chemical_formula_sum "Si O2"
_cell_formula_units_Z 28
_cell_length_a 10.558257
_cell_length_b 11.460542
_cell_length_c 19.371841
_cell_angle_alpha 90.000000
_cell_angle_beta 137.282624
_cell_angle_gamma 90.000000
_cell_volume 1590.167700
_symmetry_space_group_name_H-M "C 2"
_symmetry_group_IT_number 5
_symmetry_cell_setting 'monoclinic'
loop_
_space_group_symop_operation_xyz
x,y,z
-x,y,-z
1/2+x,1/2+y,z
1/2-x,1/2+y,-z
loop_
_atom_site_type_symbol
_atom_site_label
_atom_site_fract_x
_atom_site_fract_y
_atom_site_fract_z
Si Si1 0.305688 0.977270 0.275466
Si Si2 0.842252 0.270604 0.382923
Si Si3 0.604627 0.567956 0.860931
Si Si4 0.070612 0.592685 0.903496
Si Si5 0.935122 0.688342 0.252925
Si Si6 0.714811 0.735786 0.791928
Si Si7 0.359150 0.880384 0.883289
O O1 0.361594 0.904713 0.365780
O O2 0.297280 0.875250 0.214165
O O3 0.435967 0.083471 0.307421
O O4 0.098195 0.026003 0.200071
O O5 0.634560 0.251718 0.328839
O O6 0.851953 0.203025 0.312930
O O7 0.000000 0.237486 0.500000
O O8 0.601592 0.676212 0.807255
O O9 0.711140 0.464785 0.862579
O O10 0.735489 0.596449 0.978225
O O11 0.093936 0.629914 0.834037
O O12 0.925650 0.685868 0.879290
O O13 0.974897 0.465984 0.878706
O O14 0.763418 0.776597 0.197048
O O15 0.500000 0.838439 0.000000
#
# Coordination Sequence:
#
# PCOD9120321 Si02
#       7
#     4   4   4   4   4   4   4
#     4  10  22  36  55  83 114 146 187 236 279 331
#     4   9  20  44  60  78 111 144 192 247 289 325
#     4  10  17  36  55  80 118 154 182 224 277 328
#     4   9  19  33  55  79 117 159 182 221 272 330
#     4  11  21  38  54  85 115 142 195 229 276 344
#     4   8  18  37  55  79 112 144 194 223 273 333
#     4   9  18  33  52  77 112 154 185 218 271 323
#
# _framework density 17.608205000000002
#
# number of rings (size 3 to 8) (size 9 to 14) (size 15 to 20)
#    0.857    1.714    1.429    1.286    2.000    1.143 
#   10.286    0.000    0.000    0.000    0.000    1.000 
#    0.000    0.000    0.000    0.000    0.000    0.000 
#
# Total GULP energy -77957.408613 kJ/mol
# GULP energy per Si atom -5568.386330 kJ/mol
# Density = 1.756813 g / cm^3
# Si number density = 17.608205 Si / 1000 Ang^3
#
#
#
# Elastic Constant Matrix: (Units=GPa)
#
#
# Indices 1 2 3 4 5 6 
#
# 1 27.0663 43.3718 27.4628 0.0000 -1.7377 0.0000
# 2 43.3718 30.9168 -19.7880 0.0000 -0.1345 0.0000
# 3 27.4628 -19.7880 47.8349 0.0000 0.0401 0.0000
# 4 0.0000 0.0000 0.0000 17.3137 0.0000 -4.6843
# 5 -1.7377 -0.1345 0.0401 0.0000 7.6471 0.0000
# 6 0.0000 0.0000 0.0000 -4.6843 0.0000 27.2881
#
#
#
# Elastic Compliance Matrix: (Units=1/GPa)
#
#
# Indices 1 2 3 4 5 6 
#
# 1 -0.008280 0.019929 0.012999 0.000000 -0.001599 0.000000
# 2 0.019929 -0.003969 -0.013087 0.000000 0.004527 0.000000
# 3 0.012999 -0.013087 0.008026 0.000000 0.002682 0.000000
# 4 0.000000 0.000000 0.000000 0.060571 0.000000 0.010398
# 5 -0.001599 0.004527 0.002682 0.000000 0.130471 0.000000
# 6 0.000000 0.000000 0.000000 0.010398 0.000000 0.038431
#
#
# Mechanical properties :
#
#
# Convention : Reuss Voigt Hill
#
# Bulk Modulus (GPa) = 28.20138 23.10128 25.65133
# Shear Modulus (GPa) = 25.33070 14.10120 19.71595
#
# Velocity S-wave (km/s) = 3.79697 2.83297 3.34983
# Velocity P-wave (km/s) = 5.93914 4.88355 5.43702
#
# Compressibility (1/GPa) = 0.03545926
#
# Stress axis : x y z
#
# Youngs Moduli (GPa) = -120.77185 -251.97786 124.58948
#
# Poissons Ratio (x) = 5.02158 -1.61954
# Poissons Ratio (y) = 2.40682 1.63049
# Poissons Ratio (z) = 1.56991 -3.29760
#
# Static dielectric constant tensor:
#      x y z
#    x 1.609680 0.000000 -0.015150 
#    y 0.000000 1.642060 0.000000 
#    z -0.015150 0.000000 1.566470 
# 
# From -- ./inp_files/65198.got.cif
#   From: 2010.05.17/outbox.cif.g08.bks.cpg/sg5_33_cif.got.tgz:65198.got - 2010.06.03 18:56:24.
