data_PCOD9120693
_publ_section_title
;
Structure prediction by ZEFSAII (Michael W. Deem and Ramdas Pophale) SiO2 
 PCOD9120693
Probable space group: C 2
;
_chemical_formula_sum "Si O2"
_cell_formula_units_Z 28
_cell_length_a 18.562319
_cell_length_b 7.974242
_cell_length_c 14.490376
_cell_angle_alpha 90.000000
_cell_angle_beta 34.418885
_cell_angle_gamma 90.000000
_cell_volume 1212.364936
_symmetry_space_group_name_H-M "C 2"
_symmetry_group_IT_number 5
_symmetry_cell_setting 'monoclinic'
loop_
_space_group_symop_operation_xyz
x,y,z
-x,y,-z
1/2+x,1/2+y,z
1/2-x,1/2+y,-z
loop_
_atom_site_type_symbol
_atom_site_label
_atom_site_fract_x
_atom_site_fract_y
_atom_site_fract_z
Si Si1 0.130891 0.921230 0.907490
Si Si2 0.640518 0.031922 0.841185
Si Si3 0.108355 0.403398 0.461743
Si Si4 0.844579 0.054336 0.489757
Si Si5 0.087798 0.124300 0.134722
Si Si6 0.492042 0.225495 0.396874
Si Si7 0.239554 0.898525 0.108903
O O1 0.130973 0.719119 0.895834
O O2 0.259706 0.970489 0.719416
O O3 0.000000 0.982260 0.000000
O O4 0.131814 0.997928 0.007705
O O5 0.696128 0.035709 0.677953
O O6 0.734239 0.936109 0.811648
O O7 0.500000 0.957367 0.000000
O O8 0.124441 0.219784 0.484075
O O9 0.062382 0.548598 0.578362
O O10 0.000000 0.387306 0.500000
O O11 0.934216 0.098165 0.306717
O O12 0.906546 0.879803 0.455253
O O13 0.168411 0.057700 0.138220
O O14 0.133534 0.313929 0.066765
O O15 0.500000 0.227384 0.500000
O O16 0.633235 0.254883 0.211368
#
# Coordination Sequence:
#
# PCOD9120693 Si02
#       7
#     4   4   4   4   4   4   4
#     4  10  23  44  66  90 130 174 217 265 332 397
#     4  10  22  44  68  90 127 182 214 257 326 401
#     4  10  21  35  67  91 124 169 221 258 319 396
#     4  10  22  38  62  93 125 165 212 264 321 373
#     4  11  24  38  63  96 130 163 209 276 324 374
#     4  10  18  34  58  92 121 163 214 259 307 376
#     4  11  23  37  63  95 134 162 215 264 327 383
#
# _framework density 23.095355999999999
#
# number of rings (size 3 to 8) (size 9 to 14) (size 15 to 20)
#    0.000    1.714    1.429    3.000   10.000    0.571 
#    0.000    4.286    6.286    0.000    0.000    0.000 
#    0.000    0.000    0.000    0.000    0.000    0.000 
#
# Total GULP energy -78033.927126 kJ/mol
# GULP energy per Si atom -5573.851938 kJ/mol
# Density = 2.304279 g / cm^3
# Si number density = 23.095356 Si / 1000 Ang^3
#
#
#
# Elastic Constant Matrix: (Units=GPa)
#
#
# Indices 1 2 3 4 5 6 
#
# 1 22.7103 -7.8778 8.2623 0.0000 -8.2466 0.0000
# 2 -7.8778 55.9605 22.5070 0.0000 -5.0054 0.0001
# 3 8.2623 22.5070 119.8323 0.0000 -11.3006 0.0000
# 4 0.0000 0.0000 0.0000 48.5065 0.0000 0.4076
# 5 -8.2466 -5.0054 -11.3006 0.0000 23.9162 0.0000
# 6 0.0000 0.0001 0.0000 0.4076 0.0000 11.9802
#
#
#
# Elastic Compliance Matrix: (Units=1/GPa)
#
#
# Indices 1 2 3 4 5 6 
#
# 1 0.056798 0.011468 -0.004183 0.000000 0.020008 0.000000
# 2 0.011468 0.021782 -0.004269 0.000000 0.006496 0.000000
# 3 -0.004183 -0.004269 0.009645 0.000000 0.002221 0.000000
# 4 0.000000 0.000000 0.000000 0.020622 0.000000 -0.000702
# 5 0.020008 0.006496 0.002221 0.000000 0.051121 0.000000
# 6 0.000000 0.000000 0.000000 -0.000702 0.000000 0.083495
#
#
# Mechanical properties :
#
#
# Convention : Reuss Voigt Hill
#
# Bulk Modulus (GPa) = 10.60939 27.14289 18.87614
# Shear Modulus (GPa) = 18.59769 28.58802 23.59286
#
# Velocity S-wave (km/s) = 2.84078 3.52209 3.19962
# Velocity P-wave (km/s) = 3.91966 5.32149 4.67343
#
# Compressibility (1/GPa) = 0.09425613
#
# Stress axis : x y z
#
# Youngs Moduli (GPa) = 17.60616 45.90898 103.68329
#
# Poissons Ratio (x) = -0.52648 0.43373
# Poissons Ratio (y) = -0.20191 0.44265
# Poissons Ratio (z) = 0.07365 0.19600
#
# Static dielectric constant tensor:
#      x y z
#    x 1.855360 0.000000 0.016120 
#    y 0.000000 1.870510 0.000000 
#    z 0.016120 0.000000 1.957780 
# 
# From -- ./inp_files/62711.got.cif
#   From: 2010.05.17/outbox.cif.g08.bks.cpg/sg5_32_cif.got.tgz:62711.got - 2010.06.03 18:56:24.
