data_PCOD9120081
_publ_section_title
;
Structure prediction by ZEFSAII (Michael W. Deem and Ramdas Pophale) SiO2 
 PCOD9120081
Probable space group: C 2
;
_chemical_formula_sum "Si O2"
_cell_formula_units_Z 20
_cell_length_a 7.812847
_cell_length_b 17.995891
_cell_length_c 7.639272
_cell_angle_alpha 90.000000
_cell_angle_beta 70.665708
_cell_angle_gamma 90.000000
_cell_volume 1013.500448
_symmetry_space_group_name_H-M "C 2"
_symmetry_group_IT_number 5
_symmetry_cell_setting 'monoclinic'
loop_
_space_group_symop_operation_xyz
x,y,z
-x,y,-z
1/2+x,1/2+y,z
1/2-x,1/2+y,-z
loop_
_atom_site_type_symbol
_atom_site_label
_atom_site_fract_x
_atom_site_fract_y
_atom_site_fract_z
Si Si1 0.209086 0.292260 0.642450
Si Si2 0.302148 0.763405 0.774956
Si Si3 0.707308 0.609160 0.348885
Si Si4 0.500000 0.373802 0.000000
Si Si5 0.500000 0.178402 0.500000
Si Si6 0.858866 0.946638 0.705487
O O1 0.213141 0.284711 0.428105
O O2 0.369061 0.236449 0.649927
O O3 0.238649 0.375810 0.695307
O O4 0.008723 0.270102 0.764344
O O5 0.260385 0.676140 0.797471
O O6 0.170697 0.819537 0.916042
O O7 0.500000 0.617108 0.500000
O O8 0.858393 0.627102 0.444193
O O9 0.730088 0.527700 0.260949
O O10 0.462836 0.425159 0.846162
O O11 0.000000 0.951514 0.500000
#
# Coordination Sequence:
#
# PCOD9120081 Si02
#       6
#     4   4   4   2   2   4
#     4  10  18  38  66  94 125 169 222 253 318 397
#     4  10  20  39  66  96 127 170 219 263 317 390
#     4  10  20  38  65  97 128 171 218 262 324 385
#     4  12  24  42  66  92 134 172 216 272 318 382
#     4  10  16  34  66 100 120 168 220 256 314 386
#     4  11  22  40  64  95 131 169 211 270 325 378
#
# _framework density 19.733588999999998
#
# number of rings (size 3 to 8) (size 9 to 14) (size 15 to 20)
#    0.000    1.600    7.000    1.200    0.000    2.400 
#    0.000    4.000    4.400    0.000    0.000    0.000 
#    0.000    0.000    0.000    0.000    0.000    0.000 
#
# Total GULP energy -55771.080613 kJ/mol
# GULP energy per Si atom -5577.108061 kJ/mol
# Density = 1.968867 g / cm^3
# Si number density = 19.733589 Si / 1000 Ang^3
#
#
#
# Elastic Constant Matrix: (Units=GPa)
#
#
# Indices 1 2 3 4 5 6 
#
# 1 136.3886 70.7614 26.0806 0.0000 -14.1151 0.0000
# 2 70.7614 196.4794 33.8638 0.0000 15.5538 0.0000
# 3 26.0806 33.8638 56.5921 0.0000 4.2216 0.0000
# 4 0.0000 0.0000 0.0000 49.0022 0.0000 12.6384
# 5 -14.1151 15.5538 4.2216 0.0000 19.3065 0.0000
# 6 0.0000 0.0000 0.0000 12.6384 0.0000 38.8157
#
#
#
# Elastic Compliance Matrix: (Units=1/GPa)
#
#
# Indices 1 2 3 4 5 6 
#
# 1 0.011819 -0.004675 -0.003634 0.000000 0.013202 0.000000
# 2 -0.004675 0.007827 -0.001834 0.000000 -0.009323 0.000000
# 3 -0.003634 -0.001834 0.020871 0.000000 -0.005743 0.000000
# 4 0.000000 0.000000 0.000000 0.022278 0.000000 -0.007254
# 5 0.013202 -0.009323 -0.005743 0.000000 0.070215 0.000000
# 6 0.000000 0.000000 0.000000 -0.007254 0.000000 0.028125
#
#
# Mechanical properties :
#
#
# Convention : Reuss Voigt Hill
#
# Bulk Modulus (GPa) = 49.42886 72.31906 60.87396
# Shear Modulus (GPa) = 26.57252 38.67515 32.62384
#
# Velocity S-wave (km/s) = 3.67354 4.43184 4.07038
# Velocity P-wave (km/s) = 6.56472 7.93193 7.28049
#
# Compressibility (1/GPa) = 0.02023110
#
# Stress axis : x y z
#
# Youngs Moduli (GPa) = 84.61091 127.75524 47.91396
#
# Poissons Ratio (x) = 0.59729 0.17412
# Poissons Ratio (y) = 0.39558 0.08786
# Poissons Ratio (z) = 0.30747 0.23427
#
# Static dielectric constant tensor:
#      x y z
#    x 1.667780 0.000000 0.056080 
#    y 0.000000 1.717980 0.000000 
#    z 0.056080 0.000000 1.695720 
# 
# From -- ./inp_files/15626.got.cif
#   From: 2010.05.17/outbox.cif.g08.bks.cpg/sg5_8_cif.got.tgz:15626.got - 2010.06.03 18:56:24.
