data_PCOD9120664
_publ_section_title
;
Structure prediction by ZEFSAII (Michael W. Deem and Ramdas Pophale) SiO2 
 PCOD9120664
Probable space group: C 2
;
_chemical_formula_sum "Si O2"
_cell_formula_units_Z 30
_cell_length_a 11.400233
_cell_length_b 19.228055
_cell_length_c 13.754924
_cell_angle_alpha 90.000000
_cell_angle_beta 33.241119
_cell_angle_gamma 90.000000
_cell_volume 1652.789210
_symmetry_space_group_name_H-M "C 2"
_symmetry_group_IT_number 5
_symmetry_cell_setting 'monoclinic'
loop_
_space_group_symop_operation_xyz
x,y,z
-x,y,-z
1/2+x,1/2+y,z
1/2-x,1/2+y,-z
loop_
_atom_site_type_symbol
_atom_site_label
_atom_site_fract_x
_atom_site_fract_y
_atom_site_fract_z
Si Si1 0.303558 0.655780 0.556954
Si Si2 0.540700 0.550502 0.275111
Si Si3 0.663169 0.883284 0.809574
Si Si4 0.169402 0.303637 0.085186
Si Si5 0.512086 0.396415 0.245346
Si Si6 0.902399 0.310863 0.460952
Si Si7 0.000000 0.969592 0.500000
Si Si8 0.605533 0.160251 0.030229
O O1 0.500000 0.653823 0.500000
O O2 0.353141 0.605142 0.431980
O O3 0.295527 0.734749 0.524930
O O4 0.086873 0.639824 0.764785
O O5 0.513893 0.479865 0.232452
O O6 0.565827 0.516343 0.364006
O O7 0.737535 0.596286 0.101689
O O8 0.521151 0.822652 0.859670
O O9 0.862129 0.870607 0.743997
O O10 0.781604 0.925002 0.641266
O O11 0.500000 0.920413 0.000000
O O12 0.261400 0.225477 0.019650
O O13 0.076327 0.316629 0.256296
O O14 0.360209 0.356653 0.927443
O O15 0.274335 0.369724 0.420429
O O16 0.000000 0.312524 0.500000
O O17 0.500000 0.182123 0.000000
#
# Coordination Sequence:
#
# PCOD9120664 Si02
#       8
#     4   4   4   4   4   4   2   4
#     4  11  20  36  55  84 118 154 189 243 307 356
#     4  11  21  34  54  89 117 151 193 244 306 357
#     4   9  20  36  56  88 120 151 198 233 294 347
#     4  11  21  36  59  86 119 160 192 240 290 351
#     4  10  23  38  60  90 120 153 200 244 295 354
#     4  11  22  38  62  89 119 154 202 243 293 358
#     4  10  18  34  56  82 122 152 180 250 302 352
#     4  12  21  34  58  86 122 154 196 246 307 351
#
# _framework density 18.151133999999999
#
# number of rings (size 3 to 8) (size 9 to 14) (size 15 to 20)
#    0.000    1.333    4.667    2.400    0.000    8.533 
#    0.000    0.000    0.000    1.600    6.933    0.000 
#    0.000    0.000    0.000    0.000    0.000    0.000 
#
# Total GULP energy -83515.556286 kJ/mol
# GULP energy per Si atom -5567.703752 kJ/mol
# Density = 1.810982 g / cm^3
# Si number density = 18.151134 Si / 1000 Ang^3
#
#
#
# Elastic Constant Matrix: (Units=GPa)
#
#
# Indices 1 2 3 4 5 6 
#
# 1 32.8903 23.7835 24.8590 0.0011 2.1018 -0.0048
# 2 23.7835 131.6187 68.4750 0.0102 -5.5469 -0.0132
# 3 24.8590 68.4750 174.7838 0.0161 16.3948 -0.0195
# 4 0.0011 0.0102 0.0161 31.1346 0.0005 3.9147
# 5 2.1018 -5.5469 16.3948 0.0005 28.0843 0.0001
# 6 -0.0048 -0.0132 -0.0195 3.9147 0.0001 19.1671
#
#
#
# Elastic Compliance Matrix: (Units=1/GPa)
#
#
# Indices 1 2 3 4 5 6 
#
# 1 0.036500 -0.005119 -0.002999 0.000002 -0.001992 0.000002
# 2 -0.005119 0.010779 -0.003946 -0.000002 0.004816 0.000002
# 3 -0.002999 -0.003946 0.008195 -0.000003 -0.005339 0.000006
# 4 0.000002 -0.000002 -0.000003 0.032965 0.000001 -0.006733
# 5 -0.001992 0.004816 -0.005339 0.000001 0.039824 -0.000003
# 6 0.000002 0.000002 0.000006 -0.006733 -0.000003 0.053548
#
#
# Mechanical properties :
#
#
# Convention : Reuss Voigt Hill
#
# Bulk Modulus (GPa) = 31.90378 63.72532 47.81455
# Shear Modulus (GPa) = 23.10668 30.48890 26.79779
#
# Velocity S-wave (km/s) = 3.57181 4.10289 3.84652
# Velocity P-wave (km/s) = 5.88433 7.59140 6.79171
#
# Compressibility (1/GPa) = 0.03134425
#
# Stress axis : x y z
#
# Youngs Moduli (GPa) = 27.39741 92.77389 122.02907
#
# Poissons Ratio (x) = 0.47494 0.36594
# Poissons Ratio (y) = 0.14026 0.48158
# Poissons Ratio (z) = 0.08216 0.36613
#
# Static dielectric constant tensor:
#      x y z
#    x 1.645970 0.000010 0.012510 
#    y 0.000010 1.690020 -0.000020 
#    z 0.012510 -0.000020 1.664130 
# 
# From -- ./inp_files/53530.got.cif
#   From: 2010.05.17/outbox.cif.g08.bks.cpg/sg5_27_cif.got.tgz:53530.got - 2010.06.03 18:56:24.
