data_PCOD9120044
_publ_section_title
;
Structure prediction by ZEFSAII (Michael W. Deem and Ramdas Pophale) SiO2 
 PCOD9120044
Probable space group: C 2
;
_chemical_formula_sum "Si O2"
_cell_formula_units_Z 18
_cell_length_a 14.446345
_cell_length_b 5.057908
_cell_length_c 22.234419
_cell_angle_alpha 90.000000
_cell_angle_beta 156.161816
_cell_angle_gamma 90.000000
_cell_volume 656.602628
_symmetry_space_group_name_H-M "C 2"
_symmetry_group_IT_number 5
_symmetry_cell_setting 'monoclinic'
loop_
_space_group_symop_operation_xyz
x,y,z
-x,y,-z
1/2+x,1/2+y,z
1/2-x,1/2+y,-z
loop_
_atom_site_type_symbol
_atom_site_label
_atom_site_fract_x
_atom_site_fract_y
_atom_site_fract_z
Si Si1 0.802839 0.717290 0.835707
Si Si2 0.500000 0.439178 0.500000
Si Si3 0.562148 0.211476 0.656547
Si Si4 0.271222 0.838504 0.411224
Si Si5 0.104871 0.870590 0.903951
O O1 0.611597 0.492188 0.716654
O O2 0.925211 0.744139 0.843681
O O3 0.703432 0.010676 0.783116
O O4 0.000000 0.653160 0.000000
O O5 0.643182 0.272621 0.635267
O O6 0.291372 0.522193 0.425992
O O7 0.353375 0.013114 0.514638
O O8 0.500000 0.802886 0.500000
O O9 0.038316 0.913219 0.241712
O O10 0.296878 0.644720 0.012592
#
# Coordination Sequence:
#
# PCOD9120044 Si02
#       5
#     4   2   4   4   4
#     4  12  25  42  64  98 137 181 218 265 329 416
#     4  10  16  32  64  90 122 144 240 270 298 344
#     4  12  19  37  66  98 117 169 242 266 303 377
#     4  10  20  36  67  93 127 165 231 268 310 383
#     4  12  26  40  65 105 141 161 212 290 354 367
#
# _framework density 27.41384
#
# number of rings (size 3 to 8) (size 9 to 14) (size 15 to 20)
#    0.667    0.000    7.778    2.000    3.111    0.000 
#    0.000    0.000    0.000    5.333    0.000    0.000 
#    0.000    0.000    0.000    0.000    0.000    0.000 
#
# Total GULP energy -50106.781957 kJ/mol
# GULP energy per Si atom -5567.420217 kJ/mol
# Density = 2.735145 g / cm^3
# Si number density = 27.413840 Si / 1000 Ang^3
#
#
#
# Elastic Constant Matrix: (Units=GPa)
#
#
# Indices 1 2 3 4 5 6 
#
# 1 91.3598 14.9840 27.0080 -0.0001 -7.8520 0.0007
# 2 14.9840 179.6387 54.4021 -0.0074 -8.2566 0.0087
# 3 27.0080 54.4021 190.3597 0.0119 -30.0634 0.0035
# 4 -0.0001 -0.0074 0.0119 40.5149 0.0019 -14.8677
# 5 -7.8520 -8.2566 -30.0634 0.0019 37.6753 -0.0003
# 6 0.0007 0.0087 0.0035 -14.8677 -0.0003 -12.7275
#
#
#
# Elastic Compliance Matrix: (Units=1/GPa)
#
#
# Indices 1 2 3 4 5 6 
#
# 1 0.011519 -0.000513 -0.001289 0.000000 0.001260 0.000000
# 2 -0.000513 0.006117 -0.001694 0.000002 -0.000118 0.000001
# 3 -0.001289 -0.001694 0.006658 -0.000002 0.004673 0.000002
# 4 0.000000 0.000002 -0.000002 0.017276 -0.000002 -0.020181
# 5 0.001260 -0.000118 0.004673 -0.000002 0.030508 0.000003
# 6 0.000000 0.000001 0.000002 -0.020181 0.000003 -0.054995
#
#
# Mechanical properties :
#
#
# Convention : Reuss Voigt Hill
#
# Bulk Modulus (GPa) = 57.79223 72.68293 65.23758
# Shear Modulus (GPa) = 167.54285 37.42349 102.48317
#
# Velocity S-wave (km/s) = 7.82616 3.69878 6.12086
# Velocity P-wave (km/s) = 10.13865 6.69418 8.59082
#
# Compressibility (1/GPa) = 0.01730336
#
# Stress axis : x y z
#
# Youngs Moduli (GPa) = 86.81234 163.47603 150.18971
#
# Poissons Ratio (x) = 0.08380 0.19357
# Poissons Ratio (y) = 0.04450 0.25444
# Poissons Ratio (z) = 0.11189 0.27695
#
# Static dielectric constant tensor:
#      x y z
#    x 2.449170 0.000000 0.122040 
#    y 0.000000 2.258190 0.000000 
#    z 0.122040 0.000000 2.265590 
# 
# From -- ./inp_files/72153.got.cif
#   From: 2010.05.17/outbox.cif.g08.bks.cpg/sg5_37_cif.got.tgz:72153.got - 2010.06.03 18:56:24.
