data_PCOD9120448
_publ_section_title
;
Structure prediction by ZEFSAII (Michael W. Deem and Ramdas Pophale) SiO2 
 PCOD9120448
Probable space group: C 2
;
_chemical_formula_sum "Si O2"
_cell_formula_units_Z 26
_cell_length_a 16.140793
_cell_length_b 14.019807
_cell_length_c 7.656251
_cell_angle_alpha 90.000000
_cell_angle_beta 132.825209
_cell_angle_gamma 90.000000
_cell_volume 1270.697692
_symmetry_space_group_name_H-M "C 2"
_symmetry_group_IT_number 5
_symmetry_cell_setting 'monoclinic'
loop_
_space_group_symop_operation_xyz
x,y,z
-x,y,-z
1/2+x,1/2+y,z
1/2-x,1/2+y,-z
loop_
_atom_site_type_symbol
_atom_site_label
_atom_site_fract_x
_atom_site_fract_y
_atom_site_fract_z
Si Si1 0.247439 0.911810 0.362586
Si Si2 0.154703 0.642034 0.880570
Si Si3 0.543855 0.031479 0.260991
Si Si4 0.369251 0.217538 0.774313
Si Si5 0.350625 0.520148 0.088903
Si Si6 0.000000 0.799693 0.500000
Si Si7 0.405158 0.474508 0.558438
O O1 0.214347 0.805413 0.374806
O O2 0.179097 0.976174 0.403447
O O3 0.375596 0.947607 0.558270
O O4 0.195364 0.934997 0.098353
O O5 0.098114 0.731934 0.708099
O O6 0.062277 0.557166 0.768657
O O7 0.175090 0.670569 0.110319
O O8 0.265317 0.606709 0.941476
O O9 0.612656 0.132366 0.339160
O O10 0.500000 0.012243 0.000000
O O11 0.500000 0.250108 0.000000
O O12 0.347275 0.498657 0.291349
O O13 0.482926 0.536059 0.243714
O O14 0.043533 0.869292 0.409446
#
# Coordination Sequence:
#
# PCOD9120448 Si02
#       7
#     4   4   4   4   4   2   4
#     4  12  20  35  63  86 111 150 195 230 281 343
#     4  10  18  34  53  82 114 139 188 234 280 332
#     4   9  20  35  57  84 115 150 184 239 287 327
#     4   9  18  34  57  85 112 144 189 241 281 323
#     4  10  21  33  56  83 110 147 180 228 280 329
#     4  10  18  30  54  80 106 140 182 240 276 314
#     4  10  21  37  54  83 113 138 185 235 278 325
#
# _framework density 20.461200000000002
#
# number of rings (size 3 to 8) (size 9 to 14) (size 15 to 20)
#    0.000    2.462    0.000    7.846    0.000    0.000 
#    0.000    0.000    0.000   30.462    0.000    0.000 
#    0.000    0.000    0.000    0.000    0.000    0.000 
#
# Total GULP energy -72528.163532 kJ/mol
# GULP energy per Si atom -5579.089502 kJ/mol
# Density = 2.041463 g / cm^3
# Si number density = 20.461200 Si / 1000 Ang^3
#
#
#
# Elastic Constant Matrix: (Units=GPa)
#
#
# Indices 1 2 3 4 5 6 
#
# 1 59.5424 1.9130 5.2417 0.0000 10.1440 0.0000
# 2 1.9130 45.1868 17.2220 0.0000 18.7507 0.0000
# 3 5.2417 17.2220 77.3294 0.0000 6.0210 0.0000
# 4 0.0000 0.0000 0.0000 28.7248 0.0000 8.5482
# 5 10.1440 18.7507 6.0210 0.0000 19.8752 0.0000
# 6 0.0000 0.0000 0.0000 8.5482 0.0000 19.5699
#
#
#
# Elastic Compliance Matrix: (Units=1/GPa)
#
#
# Indices 1 2 3 4 5 6 
#
# 1 0.019297 0.005990 -0.001470 0.000000 -0.015055 0.000000
# 2 0.005990 0.040721 -0.006397 0.000000 -0.039536 0.000000
# 3 -0.001470 -0.006397 0.014264 0.000000 0.002464 0.000000
# 4 0.000000 0.000000 0.000000 0.040015 0.000000 -0.017478
# 5 -0.015055 -0.039536 0.002464 0.000000 0.094551 0.000000
# 6 0.000000 0.000000 0.000000 -0.017478 0.000000 0.058733
#
#
# Mechanical properties :
#
#
# Convention : Reuss Voigt Hill
#
# Bulk Modulus (GPa) = 14.17850 25.64578 19.91214
# Shear Modulus (GPa) = 16.95823 24.14611 20.55217
#
# Velocity S-wave (km/s) = 2.88201 3.43897 3.17274
# Velocity P-wave (km/s) = 4.24490 5.32257 4.81399
#
# Compressibility (1/GPa) = 0.07052931
#
# Stress axis : x y z
#
# Youngs Moduli (GPa) = 51.82272 24.55754 70.10622
#
# Poissons Ratio (x) = -0.14711 0.10305
# Poissons Ratio (y) = -0.31044 0.44844
# Poissons Ratio (z) = 0.07618 0.15708
#
# Static dielectric constant tensor:
#      x y z
#    x 1.744770 0.000000 -0.018120 
#    y 0.000000 1.759950 0.000000 
#    z -0.018120 0.000000 1.779420 
# 
# From -- ./inp_files/27564.got.cif
#   From: 2010.05.17/outbox.cif.g08.bks.cpg/sg5_14_cif.got.tgz:27564.got - 2010.06.03 18:56:24.
