data_PCOD9120324
_publ_section_title
;
Structure prediction by ZEFSAII (Michael W. Deem and Ramdas Pophale) SiO2 
 PCOD9120324
Probable space group: C 2
;
_chemical_formula_sum "Si O2"
_cell_formula_units_Z 32
_cell_length_a 8.646982
_cell_length_b 17.483560
_cell_length_c 11.122114
_cell_angle_alpha 90.000000
_cell_angle_beta 66.286039
_cell_angle_gamma 90.000000
_cell_volume 1539.468369
_symmetry_space_group_name_H-M "C 2"
_symmetry_group_IT_number 5
_symmetry_cell_setting 'monoclinic'
loop_
_space_group_symop_operation_xyz
x,y,z
-x,y,-z
1/2+x,1/2+y,z
1/2-x,1/2+y,-z
loop_
_atom_site_type_symbol
_atom_site_label
_atom_site_fract_x
_atom_site_fract_y
_atom_site_fract_z
Si Si1 0.189768 0.953410 0.483254
Si Si2 0.163800 0.364656 0.006546
Si Si3 0.261386 0.347003 0.329832
Si Si4 0.320220 0.231597 0.114218
Si Si5 0.999049 0.130231 0.853962
Si Si6 0.671984 0.084811 0.378543
Si Si7 0.960351 0.953481 0.870482
Si Si8 0.474887 0.951389 0.733317
O O1 0.220456 0.870451 0.537395
O O2 0.326039 0.958368 0.335647
O O3 0.000000 0.960924 0.500000
O O4 0.243254 0.024382 0.553943
O O5 0.271244 0.304264 0.047356
O O6 0.093518 0.430004 0.116176
O O7 0.294662 0.408175 0.883142
O O8 0.000000 0.327015 0.000000
O O9 0.315573 0.266804 0.251910
O O10 0.388997 0.408938 0.235919
O O11 0.084713 0.379863 0.333015
O O12 0.158672 0.177054 0.149610
O O13 0.500000 0.204139 0.000000
O O14 0.182412 0.138601 0.727900
O O15 0.956483 0.041779 0.843877
O O16 0.000000 0.141463 0.000000
O O17 0.500000 0.115659 0.500000
O O18 0.604776 0.029114 0.293377
O O19 0.000000 0.947858 0.000000
#
# Coordination Sequence:
#
# PCOD9120324 Si02
#       8
#     4   4   4   4   4   4   4   4
#     4  10  20  31  56  94 122 146 209 277 296 341
#     4  11  21  32  57  89 120 154 203 256 310 368
#     4  10  17  36  60  79 116 161 202 237 310 371
#     4  11  22  39  58  85 126 169 200 247 325 374
#     4  11  22  36  63  95 129 158 213 262 304 371
#     4   9  18  38  60  82 122 172 201 242 328 379
#     4  11  17  35  60  88 117 157 201 241 309 364
#     4   9  17  32  54  84 115 156 199 251 306 365
#
# _framework density 20.786396
#
# number of rings (size 3 to 8) (size 9 to 14) (size 15 to 20)
#    0.000    1.750    6.250    2.250    1.750    0.500 
#    0.000    2.500    0.000   12.000    0.000    0.000 
#    0.000    0.000    0.000    0.000    0.000    0.000 
#
# Total GULP energy -89085.215962 kJ/mol
# GULP energy per Si atom -5567.825998 kJ/mol
# Density = 2.073909 g / cm^3
# Si number density = 20.786396 Si / 1000 Ang^3
#
#
#
# Elastic Constant Matrix: (Units=GPa)
#
#
# Indices 1 2 3 4 5 6 
#
# 1 114.7706 23.5780 42.3364 0.0000 -36.8710 0.0000
# 2 23.5780 60.9182 21.9250 0.0000 -15.3832 0.0000
# 3 42.3364 21.9250 88.9075 0.0000 -36.4523 0.0000
# 4 0.0000 0.0000 0.0000 11.5738 0.0000 -10.7393
# 5 -36.8710 -15.3832 -36.4523 0.0000 42.3815 0.0000
# 6 0.0000 0.0000 0.0000 -10.7393 0.0000 26.1771
#
#
#
# Elastic Compliance Matrix: (Units=1/GPa)
#
#
# Indices 1 2 3 4 5 6 
#
# 1 0.012600 -0.002004 -0.002023 0.000000 0.008494 0.000000
# 2 -0.002004 0.018830 -0.002475 0.000000 0.002963 0.000000
# 3 -0.002023 -0.002475 0.018122 0.000000 0.012928 0.000000
# 4 0.000000 0.000000 0.000000 0.139511 0.000000 0.057235
# 5 0.008494 0.002963 0.012928 0.000000 0.043180 0.000000
# 6 0.000000 0.000000 0.000000 0.057235 0.000000 0.061682
#
#
# Mechanical properties :
#
#
# Convention : Reuss Voigt Hill
#
# Bulk Modulus (GPa) = 27.36039 48.91946 38.13992
# Shear Modulus (GPa) = 15.66858 27.81029 21.73943
#
# Velocity S-wave (km/s) = 2.74850 3.66171 3.23747
# Velocity P-wave (km/s) = 4.82323 6.43917 5.68887
#
# Compressibility (1/GPa) = 0.03654919
#
# Stress axis : x y z
#
# Youngs Moduli (GPa) = 79.36671 53.10735 55.18188
#
# Poissons Ratio (x) = 0.10640 0.11164
# Poissons Ratio (y) = 0.15902 0.13655
# Poissons Ratio (z) = 0.16056 0.13141
#
# Static dielectric constant tensor:
#      x y z
#    x 1.832150 0.000000 0.024340 
#    y 0.000000 1.719800 0.000000 
#    z 0.024340 0.000000 1.840400 
# 
# From -- ./inp_files/37189.got.cif
#   From: 2010.05.17/outbox.cif.g08.bks.cpg/sg5_19_cif.got.tgz:37189.got - 2010.06.03 18:56:24.
