data_PCOD9120780
_publ_section_title
;
Structure prediction by ZEFSAII (Michael W. Deem and Ramdas Pophale) SiO2 
 PCOD9120780
Probable space group: C 2
;
_chemical_formula_sum "Si O2"
_cell_formula_units_Z 30
_cell_length_a 16.592960
_cell_length_b 8.483455
_cell_length_c 21.395201
_cell_angle_alpha 90.000000
_cell_angle_beta 147.962340
_cell_angle_gamma 90.000000
_cell_volume 1597.641009
_symmetry_space_group_name_H-M "C 2"
_symmetry_group_IT_number 5
_symmetry_cell_setting 'monoclinic'
loop_
_space_group_symop_operation_xyz
x,y,z
-x,y,-z
1/2+x,1/2+y,z
1/2-x,1/2+y,-z
loop_
_atom_site_type_symbol
_atom_site_label
_atom_site_fract_x
_atom_site_fract_y
_atom_site_fract_z
Si Si1 0.661253 0.428110 0.223729
Si Si2 0.500000 0.508159 0.000000
Si Si3 0.799012 0.802228 0.617286
Si Si4 0.239561 0.221836 0.091934
Si Si5 0.058526 0.015361 0.742814
Si Si6 0.961359 0.310131 0.354686
Si Si7 0.524708 0.006330 0.271867
Si Si8 0.494989 0.718932 0.823444
O O1 0.540825 0.408162 0.088243
O O2 0.640744 0.326218 0.272539
O O3 0.823616 0.382773 0.302907
O O4 0.631567 0.607292 0.227762
O O5 0.642660 0.620106 0.077927
O O6 0.619831 0.823375 0.495369
O O7 0.841161 0.626562 0.625372
O O8 0.896488 0.924151 0.639673
O O9 0.313416 0.380124 0.168488
O O10 0.378038 0.112677 0.159681
O O11 0.124917 0.252313 0.959613
O O12 0.069579 0.133013 0.691399
O O13 0.061974 0.119029 0.808924
O O14 0.982937 0.410937 0.306186
O O15 0.563304 0.881529 0.243679
#
# Coordination Sequence:
#
# PCOD9120780 Si02
#       8
#     4   2   4   4   4   4   4   4
#     4  10  21  39  58  83 117 155 187 235 298 341
#     4  10  20  38  58  86 120 148 184 248 284 358
#     4  10  21  38  60  84 117 152 196 245 282 339
#     4  10  18  35  57  83 122 152 188 237 292 342
#     4   9  20  35  56  89 111 153 200 233 287 346
#     4  11  20  38  60  83 120 152 198 235 289 341
#     4  10  20  36  60  89 112 152 198 237 290 338
#     4   9  19  35  59  83 120 147 196 233 288 350
#
# _framework density 18.777687
#
# number of rings (size 3 to 8) (size 9 to 14) (size 15 to 20)
#    0.000    2.133    1.333    2.000    0.000    1.067 
#    7.200    0.000    0.000    0.000    0.000    0.000 
#    0.000    0.000    0.000    0.000    0.000    0.000 
#
# Total GULP energy -83641.661773 kJ/mol
# GULP energy per Si atom -5576.110785 kJ/mol
# Density = 1.873495 g / cm^3
# Si number density = 18.777687 Si / 1000 Ang^3
#
#
#
# Elastic Constant Matrix: (Units=GPa)
#
#
# Indices 1 2 3 4 5 6 
#
# 1 76.7243 30.5875 27.5433 0.0000 9.4218 0.0000
# 2 30.5875 88.4467 36.7238 0.0001 6.9135 0.0001
# 3 27.5433 36.7238 59.8271 0.0002 11.3363 0.0001
# 4 0.0000 0.0001 0.0002 19.9205 0.0001 3.1103
# 5 9.4218 6.9135 11.3363 0.0001 28.9142 0.0000
# 6 0.0000 0.0001 0.0001 3.1103 0.0000 26.8044
#
#
#
# Elastic Compliance Matrix: (Units=1/GPa)
#
#
# Indices 1 2 3 4 5 6 
#
# 1 0.016518 -0.003431 -0.005006 0.000000 -0.002599 0.000000
# 2 -0.003431 0.015886 -0.008279 0.000000 0.000565 0.000000
# 3 -0.005006 -0.008279 0.025297 0.000000 -0.006307 0.000000
# 4 0.000000 0.000000 0.000000 0.051126 0.000000 -0.005932
# 5 -0.002599 0.000565 -0.006307 0.000000 0.037770 0.000000
# 6 0.000000 0.000000 0.000000 -0.005932 0.000000 0.037996
#
#
# Mechanical properties :
#
#
# Convention : Reuss Voigt Hill
#
# Bulk Modulus (GPa) = 41.20523 46.07861 43.64192
# Shear Modulus (GPa) = 22.11287 23.80404 22.95845
#
# Velocity S-wave (km/s) = 3.43536 3.56431 3.50043
# Velocity P-wave (km/s) = 6.14223 6.44448 6.29517
#
# Compressibility (1/GPa) = 0.02426876
#
# Stress axis : x y z
#
# Youngs Moduli (GPa) = 60.54116 62.94850 39.53092
#
# Poissons Ratio (x) = 0.21595 0.19790
# Poissons Ratio (y) = 0.20769 0.32728
# Poissons Ratio (z) = 0.30308 0.52116
#
# Static dielectric constant tensor:
#      x y z
#    x 1.639810 0.000000 -0.007820 
#    y 0.000000 1.658140 0.000000 
#    z -0.007820 0.000000 1.667430 
# 
# From -- ./inp_files/41752.got.cif
#   From: 2010.05.17/outbox.cif.g08.bks.cpg/sg5_21_cif.got.tgz:41752.got - 2010.06.03 18:56:24.
