data_PCOD9120202
_publ_section_title
;
Structure prediction by ZEFSAII (Michael W. Deem and Ramdas Pophale) SiO2 
 PCOD9120202
Probable space group: C 2
;
_chemical_formula_sum "Si O2"
_cell_formula_units_Z 32
_cell_length_a 18.817131
_cell_length_b 13.875399
_cell_length_c 7.900696
_cell_angle_alpha 90.000000
_cell_angle_beta 119.427176
_cell_angle_gamma 90.000000
_cell_volume 1796.688789
_symmetry_space_group_name_H-M "C 2"
_symmetry_group_IT_number 5
_symmetry_cell_setting 'monoclinic'
loop_
_space_group_symop_operation_xyz
x,y,z
-x,y,-z
1/2+x,1/2+y,z
1/2-x,1/2+y,-z
loop_
_atom_site_type_symbol
_atom_site_label
_atom_site_fract_x
_atom_site_fract_y
_atom_site_fract_z
Si Si1 0.165822 0.451100 0.843731
Si Si2 0.445938 0.129996 0.714297
Si Si3 0.829505 0.345667 0.505133
Si Si4 0.768159 0.655520 0.676242
Si Si5 0.765925 0.944659 0.309044
Si Si6 0.085725 0.810272 0.568046
Si Si7 0.992319 0.414480 0.785934
Si Si8 0.628382 0.164604 0.891806
O O1 0.188844 0.402509 0.692276
O O2 0.081415 0.404203 0.810947
O O3 0.145419 0.566093 0.807174
O O4 0.229533 0.441175 0.074999
O O5 0.357446 0.137508 0.698605
O O6 0.436669 0.216219 0.568973
O O7 0.540913 0.148664 0.885514
O O8 0.455853 0.017513 0.679786
O O9 0.782260 0.244484 0.453035
O O10 0.799485 0.404534 0.633934
O O11 0.926791 0.337594 0.644447
O O12 0.720315 0.555379 0.624033
O O13 0.795090 0.677626 0.898327
O O14 0.846077 0.880206 0.422737
O O15 0.119905 0.760816 0.775730
O O16 0.000000 0.862334 0.500000
O O17 0.000000 0.418507 0.000000
#
# Coordination Sequence:
#
# PCOD9120202 Si02
#       8
#     4   4   4   4   4   4   4   4
#     4  10  21  36  59  86 118 142 184 236 288 334
#     4  10  17  31  56  84 110 138 178 236 290 335
#     4  12  22  34  58  87 112 153 186 225 283 344
#     4  11  21  35  53  84 113 145 192 229 277 336
#     4  11  22  39  56  81 120 151 185 235 279 330
#     4  10  20  35  55  81 112 153 187 223 281 339
#     4  11  19  36  57  86 116 145 179 238 295 327
#     4   9  19  33  56  84 111 140 180 241 291 326
#
# _framework density 17.810542000000002
#
# number of rings (size 3 to 8) (size 9 to 14) (size 15 to 20)
#    0.000    1.500    3.750    3.750    0.000    2.000 
#    0.000    1.250    0.000    0.000    6.500    0.000 
#    0.000    0.000    0.000    0.000    0.000    0.000 
#
# Total GULP energy -89084.367043 kJ/mol
# GULP energy per Si atom -5567.772940 kJ/mol
# Density = 1.777000 g / cm^3
# Si number density = 17.810542 Si / 1000 Ang^3
#
#
#
# Elastic Constant Matrix: (Units=GPa)
#
#
# Indices 1 2 3 4 5 6 
#
# 1 53.1372 15.3339 5.3387 0.0000 4.5060 0.0000
# 2 15.3339 71.6887 28.4530 0.0000 10.9217 0.0000
# 3 5.3387 28.4530 50.6997 0.0000 4.6541 0.0000
# 4 0.0000 0.0000 0.0000 21.2996 0.0000 3.7818
# 5 4.5060 10.9217 4.6541 0.0000 27.1329 0.0000
# 6 0.0000 0.0000 0.0000 3.7818 0.0000 27.1961
#
#
#
# Elastic Compliance Matrix: (Units=1/GPa)
#
#
# Indices 1 2 3 4 5 6 
#
# 1 0.020138 -0.004202 0.000396 0.000000 -0.001721 0.000000
# 2 -0.004202 0.019697 -0.010107 0.000000 -0.005497 0.000000
# 3 0.000396 -0.010107 0.025387 0.000000 -0.000352 0.000000
# 4 0.000000 0.000000 0.000000 0.048138 0.000000 -0.006694
# 5 -0.001721 -0.005497 -0.000352 0.000000 0.039414 0.000000
# 6 0.000000 0.000000 0.000000 -0.006694 0.000000 0.037701
#
#
# Mechanical properties :
#
#
# Convention : Reuss Voigt Hill
#
# Bulk Modulus (GPa) = 26.74181 30.41966 28.58073
# Shear Modulus (GPa) = 21.66693 23.55240 22.60966
#
# Velocity S-wave (km/s) = 3.49165 3.64041 3.56681
# Velocity P-wave (km/s) = 5.59488 5.89803 5.74845
#
# Compressibility (1/GPa) = 0.03739463
#
# Stress axis : x y z
#
# Youngs Moduli (GPa) = 49.65728 50.76928 39.39074
#
# Poissons Ratio (x) = 0.21335 -0.01559
# Poissons Ratio (y) = 0.20868 0.39812
# Poissons Ratio (z) = -0.01965 0.51312
#
# Static dielectric constant tensor:
#      x y z
#    x 1.691510 0.000000 -0.029080 
#    y 0.000000 1.587920 0.000000 
#    z -0.029080 0.000000 1.675660 
# 
# From -- ./inp_files/29622.got.cif
#   From: 2010.05.17/outbox.cif.g08.bks.cpg/sg5_15_cif.got.tgz:29622.got - 2010.06.03 18:56:24.
