data_PCOD9120174
_publ_section_title
;
Structure prediction by ZEFSAII (Michael W. Deem and Ramdas Pophale) SiO2 
 PCOD9120174
Probable space group: C 2
;
_chemical_formula_sum "Si O2"
_cell_formula_units_Z 20
_cell_length_a 26.251727
_cell_length_b 4.998084
_cell_length_c 11.802188
_cell_angle_alpha 90.000000
_cell_angle_beta 149.872161
_cell_angle_gamma 90.000000
_cell_volume 777.263031
_symmetry_space_group_name_H-M "C 2"
_symmetry_group_IT_number 5
_symmetry_cell_setting 'monoclinic'
loop_
_space_group_symop_operation_xyz
x,y,z
-x,y,-z
1/2+x,1/2+y,z
1/2-x,1/2+y,-z
loop_
_atom_site_type_symbol
_atom_site_label
_atom_site_fract_x
_atom_site_fract_y
_atom_site_fract_z
Si Si1 0.778799 0.079980 0.611424
Si Si2 0.294781 0.998120 0.944035
Si Si3 0.495754 0.861369 0.214713
Si Si4 0.918857 0.848250 0.733592
Si Si5 0.338277 0.002548 0.286376
O O1 0.778564 0.297081 0.508158
O O2 0.697504 0.253895 0.526746
O O3 0.893083 0.968440 0.810293
O O4 0.376922 0.894528 0.012114
O O5 0.347600 0.968415 0.169239
O O6 0.251315 0.297565 0.845397
O O7 0.199355 0.803433 0.770307
O O8 0.532919 0.567914 0.254252
O O9 0.561346 0.947512 0.449875
O O10 0.521308 0.073450 0.166000
#
# Coordination Sequence:
#
# PCOD9120174 Si02
#       5
#     4   4   4   4   4
#     4   8  14  30  46  74 116 136 166 220 270 328
#     4  10  22  39  54  77 115 148 177 222 275 319
#     4  12  20  32  60  87 102 141 192 226 256 316
#     4  10  17  30  51  87 108 133 187 220 261 330
#     4  10  22  39  54  77 115 148 177 222 275 319
#
# _framework density 25.731314000000001
#
# number of rings (size 3 to 8) (size 9 to 14) (size 15 to 20)
#    1.200    0.800    2.000    3.000    0.000    0.000 
#    0.000    8.000    0.000    0.000    0.000   98.000 
#    0.000    0.000    0.000    0.000    0.000    0.000 
#
# Total GULP energy -55716.032464 kJ/mol
# GULP energy per Si atom -5571.603246 kJ/mol
# Density = 2.567275 g / cm^3
# Si number density = 25.731314 Si / 1000 Ang^3
#
#
#
# Elastic Constant Matrix: (Units=GPa)
#
#
# Indices 1 2 3 4 5 6 
#
# 1 75.4228 0.5789 20.9440 0.0000 22.4074 0.0000
# 2 0.5789 132.3714 5.1100 -0.0001 3.9068 0.0003
# 3 20.9440 5.1100 106.1947 0.0001 -9.6820 -0.0001
# 4 0.0000 -0.0001 0.0001 22.1863 0.0000 8.2339
# 5 22.4074 3.9068 -9.6820 0.0000 60.6682 0.0000
# 6 0.0000 0.0003 -0.0001 8.2339 0.0000 37.4798
#
#
#
# Elastic Compliance Matrix: (Units=1/GPa)
#
#
# Indices 1 2 3 4 5 6 
#
# 1 0.016296 0.000273 -0.003833 0.000000 -0.006648 0.000000
# 2 0.000273 0.007591 -0.000480 0.000000 -0.000666 0.000000
# 3 -0.003833 -0.000480 0.010480 0.000000 0.003119 0.000000
# 4 0.000000 0.000000 0.000000 0.049074 0.000000 -0.010781
# 5 -0.006648 -0.000666 0.003119 0.000000 0.019479 0.000000
# 6 0.000000 0.000000 0.000000 -0.010781 0.000000 0.029049
#
#
# Mechanical properties :
#
#
# Convention : Reuss Voigt Hill
#
# Bulk Modulus (GPa) = 38.04113 40.80611 39.42362
# Shear Modulus (GPa) = 33.59922 43.22394 38.41158
#
# Velocity S-wave (km/s) = 3.61747 4.10301 3.86786
# Velocity P-wave (km/s) = 5.68015 6.19186 5.94152
#
# Compressibility (1/GPa) = 0.02628734
#
# Stress axis : x y z
#
# Youngs Moduli (GPa) = 61.36468 131.72638 95.41864
#
# Poissons Ratio (x) = -0.03595 0.36576
# Poissons Ratio (y) = -0.01675 0.04579
# Poissons Ratio (z) = 0.23522 0.06321
#
# Static dielectric constant tensor:
#      x y z
#    x 2.138410 0.000000 -0.073870 
#    y 0.000000 1.919340 0.000000 
#    z -0.073870 0.000000 2.105690 
# 
# From -- ./inp_files/41064.got.cif
#   From: 2010.05.17/outbox.cif.g08.bks.cpg/sg5_21_cif.got.tgz:41064.got - 2010.06.03 18:56:24.
