data_PCOD9120672
_publ_section_title
;
Structure prediction by ZEFSAII (Michael W. Deem and Ramdas Pophale) SiO2 
 PCOD9120672
Probable space group: C 2
;
_chemical_formula_sum "Si O2"
_cell_formula_units_Z 26
_cell_length_a 14.314371
_cell_length_b 15.384672
_cell_length_c 11.755313
_cell_angle_alpha 90.000000
_cell_angle_beta 31.631437
_cell_angle_gamma 90.000000
_cell_volume 1357.692465
_symmetry_space_group_name_H-M "C 2"
_symmetry_group_IT_number 5
_symmetry_cell_setting 'monoclinic'
loop_
_space_group_symop_operation_xyz
x,y,z
-x,y,-z
1/2+x,1/2+y,z
1/2-x,1/2+y,-z
loop_
_atom_site_type_symbol
_atom_site_label
_atom_site_fract_x
_atom_site_fract_y
_atom_site_fract_z
Si Si1 0.701450 0.530300 0.662645
Si Si2 0.207737 0.358868 0.147102
Si Si3 0.317690 0.138852 0.331586
Si Si4 0.785637 0.337920 0.591930
Si Si5 0.801074 0.680259 0.012593
Si Si6 0.000000 0.127359 0.500000
Si Si7 0.786767 0.051135 0.091345
O O1 0.800256 0.586864 0.467107
O O2 0.701295 0.427324 0.633404
O O3 0.778279 0.543535 0.710547
O O4 0.498759 0.561756 0.875626
O O5 0.255158 0.342998 0.230768
O O6 0.311571 0.282726 0.975526
O O7 0.251881 0.457295 0.071485
O O8 0.996179 0.348964 0.355701
O O9 0.266076 0.241493 0.393779
O O10 0.169286 0.094638 0.401624
O O11 0.530235 0.145220 0.091423
O O12 0.621764 0.671480 0.275181
O O13 0.787337 0.625770 0.911829
#
# Coordination Sequence:
#
# PCOD9120672 Si02
#       7
#     4   4   4   4   4   2   4
#     4  10  21  37  59  88 121 156 197 242 290 350
#     4  10  18  34  57  86 116 148 196 247 284 340
#     4  12  22  37  62  89 119 155 193 247 300 342
#     4  10  18  34  57  86 116 148 196 247 284 340
#     4  12  22  37  62  89 119 155 193 247 300 342
#     4  12  22  40  58  90 120 146 202 246 296 350
#     4  10  21  37  59  88 121 156 197 242 290 350
#
# _framework density 19.150138999999999
#
# number of rings (size 3 to 8) (size 9 to 14) (size 15 to 20)
#    0.000    1.231    4.615    2.308    0.000    3.077 
#    0.000    0.000    3.385    0.000    0.000    0.000 
#    0.000    0.000    0.000    0.000    0.000    0.000 
#
# Total GULP energy -72381.333803 kJ/mol
# GULP energy per Si atom -5567.794908 kJ/mol
# Density = 1.910655 g / cm^3
# Si number density = 19.150139 Si / 1000 Ang^3
#
#
#
# Elastic Constant Matrix: (Units=GPa)
#
#
# Indices 1 2 3 4 5 6 
#
# 1 85.2010 45.2179 20.4419 -0.0005 -9.0243 0.0002
# 2 45.2179 98.5881 7.5948 -0.0003 11.5806 0.0001
# 3 20.4419 7.5948 55.6168 -0.0004 -18.0464 0.0002
# 4 -0.0005 -0.0003 -0.0004 19.5016 0.0003 -3.4438
# 5 -9.0243 11.5806 -18.0464 0.0003 30.9285 -0.0002
# 6 0.0002 0.0001 0.0002 -3.4438 -0.0002 31.9767
#
#
#
# Elastic Compliance Matrix: (Units=1/GPa)
#
#
# Indices 1 2 3 4 5 6 
#
# 1 0.017825 -0.008699 -0.003231 0.000000 0.006573 0.000000
# 2 -0.008699 0.015395 -0.001973 0.000000 -0.009454 0.000000
# 3 -0.003231 -0.001973 0.023895 0.000000 0.013738 0.000000
# 4 0.000000 0.000000 0.000000 0.052272 0.000000 0.005629
# 5 0.006573 -0.009454 0.013738 0.000000 0.045806 0.000000
# 6 0.000000 0.000000 0.000000 0.005629 0.000000 0.031879
#
#
# Mechanical properties :
#
#
# Convention : Reuss Voigt Hill
#
# Bulk Modulus (GPa) = 34.11734 42.87945 38.49840
# Shear Modulus (GPa) = 22.25716 27.55811 24.90764
#
# Velocity S-wave (km/s) = 3.41287 3.79760 3.61037
# Velocity P-wave (km/s) = 5.77794 6.45514 6.12591
#
# Compressibility (1/GPa) = 0.02931061
#
# Stress axis : x y z
#
# Youngs Moduli (GPa) = 56.10141 64.95484 41.85003
#
# Poissons Ratio (x) = 0.56502 0.13522
# Poissons Ratio (y) = 0.48801 0.08255
# Poissons Ratio (z) = 0.18126 0.12813
#
# Static dielectric constant tensor:
#      x y z
#    x 1.705940 0.000000 -0.025410 
#    y 0.000000 1.681940 0.000000 
#    z -0.025410 0.000000 1.692340 
# 
# From -- ./inp_files/43036.got.cif
#   From: 2010.05.17/outbox.cif.g08.bks.cpg/sg5_22_cif.got.tgz:43036.got - 2010.06.03 18:56:24.
