data_PCOD9120891
_publ_section_title
;
Structure prediction by ZEFSAII (Michael W. Deem and Ramdas Pophale) SiO2 
 PCOD9120891
Probable space group: C 2
;
_chemical_formula_sum "Si O2"
_cell_formula_units_Z 22
_cell_length_a 27.583565
_cell_length_b 5.092685
_cell_length_c 8.812144
_cell_angle_alpha 90.000000
_cell_angle_beta 123.693057
_cell_angle_gamma 90.000000
_cell_volume 1029.943180
_symmetry_space_group_name_H-M "C 2"
_symmetry_group_IT_number 5
_symmetry_cell_setting 'monoclinic'
loop_
_space_group_symop_operation_xyz
x,y,z
-x,y,-z
1/2+x,1/2+y,z
1/2-x,1/2+y,-z
loop_
_atom_site_type_symbol
_atom_site_label
_atom_site_fract_x
_atom_site_fract_y
_atom_site_fract_z
Si Si1 0.223451 0.613300 0.378018
Si Si2 0.114836 0.617865 0.662083
Si Si3 0.000000 0.268882 0.500000
Si Si4 0.274815 0.027079 0.969173
Si Si5 0.607978 0.974261 0.331265
Si Si6 0.554953 0.470795 0.349595
O O1 0.261255 0.404155 0.539374
O O2 0.237540 0.570595 0.227572
O O3 0.155527 0.548202 0.291193
O O4 0.140889 0.490718 0.552590
O O5 0.055838 0.458939 0.592068
O O6 0.097728 0.904261 0.567719
O O7 0.159336 0.605244 0.874249
O O8 0.998764 0.091791 0.650843
O O9 0.236453 0.228488 0.001567
O O10 0.557236 0.193360 0.266896
O O11 0.580339 0.688328 0.281494
#
# Coordination Sequence:
#
# PCOD9120891 Si02
#       6
#     4   4   2   4   4   4
#     4  12  24  41  63  90 128 180 222 256 324 402
#     4   9  21  37  62  92 128 162 214 270 315 376
#     4  10  18  36  62 100 118 168 212 276 316 382
#     4  12  27  42  64 100 135 168 216 277 325 382
#     4   9  19  34  56  84 119 162 204 258 308 383
#     4   9  19  32  59  88 119 152 213 255 315 366
#
# _framework density 21.360401
#
# number of rings (size 3 to 8) (size 9 to 14) (size 15 to 20)
#    1.091    0.727    0.000    4.909    7.636    0.000 
#    0.000    0.000    0.000    4.364    4.727    0.000 
#    0.000    0.000    0.000    0.000    0.000    0.000 
#
# Total GULP energy -61302.700887 kJ/mol
# GULP energy per Si atom -5572.972808 kJ/mol
# Density = 2.131178 g / cm^3
# Si number density = 21.360401 Si / 1000 Ang^3
#
#
#
# Elastic Constant Matrix: (Units=GPa)
#
#
# Indices 1 2 3 4 5 6 
#
# 1 77.7758 8.1169 1.9242 0.0000 -6.7006 0.0000
# 2 8.1169 93.2156 -14.1570 0.0000 8.2952 0.0000
# 3 1.9242 -14.1570 35.4331 0.0000 -11.5358 0.0000
# 4 0.0000 0.0000 0.0000 12.5302 0.0000 1.0507
# 5 -6.7006 8.2952 -11.5358 0.0000 19.6040 0.0000
# 6 0.0000 0.0000 0.0000 1.0507 0.0000 20.9001
#
#
#
# Elastic Compliance Matrix: (Units=1/GPa)
#
#
# Indices 1 2 3 4 5 6 
#
# 1 0.013492 -0.001603 0.000432 0.000000 0.005544 0.000000
# 2 -0.001603 0.011724 0.003684 0.000000 -0.003341 0.000000
# 3 0.000432 0.003684 0.036133 0.000000 0.019851 0.000000
# 4 0.000000 0.000000 0.000000 0.080145 0.000000 -0.004029
# 5 0.005544 -0.003341 0.019851 0.000000 0.066000 0.000000
# 6 0.000000 0.000000 0.000000 -0.004029 0.000000 0.048049
#
#
# Mechanical properties :
#
#
# Convention : Reuss Voigt Hill
#
# Bulk Modulus (GPa) = 15.06593 22.02141 18.54367
# Shear Modulus (GPa) = 18.33902 24.64288 21.49095
#
# Velocity S-wave (km/s) = 2.93329 3.40026 3.17537
# Velocity P-wave (km/s) = 4.30590 5.07420 4.70575
#
# Compressibility (1/GPa) = 0.06637491
#
# Stress axis : x y z
#
# Youngs Moduli (GPa) = 74.12011 85.29425 27.67522
#
# Poissons Ratio (x) = 0.13669 -0.01195
# Poissons Ratio (y) = 0.11878 -0.10194
# Poissons Ratio (z) = -0.03201 -0.31419
#
# Static dielectric constant tensor:
#      x y z
#    x 1.971760 0.000000 -0.078240 
#    y 0.000000 1.807180 0.000000 
#    z -0.078240 0.000000 1.805320 
# 
# From -- ./inp_files/32009.got.cif
#   From: 2010.05.17/outbox.cif.g08.bks.cpg/sg5_17_cif.got.tgz:32009.got - 2010.06.03 18:56:24.
