data_PCOD9120965
_publ_section_title
;
Structure prediction by ZEFSAII (Michael W. Deem and Ramdas Pophale) SiO2 
 PCOD9120965
Probable space group: C 2
;
_chemical_formula_sum "Si O2"
_cell_formula_units_Z 26
_cell_length_a 20.173180
_cell_length_b 7.405060
_cell_length_c 15.025450
_cell_angle_alpha 90.000000
_cell_angle_beta 148.473200
_cell_angle_gamma 90.000000
_cell_volume 1173.672303
_symmetry_space_group_name_H-M "C 2"
_symmetry_group_IT_number 5
_symmetry_cell_setting 'monoclinic'
loop_
_space_group_symop_operation_xyz
x,y,z
-x,y,-z
1/2+x,1/2+y,z
1/2-x,1/2+y,-z
loop_
_atom_site_type_symbol
_atom_site_label
_atom_site_fract_x
_atom_site_fract_y
_atom_site_fract_z
Si Si1 0.494613 0.853640 0.691102
Si Si2 0.682793 0.382518 0.556350
Si Si3 0.554181 0.528810 0.894887
Si Si4 0.728010 0.213529 0.778193
Si Si5 0.773518 0.020304 0.571967
Si Si6 0.500000 0.929907 0.500000
Si Si7 0.098754 0.750445 0.811959
O O1 0.532341 0.689378 0.797625
O O2 0.348658 0.907635 0.540224
O O3 0.511618 0.819819 0.604869
O O4 0.571080 0.039906 0.798533
O O5 0.716651 0.381005 0.698202
O O6 0.724271 0.532548 0.533485
O O7 0.534129 0.337632 0.374531
O O8 0.754728 0.209250 0.598570
O O9 0.414557 0.453898 0.757817
O O10 0.631533 0.368078 0.935558
O O11 0.636314 0.616741 0.066574
O O12 0.695990 0.265573 0.842635
O O13 0.620297 0.065827 0.629356
#
# Coordination Sequence:
#
# PCOD9120965 Si02
#       7
#     4   4   4   4   4   2   4
#     4  10  20  42  62  85 123 164 202 255 307 368
#     4  10  18  37  62  82 119 160 201 251 308 365
#     4  11  24  36  65  95 117 165 208 250 309 368
#     4  11  20  38  62  90 123 160 203 259 309 362
#     4  10  19  37  58  88 114 159 206 244 305 369
#     4  10  20  40  60  84 124 164 196 254 314 364
#     4   9  21  39  61  86 121 162 203 249 309 368
#
# _framework density 22.152691000000001
#
# number of rings (size 3 to 8) (size 9 to 14) (size 15 to 20)
#    0.000    1.846    6.154    0.000    4.308    0.615 
#    5.538    0.000    3.385    0.000    0.000    0.000 
#    0.000    0.000    0.000    0.000    0.000    0.000 
#
# Total GULP energy -72557.356490 kJ/mol
# GULP energy per Si atom -5581.335115 kJ/mol
# Density = 2.210227 g / cm^3
# Si number density = 22.152691 Si / 1000 Ang^3
#
#
#
# Elastic Constant Matrix: (Units=GPa)
#
#
# Indices 1 2 3 4 5 6 
#
# 1 75.1620 9.3821 17.2935 0.0000 17.4443 0.0000
# 2 9.3821 62.2298 -2.5195 0.0000 -5.1405 0.0000
# 3 17.2935 -2.5195 76.0454 0.0000 5.3661 0.0000
# 4 0.0000 0.0000 0.0000 23.7520 0.0000 -9.8086
# 5 17.4443 -5.1405 5.3661 0.0000 17.5126 0.0000
# 6 0.0000 0.0000 0.0000 -9.8086 0.0000 28.8739
#
#
#
# Elastic Compliance Matrix: (Units=1/GPa)
#
#
# Indices 1 2 3 4 5 6 
#
# 1 0.019110 -0.004613 -0.003127 0.000000 -0.019431 0.000000
# 2 -0.004613 0.017586 0.000964 0.000000 0.009461 0.000000
# 3 -0.003127 0.000964 0.013955 0.000000 -0.000878 0.000000
# 4 0.000000 0.000000 0.000000 0.048972 0.000000 0.016636
# 5 -0.019431 0.009461 -0.000878 0.000000 0.079503 0.000000
# 6 0.000000 0.000000 0.000000 0.016636 0.000000 0.040285
#
#
# Mechanical properties :
#
#
# Convention : Reuss Voigt Hill
#
# Bulk Modulus (GPa) = 26.95578 29.08329 28.01953
# Shear Modulus (GPa) = 20.38086 26.64643 23.51364
#
# Velocity S-wave (km/s) = 3.03647 3.47198 3.26150
# Velocity P-wave (km/s) = 4.94855 5.40647 5.18257
#
# Compressibility (1/GPa) = 0.03709779
#
# Stress axis : x y z
#
# Youngs Moduli (GPa) = 52.32958 56.86498 71.65820
#
# Poissons Ratio (x) = 0.26231 0.22411
# Poissons Ratio (y) = 0.24139 -0.06908
# Poissons Ratio (z) = 0.16366 -0.05482
#
# Static dielectric constant tensor:
#      x y z
#    x 1.857890 0.000000 -0.004020 
#    y 0.000000 1.848230 0.000000 
#    z -0.004020 0.000000 1.846140 
# 
# From -- ./inp_files/41816.got.cif
#   From: 2010.05.17/outbox.cif.g08.bks.cpg/sg5_21_cif.got.tgz:41816.got - 2010.06.03 18:56:24.
