data_PCOD9120499
_publ_section_title
;
Structure prediction by ZEFSAII (Michael W. Deem and Ramdas Pophale) SiO2 
 PCOD9120499
Probable space group: C 2
;
_chemical_formula_sum "Si O2"
_cell_formula_units_Z 24
_cell_length_a 19.604839
_cell_length_b 11.871340
_cell_length_c 18.166148
_cell_angle_alpha 90.000000
_cell_angle_beta 164.154310
_cell_angle_gamma 90.000000
_cell_volume 1154.420506
_symmetry_space_group_name_H-M "C 2"
_symmetry_group_IT_number 5
_symmetry_cell_setting 'monoclinic'
loop_
_space_group_symop_operation_xyz
x,y,z
-x,y,-z
1/2+x,1/2+y,z
1/2-x,1/2+y,-z
loop_
_atom_site_type_symbol
_atom_site_label
_atom_site_fract_x
_atom_site_fract_y
_atom_site_fract_z
Si Si1 0.946780 0.188100 0.361808
Si Si2 0.417233 0.217253 0.752415
Si Si3 0.146352 0.889360 0.080730
Si Si4 0.815722 0.713985 0.474877
Si Si5 0.782918 0.143516 0.865846
Si Si6 0.741072 0.362345 0.714993
O O1 0.000000 0.149781 0.500000
O O2 0.178707 0.169839 0.548720
O O3 0.675265 0.155603 0.046084
O O4 0.897366 0.322867 0.320649
O O5 0.465541 0.347651 0.827265
O O6 0.375366 0.216651 0.622324
O O7 0.201238 0.019045 0.149742
O O8 0.000000 0.842327 0.000000
O O9 0.798287 0.831808 0.411014
O O10 0.042965 0.652125 0.669138
O O11 0.542517 0.662089 0.178028
O O12 0.763352 0.243164 0.784783
O O13 0.500000 0.416758 0.500000
O O14 0.000000 0.423020 0.000000
#
# Coordination Sequence:
#
# PCOD9120499 Si02
#       6
#     4   4   4   4   4   4
#     4  10  18  32  46  69  96 130 167 201 234 295
#     4  10  20  31  47  67 102 137 165 200 246 292
#     4  10  20  31  51  74 102 132 166 198 248 299
#     4  10  19  32  44  68 101 135 163 199 241 295
#     4  10  20  30  49  71 100 132 165 198 243 301
#     4   8  15  27  41  62  88 120 155 187 224 281
#
# _framework density 20.789650999999999
#
# number of rings (size 3 to 8) (size 9 to 14) (size 15 to 20)
#    1.000    1.333    1.667    3.000    2.333    2.000 
#    0.000    0.000    0.000    0.000    0.000    0.000 
#    0.000   52.000    0.000    0.000    0.000    0.000 
#
# Total GULP energy -66817.010913 kJ/mol
# GULP energy per Si atom -5568.084243 kJ/mol
# Density = 2.074233 g / cm^3
# Si number density = 20.789651 Si / 1000 Ang^3
#
#
#
# Elastic Constant Matrix: (Units=GPa)
#
#
# Indices 1 2 3 4 5 6 
#
# 1 150.7633 -0.0267 94.4200 -0.0737 -3.5863 0.0465
# 2 -0.0267 45.8128 4.3124 -0.0225 -0.0179 0.0665
# 3 94.4200 4.3124 177.8991 -0.0196 12.5000 0.0517
# 4 -0.0737 -0.0225 -0.0196 3.0447 -0.0569 1.2475
# 5 -3.5863 -0.0179 12.5000 -0.0569 54.9481 0.0301
# 6 0.0465 0.0665 0.0517 1.2475 0.0301 1.6314
#
#
#
# Elastic Compliance Matrix: (Units=1/GPa)
#
#
# Indices 1 2 3 4 5 6 
#
# 1 0.010143 0.000528 -0.005531 0.000466 0.001921 -0.000527
# 2 0.000528 0.021909 -0.000827 0.000782 0.000231 -0.001484
# 3 -0.005531 -0.000827 0.008742 -0.000161 -0.002350 0.000081
# 4 0.000466 0.000782 -0.000161 0.478372 0.000763 -0.365847
# 5 0.001921 0.000231 -0.002350 0.000763 0.018860 -0.000921
# 6 -0.000527 -0.001484 0.000081 -0.365847 -0.000921 0.892794
#
#
# Mechanical properties :
#
#
# Convention : Reuss Voigt Hill
#
# Bulk Modulus (GPa) = 34.32435 63.54295 48.93365
# Shear Modulus (GPa) = 3.44307 30.30947 16.87627
#
# Velocity S-wave (km/s) = 1.28831 3.82240 2.85224
# Velocity P-wave (km/s) = 4.33118 7.07899 5.86819
#
# Compressibility (1/GPa) = 0.02913384
#
# Stress axis : x y z
#
# Youngs Moduli (GPa) = 98.58944 45.64382 114.39151
#
# Poissons Ratio (x) = -0.02411 0.63270
# Poissons Ratio (y) = -0.05209 0.09463
# Poissons Ratio (z) = 0.54530 0.03776
#
# Static dielectric constant tensor:
#      x y z
#    x 1.878770 0.000080 0.077920 
#    y 0.000080 1.763790 0.000010 
#    z 0.077920 0.000010 1.824870 
# 
# From -- ./inp_files/8473.got.cif
#   From: 2010.05.17/outbox.cif.g08.bks.cpg/sg5_5_cif.got.tgz:8473.got - 2010.06.03 18:56:24.
