data_PCOD9120342
_publ_section_title
;
Structure prediction by ZEFSAII (Michael W. Deem and Ramdas Pophale) SiO2 
 PCOD9120342
Probable space group: C 2
;
_chemical_formula_sum "Si O2"
_cell_formula_units_Z 28
_cell_length_a 14.312335
_cell_length_b 13.612920
_cell_length_c 7.124601
_cell_angle_alpha 90.000000
_cell_angle_beta 57.536888
_cell_angle_gamma 90.000000
_cell_volume 1171.195855
_symmetry_space_group_name_H-M "C 2"
_symmetry_group_IT_number 5
_symmetry_cell_setting 'monoclinic'
loop_
_space_group_symop_operation_xyz
x,y,z
-x,y,-z
1/2+x,1/2+y,z
1/2-x,1/2+y,-z
loop_
_atom_site_type_symbol
_atom_site_label
_atom_site_fract_x
_atom_site_fract_y
_atom_site_fract_z
Si Si1 0.614847 0.938900 0.262042
Si Si2 0.724472 0.978222 0.530505
Si Si3 0.397304 0.175041 0.368643
Si Si4 0.944353 0.085715 0.239754
Si Si5 0.820854 0.270990 0.413650
Si Si6 0.863788 0.650392 0.854306
Si Si7 0.124756 0.224216 0.224172
O O1 0.500000 0.952920 0.500000
O O2 0.708722 0.950156 0.324643
O O3 0.606955 0.834734 0.166180
O O4 0.632377 0.033700 0.116418
O O5 0.677181 0.879029 0.671546
O O6 0.646439 0.070524 0.657484
O O7 0.850119 0.015907 0.431718
O O8 0.308214 0.254231 0.404811
O O9 0.378703 0.166341 0.614192
O O10 0.523564 0.194813 0.185786
O O11 0.872680 0.180717 0.241677
O O12 0.044569 0.135118 0.249393
O O13 0.000000 0.036057 0.000000
O O14 0.880808 0.251486 0.547999
O O15 0.749523 0.693449 0.045348
#
# Coordination Sequence:
#
# PCOD9120342 Si02
#       7
#     4   4   4   4   4   4   4
#     4  10  17  36  65  84 109 159 209 230 281 371
#     4   9  18  36  60  87 111 157 201 233 288 363
#     4   9  18  37  63  81 113 163 197 241 284 361
#     4  11  22  39  63  87 120 157 202 240 294 363
#     4  10  21  38  62  86 122 151 201 247 300 344
#     4  10  19  37  62  85 116 152 207 238 289 355
#     4  11  22  35  59  96 118 151 193 259 299 344
#
# _framework density 23.90719
#
# number of rings (size 3 to 8) (size 9 to 14) (size 15 to 20)
#    0.000    2.000    2.857    4.714    0.000    0.571 
#    7.714    5.714    6.286    1.714    0.000    0.000 
#    0.000    0.000    0.000    0.000    0.000    0.000 
#
# Total GULP energy -78122.520920 kJ/mol
# GULP energy per Si atom -5580.180066 kJ/mol
# Density = 2.385278 g / cm^3
# Si number density = 23.907190 Si / 1000 Ang^3
#
#
#
# Elastic Constant Matrix: (Units=GPa)
#
#
# Indices 1 2 3 4 5 6 
#
# 1 115.1443 9.6290 28.8577 0.0000 -19.5189 0.0000
# 2 9.6290 61.8487 16.1699 0.0000 -6.1064 0.0000
# 3 28.8577 16.1699 81.2019 0.0000 -18.4581 0.0000
# 4 0.0000 0.0000 0.0000 22.8929 0.0000 -6.9197
# 5 -19.5189 -6.1064 -18.4581 0.0000 47.0918 0.0000
# 6 0.0000 0.0000 0.0000 -6.9197 0.0000 32.4518
#
#
#
# Elastic Compliance Matrix: (Units=1/GPa)
#
#
# Indices 1 2 3 4 5 6 
#
# 1 0.009920 -0.000534 -0.002745 0.000000 0.002967 0.000000
# 2 -0.000534 0.017125 -0.003037 0.000000 0.000809 0.000000
# 3 -0.002745 -0.003037 0.014872 0.000000 0.004298 0.000000
# 4 0.000000 0.000000 0.000000 0.046691 0.000000 0.009956
# 5 0.002967 0.000809 0.004298 0.000000 0.024254 0.000000
# 6 0.000000 0.000000 0.000000 0.009956 0.000000 0.032938
#
#
# Mechanical properties :
#
#
# Convention : Reuss Voigt Hill
#
# Bulk Modulus (GPa) = 34.14467 40.83423 37.48945
# Shear Modulus (GPa) = 29.72764 34.05652 31.89208
#
# Velocity S-wave (km/s) = 3.53010 3.77839 3.65635
# Velocity P-wave (km/s) = 5.56135 6.01268 5.79142
#
# Compressibility (1/GPa) = 0.02928715
#
# Stress axis : x y z
#
# Youngs Moduli (GPa) = 100.80425 58.39288 67.24034
#
# Poissons Ratio (x) = 0.03118 0.18456
# Poissons Ratio (y) = 0.05382 0.20418
# Poissons Ratio (z) = 0.27668 0.17731
#
# Static dielectric constant tensor:
#      x y z
#    x 2.033270 0.000000 0.077390 
#    y 0.000000 1.961330 0.000000 
#    z 0.077390 0.000000 1.957260 
# 
# From -- ./inp_files/24577.got.cif
#   From: 2010.05.17/outbox.cif.g08.bks.cpg/sg5_13_cif.got.tgz:24577.got - 2010.06.03 18:56:24.
