data_PCOD9120969
_publ_section_title
;
Structure prediction by ZEFSAII (Michael W. Deem and Ramdas Pophale) SiO2 
 PCOD9120969
Probable space group: C 2
;
_chemical_formula_sum "Si O2"
_cell_formula_units_Z 26
_cell_length_a 9.312341
_cell_length_b 15.727620
_cell_length_c 14.262766
_cell_angle_alpha 90.000000
_cell_angle_beta 40.150844
_cell_angle_gamma 90.000000
_cell_volume 1346.952006
_symmetry_space_group_name_H-M "C 2"
_symmetry_group_IT_number 5
_symmetry_cell_setting 'monoclinic'
loop_
_space_group_symop_operation_xyz
x,y,z
-x,y,-z
1/2+x,1/2+y,z
1/2-x,1/2+y,-z
loop_
_atom_site_type_symbol
_atom_site_label
_atom_site_fract_x
_atom_site_fract_y
_atom_site_fract_z
Si Si1 0.690725 0.354050 0.478274
Si Si2 0.839669 0.583523 0.170996
Si Si3 0.426576 0.748675 0.642780
Si Si4 0.000040 0.521694 0.707831
Si Si5 0.500000 0.047872 0.500000
Si Si6 0.477517 0.454246 0.278115
Si Si7 0.114690 0.897790 0.855976
O O1 0.500000 0.338223 0.500000
O O2 0.823257 0.442643 0.390116
O O3 0.571111 0.371855 0.636257
O O4 0.859636 0.276484 0.403808
O O5 0.709854 0.671977 0.245923
O O6 0.953733 0.565758 0.215570
O O7 0.649325 0.513128 0.246701
O O8 0.000000 0.583545 0.000000
O O9 0.500000 0.729415 0.500000
O O10 0.276657 0.833312 0.721717
O O11 0.011142 0.578262 0.605291
O O12 0.761713 0.474525 0.824192
O O13 0.734885 0.997168 0.381957
O O14 0.558951 0.431261 0.133841
O O15 0.000000 0.852462 0.000000
#
# Coordination Sequence:
#
# PCOD9120969 Si02
#       7
#     4   4   4   4   2   4   4
#     4  10  18  37  62  90 114 151 209 261 297 349
#     4  12  25  39  59  96 132 164 197 251 321 374
#     4  11  24  39  59  87 123 165 204 251 304 367
#     4   9  19  34  61  91 121 153 204 258 300 357
#     4   8  18  32  56  92 116 150 200 254 300 336
#     4  10  19  36  62  93 122 151 209 260 299 358
#     4  10  19  38  63  86 119 165 203 248 305 372
#
# _framework density 19.302841000000001
#
# number of rings (size 3 to 8) (size 9 to 14) (size 15 to 20)
#    0.000    1.846    3.077    2.308    6.462    0.000 
#    1.385    0.000    0.000    0.000    0.000    0.000 
#    0.000    0.000    0.000    0.000    0.000    0.000 
#
# Total GULP energy -72378.824413 kJ/mol
# GULP energy per Si atom -5567.601878 kJ/mol
# Density = 1.925891 g / cm^3
# Si number density = 19.302841 Si / 1000 Ang^3
#
#
#
# Elastic Constant Matrix: (Units=GPa)
#
#
# Indices 1 2 3 4 5 6 
#
# 1 169.0763 33.7607 42.2221 -0.0004 20.3744 0.0017
# 2 33.7607 51.1040 17.0581 0.0003 2.3980 0.0024
# 3 42.2221 17.0581 84.1237 -0.0001 24.1562 0.0016
# 4 -0.0004 0.0003 -0.0001 16.4193 0.0002 -7.9780
# 5 20.3744 2.3980 24.1562 0.0002 32.8861 -0.0002
# 6 0.0017 0.0024 0.0016 -7.9780 -0.0002 8.8658
#
#
#
# Elastic Compliance Matrix: (Units=1/GPa)
#
#
# Indices 1 2 3 4 5 6 
#
# 1 0.007633 -0.004186 -0.002170 0.000001 -0.002830 0.000001
# 2 -0.004186 0.023390 -0.003671 -0.000005 0.003584 -0.000010
# 3 -0.002170 -0.003671 0.016802 -0.000001 -0.010730 -0.000003
# 4 0.000001 -0.000005 -0.000001 0.108223 0.000001 0.097386
# 5 -0.002830 0.003584 -0.010730 0.000001 0.039781 0.000004
# 6 0.000001 -0.000010 -0.000003 0.097386 0.000004 0.200427
#
#
# Mechanical properties :
#
#
# Convention : Reuss Voigt Hill
#
# Bulk Modulus (GPa) = 36.00787 54.48732 45.24759
# Shear Modulus (GPa) = 11.74903 25.71846 18.73375
#
# Velocity S-wave (km/s) = 2.46980 3.65412 3.11869
# Velocity P-wave (km/s) = 5.17956 6.78914 6.03822
#
# Compressibility (1/GPa) = 0.02777171
#
# Stress axis : x y z
#
# Youngs Moduli (GPa) = 131.00800 42.75266 59.51768
#
# Poissons Ratio (x) = 0.17895 0.12914
# Poissons Ratio (y) = 0.54835 0.21852
# Poissons Ratio (z) = 0.28425 0.15696
#
# Static dielectric constant tensor:
#      x y z
#    x 1.720910 0.000000 0.029850 
#    y 0.000000 1.661580 0.000000 
#    z 0.029850 0.000000 1.725780 
# 
# From -- ./inp_files/15788.got.cif
#   From: 2010.05.17/outbox.cif.g08.bks.cpg/sg5_8_cif.got.tgz:15788.got - 2010.06.03 18:56:24.
