data_PCOD9120028
_publ_section_title
;
Structure prediction by ZEFSAII (Michael W. Deem and Ramdas Pophale) SiO2 
 PCOD9120028
Probable space group: C 2
;
_chemical_formula_sum "Si O2"
_cell_formula_units_Z 30
_cell_length_a 12.812008
_cell_length_b 8.512680
_cell_length_c 10.953204
_cell_angle_alpha 90.000000
_cell_angle_beta 73.189358
_cell_angle_gamma 90.000000
_cell_volume 1143.555449
_symmetry_space_group_name_H-M "C 2"
_symmetry_group_IT_number 5
_symmetry_cell_setting 'monoclinic'
loop_
_space_group_symop_operation_xyz
x,y,z
-x,y,-z
1/2+x,1/2+y,z
1/2-x,1/2+y,-z
loop_
_atom_site_type_symbol
_atom_site_label
_atom_site_fract_x
_atom_site_fract_y
_atom_site_fract_z
Si Si1 0.126267 0.876100 0.671549
Si Si2 0.773417 0.089745 0.190857
Si Si3 0.000000 0.576756 0.500000
Si Si4 0.847016 0.760600 0.958940
Si Si5 0.896141 0.021177 0.768768
Si Si6 0.202666 0.819233 0.400323
Si Si7 0.916238 0.606802 0.170538
Si Si8 0.449529 0.885715 0.752077
O O1 0.210559 0.895570 0.531458
O O2 0.130547 0.690622 0.694748
O O3 0.008692 0.943484 0.679369
O O4 0.144205 0.954634 0.799031
O O5 0.757123 0.208953 0.085964
O O6 0.785039 0.198295 0.308637
O O7 0.663120 0.985799 0.207215
O O8 0.900825 0.698752 0.556439
O O9 0.004458 0.456016 0.611779
O O10 0.863682 0.942072 0.910636
O O11 0.967319 0.698526 0.879680
O O12 0.840121 0.661624 0.086277
O O13 0.813310 0.955588 0.694614
O O14 0.917243 0.205225 0.764495
O O15 0.963531 0.433352 0.172088
#
# Coordination Sequence:
#
# PCOD9120028 Si02
#       8
#     4   4   2   4   4   4   4   4
#     4  11  19  35  55  83 107 150 189 228 281 348
#     4   9  21  36  53  76 116 146 187 224 294 336
#     4  10  16  32  56  76 112 146 186 218 282 332
#     4   8  17  38  59  77 107 155 184 230 286 336
#     4  10  20  34  60  85 110 142 199 236 273 338
#     4  10  18  36  54  76 113 159 179 227 279 348
#     4   9  17  36  62  77 107 151 194 224 281 340
#     4  10  20  34  55  89 108 145 188 243 275 338
#
# _framework density 26.233968000000001
#
# number of rings (size 3 to 8) (size 9 to 14) (size 15 to 20)
#    0.000    2.400    2.667    1.600    1.867    1.067 
#    2.400   16.000    0.000    0.000    0.000    0.000 
#    0.000    0.000    0.000    0.000    0.000    0.000 
#
# Total GULP energy -83530.657558 kJ/mol
# GULP energy per Si atom -5568.710504 kJ/mol
# Density = 2.617426 g / cm^3
# Si number density = 26.233968 Si / 1000 Ang^3
#
#
#
# Elastic Constant Matrix: (Units=GPa)
#
#
# Indices 1 2 3 4 5 6 
#
# 1 43.3143 27.3344 1.8029 0.0000 6.9903 0.0000
# 2 27.3344 187.9429 48.5005 0.0000 9.6054 0.0000
# 3 1.8029 48.5005 89.8515 0.0000 23.3295 0.0000
# 4 0.0000 0.0000 0.0000 30.7565 0.0000 -1.6792
# 5 6.9903 9.6054 23.3295 0.0000 27.7399 0.0000
# 6 0.0000 0.0000 0.0000 -1.6792 0.0000 40.4973
#
#
#
# Elastic Compliance Matrix: (Units=1/GPa)
#
#
# Indices 1 2 3 4 5 6 
#
# 1 0.027240 -0.004602 0.004230 0.000000 -0.008828 0.000000
# 2 -0.004602 0.006975 -0.004282 0.000000 0.002345 0.000000
# 3 0.004230 -0.004282 0.016949 0.000000 -0.013837 0.000000
# 4 0.000000 0.000000 0.000000 0.032587 0.000000 0.001351
# 5 -0.008828 0.002345 -0.013837 0.000000 0.049099 0.000000
# 6 0.000000 0.000000 0.000000 0.001351 0.000000 0.024749
#
#
# Mechanical properties :
#
#
# Convention : Reuss Voigt Hill
#
# Bulk Modulus (GPa) = 23.89175 52.93160 38.41167
# Shear Modulus (GPa) = 27.64588 36.03014 31.83801
#
# Velocity S-wave (km/s) = 3.24978 3.70998 3.48748
# Velocity P-wave (km/s) = 4.81751 6.21068 5.55792
#
# Compressibility (1/GPa) = 0.04185546
#
# Stress axis : x y z
#
# Youngs Moduli (GPa) = 36.71074 143.36569 59.00212
#
# Poissons Ratio (x) = 0.65979 -0.24956
# Poissons Ratio (y) = 0.16895 0.25263
# Poissons Ratio (z) = -0.15528 0.61385
#
# Static dielectric constant tensor:
#      x y z
#    x 2.094860 0.000000 -0.006060 
#    y 0.000000 2.087290 0.000000 
#    z -0.006060 0.000000 2.281820 
# 
# From -- ./inp_files/41759.got.cif
#   From: 2010.05.17/outbox.cif.g08.bks.cpg/sg5_21_cif.got.tgz:41759.got - 2010.06.03 18:56:24.
