data_PCOD9120619
_publ_section_title
;
Structure prediction by ZEFSAII (Michael W. Deem and Ramdas Pophale) SiO2 
 PCOD9120619
Probable space group: C 2
;
_chemical_formula_sum "Si O2"
_cell_formula_units_Z 32
_cell_length_a 8.757181
_cell_length_b 19.205792
_cell_length_c 15.105372
_cell_angle_alpha 90.000000
_cell_angle_beta 142.184853
_cell_angle_gamma 90.000000
_cell_volume 1557.652464
_symmetry_space_group_name_H-M "C 2"
_symmetry_group_IT_number 5
_symmetry_cell_setting 'monoclinic'
loop_
_space_group_symop_operation_xyz
x,y,z
-x,y,-z
1/2+x,1/2+y,z
1/2-x,1/2+y,-z
loop_
_atom_site_type_symbol
_atom_site_label
_atom_site_fract_x
_atom_site_fract_y
_atom_site_fract_z
Si Si1 0.389326 0.699790 0.350531
Si Si2 0.075844 0.903146 0.345064
Si Si3 0.626120 0.541868 0.654655
Si Si4 0.144062 0.479598 0.899378
Si Si5 0.562461 0.274680 0.928909
Si Si6 0.762062 0.306669 0.585449
Si Si7 0.071661 0.342417 0.146103
Si Si8 0.140875 0.931966 0.181956
O O1 0.500000 0.706694 0.500000
O O2 0.425589 0.620121 0.338088
O O3 0.549434 0.749593 0.361787
O O4 0.106333 0.728015 0.213365
O O5 0.222683 0.862335 0.488951
O O6 0.213795 0.922811 0.317407
O O7 0.837161 0.850937 0.218308
O O8 0.976637 0.976131 0.338137
O O9 0.500000 0.535178 0.500000
O O10 0.926257 0.535267 0.794768
O O11 0.176175 0.453351 0.812743
O O12 0.051833 0.417438 0.920488
O O13 0.419198 0.488791 0.065844
O O14 0.458056 0.354036 0.884148
O O15 0.500000 0.247611 0.000000
O O16 0.856126 0.283938 0.038341
O O17 0.500000 0.276143 0.500000
O O18 0.859015 0.340880 0.719031
#
# Coordination Sequence:
#
# PCOD9120619 Si02
#       8
#     4   4   4   4   4   4   4   4
#     4  11  23  39  59  84 117 162 211 249 296 371
#     4  10  20  34  60  92 117 151 200 253 301 359
#     4  10  22  40  56  79 120 161 194 244 310 365
#     4   9  17  34  56  77 114 151 182 241 304 347
#     4  11  18  34  59  84 118 155 195 243 307 352
#     4  10  19  35  58  86 118 155 197 249 303 355
#     4   9  17  32  55  85 115 149 190 240 301 345
#     4  10  18  33  58  89 113 143 195 253 300 353
#
# _framework density 20.543735000000002
#
# number of rings (size 3 to 8) (size 9 to 14) (size 15 to 20)
#    0.000    2.000    3.750    2.625    0.000    4.500 
#    2.250    5.625    0.000   12.000    0.000    0.000 
#    0.000    0.000    0.000    0.000    0.000    0.000 
#
# Total GULP energy -89107.905326 kJ/mol
# GULP energy per Si atom -5569.244083 kJ/mol
# Density = 2.049698 g / cm^3
# Si number density = 20.543735 Si / 1000 Ang^3
#
#
#
# Elastic Constant Matrix: (Units=GPa)
#
#
# Indices 1 2 3 4 5 6 
#
# 1 64.5997 20.9768 26.2183 0.0003 -15.1586 -0.0001
# 2 20.9768 57.8412 21.9478 0.0001 2.1526 0.0000
# 3 26.2183 21.9478 100.4776 0.0013 -7.5740 0.0000
# 4 0.0003 0.0001 0.0013 16.2570 0.0005 4.2851
# 5 -15.1586 2.1526 -7.5740 0.0005 36.2894 0.0000
# 6 -0.0001 0.0000 0.0000 4.2851 0.0000 8.5299
#
#
#
# Elastic Compliance Matrix: (Units=1/GPa)
#
#
# Indices 1 2 3 4 5 6 
#
# 1 0.020998 -0.006643 -0.003390 0.000000 0.008458 0.000000
# 2 -0.006643 0.021098 -0.003229 0.000001 -0.004701 0.000000
# 3 -0.003390 -0.003229 0.011633 -0.000001 0.001203 0.000000
# 4 0.000000 0.000001 -0.000001 0.070900 -0.000001 -0.035617
# 5 0.008458 -0.004701 0.001203 -0.000001 0.031619 0.000001
# 6 0.000000 0.000000 0.000000 -0.035617 0.000001 0.135128
#
#
# Mechanical properties :
#
#
# Convention : Reuss Voigt Hill
#
# Bulk Modulus (GPa) = 36.76069 40.13380 38.44724
# Shear Modulus (GPa) = 15.29192 22.46698 18.87945
#
# Velocity S-wave (km/s) = 2.73125 3.31058 3.03477
# Velocity P-wave (km/s) = 5.28006 5.84734 5.57093
#
# Compressibility (1/GPa) = 0.02720297
#
# Stress axis : x y z
#
# Youngs Moduli (GPa) = 47.62405 47.39707 85.96026
#
# Poissons Ratio (x) = 0.31488 0.29144
# Poissons Ratio (y) = 0.31638 0.27760
# Poissons Ratio (z) = 0.16147 0.15307
#
# Static dielectric constant tensor:
#      x y z
#    x 1.793180 0.000000 0.038610 
#    y 0.000000 1.677500 0.000000 
#    z 0.038610 0.000000 1.859470 
# 
# From -- ./inp_files/51584.got.cif
#   From: 2010.05.17/outbox.cif.g08.bks.cpg/sg5_26_cif.got.tgz:51584.got - 2010.06.03 18:56:24.
