data_PCOD9120604
_publ_section_title
;
Structure prediction by ZEFSAII (Michael W. Deem and Ramdas Pophale) SiO2 
 PCOD9120604
Probable space group: C 2
;
_chemical_formula_sum "Si O2"
_cell_formula_units_Z 32
_cell_length_a 17.690081
_cell_length_b 16.603742
_cell_length_c 13.509867
_cell_angle_alpha 90.000000
_cell_angle_beta 154.737024
_cell_angle_gamma 90.000000
_cell_volume 1693.496805
_symmetry_space_group_name_H-M "C 2"
_symmetry_group_IT_number 5
_symmetry_cell_setting 'monoclinic'
loop_
_space_group_symop_operation_xyz
x,y,z
-x,y,-z
1/2+x,1/2+y,z
1/2-x,1/2+y,-z
loop_
_atom_site_type_symbol
_atom_site_label
_atom_site_fract_x
_atom_site_fract_y
_atom_site_fract_z
Si Si1 0.480148 0.815880 0.090794
Si Si2 0.854273 0.556324 0.403267
Si Si3 0.402823 0.639386 0.052217
Si Si4 0.975943 0.565852 0.076303
Si Si5 0.927150 0.679381 0.205396
Si Si6 0.195572 0.924728 0.714190
Si Si7 0.869387 0.846482 0.575303
Si Si8 0.190538 0.006990 0.411374
O O1 0.664527 0.830671 0.365098
O O2 0.500000 0.844106 0.000000
O O3 0.459098 0.721073 0.066598
O O4 0.299506 0.861066 0.909037
O O5 0.699257 0.585753 0.148773
O O6 0.945108 0.634240 0.563570
O O7 0.776302 0.506630 0.403205
O O8 0.000000 0.519684 0.500000
O O9 0.266944 0.668580 0.976463
O O10 0.568473 0.585619 0.280644
O O11 0.931109 0.626797 0.110587
O O12 0.148310 0.517427 0.320032
O O13 0.000000 0.609491 0.000000
O O14 0.827134 0.499813 0.875778
O O15 0.006456 0.767961 0.277163
O O16 0.152970 0.874434 0.564457
O O17 0.000000 0.957887 0.500000
O O18 0.920146 0.926460 0.696092
#
# Coordination Sequence:
#
# PCOD9120604 Si02
#       8
#     4   4   4   4   4   4   4   4
#     4  10  18  33  57  84 118 155 195 245 326 373
#     4   9  19  38  60  89 122 158 208 265 318 380
#     4  11  21  37  60  93 120 162 205 265 325 384
#     4  11  21  41  58  86 122 170 210 248 316 390
#     4  10  23  37  61  90 129 160 209 267 324 374
#     4  11  21  34  61  91 125 153 201 268 320 365
#     4  11  21  38  55  90 123 163 206 262 308 376
#     4  11  21  36  62  87 124 167 214 253 321 390
#
# _framework density 18.895814000000001
#
# number of rings (size 3 to 8) (size 9 to 14) (size 15 to 20)
#    0.000    1.500    2.500    5.250    1.750    1.000 
#    0.000    1.250    0.000    0.000    0.000    2.625 
#    0.000    0.000    0.000    0.000    0.000    0.000 
#
# Total GULP energy -89094.845259 kJ/mol
# GULP energy per Si atom -5568.427829 kJ/mol
# Density = 1.885281 g / cm^3
# Si number density = 18.895814 Si / 1000 Ang^3
#
#
#
# Elastic Constant Matrix: (Units=GPa)
#
#
# Indices 1 2 3 4 5 6 
#
# 1 77.2857 43.7601 35.0169 0.0000 -6.6947 0.0000
# 2 43.7601 84.9741 28.8192 0.0000 2.5089 0.0000
# 3 35.0169 28.8192 85.6789 0.0000 13.4407 0.0000
# 4 0.0000 0.0000 0.0000 18.0198 0.0000 -0.7585
# 5 -6.6947 2.5089 13.4407 0.0000 21.1848 0.0000
# 6 0.0000 0.0000 0.0000 -0.7585 0.0000 16.5872
#
#
#
# Elastic Compliance Matrix: (Units=1/GPa)
#
#
# Indices 1 2 3 4 5 6 
#
# 1 0.023455 -0.009591 -0.008552 0.000000 0.013974 0.000000
# 2 -0.009591 0.017243 -0.001204 0.000000 -0.004309 0.000000
# 3 -0.008552 -0.001204 0.017739 0.000000 -0.013814 0.000000
# 4 0.000000 0.000000 0.000000 0.055602 0.000000 0.002543
# 5 0.013974 -0.004309 -0.013814 0.000000 0.060894 0.000000
# 6 0.000000 0.000000 0.000000 0.002543 0.000000 0.060404
#
#
# Mechanical properties :
#
#
# Convention : Reuss Voigt Hill
#
# Bulk Modulus (GPa) = 50.65226 51.45901 51.05564
# Shear Modulus (GPa) = 17.81823 20.51451 19.16637
#
# Velocity S-wave (km/s) = 3.07412 3.29852 3.18829
# Velocity P-wave (km/s) = 6.28208 6.46522 6.37431
#
# Compressibility (1/GPa) = 0.01974245
#
# Stress axis : x y z
#
# Youngs Moduli (GPa) = 42.63541 57.99445 56.37341
#
# Poissons Ratio (x) = 0.55622 0.48211
# Poissons Ratio (y) = 0.40891 0.06788
# Poissons Ratio (z) = 0.36462 0.06984
#
# Static dielectric constant tensor:
#      x y z
#    x 1.731770 0.000000 0.078550 
#    y 0.000000 1.662930 0.000000 
#    z 0.078550 0.000000 1.710060 
# 
# From -- ./inp_files/43382.got.cif
#   From: 2010.05.17/outbox.cif.g08.bks.cpg/sg5_22_cif.got.tgz:43382.got - 2010.06.03 18:56:24.
