data_PCOD9120084
_publ_section_title
;
Structure prediction by ZEFSAII (Michael W. Deem and Ramdas Pophale) SiO2 
 PCOD9120084
Probable space group: C 2
;
_chemical_formula_sum "Si O2"
_cell_formula_units_Z 26
_cell_length_a 16.585032
_cell_length_b 18.133177
_cell_length_c 8.165891
_cell_angle_alpha 90.000000
_cell_angle_beta 147.634356
_cell_angle_gamma 90.000000
_cell_volume 1314.642299
_symmetry_space_group_name_H-M "C 2"
_symmetry_group_IT_number 5
_symmetry_cell_setting 'monoclinic'
loop_
_space_group_symop_operation_xyz
x,y,z
-x,y,-z
1/2+x,1/2+y,z
1/2-x,1/2+y,-z
loop_
_atom_site_type_symbol
_atom_site_label
_atom_site_fract_x
_atom_site_fract_y
_atom_site_fract_z
Si Si1 0.000000 0.775920 0.500000
Si Si2 0.621389 0.038655 0.557730
Si Si3 0.668899 0.281131 0.282561
Si Si4 0.421718 0.157174 0.089822
Si Si5 0.576763 0.869589 0.452926
Si Si6 0.700633 0.787419 0.131418
Si Si7 0.349168 0.630506 0.136474
O O1 0.985191 0.721846 0.318387
O O2 0.843401 0.816543 0.268196
O O3 0.500000 0.042360 0.500000
O O4 0.546309 0.093773 0.297734
O O5 0.623194 0.954142 0.508702
O O6 0.782144 0.070234 0.894271
O O7 0.778685 0.319924 0.340702
O O8 0.744858 0.280027 0.589348
O O9 0.500000 0.315165 0.000000
O O10 0.640841 0.197897 0.175309
O O11 0.278103 0.130182 0.943022
O O12 0.500000 0.860025 0.500000
O O13 0.439818 0.841970 0.106776
O O14 0.653081 0.709671 0.962945
O O15 0.500000 0.618827 0.500000
#
# Coordination Sequence:
#
# PCOD9120084 Si02
#       7
#     2   4   4   4   4   4   4
#     4  10  16  34  66  92 120 156 208 262 298 358
#     4   9  18  38  61  87 121 160 207 249 307 371
#     4  12  23  38  60  93 129 164 205 257 307 363
#     4  10  17  36  62  90 120 159 206 252 303 368
#     4  11  24  40  62  90 125 167 207 254 310 370
#     4  11  21  37  60  93 129 158 208 253 311 361
#     4  10  18  34  65  93 119 155 210 264 299 360
#
# _framework density 19.777244
#
# number of rings (size 3 to 8) (size 9 to 14) (size 15 to 20)
#    0.000    1.538    5.385    3.692    0.000    0.000 
#    0.000    9.231    1.692    3.692    0.000    0.000 
#    0.000    0.000    0.000    0.000    0.000    0.000 
#
# Total GULP energy -72463.430225 kJ/mol
# GULP energy per Si atom -5574.110017 kJ/mol
# Density = 1.973223 g / cm^3
# Si number density = 19.777244 Si / 1000 Ang^3
#
#
#
# Elastic Constant Matrix: (Units=GPa)
#
#
# Indices 1 2 3 4 5 6 
#
# 1 70.2146 40.5672 38.4813 0.0000 4.6394 0.0000
# 2 40.5672 110.0797 72.7423 0.0000 2.6674 0.0000
# 3 38.4813 72.7423 170.3117 0.0000 -1.0931 0.0000
# 4 0.0000 0.0000 0.0000 26.4605 0.0000 -0.9836
# 5 4.6394 2.6674 -1.0931 0.0000 42.7160 0.0000
# 6 0.0000 0.0000 0.0000 -0.9836 0.0000 14.6583
#
#
#
# Elastic Compliance Matrix: (Units=1/GPa)
#
#
# Indices 1 2 3 4 5 6 
#
# 1 0.018592 -0.005610 -0.001816 0.000000 -0.001715 0.000000
# 2 -0.005610 0.014386 -0.004880 0.000000 -0.000414 0.000000
# 3 -0.001816 -0.004880 0.008371 0.000000 0.000716 0.000000
# 4 0.000000 0.000000 0.000000 0.037887 0.000000 0.002542
# 5 -0.001715 -0.000414 0.000716 0.000000 0.023641 0.000000
# 6 0.000000 0.000000 0.000000 0.002542 0.000000 0.068391
#
#
# Mechanical properties :
#
#
# Convention : Reuss Voigt Hill
#
# Bulk Modulus (GPa) = 59.74479 72.68750 66.21615
# Shear Modulus (GPa) = 24.81911 30.02133 27.42022
#
# Velocity S-wave (km/s) = 3.54635 3.90034 3.72755
# Velocity P-wave (km/s) = 6.85880 7.55754 7.21664
#
# Compressibility (1/GPa) = 0.01673786
#
# Stress axis : x y z
#
# Youngs Moduli (GPa) = 53.78719 69.50989 119.46612
#
# Poissons Ratio (x) = 0.38997 0.21690
# Poissons Ratio (y) = 0.30176 0.58296
# Poissons Ratio (z) = 0.09765 0.33919
#
# Static dielectric constant tensor:
#      x y z
#    x 1.760350 0.000000 -0.000480 
#    y 0.000000 1.694820 0.000000 
#    z -0.000480 0.000000 1.769150 
# 
# From -- ./inp_files/27907.got.cif
#   From: 2010.05.17/outbox.cif.g08.bks.cpg/sg5_14_cif.got.tgz:27907.got - 2010.06.03 18:56:24.
