data_PCOD9120354
_publ_section_title
;
Structure prediction by ZEFSAII (Michael W. Deem and Ramdas Pophale) SiO2 
 PCOD9120354
Probable space group: C 2
;
_chemical_formula_sum "Si O2"
_cell_formula_units_Z 26
_cell_length_a 15.579537
_cell_length_b 16.992310
_cell_length_c 9.427649
_cell_angle_alpha 90.000000
_cell_angle_beta 142.749901
_cell_angle_gamma 90.000000
_cell_volume 1510.698235
_symmetry_space_group_name_H-M "C 2"
_symmetry_group_IT_number 5
_symmetry_cell_setting 'monoclinic'
loop_
_space_group_symop_operation_xyz
x,y,z
-x,y,-z
1/2+x,1/2+y,z
1/2-x,1/2+y,-z
loop_
_atom_site_type_symbol
_atom_site_label
_atom_site_fract_x
_atom_site_fract_y
_atom_site_fract_z
Si Si1 0.583878 0.449260 0.830285
Si Si2 0.263552 0.095328 0.150754
Si Si3 0.072697 0.776783 0.942761
Si Si4 0.500000 0.032517 0.000000
Si Si5 0.954125 0.628685 0.653999
Si Si6 0.696106 0.496838 0.680866
Si Si7 0.344739 0.674372 0.253675
O O1 0.653630 0.448325 0.765084
O O2 0.422066 0.477732 0.592044
O O3 0.675739 0.514711 0.033176
O O4 0.585978 0.364769 0.904072
O O5 0.316149 0.116989 0.376293
O O6 0.409914 0.092687 0.251131
O O7 0.173232 0.157471 0.938378
O O8 0.224518 0.733643 0.146498
O O9 0.000000 0.775951 0.000000
O O10 0.983607 0.720607 0.719708
O O11 0.455600 0.086559 0.807984
O O12 0.358511 0.984767 0.852214
O O13 0.678847 0.588662 0.704116
O O14 0.500000 0.701634 0.500000
#
# Coordination Sequence:
#
# PCOD9120354 Si02
#       7
#     4   4   4   2   4   4   4
#     4  10  20  37  56  85 122 150 196 241 300 358
#     4   9  18  34  57  86 112 150 202 234 280 349
#     4  11  22  37  57  85 118 158 195 242 306 347
#     4  12  18  36  64  88 112 156 208 248 278 350
#     4  10  19  34  61  84 115 149 201 243 281 346
#     4  10  19  36  63  85 113 160 199 238 294 353
#     4  10  17  37  62  84 112 156 206 237 285 361
#
# _framework density 17.210584999999998
#
# number of rings (size 3 to 8) (size 9 to 14) (size 15 to 20)
#    0.000    1.846    8.462    0.000    0.000    6.154 
#    2.769    1.538    0.000    0.000    0.000    0.000 
#    0.000    0.000    0.000    0.000    0.000    0.000 
#
# Total GULP energy -72452.095335 kJ/mol
# GULP energy per Si atom -5573.238103 kJ/mol
# Density = 1.717141 g / cm^3
# Si number density = 17.210585 Si / 1000 Ang^3
#
#
#
# Elastic Constant Matrix: (Units=GPa)
#
#
# Indices 1 2 3 4 5 6 
#
# 1 76.0535 51.3316 58.1288 0.0000 5.8379 0.0000
# 2 51.3316 113.2334 72.1092 0.0000 4.0380 0.0000
# 3 58.1288 72.1092 163.3906 0.0000 0.1687 0.0000
# 4 0.0000 0.0000 0.0000 10.5059 0.0000 4.3825
# 5 5.8379 4.0380 0.1687 0.0000 25.8431 0.0000
# 6 0.0000 0.0000 0.0000 4.3825 0.0000 21.1844
#
#
#
# Elastic Compliance Matrix: (Units=1/GPa)
#
#
# Indices 1 2 3 4 5 6 
#
# 1 0.021517 -0.006602 -0.004737 0.000000 -0.003798 0.000000
# 2 -0.006602 0.014402 -0.004006 0.000000 -0.000733 0.000000
# 3 -0.004737 -0.004006 0.009572 0.000000 0.001634 0.000000
# 4 0.000000 0.000000 0.000000 0.104174 0.000000 -0.021551
# 5 -0.003798 -0.000733 0.001634 0.000000 0.039657 0.000000
# 6 0.000000 0.000000 0.000000 -0.021551 0.000000 0.051663
#
#
# Mechanical properties :
#
#
# Convention : Reuss Voigt Hill
#
# Bulk Modulus (GPa) = 67.57066 79.53519 73.55292
# Shear Modulus (GPa) = 18.07604 22.91388 20.49496
#
# Velocity S-wave (km/s) = 3.24433 3.65277 3.45459
# Velocity P-wave (km/s) = 7.30620 8.00647 7.66434
#
# Compressibility (1/GPa) = 0.01479932
#
# Stress axis : x y z
#
# Youngs Moduli (GPa) = 46.47497 69.43692 104.46922
#
# Poissons Ratio (x) = 0.45841 0.49492
# Poissons Ratio (y) = 0.30682 0.41854
# Poissons Ratio (z) = 0.22017 0.27819
#
# Static dielectric constant tensor:
#      x y z
#    x 1.602490 0.000000 -0.002000 
#    y 0.000000 1.559100 0.000000 
#    z -0.002000 0.000000 1.616810 
# 
# From -- ./inp_files/24766.got.cif
#   From: 2010.05.17/outbox.cif.g08.bks.cpg/sg5_13_cif.got.tgz:24766.got - 2010.06.03 18:56:24.
