data_PCOD9120658
_publ_section_title
;
Structure prediction by ZEFSAII (Michael W. Deem and Ramdas Pophale) SiO2 
 PCOD9120658
Probable space group: C 2
;
_chemical_formula_sum "Si O2"
_cell_formula_units_Z 30
_cell_length_a 20.779790
_cell_length_b 12.434467
_cell_length_c 5.485626
_cell_angle_alpha 90.000000
_cell_angle_beta 69.226407
_cell_angle_gamma 90.000000
_cell_volume 1325.260144
_symmetry_space_group_name_H-M "C 2"
_symmetry_group_IT_number 5
_symmetry_cell_setting 'monoclinic'
loop_
_space_group_symop_operation_xyz
x,y,z
-x,y,-z
1/2+x,1/2+y,z
1/2-x,1/2+y,-z
loop_
_atom_site_type_symbol
_atom_site_label
_atom_site_fract_x
_atom_site_fract_y
_atom_site_fract_z
Si Si1 0.855100 0.010220 0.168681
Si Si2 0.067555 0.827014 0.785212
Si Si3 0.790723 0.849379 0.906121
Si Si4 0.338966 0.754167 0.683069
Si Si5 0.869189 0.657988 0.922171
Si Si6 0.000000 0.665315 0.500000
Si Si7 0.755483 0.044653 0.669050
Si Si8 0.419162 0.738049 0.073158
O O1 0.780263 0.051692 0.356375
O O2 0.905643 0.109362 0.077696
O O3 0.884316 0.927648 0.334120
O O4 0.844207 0.932805 0.955394
O O5 0.039651 0.748067 0.619867
O O6 0.103126 0.746102 0.925327
O O7 0.000000 0.876655 0.000000
O O8 0.730664 0.821969 0.181089
O O9 0.825179 0.734824 0.798035
O O10 0.757907 0.920006 0.739654
O O11 0.310171 0.630080 0.716352
O O12 0.377553 0.773608 0.374231
O O13 0.386654 0.774782 0.857176
O O14 0.937288 0.604577 0.715966
O O15 0.818011 0.583904 0.140340
O O16 0.500000 0.761734 0.000000
#
# Coordination Sequence:
#
# PCOD9120658 Si02
#       8
#     4   4   4   4   4   2   4   4
#     4  10  20  34  56  87 118 152 194 248 304 355
#     4   9  18  33  51  82 112 144 187 230 293 358
#     4  10  20  37  60  85 118 150 200 248 297 354
#     4  10  23  39  62  92 122 160 205 247 305 360
#     4   9  20  34  54  83 112 147 189 238 290 350
#     4  10  18  34  56  76 112 156 180 234 298 356
#     4  10  20  36  56  87 116 150 199 246 298 355
#     4  11  22  41  62  89 125 166 200 251 305 367
#
# _framework density 22.637066999999998
#
# number of rings (size 3 to 8) (size 9 to 14) (size 15 to 20)
#    0.000    2.133    1.333    1.600    1.867    1.067 
#    9.600    0.000    2.933    0.800    0.000    0.000 
#    0.000    0.000    0.000    0.000    0.000    0.000 
#
# Total GULP energy -83579.448062 kJ/mol
# GULP energy per Si atom -5571.963204 kJ/mol
# Density = 2.258554 g / cm^3
# Si number density = 22.637067 Si / 1000 Ang^3
#
#
#
# Elastic Constant Matrix: (Units=GPa)
#
#
# Indices 1 2 3 4 5 6 
#
# 1 74.7411 5.6752 35.8104 0.0000 -15.3875 0.0000
# 2 5.6752 21.4342 2.8617 0.0000 -4.6180 0.0000
# 3 35.8104 2.8617 106.3921 0.0000 -30.0423 0.0000
# 4 0.0000 0.0000 0.0000 14.2253 0.0000 -2.2502
# 5 -15.3875 -4.6180 -30.0423 0.0000 50.0856 0.0000
# 6 0.0000 0.0000 0.0000 -2.2502 0.0000 13.5738
#
#
#
# Elastic Compliance Matrix: (Units=1/GPa)
#
#
# Indices 1 2 3 4 5 6 
#
# 1 0.016349 -0.003291 -0.004914 0.000000 0.001772 0.000000
# 2 -0.003291 0.048263 0.000940 0.000000 0.004003 0.000000
# 3 -0.004914 0.000940 0.012793 0.000000 0.006250 0.000000
# 4 0.000000 0.000000 0.000000 0.072190 0.000000 0.011967
# 5 0.001772 0.004003 0.006250 0.000000 0.024628 0.000000
# 6 0.000000 0.000000 0.000000 0.011967 0.000000 0.075655
#
#
# Mechanical properties :
#
#
# Convention : Reuss Voigt Hill
#
# Bulk Modulus (GPa) = 15.90488 32.36245 24.13367
# Shear Modulus (GPa) = 17.52140 26.12496 21.82318
#
# Velocity S-wave (km/s) = 2.78513 3.40086 3.10828
# Velocity P-wave (km/s) = 4.16940 5.45421 4.85450
#
# Compressibility (1/GPa) = 0.06287377
#
# Stress axis : x y z
#
# Youngs Moduli (GPa) = 61.16744 20.72001 78.16876
#
# Poissons Ratio (x) = 0.06819 0.38412
# Poissons Ratio (y) = 0.20130 -0.07346
# Poissons Ratio (z) = 0.30057 -0.01947
#
# Static dielectric constant tensor:
#      x y z
#    x 1.969960 0.000000 0.037580 
#    y 0.000000 1.825830 0.000000 
#    z 0.037580 0.000000 2.004420 
# 
# From -- ./inp_files/8551.got.cif
#   From: 2010.05.17/outbox.cif.g08.bks.cpg/sg5_5_cif.got.tgz:8551.got - 2010.06.03 18:56:24.
