data_PCOD9120480
_publ_section_title
;
Structure prediction by ZEFSAII (Michael W. Deem and Ramdas Pophale) SiO2 
 PCOD9120480
Probable space group: C 2
;
_chemical_formula_sum "Si O2"
_cell_formula_units_Z 32
_cell_length_a 22.669446
_cell_length_b 10.942386
_cell_length_c 7.974303
_cell_angle_alpha 90.000000
_cell_angle_beta 57.347309
_cell_angle_gamma 90.000000
_cell_volume 1665.464429
_symmetry_space_group_name_H-M "C 2"
_symmetry_group_IT_number 5
_symmetry_cell_setting 'monoclinic'
loop_
_space_group_symop_operation_xyz
x,y,z
-x,y,-z
1/2+x,1/2+y,z
1/2-x,1/2+y,-z
loop_
_atom_site_type_symbol
_atom_site_label
_atom_site_fract_x
_atom_site_fract_y
_atom_site_fract_z
Si Si1 0.127799 0.983910 0.650743
Si Si2 0.708851 0.470404 0.214943
Si Si3 0.218162 0.364290 0.197881
Si Si4 0.148172 0.190263 0.090169
Si Si5 0.247933 0.609834 0.346618
Si Si6 0.806948 0.656602 0.228909
Si Si7 0.065961 0.803645 0.012932
Si Si8 0.983798 0.037580 0.721605
O O1 0.111069 0.889807 0.821261
O O2 0.158827 0.921819 0.436522
O O3 0.188709 0.068061 0.628818
O O4 0.056196 0.051165 0.711674
O O5 0.670145 0.583133 0.184957
O O6 0.777825 0.530223 0.194534
O O7 0.726032 0.381805 0.037492
O O8 0.151205 0.311524 0.200007
O O9 0.216315 0.493396 0.295394
O O10 0.250180 0.261134 0.268549
O O11 0.074217 0.138556 0.138125
O O12 0.209423 0.191380 0.854277
O O13 0.191762 0.653712 0.570231
O O14 0.880853 0.694125 0.032937
O O15 0.000000 0.765018 0.000000
O O16 0.042268 0.899289 0.192971
O O17 0.000000 0.048402 0.500000
#
# Coordination Sequence:
#
# PCOD9120480 Si02
#       8
#     4   4   4   4   4   4   4   4
#     4  10  18  31  53  80 118 146 174 235 290 322
#     4   9  19  33  52  82 109 147 183 234 278 325
#     4  10  20  35  53  82 117 140 190 232 282 341
#     4  10  19  33  52  81 113 152 181 228 283 346
#     4  10  20  34  54  84 115 144 191 241 279 332
#     4  10  20  34  57  81 108 150 184 234 288 334
#     4  10  20  34  53  84 111 144 184 231 281 346
#     4  11  20  33  55  82 122 149 179 233 290 341
#
# _framework density 19.213858999999999
#
# number of rings (size 3 to 8) (size 9 to 14) (size 15 to 20)
#    0.000    2.000    3.750    0.750    1.750    0.000 
#    0.000    0.000    0.000    1.500    0.000    0.000 
#    0.000    0.000    0.000    0.000    0.000    0.000 
#
# Total GULP energy -89094.707626 kJ/mol
# GULP energy per Si atom -5568.419227 kJ/mol
# Density = 1.917013 g / cm^3
# Si number density = 19.213859 Si / 1000 Ang^3
#
#
#
# Elastic Constant Matrix: (Units=GPa)
#
#
# Indices 1 2 3 4 5 6 
#
# 1 64.3154 23.3908 -5.9187 0.0000 -8.7050 0.0000
# 2 23.3908 35.0661 14.9193 0.0000 3.2651 0.0000
# 3 -5.9187 14.9193 70.1691 0.0000 16.8306 0.0000
# 4 0.0000 0.0000 0.0000 15.3454 0.0000 7.8735
# 5 -8.7050 3.2651 16.8306 0.0000 32.9213 0.0000
# 6 0.0000 0.0000 0.0000 7.8735 0.0000 29.5844
#
#
#
# Elastic Compliance Matrix: (Units=1/GPa)
#
#
# Indices 1 2 3 4 5 6 
#
# 1 0.023230 -0.017897 0.004406 0.000000 0.005665 0.000000
# 2 -0.017897 0.045146 -0.010143 0.000000 -0.004024 0.000000
# 3 0.004406 -0.010143 0.018531 0.000000 -0.007303 0.000000
# 4 0.000000 0.000000 0.000000 0.075472 0.000000 -0.020086
# 5 0.005665 -0.004024 -0.007303 0.000000 0.036006 0.000000
# 6 0.000000 0.000000 0.000000 -0.020086 0.000000 0.039147
#
#
# Mechanical properties :
#
#
# Convention : Reuss Voigt Hill
#
# Bulk Modulus (GPa) = 25.22848 26.03703 25.63276
# Shear Modulus (GPa) = 16.77774 24.71417 20.74595
#
# Velocity S-wave (km/s) = 2.95822 3.59035 3.28950
# Velocity P-wave (km/s) = 4.98266 5.54690 5.27233
#
# Compressibility (1/GPa) = 0.03963774
#
# Stress axis : x y z
#
# Youngs Moduli (GPa) = 43.04846 22.15021 53.96291
#
# Poissons Ratio (x) = 0.39643 -0.23776
# Poissons Ratio (y) = 0.77045 0.54736
# Poissons Ratio (z) = -0.18967 0.22468
#
# Static dielectric constant tensor:
#      x y z
#    x 1.739250 0.000000 -0.019370 
#    y 0.000000 1.724340 0.000000 
#    z -0.019370 0.000000 1.720780 
# 
# From -- ./inp_files/30865.got.cif
#   From: 2010.05.17/outbox.cif.g08.bks.cpg/sg5_16_cif.got.tgz:30865.got - 2010.06.03 18:56:24.
