data_PCOD9120732
_publ_section_title
;
Structure prediction by ZEFSAII (Michael W. Deem and Ramdas Pophale) SiO2 
 PCOD9120732
Probable space group: C 2
;
_chemical_formula_sum "Si O2"
_cell_formula_units_Z 14
_cell_length_a 7.479029
_cell_length_b 12.422453
_cell_length_c 12.961800
_cell_angle_alpha 90.000000
_cell_angle_beta 27.592537
_cell_angle_gamma 90.000000
_cell_volume 557.786830
_symmetry_space_group_name_H-M "C 2"
_symmetry_group_IT_number 5
_symmetry_cell_setting 'monoclinic'
loop_
_space_group_symop_operation_xyz
x,y,z
-x,y,-z
1/2+x,1/2+y,z
1/2-x,1/2+y,-z
loop_
_atom_site_type_symbol
_atom_site_label
_atom_site_fract_x
_atom_site_fract_y
_atom_site_fract_z
Si Si1 0.126043 0.533830 0.324525
Si Si2 0.853252 0.264474 0.189837
Si Si3 0.048260 0.498618 0.817145
Si Si4 0.500000 0.176848 0.000000
O O1 0.079719 0.664023 0.351224
O O2 0.924266 0.503332 0.320281
O O3 0.000000 0.489379 0.500000
O O4 0.582291 0.504244 0.078388
O O5 0.755528 0.389260 0.244496
O O6 0.000000 0.241916 0.000000
O O7 0.192567 0.249507 0.099331
O O8 0.182163 0.599131 0.818748
#
# Coordination Sequence:
#
# PCOD9120732 Si02
#       4
#     4   4   4   2
#     4  10  21  42  60  91 127 153 200 255 294 355
#     4  11  20  38  65  86 120 162 198 244 301 356
#     4  10  20  39  61  85 123 162 197 244 302 354
#     4  10  18  34  62  86 114 158 200 236 296 356
#
# _framework density 25.099195000000002
#
# number of rings (size 3 to 8) (size 9 to 14) (size 15 to 20)
#    0.000    1.714    7.143    1.714    0.000    0.000 
#    5.143    5.714    0.000    0.000    0.000    0.000 
#    0.000    0.000    0.000    0.000    0.000    0.000 
#
# Total GULP energy -39148.421682 kJ/mol
# GULP energy per Si atom -5592.631669 kJ/mol
# Density = 2.504207 g / cm^3
# Si number density = 25.099195 Si / 1000 Ang^3
#
#
#
# Elastic Constant Matrix: (Units=GPa)
#
#
# Indices 1 2 3 4 5 6 
#
# 1 127.4699 -9.9359 52.1220 -0.0832 26.4168 -0.1654
# 2 -9.9359 89.7467 24.4493 -0.1187 -8.8007 0.0210
# 3 52.1220 24.4493 163.5632 -0.1023 46.6984 -0.0244
# 4 -0.0832 -0.1187 -0.1023 23.7942 0.0455 12.3132
# 5 26.4168 -8.8007 46.6984 0.0455 50.5025 0.0613
# 6 -0.1654 0.0210 -0.0244 12.3132 0.0613 34.5049
#
#
#
# Elastic Compliance Matrix: (Units=1/GPa)
#
#
# Indices 1 2 3 4 5 6 
#
# 1 0.009505 0.001536 -0.002602 0.000012 -0.002298 0.000043
# 2 0.001536 0.012844 -0.003830 0.000061 0.004976 -0.000034
# 3 -0.002602 -0.003830 0.009942 0.000030 -0.008500 0.000001
# 4 0.000012 0.000061 0.000030 0.051547 -0.000048 -0.018395
# 5 -0.002298 0.004976 -0.008500 -0.000048 0.029730 -0.000056
# 6 0.000043 -0.000034 0.000001 -0.018395 -0.000056 0.035546
#
#
# Mechanical properties :
#
#
# Convention : Reuss Voigt Hill
#
# Bulk Modulus (GPa) = 44.44784 57.11674 50.78229
# Shear Modulus (GPa) = 30.04690 42.70328 36.37509
#
# Velocity S-wave (km/s) = 3.46370 4.12925 3.81104
# Velocity P-wave (km/s) = 5.80893 6.74834 6.29618
#
# Compressibility (1/GPa) = 0.02249828
#
# Stress axis : x y z
#
# Youngs Moduli (GPa) = 105.20623 77.85714 100.57894
#
# Poissons Ratio (x) = -0.11959 0.26176
# Poissons Ratio (y) = -0.16159 0.38523
# Poissons Ratio (z) = 0.27380 0.29821
#
# Static dielectric constant tensor:
#      x y z
#    x 1.993330 0.000010 -0.085890 
#    y 0.000010 1.934440 0.000030 
#    z -0.085890 0.000030 2.053330 
# 
# From -- ./inp_files/1656.got.cif
#   From: 2010.05.17/outbox.cif.g08.bks.cpg/sg5_1_cif.got.tgz:1656.got - 2010.06.03 18:56:24.
