data_PCOD9120916
_publ_section_title
;
Structure prediction by ZEFSAII (Michael W. Deem and Ramdas Pophale) SiO2 
 PCOD9120916
Probable space group: C 2
;
_chemical_formula_sum "Si O2"
_cell_formula_units_Z 26
_cell_length_a 14.160767
_cell_length_b 13.290088
_cell_length_c 7.290013
_cell_angle_alpha 90.000000
_cell_angle_beta 119.969781
_cell_angle_gamma 90.000000
_cell_volume 1188.517917
_symmetry_space_group_name_H-M "C 2"
_symmetry_group_IT_number 5
_symmetry_cell_setting 'monoclinic'
loop_
_space_group_symop_operation_xyz
x,y,z
-x,y,-z
1/2+x,1/2+y,z
1/2-x,1/2+y,-z
loop_
_atom_site_type_symbol
_atom_site_label
_atom_site_fract_x
_atom_site_fract_y
_atom_site_fract_z
Si Si1 0.099488 0.468730 0.959385
Si Si2 0.585189 0.204774 0.885451
Si Si3 0.000000 0.479092 0.500000
Si Si4 0.177574 0.946896 0.665761
Si Si5 0.375210 0.238891 0.510637
Si Si6 0.111167 0.931519 0.995832
Si Si7 0.265318 0.057725 0.408480
O O1 0.121706 0.590716 0.964069
O O2 0.060362 0.427517 0.725935
O O3 0.207465 0.414903 0.131746
O O4 0.000000 0.457211 0.000000
O O5 0.452527 0.208383 0.757385
O O6 0.596020 0.216931 0.675060
O O7 0.632157 0.310035 0.007316
O O8 0.896091 0.534468 0.501622
O O9 0.130052 0.858059 0.496434
O O10 0.215892 0.027215 0.555029
O O11 0.105658 0.967294 0.776718
O O12 0.263183 0.178205 0.412283
O O13 0.202045 0.997590 0.188896
O O14 0.000000 0.946418 0.000000
#
# Coordination Sequence:
#
# PCOD9120916 Si02
#       7
#     4   4   2   4   4   4   4
#     4  12  20  36  64  95 121 155 205 257 312 364
#     4  10  18  36  63  93 121 157 204 259 310 362
#     4  12  20  38  64  92 124 158 204 262 318 352
#     4  11  24  36  62  95 125 164 205 253 311 369
#     4  10  19  38  61  90 124 159 205 260 305 356
#     4  11  24  39  60  93 131 165 204 253 311 370
#     4  12  22  41  64  91 128 165 204 262 311 362
#
# _framework density 21.875983000000002
#
# number of rings (size 3 to 8) (size 9 to 14) (size 15 to 20)
#    0.000    0.923    6.154    1.385    0.000    3.077 
#    0.000    0.769    0.000    0.000    0.000    0.000 
#    0.000    0.000    0.000    0.000    0.000    0.000 
#
# Total GULP energy -72388.688005 kJ/mol
# GULP energy per Si atom -5568.360616 kJ/mol
# Density = 2.182619 g / cm^3
# Si number density = 21.875983 Si / 1000 Ang^3
#
#
#
# Elastic Constant Matrix: (Units=GPa)
#
#
# Indices 1 2 3 4 5 6 
#
# 1 106.1472 24.1747 -2.5181 0.0000 -19.2175 0.0000
# 2 24.1747 36.0479 25.2369 0.0000 2.2259 0.0000
# 3 -2.5181 25.2369 84.2756 0.0000 0.9248 0.0000
# 4 0.0000 0.0000 0.0000 37.8377 0.0000 0.5790
# 5 -19.2175 2.2259 0.9248 0.0000 43.7352 0.0000
# 6 0.0000 0.0000 0.0000 0.5790 0.0000 24.2097
#
#
#
# Elastic Compliance Matrix: (Units=1/GPa)
#
#
# Indices 1 2 3 4 5 6 
#
# 1 0.013469 -0.012227 0.003993 0.000000 0.006456 0.000000
# 2 -0.012227 0.046306 -0.014150 0.000000 -0.007430 0.000000
# 3 0.003993 -0.014150 0.016199 0.000000 0.002132 0.000000
# 4 0.000000 0.000000 0.000000 0.026438 0.000000 -0.000632
# 5 0.006456 -0.007430 0.002132 0.000000 0.026035 0.000000
# 6 0.000000 0.000000 0.000000 -0.000632 0.000000 0.041321
#
#
# Mechanical properties :
#
#
# Convention : Reuss Voigt Hill
#
# Bulk Modulus (GPa) = 32.04550 35.58422 33.81486
# Shear Modulus (GPa) = 22.22822 33.12834 27.67828
#
# Velocity S-wave (km/s) = 3.19109 3.89571 3.56087
# Velocity P-wave (km/s) = 5.31582 6.04459 5.69188
#
# Compressibility (1/GPa) = 0.03120563
#
# Stress axis : x y z
#
# Youngs Moduli (GPa) = 74.24370 21.59542 61.73143
#
# Poissons Ratio (x) = 0.26405 -0.24650
# Poissons Ratio (y) = 0.90778 0.87353
# Poissons Ratio (z) = -0.29646 0.30559
#
# Static dielectric constant tensor:
#      x y z
#    x 2.007920 0.000000 -0.044590 
#    y 0.000000 1.830640 0.000000 
#    z -0.044590 0.000000 1.843730 
# 
# From -- ./inp_files/23723.got.cif
#   From: 2010.05.17/outbox.cif.g08.bks.cpg/sg5_12_cif.got.tgz:23723.got - 2010.06.03 18:56:24.
