data_PCOD9120771
_publ_section_title
;
Structure prediction by ZEFSAII (Michael W. Deem and Ramdas Pophale) SiO2 
 PCOD9120771
Probable space group: C 2
;
_chemical_formula_sum "Si O2"
_cell_formula_units_Z 24
_cell_length_a 19.533724
_cell_length_b 7.252553
_cell_length_c 7.265412
_cell_angle_alpha 90.000000
_cell_angle_beta 120.969049
_cell_angle_gamma 90.000000
_cell_volume 882.556827
_symmetry_space_group_name_H-M "C 2"
_symmetry_group_IT_number 5
_symmetry_cell_setting 'monoclinic'
loop_
_space_group_symop_operation_xyz
x,y,z
-x,y,-z
1/2+x,1/2+y,z
1/2-x,1/2+y,-z
loop_
_atom_site_type_symbol
_atom_site_label
_atom_site_fract_x
_atom_site_fract_y
_atom_site_fract_z
Si Si1 0.858441 0.261280 0.764717
Si Si2 0.530847 0.557782 0.335367
Si Si3 0.567017 0.237003 0.959475
Si Si4 0.641280 0.330677 0.717524
Si Si5 0.770395 0.874123 0.689551
Si Si6 0.188935 0.233509 0.937291
O O1 0.931087 0.224261 0.725767
O O2 0.788271 0.367952 0.564157
O O3 0.820068 0.059476 0.738207
O O4 0.871248 0.320873 0.995002
O O5 0.500000 0.606945 0.500000
O O6 0.467687 0.445892 0.125964
O O7 0.596827 0.397469 0.474035
O O8 0.585090 0.203229 0.767784
O O9 0.500000 0.149376 0.000000
O O10 0.654909 0.233765 0.173119
O O11 0.663076 0.529515 0.841014
O O12 0.726488 0.236386 0.837983
O O13 0.710724 0.835326 0.778258
#
# Coordination Sequence:
#
# PCOD9120771 Si02
#       6
#     4   4   4   4   4   4
#     4  12  22  39  63  96 126 168 204 267 318 371
#     4  10  20  35  61  92 124 156 215 262 316 362
#     4  10  18  35  55  89 120 153 212 262 302 358
#     4  10  20  35  57  91 122 159 202 269 301 370
#     4  11  24  37  61  98 124 163 216 260 313 378
#     4  11  20  36  55  90 133 157 211 254 314 366
#
# _framework density 27.193718000000001
#
# number of rings (size 3 to 8) (size 9 to 14) (size 15 to 20)
#    0.000    1.333    6.667    1.000    0.000    0.000 
#    0.000    0.000    0.000    0.000   30.333    8.167 
#    0.000    0.000    0.000    0.000    0.000    0.000 
#
# Total GULP energy -66936.100884 kJ/mol
# GULP energy per Si atom -5578.008407 kJ/mol
# Density = 2.713182 g / cm^3
# Si number density = 27.193718 Si / 1000 Ang^3
#
#
#
# Elastic Constant Matrix: (Units=GPa)
#
#
# Indices 1 2 3 4 5 6 
#
# 1 161.1144 8.2997 53.3604 0.0000 -40.7886 0.0000
# 2 8.2997 57.3223 39.7671 0.0000 1.1458 0.0000
# 3 53.3604 39.7671 121.4137 0.0000 -1.0671 0.0000
# 4 0.0000 0.0000 0.0000 23.7724 0.0000 0.9378
# 5 -40.7886 1.1458 -1.0671 0.0000 63.5521 0.0000
# 6 0.0000 0.0000 0.0000 0.9378 0.0000 20.0316
#
#
#
# Elastic Compliance Matrix: (Units=1/GPa)
#
#
# Indices 1 2 3 4 5 6 
#
# 1 0.009046 0.001682 -0.004476 0.000000 0.005700 0.000000
# 2 0.001682 0.022905 -0.008237 0.000000 0.000528 0.000000
# 3 -0.004476 -0.008237 0.012879 0.000000 -0.002508 0.000000
# 4 0.000000 0.000000 0.000000 0.042143 0.000000 -0.001973
# 5 0.005700 0.000528 -0.002508 0.000000 0.019342 0.000000
# 6 0.000000 0.000000 0.000000 -0.001973 0.000000 0.050013
#
#
# Mechanical properties :
#
#
# Convention : Reuss Voigt Hill
#
# Bulk Modulus (GPa) = 43.92148 60.30051 52.11100
# Shear Modulus (GPa) = 26.88445 37.36611 32.12528
#
# Velocity S-wave (km/s) = 3.14766 3.71087 3.44081
# Velocity P-wave (km/s) = 5.42187 6.37050 5.91523
#
# Compressibility (1/GPa) = 0.02276790
#
# Stress axis : x y z
#
# Youngs Moduli (GPa) = 110.54917 43.65790 77.64376
#
# Poissons Ratio (x) = -0.07342 0.34755
# Poissons Ratio (y) = -0.18591 0.63953
# Poissons Ratio (z) = 0.49485 0.35960
#
# Static dielectric constant tensor:
#      x y z
#    x 2.281110 0.000000 -0.048030 
#    y 0.000000 2.196710 0.000000 
#    z -0.048030 0.000000 2.184910 
# 
# From -- ./inp_files/28776.got.cif
#   From: 2010.05.17/outbox.cif.g08.bks.cpg/sg5_15_cif.got.tgz:28776.got - 2010.06.03 18:56:24.
