data_PCOD9120524
_publ_section_title
;
Structure prediction by ZEFSAII (Michael W. Deem and Ramdas Pophale) SiO2 
 PCOD9120524
Probable space group: C 2
;
_chemical_formula_sum "Si O2"
_cell_formula_units_Z 24
_cell_length_a 25.843431
_cell_length_b 8.184567
_cell_length_c 19.399289
_cell_angle_alpha 90.000000
_cell_angle_beta 163.409880
_cell_angle_gamma 90.000000
_cell_volume 1171.582725
_symmetry_space_group_name_H-M "C 2"
_symmetry_group_IT_number 5
_symmetry_cell_setting 'monoclinic'
loop_
_space_group_symop_operation_xyz
x,y,z
-x,y,-z
1/2+x,1/2+y,z
1/2-x,1/2+y,-z
loop_
_atom_site_type_symbol
_atom_site_label
_atom_site_fract_x
_atom_site_fract_y
_atom_site_fract_z
Si Si1 0.468243 0.817900 0.638325
Si Si2 0.920523 0.199041 0.723748
Si Si3 0.872740 0.886077 0.574375
Si Si4 0.702858 0.102031 0.235262
Si Si5 0.709539 0.374079 0.780893
Si Si6 0.293837 0.492375 0.066252
O O1 0.390918 0.810825 0.617013
O O2 0.320472 0.765917 0.394294
O O3 0.610519 0.665458 0.822404
O O4 0.589787 0.974277 0.778944
O O5 0.896265 0.015630 0.666444
O O6 0.761678 0.245067 0.573663
O O7 0.124376 0.243416 0.009224
O O8 0.777975 0.978096 0.389383
O O9 0.076150 0.862712 0.807309
O O10 0.734412 0.013174 0.203062
O O11 0.500000 0.135247 0.000000
O O12 0.500000 0.320657 0.500000
O O13 0.709276 0.449502 0.857147
#
# Coordination Sequence:
#
# PCOD9120524 Si02
#       6
#     4   4   4   4   4   4
#     4   9  19  34  51  83 105 139 178 221 264 313
#     4   9  20  32  53  78 109 138 180 219 263 318
#     4  10  19  35  53  84 104 143 177 224 262 317
#     4  10  18  32  54  80 107 133 182 223 258 312
#     4  11  17  31  55  82 102 136 183 222 262 309
#     4   9  19  33  53  82 107 134 177 224 261 318
#
# _framework density 20.485109999999999
#
# number of rings (size 3 to 8) (size 9 to 14) (size 15 to 20)
#    0.000    2.667    5.000    0.000    0.000    2.667 
#    0.000    0.000    0.000   12.000   17.333    0.000 
#    0.000    0.000    0.000    0.000    0.000    0.000 
#
# Total GULP energy -66839.373066 kJ/mol
# GULP energy per Si atom -5569.947755 kJ/mol
# Density = 2.043848 g / cm^3
# Si number density = 20.485110 Si / 1000 Ang^3
#
#
#
# Elastic Constant Matrix: (Units=GPa)
#
#
# Indices 1 2 3 4 5 6 
#
# 1 99.8810 22.9179 56.9211 0.0000 14.3462 0.0000
# 2 22.9179 28.9078 24.0125 0.0000 6.9678 0.0000
# 3 56.9211 24.0125 73.3879 0.0000 16.4557 0.0000
# 4 0.0000 0.0000 0.0000 35.3259 0.0000 6.0688
# 5 14.3462 6.9678 16.4557 0.0000 31.2324 0.0000
# 6 0.0000 0.0000 0.0000 6.0688 0.0000 22.6724
#
#
#
# Elastic Compliance Matrix: (Units=1/GPa)
#
#
# Indices 1 2 3 4 5 6 
#
# 1 0.018249 -0.003659 -0.012769 0.000000 -0.000838 0.000000
# 2 -0.003659 0.048444 -0.012436 0.000000 -0.002575 0.000000
# 3 -0.012769 -0.012436 0.029100 0.000000 -0.006692 0.000000
# 4 0.000000 0.000000 0.000000 0.029672 0.000000 -0.007943
# 5 -0.000838 -0.002575 -0.006692 0.000000 0.036504 0.000000
# 6 0.000000 0.000000 0.000000 -0.007943 0.000000 0.046232
#
#
# Mechanical properties :
#
#
# Convention : Reuss Voigt Hill
#
# Bulk Modulus (GPa) = 26.27049 45.54219 35.90634
# Shear Modulus (GPa) = 17.94584 24.40116 21.17350
#
# Velocity S-wave (km/s) = 2.96301 3.45507 3.21846
# Velocity P-wave (km/s) = 4.95560 6.18036 5.60155
#
# Compressibility (1/GPa) = 0.03806553
#
# Stress axis : x y z
#
# Youngs Moduli (GPa) = 54.79830 20.64245 34.36461
#
# Poissons Ratio (x) = 0.07553 0.43880
# Poissons Ratio (y) = 0.20049 0.42735
# Poissons Ratio (z) = 0.69972 0.25670
#
# Static dielectric constant tensor:
#      x y z
#    x 1.729050 0.000000 0.028610 
#    y 0.000000 1.757600 0.000000 
#    z 0.028610 0.000000 1.801030 
# 
# From -- ./inp_files/30754.got.cif
#   From: 2010.05.17/outbox.cif.g08.bks.cpg/sg5_16_cif.got.tgz:30754.got - 2010.06.03 18:56:24.
