data_PCOD9120879
_publ_section_title
;
Structure prediction by ZEFSAII (Michael W. Deem and Ramdas Pophale) SiO2 
 PCOD9120879
Probable space group: C 2
;
_chemical_formula_sum "Si O2"
_cell_formula_units_Z 22
_cell_length_a 14.023257
_cell_length_b 11.939656
_cell_length_c 8.138524
_cell_angle_alpha 90.000000
_cell_angle_beta 134.618451
_cell_angle_gamma 90.000000
_cell_volume 969.938672
_symmetry_space_group_name_H-M "C 2"
_symmetry_group_IT_number 5
_symmetry_cell_setting 'monoclinic'
loop_
_space_group_symop_operation_xyz
x,y,z
-x,y,-z
1/2+x,1/2+y,z
1/2-x,1/2+y,-z
loop_
_atom_site_type_symbol
_atom_site_label
_atom_site_fract_x
_atom_site_fract_y
_atom_site_fract_z
Si Si1 0.176429 0.329720 0.633334
Si Si2 0.068240 0.891450 0.257892
Si Si3 0.500000 0.775121 0.000000
Si Si4 0.835546 0.121173 0.545847
Si Si5 0.401884 0.925373 0.151165
Si Si6 0.527263 0.151383 0.227138
O O1 0.287111 0.352896 0.632111
O O2 0.166638 0.195371 0.622663
O O3 0.204864 0.385973 0.842991
O O4 0.040822 0.379865 0.396310
O O5 0.010430 0.778554 0.269675
O O6 0.092279 0.002957 0.388797
O O7 0.000000 0.920253 0.000000
O O8 0.419669 0.694555 0.778971
O O9 0.600652 0.859115 0.023733
O O10 0.682285 0.110152 0.427002
O O11 0.425259 0.057629 0.167590
O O12 0.500000 0.160959 0.000000
#
# Coordination Sequence:
#
# PCOD9120879 Si02
#       6
#     4   4   2   4   4   4
#     4   9  20  34  60  87 118 156 202 251 287 347
#     4  10  19  35  58  87 121 161 192 240 309 353
#     4  10  20  34  64  84 112 170 204 240 296 366
#     4  10  19  36  58  87 117 155 206 239 296 359
#     4  10  18  36  60  87 116 151 215 243 284 349
#     4  10  20  33  60  90 116 160 196 242 295 360
#
# _framework density 22.681847000000001
#
# number of rings (size 3 to 8) (size 9 to 14) (size 15 to 20)
#    0.000    2.182    3.636    0.000    0.000    0.000 
#    0.000    5.455    4.000    8.727    0.000    0.000 
#    0.000    0.000    0.000    0.000    0.000    0.000 
#
# Total GULP energy -61331.418755 kJ/mol
# GULP energy per Si atom -5575.583523 kJ/mol
# Density = 2.263022 g / cm^3
# Si number density = 22.681847 Si / 1000 Ang^3
#
#
#
# Elastic Constant Matrix: (Units=GPa)
#
#
# Indices 1 2 3 4 5 6 
#
# 1 32.1886 32.6432 -4.0306 0.0000 -14.6966 0.0000
# 2 32.6432 228.5078 17.9685 0.0000 -21.4347 0.0000
# 3 -4.0306 17.9685 44.2122 0.0000 7.2785 0.0000
# 4 0.0000 0.0000 0.0000 25.2906 0.0000 4.0684
# 5 -14.6966 -21.4347 7.2785 0.0000 26.4710 0.0000
# 6 0.0000 0.0000 0.0000 4.0684 0.0000 16.8160
#
#
#
# Elastic Compliance Matrix: (Units=1/GPa)
#
#
# Indices 1 2 3 4 5 6 
#
# 1 0.045759 -0.004801 0.002703 0.000000 0.020775 0.000000
# 2 -0.004801 0.005563 -0.003144 0.000000 0.002703 0.000000
# 3 0.002703 -0.003144 0.025467 0.000000 -0.008047 0.000000
# 4 0.000000 0.000000 0.000000 0.041142 0.000000 -0.009954
# 5 0.020775 0.002703 -0.008047 0.000000 0.053713 0.000000
# 6 0.000000 0.000000 0.000000 -0.009954 0.000000 0.061875
#
#
# Mechanical properties :
#
#
# Convention : Reuss Voigt Hill
#
# Bulk Modulus (GPa) = 15.08164 44.23007 29.65586
# Shear Modulus (GPa) = 18.78966 30.93736 24.86351
#
# Velocity S-wave (km/s) = 2.88132 3.69720 3.31446
# Velocity P-wave (km/s) = 4.21105 6.14559 5.26789
#
# Compressibility (1/GPa) = 0.06630579
#
# Stress axis : x y z
#
# Youngs Moduli (GPa) = 21.85358 179.76593 39.26655
#
# Poissons Ratio (x) = 0.86299 -0.10612
# Poissons Ratio (y) = 0.10491 0.12344
# Poissons Ratio (z) = -0.05906 0.56510
#
# Static dielectric constant tensor:
#      x y z
#    x 1.967460 0.000000 -0.007300 
#    y 0.000000 1.934560 0.000000 
#    z -0.007300 0.000000 1.899330 
# 
# From -- ./inp_files/23044.got.cif
#   From: 2010.05.17/outbox.cif.g08.bks.cpg/sg5_12_cif.got.tgz:23044.got - 2010.06.03 18:56:24.
