data_PCOD9120629
_publ_section_title
;
Structure prediction by ZEFSAII (Michael W. Deem and Ramdas Pophale) SiO2 
 PCOD9120629
Probable space group: C 2
;
_chemical_formula_sum "Si O2"
_cell_formula_units_Z 28
_cell_length_a 21.134490
_cell_length_b 11.133572
_cell_length_c 16.558366
_cell_angle_alpha 90.000000
_cell_angle_beta 20.967086
_cell_angle_gamma 90.000000
_cell_volume 1394.191555
_symmetry_space_group_name_H-M "C 2"
_symmetry_group_IT_number 5
_symmetry_cell_setting 'monoclinic'
loop_
_space_group_symop_operation_xyz
x,y,z
-x,y,-z
1/2+x,1/2+y,z
1/2-x,1/2+y,-z
loop_
_atom_site_type_symbol
_atom_site_label
_atom_site_fract_x
_atom_site_fract_y
_atom_site_fract_z
Si Si1 0.436040 0.710270 0.701467
Si Si2 0.854684 0.620841 0.363505
Si Si3 0.971694 0.096075 0.827221
Si Si4 0.582724 0.326206 0.158629
Si Si5 0.337621 0.247036 0.753289
Si Si6 0.313596 0.182223 0.228737
Si Si7 0.703659 0.010855 0.902120
O O1 0.465051 0.692997 0.762402
O O2 0.625458 0.746150 0.440073
O O3 0.367127 0.582918 0.747877
O O4 0.267582 0.795147 0.893902
O O5 0.669498 0.595165 0.627884
O O6 0.808995 0.623711 0.322814
O O7 0.928700 0.750688 0.299631
O O8 0.025726 0.533945 0.167261
O O9 0.945232 0.966476 0.818583
O O10 0.806076 0.140027 0.077197
O O11 0.595734 0.275307 0.234425
O O12 0.500000 0.224789 0.500000
O O13 0.244086 0.372613 0.841646
O O14 0.323581 0.078807 0.149800
O O15 0.500000 0.252076 0.000000
#
# Coordination Sequence:
#
# PCOD9120629 Si02
#       7
#     4   4   4   4   4   4   4
#     4   9  17  33  56  85 113 159 209 252 302 361
#     4   9  21  36  57  87 119 161 213 254 310 366
#     4  10  21  38  58  86 124 167 207 250 314 379
#     4  10  21  39  61  85 123 168 212 254 297 385
#     4  11  23  38  61  95 127 162 209 259 319 368
#     4   9  17  31  53  89 120 143 194 262 316 342
#     4  10  18  33  60  91 120 154 203 277 306 349
#
# _framework density 20.083324000000001
#
# number of rings (size 3 to 8) (size 9 to 14) (size 15 to 20)
#    0.000    2.286    1.429    1.286    4.000    0.000 
#    0.000    5.000    0.000    3.429    0.000    0.000 
#    0.000    0.000    0.000    0.000    0.000    0.000 
#
# Total GULP energy -77983.631264 kJ/mol
# GULP energy per Si atom -5570.259376 kJ/mol
# Density = 2.003761 g / cm^3
# Si number density = 20.083324 Si / 1000 Ang^3
#
#
#
# Elastic Constant Matrix: (Units=GPa)
#
#
# Indices 1 2 3 4 5 6 
#
# 1 46.5700 11.0169 29.5015 0.0000 -3.6617 0.0000
# 2 11.0169 38.8358 49.1409 0.0000 -4.6658 0.0000
# 3 29.5015 49.1409 186.1674 0.0000 -22.7291 0.0000
# 4 0.0000 0.0000 0.0000 6.5704 0.0000 2.1883
# 5 -3.6617 -4.6658 -22.7291 0.0000 29.2936 0.0000
# 6 0.0000 0.0000 0.0000 2.1883 0.0000 14.0191
#
#
#
# Elastic Compliance Matrix: (Units=1/GPa)
#
#
# Indices 1 2 3 4 5 6 
#
# 1 0.024102 -0.003020 -0.002997 0.000000 0.000206 0.000000
# 2 -0.003020 0.039142 -0.010095 0.000000 -0.001976 0.000000
# 3 -0.002997 -0.010095 0.009134 0.000000 0.005105 0.000000
# 4 0.000000 0.000000 0.000000 0.160544 0.000000 -0.025060
# 5 0.000206 -0.001976 0.005105 0.000000 0.037809 0.000000
# 6 0.000000 0.000000 0.000000 -0.025060 0.000000 0.075243
#
#
# Mechanical properties :
#
#
# Convention : Reuss Voigt Hill
#
# Bulk Modulus (GPa) = 24.90351 50.09907 37.50129
# Shear Modulus (GPa) = 12.76868 22.10421 17.43645
#
# Velocity S-wave (km/s) = 2.52421 3.32117 2.94973
# Velocity P-wave (km/s) = 4.57412 6.30132 5.50587
#
# Compressibility (1/GPa) = 0.04015499
#
# Stress axis : x y z
#
# Youngs Moduli (GPa) = 41.48977 25.54804 109.47806
#
# Poissons Ratio (x) = 0.07716 0.32811
# Poissons Ratio (y) = 0.12531 1.10513
# Poissons Ratio (z) = 0.12435 0.25790
#
# Static dielectric constant tensor:
#      x y z
#    x 1.753640 0.000000 -0.017030 
#    y 0.000000 1.678200 0.000000 
#    z -0.017030 0.000000 1.819970 
# 
# From -- ./inp_files/63348.got.cif
#   From: 2010.05.17/outbox.cif.g08.bks.cpg/sg5_32_cif.got.tgz:63348.got - 2010.06.03 18:56:24.
