data_PCOD9120430
_publ_section_title
;
Structure prediction by ZEFSAII (Michael W. Deem and Ramdas Pophale) SiO2 
 PCOD9120430
Probable space group: C 2
;
_chemical_formula_sum "Si O2"
_cell_formula_units_Z 32
_cell_length_a 16.782456
_cell_length_b 9.840590
_cell_length_c 12.923329
_cell_angle_alpha 90.000000
_cell_angle_beta 40.402625
_cell_angle_gamma 90.000000
_cell_volume 1383.342725
_symmetry_space_group_name_H-M "C 2"
_symmetry_group_IT_number 5
_symmetry_cell_setting 'monoclinic'
loop_
_space_group_symop_operation_xyz
x,y,z
-x,y,-z
1/2+x,1/2+y,z
1/2-x,1/2+y,-z
loop_
_atom_site_type_symbol
_atom_site_label
_atom_site_fract_x
_atom_site_fract_y
_atom_site_fract_z
Si Si1 0.035657 0.382550 0.197688
Si Si2 0.435780 0.596067 0.917711
Si Si3 0.732162 0.516743 0.109984
Si Si4 0.254601 0.558535 0.278120
Si Si5 0.375298 0.123094 0.396227
Si Si6 0.503952 0.306308 0.873400
Si Si7 0.419443 0.263940 0.667127
Si Si8 0.776456 0.292997 0.810550
O O1 0.915002 0.468060 0.339354
O O2 0.115886 0.348041 0.220751
O O3 0.012443 0.242426 0.161732
O O4 0.124694 0.483102 0.045071
O O5 0.373723 0.595014 0.092147
O O6 0.523563 0.464345 0.823377
O O7 0.327584 0.570571 0.938589
O O8 0.671933 0.373662 0.197296
O O9 0.703046 0.632538 0.223407
O O10 0.149325 0.640487 0.320071
O O11 0.233117 0.398380 0.274920
O O12 0.236377 0.613217 0.412515
O O13 0.487695 0.199357 0.343615
O O14 0.389853 0.209547 0.277097
O O15 0.356063 0.290509 0.998307
O O16 0.500000 0.290009 0.000000
O O17 0.500000 0.336840 0.500000
#
# Coordination Sequence:
#
# PCOD9120430 Si02
#       8
#     4   4   4   4   4   4   4   4
#     4  11  18  31  57  84 113 143 174 227 280 340
#     4  10  20  34  56  82 112 149 184 218 284 333
#     4  11  17  31  54  82 119 145 179 224 277 338
#     4  10  19  32  53  81 118 145 173 220 287 342
#     4  11  20  35  55  86 114 144 185 227 281 332
#     4  11  22  38  59  79 105 150 201 235 263 329
#     4  10  18  30  49  83 120 147 174 217 282 344
#     4  10  20  33  53  85 112 148 181 222 285 336
#
# _framework density 23.132373000000001
#
# number of rings (size 3 to 8) (size 9 to 14) (size 15 to 20)
#    0.000    1.500    7.500    0.000    0.000    0.000 
#    4.500    0.625    0.000   15.000    0.000    0.000 
#    0.000    0.000    0.000    0.000    0.000    0.000 
#
# Total GULP energy -89293.557737 kJ/mol
# GULP energy per Si atom -5580.847359 kJ/mol
# Density = 2.307972 g / cm^3
# Si number density = 23.132373 Si / 1000 Ang^3
#
#
#
# Elastic Constant Matrix: (Units=GPa)
#
#
# Indices 1 2 3 4 5 6 
#
# 1 42.4632 11.9887 20.5898 0.0000 1.2243 0.0000
# 2 11.9887 134.2781 38.1485 0.0000 10.7465 0.0000
# 3 20.5898 38.1485 93.8074 0.0000 5.9919 0.0000
# 4 0.0000 0.0000 0.0000 32.8010 0.0000 0.8425
# 5 1.2243 10.7465 5.9919 0.0000 23.3791 0.0000
# 6 0.0000 0.0000 0.0000 0.8425 0.0000 16.7810
#
#
#
# Elastic Compliance Matrix: (Units=1/GPa)
#
#
# Indices 1 2 3 4 5 6 
#
# 1 0.026435 -0.000833 -0.005489 0.000000 0.000405 0.000000
# 2 -0.000833 0.008665 -0.003141 0.000000 -0.003134 0.000000
# 3 -0.005489 -0.003141 0.013248 0.000000 -0.001664 0.000000
# 4 0.000000 0.000000 0.000000 0.030526 0.000000 -0.001533
# 5 0.000405 -0.003134 -0.001664 0.000000 0.044619 0.000000
# 6 0.000000 0.000000 0.000000 -0.001533 0.000000 0.059668
#
#
# Mechanical properties :
#
#
# Convention : Reuss Voigt Hill
#
# Bulk Modulus (GPa) = 33.98803 45.77809 39.88306
# Shear Modulus (GPa) = 23.59655 27.91366 25.75510
#
# Velocity S-wave (km/s) = 3.19731 3.47752 3.34035
# Velocity P-wave (km/s) = 5.32495 5.99639 5.67062
#
# Compressibility (1/GPa) = 0.02942212
#
# Stress axis : x y z
#
# Youngs Moduli (GPa) = 37.82863 115.41068 75.48036
#
# Poissons Ratio (x) = 0.09615 0.41434
# Poissons Ratio (y) = 0.03152 0.23705
# Poissons Ratio (z) = 0.20765 0.36246
#
# Static dielectric constant tensor:
#      x y z
#    x 1.983350 0.000000 0.012390 
#    y 0.000000 1.891390 0.000000 
#    z 0.012390 0.000000 1.907200 
# 
# From -- ./inp_files/46135.got.cif
#   From: 2010.05.17/outbox.cif.g08.bks.cpg/sg5_24_cif.got.tgz:46135.got - 2010.06.03 18:56:24.
