data_PCOD9120941
_publ_section_title
;
Structure prediction by ZEFSAII (Michael W. Deem and Ramdas Pophale) SiO2 
 PCOD9120941
Probable space group: C 2
;
_chemical_formula_sum "Si O2"
_cell_formula_units_Z 20
_cell_length_a 13.088795
_cell_length_b 7.015322
_cell_length_c 17.547674
_cell_angle_alpha 90.000000
_cell_angle_beta 33.234926
_cell_angle_gamma 90.000000
_cell_volume 883.090865
_symmetry_space_group_name_H-M "C 2"
_symmetry_group_IT_number 5
_symmetry_cell_setting 'monoclinic'
loop_
_space_group_symop_operation_xyz
x,y,z
-x,y,-z
1/2+x,1/2+y,z
1/2-x,1/2+y,-z
loop_
_atom_site_type_symbol
_atom_site_label
_atom_site_fract_x
_atom_site_fract_y
_atom_site_fract_z
Si Si1 0.000000 0.300890 0.500000
Si Si2 0.954813 0.387035 0.799695
Si Si3 0.910632 0.775292 0.896484
Si Si4 0.120773 0.101767 0.281196
Si Si5 0.500000 0.075830 0.000000
Si Si6 0.672943 0.550098 0.648248
O O1 0.887571 0.165617 0.627327
O O2 0.863560 0.440131 0.538459
O O3 0.956422 0.611678 0.806571
O O4 0.870823 0.297811 0.774482
O O5 0.807039 0.325301 0.957679
O O6 0.151138 0.274644 0.680945
O O7 0.974727 0.697434 0.938636
O O8 0.027693 0.956341 0.798168
O O9 0.299788 0.980050 0.142670
O O10 0.925525 0.018870 0.372351
#
# Coordination Sequence:
#
# PCOD9120941 Si02
#       6
#     2   4   4   4   2   4
#     4  12  22  44  68  90 142 182 206 282 318 392
#     4   9  20  37  63  99 122 170 214 270 327 386
#     4  11  17  38  67  92 134 158 217 278 320 381
#     4   9  22  40  66  95 124 172 221 258 339 377
#     4  10  18  36  66  98 118 168 214 268 332 372
#     4  10  23  40  65  94 129 179 217 261 334 391
#
# _framework density 22.647728000000001
#
# number of rings (size 3 to 8) (size 9 to 14) (size 15 to 20)
#    1.200    0.800    4.000    0.000    0.000    1.600 
#    0.000    8.000    0.000    0.000    0.000    0.000 
#    0.000    0.000    0.000    0.000    0.000    0.000 
#
# Total GULP energy -55678.118899 kJ/mol
# GULP energy per Si atom -5567.811890 kJ/mol
# Density = 2.259618 g / cm^3
# Si number density = 22.647728 Si / 1000 Ang^3
#
#
#
# Elastic Constant Matrix: (Units=GPa)
#
#
# Indices 1 2 3 4 5 6 
#
# 1 58.3610 3.7681 9.7164 0.0000 -13.8841 0.0000
# 2 3.7681 44.8960 12.7406 0.0000 -3.5555 0.0000
# 3 9.7164 12.7406 88.0353 0.0000 -5.3370 0.0000
# 4 0.0000 0.0000 0.0000 18.8189 0.0000 -7.2576
# 5 -13.8841 -3.5555 -5.3370 0.0000 40.8607 0.0000
# 6 0.0000 0.0000 0.0000 -7.2576 0.0000 16.9435
#
#
#
# Elastic Compliance Matrix: (Units=1/GPa)
#
#
# Indices 1 2 3 4 5 6 
#
# 1 0.018911 -0.000639 -0.001621 0.000000 0.006158 0.000000
# 2 -0.000639 0.023353 -0.003225 0.000000 0.001394 0.000000
# 3 -0.001621 -0.003225 0.012050 0.000000 0.000742 0.000000
# 4 0.000000 0.000000 0.000000 0.063653 0.000000 0.027265
# 5 0.006158 0.001394 0.000742 0.000000 0.026784 0.000000
# 6 0.000000 0.000000 0.000000 0.027265 0.000000 0.070699
#
#
# Mechanical properties :
#
#
# Convention : Reuss Voigt Hill
#
# Bulk Modulus (GPa) = 23.07183 27.08251 25.07717
# Shear Modulus (GPa) = 20.75828 26.32908 23.54368
#
# Velocity S-wave (km/s) = 3.03078 3.41332 3.22772
# Velocity P-wave (km/s) = 4.73887 5.24580 4.99876
#
# Compressibility (1/GPa) = 0.04334290
#
# Stress axis : x y z
#
# Youngs Moduli (GPa) = 52.87916 42.82143 82.98962
#
# Poissons Ratio (x) = 0.02738 0.13455
# Poissons Ratio (y) = 0.03381 0.26761
# Poissons Ratio (z) = 0.08573 0.13808
#
# Static dielectric constant tensor:
#      x y z
#    x 1.908220 0.000000 -0.063350 
#    y 0.000000 1.806170 0.000000 
#    z -0.063350 0.000000 1.859020 
# 
# From -- ./inp_files/22574.got.cif
#   From: 2010.05.17/outbox.cif.g08.bks.cpg/sg5_12_cif.got.tgz:22574.got - 2010.06.03 18:56:24.
