data_PCOD9120763
_publ_section_title
;
Structure prediction by ZEFSAII (Michael W. Deem and Ramdas Pophale) SiO2 
 PCOD9120763
Probable space group: C 2
;
_chemical_formula_sum "Si O2"
_cell_formula_units_Z 20
_cell_length_a 17.843422
_cell_length_b 7.679773
_cell_length_c 13.736196
_cell_angle_alpha 90.000000
_cell_angle_beta 19.458336
_cell_angle_gamma 90.000000
_cell_volume 627.040252
_symmetry_space_group_name_H-M "C 2"
_symmetry_group_IT_number 5
_symmetry_cell_setting 'monoclinic'
loop_
_space_group_symop_operation_xyz
x,y,z
-x,y,-z
1/2+x,1/2+y,z
1/2-x,1/2+y,-z
loop_
_atom_site_type_symbol
_atom_site_label
_atom_site_fract_x
_atom_site_fract_y
_atom_site_fract_z
Si Si1 0.772071 0.794590 0.151435
Si Si2 0.086184 0.104358 0.619587
Si Si3 0.292574 0.909915 0.194897
Si Si4 0.803554 0.983684 0.299560
Si Si5 0.601794 0.257041 0.224106
O O1 0.500000 0.796604 0.500000
O O2 0.855304 0.605719 0.086164
O O3 0.893091 0.945462 0.068253
O O4 0.874321 0.814029 0.920326
O O5 0.187990 0.061729 0.598735
O O6 0.196307 0.288037 0.449290
O O7 0.119220 0.950080 0.496416
O O8 0.824772 0.134037 0.937641
O O9 0.201453 0.832314 0.207657
O O10 0.104639 0.620146 0.505453
O O11 0.000000 0.325376 0.000000
#
# Coordination Sequence:
#
# PCOD9120763 Si02
#       5
#     4   4   4   4   4
#     4   8  15  33  65 104 131 192 247 295 355 436
#     4   9  19  35  66 113 145 185 242 304 374 442
#     4  10  18  34  70 110 136 190 257 298 357 446
#     4   7  13  31  62 103 131 189 247 292 350 435
#     4   9  20  36  66 115 143 189 245 300 378 444
#
# _framework density 31.895878
#
# number of rings (size 3 to 8) (size 9 to 14) (size 15 to 20)
#    2.400    0.800    2.000    0.000    0.000    0.800 
#    0.000    0.000    8.800    6.000   67.600    0.000 
#    0.000    0.000    0.000    0.000    0.000    0.000 
#
# Total GULP energy -56062.831761 kJ/mol
# GULP energy per Si atom -5606.283176 kJ/mol
# Density = 3.182328 g / cm^3
# Si number density = 31.895878 Si / 1000 Ang^3
#
#
#
# Elastic Constant Matrix: (Units=GPa)
#
#
# Indices 1 2 3 4 5 6 
#
# 1 375.5969 121.3917 132.8808 -0.0014 17.9319 -0.0011
# 2 121.3917 211.2692 103.6524 -0.0050 13.1024 0.0021
# 3 132.8808 103.6524 306.8116 -0.0049 19.1758 0.0012
# 4 -0.0014 -0.0050 -0.0049 44.2848 0.0029 48.3980
# 5 17.9319 13.1024 19.1758 0.0029 88.8031 0.0007
# 6 -0.0011 0.0021 0.0012 48.3980 0.0007 16.6957
#
#
#
# Elastic Compliance Matrix: (Units=1/GPa)
#
#
# Indices 1 2 3 4 5 6 
#
# 1 0.003517 -0.001516 -0.000994 0.000000 -0.000272 0.000000
# 2 -0.001516 0.006344 -0.001467 -0.000001 -0.000313 0.000001
# 3 -0.000994 -0.001467 0.004216 0.000000 -0.000493 0.000000
# 4 0.000000 -0.000001 0.000000 -0.010415 0.000000 0.030192
# 5 -0.000272 -0.000313 -0.000493 0.000000 0.011468 -0.000001
# 6 0.000000 0.000001 0.000000 0.030192 -0.000001 -0.027626
#
#
# Mechanical properties :
#
#
# Convention : Reuss Voigt Hill
#
# Bulk Modulus (GPa) = 163.32854 178.83639 171.08246
# Shear Modulus (GPa) = -1999.42719 65.67356 -966.87682
#
# Velocity S-wave (km/s) = -25.06435 4.54254 -17.42967
# Velocity P-wave (km/s) = 28.04123 9.14896 18.74310
#
# Compressibility (1/GPa) = 0.00612263
#
# Stress axis : x y z
#
# Youngs Moduli (GPa) = 284.32041 157.63846 237.17960
#
# Poissons Ratio (x) = 0.23904 0.23576
# Poissons Ratio (y) = 0.43113 0.34790
# Poissons Ratio (z) = 0.28262 0.23123
#
# Static dielectric constant tensor:
#      x y z
#    x 2.740840 0.000000 0.126330 
#    y 0.000000 2.726180 0.000000 
#    z 0.126330 0.000000 2.927250 
# 
# From -- ./inp_files/56765.got.cif
#   From: 2010.05.17/outbox.cif.g08.bks.cpg/sg5_29_cif.got.tgz:56765.got - 2010.06.03 18:56:24.
