data_PCOD9120505
_publ_section_title
;
Structure prediction by ZEFSAII (Michael W. Deem and Ramdas Pophale) SiO2 
 PCOD9120505
Probable space group: C 2
;
_chemical_formula_sum "Si O2"
_cell_formula_units_Z 22
_cell_length_a 26.527061
_cell_length_b 5.021887
_cell_length_c 8.009022
_cell_angle_alpha 90.000000
_cell_angle_beta 61.092411
_cell_angle_gamma 90.000000
_cell_volume 933.990272
_symmetry_space_group_name_H-M "C 2"
_symmetry_group_IT_number 5
_symmetry_cell_setting 'monoclinic'
loop_
_space_group_symop_operation_xyz
x,y,z
-x,y,-z
1/2+x,1/2+y,z
1/2-x,1/2+y,-z
loop_
_atom_site_type_symbol
_atom_site_label
_atom_site_fract_x
_atom_site_fract_y
_atom_site_fract_z
Si Si1 0.951341 0.390530 0.863844
Si Si2 0.000000 0.085580 0.500000
Si Si3 0.279070 0.383606 0.387805
Si Si4 0.764526 0.671130 0.870487
Si Si5 0.099719 0.895142 0.925881
Si Si6 0.387694 0.243092 0.737631
O O1 0.906836 0.458265 0.782368
O O2 0.948772 0.669421 0.965872
O O3 0.000334 0.260259 0.670132
O O4 0.929964 0.179164 0.033209
O O5 0.055614 0.892794 0.416314
O O6 0.252911 0.598930 0.559540
O O7 0.264705 0.542918 0.242198
O O8 0.348236 0.344553 0.282936
O O9 0.831360 0.726495 0.719210
O O10 0.762716 0.442349 0.015997
O O11 0.128696 0.893111 0.064431
#
# Coordination Sequence:
#
# PCOD9120505 Si02
#       6
#     4   2   4   4   4   4
#     4   9  17  30  51  79 119 143 194 243 313 347
#     4  10  18  32  50  96 124 152 194 270 312 356
#     4  12  24  39  58  89 130 168 213 250 303 382
#     4  12  23  40  63  91 128 167 208 254 318 373
#     4   9  18  34  50  78 111 161 192 244 294 365
#     4   9  20  33  58  84 125 156 198 254 311 360
#
# _framework density 23.554852
#
# number of rings (size 3 to 8) (size 9 to 14) (size 15 to 20)
#    1.091    0.727    1.818    3.818    2.545    0.000 
#    0.000    0.000    0.000    0.000    0.000    5.091 
#   21.818    0.000    0.000    0.000    0.000    0.000 
#
# Total GULP energy -61252.948166 kJ/mol
# GULP energy per Si atom -5568.449833 kJ/mol
# Density = 2.350124 g / cm^3
# Si number density = 23.554852 Si / 1000 Ang^3
#
#
#
# Elastic Constant Matrix: (Units=GPa)
#
#
# Indices 1 2 3 4 5 6 
#
# 1 57.6294 11.3042 33.2760 0.0000 -20.2678 0.0000
# 2 11.3042 143.1010 41.1350 0.0000 -16.8292 0.0000
# 3 33.2760 41.1350 116.0339 0.0000 -29.4200 0.0000
# 4 0.0000 0.0000 0.0000 34.5381 0.0000 -4.9037
# 5 -20.2678 -16.8292 -29.4200 0.0000 33.0128 0.0000
# 6 0.0000 0.0000 0.0000 -4.9037 0.0000 11.2967
#
#
#
# Elastic Compliance Matrix: (Units=1/GPa)
#
#
# Indices 1 2 3 4 5 6 
#
# 1 0.023521 0.000640 -0.004171 0.000000 0.011050 0.000000
# 2 0.000640 0.007897 -0.002406 0.000000 0.002274 0.000000
# 3 -0.004171 -0.002406 0.012541 0.000000 0.007389 0.000000
# 4 0.000000 0.000000 0.000000 0.030855 0.000000 0.013394
# 5 0.011050 0.002274 0.007389 0.000000 0.044819 0.000000
# 6 0.000000 0.000000 0.000000 0.013394 0.000000 0.094335
#
#
# Mechanical properties :
#
#
# Convention : Reuss Voigt Hill
#
# Bulk Modulus (GPa) = 31.16728 54.24386 42.70557
# Shear Modulus (GPa) = 21.13838 31.17279 26.15559
#
# Velocity S-wave (km/s) = 2.99893 3.64182 3.33590
# Velocity P-wave (km/s) = 5.02513 6.38456 5.74519
#
# Compressibility (1/GPa) = 0.03208492
#
# Stress axis : x y z
#
# Youngs Moduli (GPa) = 42.51511 126.63539 79.74044
#
# Poissons Ratio (x) = -0.08109 0.33257
# Poissons Ratio (y) = -0.02723 0.19189
# Poissons Ratio (z) = 0.17731 0.30475
#
# Static dielectric constant tensor:
#      x y z
#    x 2.088200 0.000000 -0.069040 
#    y 0.000000 1.931520 0.000000 
#    z -0.069040 0.000000 2.013350 
# 
# From -- ./inp_files/32028.got.cif
#   From: 2010.05.17/outbox.cif.g08.bks.cpg/sg5_17_cif.got.tgz:32028.got - 2010.06.03 18:56:24.
