data_PCOD9120947
_publ_section_title
;
Structure prediction by ZEFSAII (Michael W. Deem and Ramdas Pophale) SiO2 
 PCOD9120947
Probable space group: C 2
;
_chemical_formula_sum "Si O2"
_cell_formula_units_Z 26
_cell_length_a 22.568481
_cell_length_b 7.637504
_cell_length_c 11.959416
_cell_angle_alpha 90.000000
_cell_angle_beta 148.857260
_cell_angle_gamma 90.000000
_cell_volume 1066.101833
_symmetry_space_group_name_H-M "C 2"
_symmetry_group_IT_number 5
_symmetry_cell_setting 'monoclinic'
loop_
_space_group_symop_operation_xyz
x,y,z
-x,y,-z
1/2+x,1/2+y,z
1/2-x,1/2+y,-z
loop_
_atom_site_type_symbol
_atom_site_label
_atom_site_fract_x
_atom_site_fract_y
_atom_site_fract_z
Si Si1 0.500000 0.327770 0.500000
Si Si2 0.704873 0.274956 0.105465
Si Si3 0.427186 0.816419 0.112503
Si Si4 0.273235 0.801568 0.655326
Si Si5 0.666435 0.918778 0.490913
Si Si6 0.976587 0.943208 0.711527
Si Si7 0.234610 0.629455 0.930885
O O1 0.488907 0.437574 0.596143
O O2 0.614127 0.210779 0.696751
O O3 0.776361 0.279111 0.333163
O O4 0.741528 0.450920 0.096054
O O5 0.570758 0.305692 0.909070
O O6 0.729098 0.122025 0.056439
O O7 0.533666 0.941711 0.312780
O O8 0.489567 0.631362 0.187492
O O9 0.354111 0.865655 0.886132
O O10 0.338584 0.757955 0.064840
O O11 0.328690 0.850083 0.627201
O O12 0.241604 0.596009 0.620020
O O13 0.149991 0.891696 0.461036
#
# Coordination Sequence:
#
# PCOD9120947 Si02
#       7
#     2   4   4   4   4   4   4
#     4  10  18  36  72 106 128 188 218 282 342 414
#     4  10  23  43  66 106 131 184 219 286 340 409
#     4  11  24  46  68 103 136 181 226 293 332 412
#     4  12  25  50  66 102 139 186 228 291 327 415
#     4  12  26  46  72  97 143 181 234 277 350 397
#     4  10  21  43  73  93 146 178 225 285 347 390
#     4  10  21  41  70  99 143 166 232 280 345 402
#
# _framework density 24.387910999999999
#
# number of rings (size 3 to 8) (size 9 to 14) (size 15 to 20)
#    0.000    1.231    4.615    1.385    0.000    8.615 
#   11.077    0.000    0.000    0.000    0.000    0.000 
#    0.000    0.000    0.000    0.000    0.000    0.000 
#
# Total GULP energy -72851.896309 kJ/mol
# GULP energy per Si atom -5603.992024 kJ/mol
# Density = 2.433240 g / cm^3
# Si number density = 24.387911 Si / 1000 Ang^3
#
#
#
# Elastic Constant Matrix: (Units=GPa)
#
#
# Indices 1 2 3 4 5 6 
#
# 1 71.6639 -4.5009 28.5828 0.0000 14.2469 0.0000
# 2 -4.5009 63.9162 -7.0877 0.0000 9.8548 0.0000
# 3 28.5828 -7.0877 143.7575 0.0000 13.8246 0.0000
# 4 0.0000 0.0000 0.0000 30.3598 0.0000 11.7345
# 5 14.2469 9.8548 13.8246 0.0000 43.1132 0.0000
# 6 0.0000 0.0000 0.0000 11.7345 0.0000 24.9407
#
#
#
# Elastic Compliance Matrix: (Units=1/GPa)
#
#
# Indices 1 2 3 4 5 6 
#
# 1 0.016070 0.001581 -0.002654 0.000000 -0.004821 0.000000
# 2 0.001581 0.016573 0.000947 0.000000 -0.004614 0.000000
# 3 -0.002654 0.000947 0.007704 0.000000 -0.001810 0.000000
# 4 0.000000 0.000000 0.000000 0.040260 0.000000 -0.018942
# 5 -0.004821 -0.004614 -0.001810 0.000000 0.026423 0.000000
# 6 0.000000 0.000000 0.000000 -0.018942 0.000000 0.049007
#
#
# Mechanical properties :
#
#
# Convention : Reuss Voigt Hill
#
# Bulk Modulus (GPa) = 24.94080 34.81399 29.87740
# Shear Modulus (GPa) = 29.47155 37.17232 33.32194
#
# Velocity S-wave (km/s) = 3.48005 3.90835 3.70040
# Velocity P-wave (km/s) = 5.13776 5.88838 5.52583
#
# Compressibility (1/GPa) = 0.04009494
#
# Stress axis : x y z
#
# Youngs Moduli (GPa) = 62.22749 60.33842 129.79438
#
# Poissons Ratio (x) = -0.09537 0.34443
# Poissons Ratio (y) = -0.09836 -0.12286
# Poissons Ratio (z) = 0.16513 -0.05711
#
# Static dielectric constant tensor:
#      x y z
#    x 1.896500 0.000000 0.031340 
#    y 0.000000 2.005960 0.000000 
#    z 0.031340 0.000000 1.915630 
# 
# From -- ./inp_files/47373.got.cif
#   From: 2010.05.17/outbox.cif.g08.bks.cpg/sg5_24_cif.got.tgz:47373.got - 2010.06.03 18:56:24.
