data_PCOD9120015
_publ_section_title
;
Structure prediction by ZEFSAII (Michael W. Deem and Ramdas Pophale) SiO2 
 PCOD9120015
Probable space group: C 2
;
_chemical_formula_sum "Si O2"
_cell_formula_units_Z 28
_cell_length_a 8.060691
_cell_length_b 33.573812
_cell_length_c 5.403468
_cell_angle_alpha 90.000000
_cell_angle_beta 120.866308
_cell_angle_gamma 90.000000
_cell_volume 1255.215784
_symmetry_space_group_name_H-M "C 2"
_symmetry_group_IT_number 5
_symmetry_cell_setting 'monoclinic'
loop_
_space_group_symop_operation_xyz
x,y,z
-x,y,-z
1/2+x,1/2+y,z
1/2-x,1/2+y,-z
loop_
_atom_site_type_symbol
_atom_site_label
_atom_site_fract_x
_atom_site_fract_y
_atom_site_fract_z
Si Si1 0.236794 0.609090 0.164906
Si Si2 0.129212 0.318996 0.347787
Si Si3 0.883187 0.983463 0.656986
Si Si4 0.263438 0.732497 0.574627
Si Si5 0.272759 0.068347 0.339591
Si Si6 0.795416 0.199417 0.100575
Si Si7 0.127559 0.407229 0.348173
O O1 0.301138 0.594344 0.485047
O O2 0.312966 0.652319 0.145738
O O3 0.297670 0.579523 0.989012
O O4 0.000000 0.611166 0.000000
O O5 0.259826 0.279870 0.440368
O O6 0.221064 0.363032 0.413046
O O7 0.000000 0.316131 0.500000
O O8 0.000000 0.316672 0.000000
O O9 0.769125 0.944120 0.487571
O O10 0.000000 0.994998 0.500000
O O11 0.756796 0.022011 0.626400
O O12 0.000000 0.974745 0.000000
O O13 0.192071 0.714846 0.265362
O O14 0.494486 0.721063 0.746335
O O15 0.194710 0.711625 0.770153
O O16 0.500000 0.076575 0.500000
O O17 0.000000 0.407532 0.500000
O O18 0.000000 0.411570 0.000000
#
# Coordination Sequence:
#
# PCOD9120015 Si02
#       7
#     4   4   4   4   4   4   4
#     4  10  21  38  57  80 110 156 206 246 285 350
#     4  10  16  31  54  84 112 140 199 242 292 329
#     4  12  25  43  62  93 130 159 192 258 333 366
#     4  10  17  30  49  81 112 149 174 247 292 338
#     4  10  22  42  63  81 113 162 209 250 289 369
#     4  10  18  30  49  78 112 147 181 234 302 334
#     4  10  22  38  66  95 116 163 209 253 287 386
#
# _framework density 22.306923999999999
#
# number of rings (size 3 to 8) (size 9 to 14) (size 15 to 20)
#    0.000    1.714    2.857    3.000    0.000    1.714 
#   15.429    0.000    0.000    2.571    0.000    0.000 
#    0.000    0.000    0.000    0.000    0.000    0.000 
#
# Total GULP energy -78226.648495 kJ/mol
# GULP energy per Si atom -5587.617750 kJ/mol
# Density = 2.225615 g / cm^3
# Si number density = 22.306924 Si / 1000 Ang^3
#
#
#
# Elastic Constant Matrix: (Units=GPa)
#
#
# Indices 1 2 3 4 5 6 
#
# 1 78.9138 22.0437 49.5895 0.0000 -32.4459 0.0000
# 2 22.0437 156.2478 39.1197 0.0000 -30.5697 0.0000
# 3 49.5895 39.1197 167.5944 0.0000 -48.3504 0.0000
# 4 0.0000 0.0000 0.0000 31.5445 0.0000 -25.8796
# 5 -32.4459 -30.5697 -48.3504 0.0000 42.9702 0.0000
# 6 0.0000 0.0000 0.0000 -25.8796 0.0000 -5.4499
#
#
#
# Elastic Compliance Matrix: (Units=1/GPa)
#
#
# Indices 1 2 3 4 5 6 
#
# 1 0.018909 0.000223 -0.002195 0.000000 0.011967 0.000000
# 2 0.000223 0.007448 -0.000337 0.000000 0.005089 0.000000
# 3 -0.002195 -0.000337 0.009102 0.000000 0.008346 0.000000
# 4 0.000000 0.000000 0.000000 0.006475 0.000000 -0.030748
# 5 0.011967 0.005089 0.008346 0.000000 0.045319 0.000000
# 6 0.000000 0.000000 0.000000 -0.030748 0.000000 -0.037479
#
#
# Mechanical properties :
#
#
# Convention : Reuss Voigt Hill
#
# Bulk Modulus (GPa) = 32.42121 69.36242 50.89182
# Shear Modulus (GPa) = 77.31215 33.27984 55.29599
#
# Velocity S-wave (km/s) = 5.89352 3.86671 4.98423
# Velocity P-wave (km/s) = 7.80238 7.14824 7.48246
#
# Compressibility (1/GPa) = 0.03084401
#
# Stress axis : x y z
#
# Youngs Moduli (GPa) = 52.88416 134.25551 109.86168
#
# Poissons Ratio (x) = -0.02995 0.24110
# Poissons Ratio (y) = -0.01180 0.03697
# Poissons Ratio (z) = 0.11606 0.04518
#
# Static dielectric constant tensor:
#      x y z
#    x 1.823430 0.000000 0.010180 
#    y 0.000000 1.786790 0.000000 
#    z 0.010180 0.000000 1.863990 
# 
# From -- ./inp_files/3990.got.cif
#   From: 2010.05.17/outbox.cif.g08.bks.cpg/sg5_2_cif.got.tgz:3990.got - 2010.06.03 18:56:24.
