data_PCOD9120952
_publ_section_title
;
Structure prediction by ZEFSAII (Michael W. Deem and Ramdas Pophale) SiO2 
 PCOD9120952
Probable space group: C 2
;
_chemical_formula_sum "Si O2"
_cell_formula_units_Z 32
_cell_length_a 30.825219
_cell_length_b 9.139399
_cell_length_c 13.415384
_cell_angle_alpha 90.000000
_cell_angle_beta 159.183890
_cell_angle_gamma 90.000000
_cell_volume 1343.097156
_symmetry_space_group_name_H-M "C 2"
_symmetry_group_IT_number 5
_symmetry_cell_setting 'monoclinic'
loop_
_space_group_symop_operation_xyz
x,y,z
-x,y,-z
1/2+x,1/2+y,z
1/2-x,1/2+y,-z
loop_
_atom_site_type_symbol
_atom_site_label
_atom_site_fract_x
_atom_site_fract_y
_atom_site_fract_z
Si Si1 0.900891 0.910980 0.217669
Si Si2 0.988034 0.177587 0.865083
Si Si3 0.393116 0.814684 0.466342
Si Si4 0.729969 0.108221 0.758130
Si Si5 0.676038 0.848815 0.884675
Si Si6 0.225981 0.531806 0.341101
Si Si7 0.356540 0.124082 0.045235
Si Si8 0.751585 0.690216 0.419847
O O1 0.789842 0.891817 0.057305
O O2 0.000000 0.982524 0.500000
O O3 0.945716 0.755268 0.270368
O O4 0.853087 0.008584 0.024720
O O5 0.975742 0.269350 0.736897
O O6 0.865968 0.080165 0.613536
O O7 0.000000 0.255737 0.000000
O O8 0.120805 0.105246 0.140937
O O9 0.272630 0.713366 0.224729
O O10 0.370205 0.988687 0.426374
O O11 0.418970 0.793966 0.404884
O O12 0.767522 0.232169 0.917163
O O13 0.695726 0.164637 0.576211
O O14 0.639449 0.991652 0.868576
O O15 0.145217 0.563662 0.070122
O O16 0.182760 0.629198 0.341755
O O17 0.227164 0.362770 0.373807
#
# Coordination Sequence:
#
# PCOD9120952 Si02
#       8
#     4   4   4   4   4   4   4   4
#     4  10  21  35  56  84 120 157 196 250 300 366
#     4   9  21  40  62  87 123 159 209 251 312 367
#     4   9  18  34  61  78 120 164 187 251 311 361
#     4  10  21  36  58  90 114 156 207 244 311 376
#     4  10  18  37  57  82 117 158 201 239 312 370
#     4  10  22  40  66  88 123 167 202 263 321 372
#     4   9  18  37  57  79 116 161 193 242 317 363
#     4  11  23  39  69  90 119 166 210 259 321 376
#
# _framework density 23.825529
#
# number of rings (size 3 to 8) (size 9 to 14) (size 15 to 20)
#    0.000    2.500    1.250    3.000    7.000    3.000 
#    4.500    0.625    8.250    0.000    0.000    0.000 
#    0.000    0.000    0.000    0.000    0.000    0.000 
#
# Total GULP energy -89200.417219 kJ/mol
# GULP energy per Si atom -5575.026076 kJ/mol
# Density = 2.377130 g / cm^3
# Si number density = 23.825529 Si / 1000 Ang^3
#
#
#
# Elastic Constant Matrix: (Units=GPa)
#
#
# Indices 1 2 3 4 5 6 
#
# 1 118.6914 41.8121 34.4558 0.0000 -56.0292 0.0000
# 2 41.8121 112.1786 17.2182 0.0000 -23.2525 0.0000
# 3 34.4558 17.2182 77.2833 0.0000 -33.1403 0.0000
# 4 0.0000 0.0000 0.0000 25.0252 0.0000 -12.6897
# 5 -56.0292 -23.2525 -33.1403 0.0000 51.3018 0.0000
# 6 0.0000 0.0000 0.0000 -12.6897 0.0000 39.0726
#
#
#
# Elastic Compliance Matrix: (Units=1/GPa)
#
#
# Indices 1 2 3 4 5 6 
#
# 1 0.018258 -0.002964 0.000685 0.000000 0.019040 0.000000
# 2 -0.002964 0.010328 -0.000498 0.000000 0.001122 0.000000
# 3 0.000685 -0.000498 0.017938 0.000000 0.012109 0.000000
# 4 0.000000 0.000000 0.000000 0.047838 0.000000 0.015536
# 5 0.019040 0.001122 0.012109 0.000000 0.048618 0.000000
# 6 0.000000 0.000000 0.000000 0.015536 0.000000 0.030639
#
#
# Mechanical properties :
#
#
# Convention : Reuss Voigt Hill
#
# Bulk Modulus (GPa) = 24.40859 55.01395 39.71127
# Shear Modulus (GPa) = 25.92937 37.39107 31.66022
#
# Velocity S-wave (km/s) = 3.30252 3.96583 3.64928
# Velocity P-wave (km/s) = 4.98088 6.64160 5.87026
#
# Compressibility (1/GPa) = 0.04096919
#
# Stress axis : x y z
#
# Youngs Moduli (GPa) = 54.76906 96.82213 55.74776
#
# Poissons Ratio (x) = 0.28697 -0.03816
# Poissons Ratio (y) = 0.16233 0.02778
# Poissons Ratio (z) = -0.03749 0.04825
#
# Static dielectric constant tensor:
#      x y z
#    x 1.976680 0.000000 0.043890 
#    y 0.000000 1.917100 0.000000 
#    z 0.043890 0.000000 2.034480 
# 
# From -- ./inp_files/48408.got.cif
#   From: 2010.05.17/outbox.cif.g08.bks.cpg/sg5_25_cif.got.tgz:48408.got - 2010.06.03 18:56:24.
