data_PCOD9120979
_publ_section_title
;
Structure prediction by ZEFSAII (Michael W. Deem and Ramdas Pophale) SiO2 
 PCOD9120979
Probable space group: C 2
;
_chemical_formula_sum "Si O2"
_cell_formula_units_Z 24
_cell_length_a 5.999153
_cell_length_b 23.444086
_cell_length_c 6.971529
_cell_angle_alpha 90.000000
_cell_angle_beta 84.439675
_cell_angle_gamma 90.000000
_cell_volume 975.894765
_symmetry_space_group_name_H-M "C 2"
_symmetry_group_IT_number 5
_symmetry_cell_setting 'monoclinic'
loop_
_space_group_symop_operation_xyz
x,y,z
-x,y,-z
1/2+x,1/2+y,z
1/2-x,1/2+y,-z
loop_
_atom_site_type_symbol
_atom_site_label
_atom_site_fract_x
_atom_site_fract_y
_atom_site_fract_z
Si Si1 0.848780 0.965780 0.772296
Si Si2 0.500000 0.024675 0.000000
Si Si3 0.500000 0.690904 0.000000
Si Si4 0.500000 0.563476 0.500000
Si Si5 0.603891 0.353453 0.705350
Si Si6 0.092293 0.736602 0.270085
Si Si7 0.000000 0.411940 0.500000
Si Si8 0.331169 0.123881 0.251469
O O1 0.667615 0.949521 0.617476
O O2 0.983299 0.908768 0.796732
O O3 0.987541 0.019661 0.679314
O O4 0.715069 0.985211 0.970318
O O5 0.462252 0.067642 0.176470
O O6 0.343094 0.730440 0.156121
O O7 0.636892 0.647505 0.126392
O O8 0.710451 0.605528 0.457944
O O9 0.500000 0.351975 0.500000
O O10 0.534767 0.292871 0.796565
O O11 0.861163 0.370295 0.653070
O O12 0.000000 0.738067 0.500000
O O13 0.997153 0.675680 0.224960
#
# Coordination Sequence:
#
# PCOD9120979 Si02
#       8
#     4   2   2   2   4   4   2   4
#     4  10  20  39  59  93 121 160 203 255 314 369
#     4  10  22  41  58  86 139 154 200 266 306 380
#     4  12  24  43  64  90 131 164 212 264 316 370
#     4  10  20  39  66  86 131 160 208 262 304 388
#     4   9  20  39  62  90 123 157 210 257 304 373
#     4  11  24  43  67  93 127 169 216 261 313 376
#     4  10  18  37  64  88 115 158 210 246 310 372
#     4  11  23  43  59  96 126 166 212 259 319 369
#
# _framework density 24.592818999999999
#
# number of rings (size 3 to 8) (size 9 to 14) (size 15 to 20)
#    0.000    1.667    4.167    1.000    0.000    6.667 
#    6.000    1.667    0.000    0.000    0.000    0.000 
#    0.000    0.000    0.000    0.000    0.000    0.000 
#
# Total GULP energy -66901.230718 kJ/mol
# GULP energy per Si atom -5575.102560 kJ/mol
# Density = 2.453684 g / cm^3
# Si number density = 24.592819 Si / 1000 Ang^3
#
#
#
# Elastic Constant Matrix: (Units=GPa)
#
#
# Indices 1 2 3 4 5 6 
#
# 1 71.5131 46.8896 51.2824 0.0000 -34.5987 0.0000
# 2 46.8896 174.3212 39.4187 0.0000 -47.1428 0.0000
# 3 51.2824 39.4187 136.2302 0.0000 -39.9152 0.0000
# 4 0.0000 0.0000 0.0000 -244.5603 0.0000 231.7982
# 5 -34.5987 -47.1428 -39.9152 0.0000 60.9100 0.0000
# 6 0.0000 0.0000 0.0000 231.7982 0.0000 -212.4415
#
#
#
# Elastic Compliance Matrix: (Units=1/GPa)
#
#
# Indices 1 2 3 4 5 6 
#
# 1 0.023759 -0.003100 -0.005935 0.000000 0.007207 0.000000
# 2 -0.003100 0.007694 0.000210 0.000000 0.004332 0.000000
# 3 -0.005935 0.000210 0.010611 0.000000 0.003745 0.000000
# 4 0.000000 0.000000 0.000000 0.119642 0.000000 0.130543
# 5 0.007207 0.004332 0.003745 0.000000 0.026318 0.000000
# 6 0.000000 0.000000 0.000000 0.130543 0.000000 0.137731
#
#
# Mechanical properties :
#
#
# Convention : Reuss Voigt Hill
#
# Bulk Modulus (GPa) = 40.95925 73.02734 56.99329
# Shear Modulus (GPa) = 14.22297 -62.92011 -24.34857
#
# Velocity S-wave (km/s) = 2.40748 -5.06362 -3.14995
# Velocity P-wave (km/s) = 4.94156 2.10429 3.16157
#
# Compressibility (1/GPa) = 0.02441451
#
# Stress axis : x y z
#
# Youngs Moduli (GPa) = 42.08945 129.96495 94.23962
#
# Poissons Ratio (x) = 0.40283 0.55933
# Poissons Ratio (y) = 0.13046 -0.01976
# Poissons Ratio (z) = 0.24981 -0.02725
#
# Static dielectric constant tensor:
#      x y z
#    x 2.752410 0.000000 -1.515090 
#    y 0.000000 1.912120 0.000000 
#    z -1.515090 0.000000 5.686100 
# 
# From -- ./inp_files/12806.got.cif
#   From: 2010.05.17/outbox.cif.g08.bks.cpg/sg5_7_cif.got.tgz:12806.got - 2010.06.03 18:56:24.
