data_PCOD9120920
_publ_section_title
;
Structure prediction by ZEFSAII (Michael W. Deem and Ramdas Pophale) SiO2 
 PCOD9120920
Probable space group: C 2
;
_chemical_formula_sum "Si O2"
_cell_formula_units_Z 32
_cell_length_a 14.083185
_cell_length_b 17.871074
_cell_length_c 11.046915
_cell_angle_alpha 90.000000
_cell_angle_beta 147.566172
_cell_angle_gamma 90.000000
_cell_volume 1491.148013
_symmetry_space_group_name_H-M "C 2"
_symmetry_group_IT_number 5
_symmetry_cell_setting 'monoclinic'
loop_
_space_group_symop_operation_xyz
x,y,z
-x,y,-z
1/2+x,1/2+y,z
1/2-x,1/2+y,-z
loop_
_atom_site_type_symbol
_atom_site_label
_atom_site_fract_x
_atom_site_fract_y
_atom_site_fract_z
Si Si1 0.707114 0.567170 0.981228
Si Si2 0.789893 0.687972 0.255377
Si Si3 0.483740 0.966035 0.128393
Si Si4 0.077945 0.791339 0.969967
Si Si5 0.808475 0.156712 0.267755
Si Si6 0.619016 0.805537 0.889870
Si Si7 0.241691 0.224352 0.475234
Si Si8 0.187145 0.056997 0.506900
O O1 0.709470 0.636599 0.890755
O O2 0.507287 0.538004 0.750302
O O3 0.739831 0.606151 0.146145
O O4 0.849223 0.512971 0.070240
O O5 0.713421 0.713878 0.301724
O O6 0.000000 0.687639 0.500000
O O7 0.725933 0.750518 0.093184
O O8 0.433404 0.881018 0.097597
O O9 0.677423 0.992426 0.378918
O O10 0.500000 0.979684 0.000000
O O11 0.162445 0.718725 0.129280
O O12 0.245721 0.822152 0.075215
O O13 0.000000 0.837619 0.000000
O O14 0.920511 0.766775 0.708907
O O15 0.807965 0.080130 0.345197
O O16 0.000000 0.189178 0.500000
O O17 0.431494 0.765597 0.659000
O O18 0.249725 0.137888 0.525419
#
# Coordination Sequence:
#
# PCOD9120920 Si02
#       8
#     4   4   4   4   4   4   4   4
#     4  11  23  41  67 103 142 177 238 294 344 419
#     4  12  22  43  72 104 142 193 241 291 350 426
#     4  12  26  44  70 104 149 189 234 294 366 425
#     4  12  24  40  72 105 135 180 237 298 357 418
#     4  10  18  36  64 105 139 164 221 296 346 399
#     4  12  27  47  67 108 149 185 236 297 363 435
#     4  12  24  42  73 104 144 186 237 292 355 422
#     4  11  22  39  70 105 137 179 235 294 355 412
#
# _framework density 21.459973999999999
#
# number of rings (size 3 to 8) (size 9 to 14) (size 15 to 20)
#    0.000    0.500    6.250    3.375    0.000    1.000 
#    2.250    0.000   11.000    0.000    0.000    0.000 
#    0.000    0.000    0.000    0.000    0.000    0.000 
#
# Total GULP energy -89233.336430 kJ/mol
# GULP energy per Si atom -5577.083527 kJ/mol
# Density = 2.141113 g / cm^3
# Si number density = 21.459974 Si / 1000 Ang^3
#
#
#
# Elastic Constant Matrix: (Units=GPa)
#
#
# Indices 1 2 3 4 5 6 
#
# 1 114.9164 39.1363 33.9854 0.0000 10.0127 0.0000
# 2 39.1363 55.9166 57.8542 0.0000 10.8236 0.0000
# 3 33.9854 57.8542 112.2619 0.0000 27.2140 0.0000
# 4 0.0000 0.0000 0.0000 19.9127 0.0000 13.4957
# 5 10.0127 10.8236 27.2140 0.0000 40.3185 0.0000
# 6 0.0000 0.0000 0.0000 13.4957 0.0000 34.6304
#
#
#
# Elastic Compliance Matrix: (Units=1/GPa)
#
#
# Indices 1 2 3 4 5 6 
#
# 1 0.011611 -0.009807 0.001913 0.000000 -0.001542 0.000000
# 2 -0.009807 0.047047 -0.022484 0.000000 0.004982 0.000000
# 3 0.001913 -0.022484 0.022200 0.000000 -0.009424 0.000000
# 4 0.000000 0.000000 0.000000 0.068244 0.000000 -0.026595
# 5 -0.001542 0.004982 -0.009424 0.000000 0.030209 0.000000
# 6 0.000000 0.000000 0.000000 -0.026595 0.000000 0.039241
#
#
# Mechanical properties :
#
#
# Convention : Reuss Voigt Hill
#
# Bulk Modulus (GPa) = 49.74923 60.56075 55.15499
# Shear Modulus (GPa) = 17.48198 29.11358 23.29778
#
# Velocity S-wave (km/s) = 2.85727 3.68726 3.29848
# Velocity P-wave (km/s) = 5.84106 6.81245 6.34537
#
# Compressibility (1/GPa) = 0.02010082
#
# Stress axis : x y z
#
# Youngs Moduli (GPa) = 86.12893 21.25538 45.04407
#
# Poissons Ratio (x) = 0.20845 -0.08617
# Poissons Ratio (y) = 0.84467 1.01279
# Poissons Ratio (z) = -0.16476 0.47792
#
# Static dielectric constant tensor:
#      x y z
#    x 1.743740 0.000000 -0.037260 
#    y 0.000000 1.764800 0.000000 
#    z -0.037260 0.000000 1.785870 
# 
# From -- ./inp_files/43376.got.cif
#   From: 2010.05.17/outbox.cif.g08.bks.cpg/sg5_22_cif.got.tgz:43376.got - 2010.06.03 18:56:24.
