data_PCOD9120127
_publ_section_title
;
Structure prediction by ZEFSAII (Michael W. Deem and Ramdas Pophale) SiO2 
 PCOD9120127
Probable space group: C 2
;
_chemical_formula_sum "Si O2"
_cell_formula_units_Z 32
_cell_length_a 32.931535
_cell_length_b 7.220700
_cell_length_c 5.634341
_cell_angle_alpha 90.000000
_cell_angle_beta 98.835528
_cell_angle_gamma 90.000000
_cell_volume 1323.884054
_symmetry_space_group_name_H-M "C 2"
_symmetry_group_IT_number 5
_symmetry_cell_setting 'monoclinic'
loop_
_space_group_symop_operation_xyz
x,y,z
-x,y,-z
1/2+x,1/2+y,z
1/2-x,1/2+y,-z
loop_
_atom_site_type_symbol
_atom_site_label
_atom_site_fract_x
_atom_site_fract_y
_atom_site_fract_z
Si Si1 0.427249 0.526300 0.423245
Si Si2 0.327659 0.906907 0.928123
Si Si3 0.716040 0.701507 0.467515
Si Si4 0.953599 0.086093 0.952878
Si Si5 0.049185 0.461088 0.538562
Si Si6 0.335034 0.519082 0.222937
Si Si7 0.743675 0.441653 0.114135
Si Si8 0.583727 0.989151 0.063741
O O1 0.444060 0.477352 0.700443
O O2 0.432450 0.751507 0.438078
O O3 0.380774 0.463391 0.330348
O O4 0.450063 0.477636 0.198045
O O5 0.337712 0.721714 0.094656
O O6 0.316777 0.850123 0.649712
O O7 0.283987 0.970355 0.991172
O O8 0.368344 0.027558 0.943560
O O9 0.689440 0.538745 0.553551
O O10 0.744747 0.781901 0.692857
O O11 0.739930 0.628966 0.263573
O O12 0.923337 0.263788 0.932899
O O13 0.000000 0.162652 0.000000
O O14 0.066380 0.546720 0.307052
O O15 0.000000 0.447842 0.500000
O O16 0.061565 0.550291 0.801360
O O17 0.301458 0.412718 0.035240
#
# Coordination Sequence:
#
# PCOD9120127 Si02
#       8
#     4   4   4   4   4   4   4   4
#     4  10  17  26  42  63  92 133 175 229 253 329
#     4  10  19  32  48  72  97 136 194 235 279 328
#     4  10  20  36  54  74 104 144 184 252 288 330
#     4  10  17  26  40  65  96 135 178 222 260 329
#     4  10  17  26  40  65  96 135 178 222 260 329
#     4  10  19  32  48  72  97 136 194 235 279 328
#     4  10  22  34  54  76 106 140 200 250 284 342
#     4  10  17  26  42  63  92 133 175 229 253 329
#
# _framework density 24.171299999999999
#
# number of rings (size 3 to 8) (size 9 to 14) (size 15 to 20)
#    0.000    2.000    2.500    6.000    3.500    0.000 
#    0.000    0.000    0.000    0.000    0.000    0.000 
#    0.000    0.000    0.000    0.000   23.750   35.000 
#
# Total GULP energy -89247.642920 kJ/mol
# GULP energy per Si atom -5577.977682 kJ/mol
# Density = 2.411629 g / cm^3
# Si number density = 24.171300 Si / 1000 Ang^3
#
#
#
# Elastic Constant Matrix: (Units=GPa)
#
#
# Indices 1 2 3 4 5 6 
#
# 1 134.0644 6.8354 42.7316 0.0000 12.0120 0.0000
# 2 6.8354 39.5082 1.6158 0.0000 -3.2799 0.0000
# 3 42.7316 1.6158 194.7688 0.0000 1.8966 0.0000
# 4 0.0000 0.0000 0.0000 3.8508 0.0000 -3.2177
# 5 12.0120 -3.2799 1.8966 0.0000 37.1594 0.0000
# 6 0.0000 0.0000 0.0000 -3.2177 0.0000 8.9195
#
#
#
# Elastic Compliance Matrix: (Units=1/GPa)
#
#
# Indices 1 2 3 4 5 6 
#
# 1 0.008359 -0.001601 -0.001794 0.000000 -0.002752 0.000000
# 2 -0.001601 0.025815 0.000110 0.000000 0.002791 0.000000
# 3 -0.001794 0.000110 0.005524 0.000000 0.000308 0.000000
# 4 0.000000 0.000000 0.000000 0.371744 0.000000 0.134105
# 5 -0.002752 0.002791 0.000308 0.000000 0.028031 0.000000
# 6 0.000000 0.000000 0.000000 0.134105 0.000000 0.160491
#
#
# Mechanical properties :
#
#
# Convention : Reuss Voigt Hill
#
# Bulk Modulus (GPa) = 30.18589 52.30078 41.24333
# Shear Modulus (GPa) = 8.09614 31.12984 19.61299
#
# Velocity S-wave (km/s) = 1.83215 3.59260 2.85163
# Velocity P-wave (km/s) = 4.12203 6.23647 5.28605
#
# Compressibility (1/GPa) = 0.03312806
#
# Stress axis : x y z
#
# Youngs Moduli (GPa) = 119.63013 38.73651 181.02973
#
# Poissons Ratio (x) = 0.06203 0.32475
# Poissons Ratio (y) = 0.19157 -0.01991
# Poissons Ratio (z) = 0.21460 -0.00426
#
# Static dielectric constant tensor:
#      x y z
#    x 1.881450 0.000000 -0.001200 
#    y 0.000000 2.013100 0.000000 
#    z -0.001200 0.000000 1.975930 
# 
# From -- ./inp_files/11319.got.cif
#   From: 2010.05.17/outbox.cif.g08.bks.cpg/sg5_6_cif.got.tgz:11319.got - 2010.06.03 18:56:24.
