data_PCOD9120358
_publ_section_title
;
Structure prediction by ZEFSAII (Michael W. Deem and Ramdas Pophale) SiO2 
 PCOD9120358
Probable space group: C 2
;
_chemical_formula_sum "Si O2"
_cell_formula_units_Z 26
_cell_length_a 28.611595
_cell_length_b 6.457343
_cell_length_c 20.807391
_cell_angle_alpha 90.000000
_cell_angle_beta 19.164314
_cell_angle_gamma 90.000000
_cell_volume 1261.989806
_symmetry_space_group_name_H-M "C 2"
_symmetry_group_IT_number 5
_symmetry_cell_setting 'monoclinic'
loop_
_space_group_symop_operation_xyz
x,y,z
-x,y,-z
1/2+x,1/2+y,z
1/2-x,1/2+y,-z
loop_
_atom_site_type_symbol
_atom_site_label
_atom_site_fract_x
_atom_site_fract_y
_atom_site_fract_z
Si Si1 0.800892 0.539950 0.112575
Si Si2 0.349310 0.981865 0.455780
Si Si3 0.260676 0.316730 0.042348
Si Si4 0.000000 0.884081 0.500000
Si Si5 0.917709 0.777775 0.245294
Si Si6 0.938186 0.162972 0.879839
Si Si7 0.966038 0.621637 0.673730
O O1 0.787847 0.636271 0.058039
O O2 0.635219 0.524826 0.346018
O O3 0.854006 0.304727 0.039317
O O4 0.933672 0.668813 0.970391
O O5 0.356672 0.137287 0.383871
O O6 0.394345 0.102635 0.462024
O O7 0.206353 0.843010 0.642738
O O8 0.472867 0.818487 0.278986
O O9 0.098727 0.389218 0.247176
O O10 0.332917 0.521277 0.976962
O O11 0.350101 0.253880 0.864445
O O12 0.022134 0.733419 0.409936
O O13 0.961168 0.999212 0.216957
#
# Coordination Sequence:
#
# PCOD9120358 Si02
#       7
#     4   4   4   2   4   4   4
#     4  10  22  42  63  95 131 175 217 276 337 386
#     4  11  20  35  62 103 129 167 217 278 331 383
#     4  11  21  40  64  97 128 170 219 284 327 389
#     4  12  26  42  62 100 140 178 220 270 336 410
#     4  10  20  35  65 101 129 163 222 282 322 386
#     4  10  17  37  62  96 128 157 214 275 328 380
#     4  12  23  38  65 101 134 173 217 274 336 394
#
# _framework density 20.602384000000001
#
# number of rings (size 3 to 8) (size 9 to 14) (size 15 to 20)
#    0.000    1.231    7.692    1.846    0.000    0.615 
#    0.000    0.000    0.000    0.923   12.000    0.000 
#    0.000    0.000    0.000    0.000    0.000    0.000 
#
# Total GULP energy -72414.020513 kJ/mol
# GULP energy per Si atom -5570.309270 kJ/mol
# Density = 2.055549 g / cm^3
# Si number density = 20.602384 Si / 1000 Ang^3
#
#
#
# Elastic Constant Matrix: (Units=GPa)
#
#
# Indices 1 2 3 4 5 6 
#
# 1 64.8629 6.0007 27.9917 0.0008 -14.2835 -0.0002
# 2 6.0007 76.6963 16.1748 0.0026 -3.3759 0.0002
# 3 27.9917 16.1748 91.1926 0.0052 -21.1905 -0.0003
# 4 0.0008 0.0026 0.0052 33.3277 -0.0001 -16.0669
# 5 -14.2835 -3.3759 -21.1905 -0.0001 36.7512 0.0004
# 6 -0.0002 0.0002 -0.0003 -16.0669 0.0004 9.6601
#
#
#
# Elastic Compliance Matrix: (Units=1/GPa)
#
#
# Indices 1 2 3 4 5 6 
#
# 1 0.018399 -0.000281 -0.004552 0.000002 0.004500 0.000003
# 2 -0.000281 0.013550 -0.002371 -0.000004 -0.000232 -0.000007
# 3 -0.004552 -0.002371 0.014228 -0.000009 0.006217 -0.000015
# 4 0.000002 -0.000004 -0.000009 0.151407 -0.000007 0.251825
# 5 0.004500 -0.000232 0.006217 -0.000007 0.032522 -0.000013
# 6 0.000003 -0.000007 -0.000015 0.251825 -0.000013 0.522361
#
#
# Mechanical properties :
#
#
# Convention : Reuss Voigt Hill
#
# Bulk Modulus (GPa) = 31.47755 37.00959 34.24357
# Shear Modulus (GPa) = 6.43115 28.12009 17.27562
#
# Velocity S-wave (km/s) = 1.76871 3.69846 2.89887
# Velocity P-wave (km/s) = 4.41394 6.02004 5.27843
#
# Compressibility (1/GPa) = 0.03176867
#
# Stress axis : x y z
#
# Youngs Moduli (GPa) = 54.35220 73.79927 70.28319
#
# Poissons Ratio (x) = 0.02077 0.31992
# Poissons Ratio (y) = 0.01530 0.16663
# Poissons Ratio (z) = 0.24740 0.17497
#
# Static dielectric constant tensor:
#      x y z
#    x 1.857190 0.000000 -0.116690 
#    y 0.000000 1.749320 0.000000 
#    z -0.116690 0.000000 1.854600 
# 
# From -- ./inp_files/43774.got.cif
#   From: 2010.05.17/outbox.cif.g08.bks.cpg/sg5_22_cif.got.tgz:43774.got - 2010.06.03 18:56:24.
