data_PCOD9120922
_publ_section_title
;
Structure prediction by ZEFSAII (Michael W. Deem and Ramdas Pophale) SiO2 
 PCOD9120922
Probable space group: C 2
;
_chemical_formula_sum "Si O2"
_cell_formula_units_Z 30
_cell_length_a 10.636885
_cell_length_b 17.819332
_cell_length_c 8.490706
_cell_angle_alpha 90.000000
_cell_angle_beta 109.141221
_cell_angle_gamma 90.000000
_cell_volume 1520.371411
_symmetry_space_group_name_H-M "C 2"
_symmetry_group_IT_number 5
_symmetry_cell_setting 'monoclinic'
loop_
_space_group_symop_operation_xyz
x,y,z
-x,y,-z
1/2+x,1/2+y,z
1/2-x,1/2+y,-z
loop_
_atom_site_type_symbol
_atom_site_label
_atom_site_fract_x
_atom_site_fract_y
_atom_site_fract_z
Si Si1 0.500000 0.587440 0.500000
Si Si2 0.380340 0.728979 0.610428
Si Si3 0.852801 0.675866 0.972615
Si Si4 0.107793 0.706390 0.672614
Si Si5 0.262320 0.534238 0.213994
Si Si6 0.165839 0.286067 0.738879
Si Si7 0.007148 0.538717 0.327990
Si Si8 0.126471 0.418015 0.952390
O O1 0.402341 0.646279 0.546519
O O2 0.408746 0.540264 0.345634
O O3 0.252660 0.722875 0.664568
O O4 0.524363 0.750640 0.738495
O O5 0.352050 0.787864 0.456860
O O6 0.760321 0.602089 0.921051
O O7 0.787720 0.729985 0.817531
O O8 0.874521 0.726427 0.136771
O O9 0.000000 0.646369 0.000000
O O10 0.065763 0.618736 0.678489
O O11 0.000000 0.735917 0.500000
O O12 0.153839 0.547332 0.310720
O O13 0.228055 0.455885 0.116462
O O14 0.183495 0.359110 0.851518
O O15 0.931745 0.486103 0.174988
O O16 0.000000 0.503732 0.500000
O O17 0.000000 0.387265 0.000000
#
# Coordination Sequence:
#
# PCOD9120922 Si02
#       8
#     2   4   4   4   4   4   4   4
#     4  10  18  36  64  86 124 152 196 262 318 354
#     4  10  21  37  60  94 124 158 204 255 316 361
#     4  12  20  37  64  86 121 157 199 266 308 358
#     4  11  21  34  60  95 119 150 206 254 306 361
#     4  11  19  40  61  94 119 161 203 256 312 362
#     4  10  23  39  60  85 127 165 204 250 312 366
#     4  10  20  33  62  92 118 149 204 251 301 360
#     4  10  22  39  60  88 123 164 206 247 304 374
#
# _framework density 19.732021
#
# number of rings (size 3 to 8) (size 9 to 14) (size 15 to 20)
#    0.000    1.600    5.333    2.800    3.733    0.000 
#    0.000    0.000    7.333    0.000    0.000    0.000 
#    0.000    0.000    0.000    0.000    0.000    0.000 
#
# Total GULP energy -83519.970372 kJ/mol
# GULP energy per Si atom -5567.998025 kJ/mol
# Density = 1.968711 g / cm^3
# Si number density = 19.732021 Si / 1000 Ang^3
#
#
#
# Elastic Constant Matrix: (Units=GPa)
#
#
# Indices 1 2 3 4 5 6 
#
# 1 53.9560 2.6073 24.2146 0.0000 8.0062 0.0000
# 2 2.6073 48.7602 7.1877 0.0000 7.2553 0.0000
# 3 24.2146 7.1877 94.4351 0.0000 15.6919 0.0000
# 4 0.0000 0.0000 0.0000 26.3318 0.0000 -4.4211
# 5 8.0062 7.2553 15.6919 0.0000 38.4302 0.0000
# 6 0.0000 0.0000 0.0000 -4.4211 0.0000 14.9099
#
#
#
# Elastic Compliance Matrix: (Units=1/GPa)
#
#
# Indices 1 2 3 4 5 6 
#
# 1 0.021140 -0.000040 -0.005028 0.000000 -0.002343 0.000000
# 2 -0.000040 0.021192 -0.001008 0.000000 -0.003581 0.000000
# 3 -0.005028 -0.001008 0.012605 0.000000 -0.003909 0.000000
# 4 0.000000 0.000000 0.000000 0.039967 0.000000 0.011851
# 5 -0.002343 -0.003581 -0.003909 0.000000 0.028782 0.000000
# 6 0.000000 0.000000 0.000000 0.011851 0.000000 0.070584
#
#
# Mechanical properties :
#
#
# Convention : Reuss Voigt Hill
#
# Bulk Modulus (GPa) = 23.37301 29.46338 26.41819
# Shear Modulus (GPa) = 22.65697 26.81050 24.73373
#
# Velocity S-wave (km/s) = 3.39224 3.69009 3.54430
# Velocity P-wave (km/s) = 5.21670 5.75499 5.49244
#
# Compressibility (1/GPa) = 0.04278440
#
# Stress axis : x y z
#
# Youngs Moduli (GPa) = 47.30408 47.18746 79.33476
#
# Poissons Ratio (x) = 0.00191 0.39890
# Poissons Ratio (y) = 0.00192 0.07993
# Poissons Ratio (z) = 0.23785 0.04754
#
# Static dielectric constant tensor:
#      x y z
#    x 1.692320 0.000000 -0.044280 
#    y 0.000000 1.699530 0.000000 
#    z -0.044280 0.000000 1.813230 
# 
# From -- ./inp_files/21329.got.cif
#   From: 2010.05.17/outbox.cif.g08.bks.cpg/sg5_11_cif.got.tgz:21329.got - 2010.06.03 18:56:24.
