data_PCOD9120974
_publ_section_title
;
Structure prediction by ZEFSAII (Michael W. Deem and Ramdas Pophale) SiO2 
 PCOD9120974
Probable space group: C 2
;
_chemical_formula_sum "Si O2"
_cell_formula_units_Z 32
_cell_length_a 11.269953
_cell_length_b 14.368984
_cell_length_c 9.522376
_cell_angle_alpha 90.000000
_cell_angle_beta 85.301993
_cell_angle_gamma 90.000000
_cell_volume 1536.851512
_symmetry_space_group_name_H-M "C 2"
_symmetry_group_IT_number 5
_symmetry_cell_setting 'monoclinic'
loop_
_space_group_symop_operation_xyz
x,y,z
-x,y,-z
1/2+x,1/2+y,z
1/2-x,1/2+y,-z
loop_
_atom_site_type_symbol
_atom_site_label
_atom_site_fract_x
_atom_site_fract_y
_atom_site_fract_z
Si Si1 0.638700 0.330790 0.490196
Si Si2 0.157065 0.185117 0.113647
Si Si3 0.503496 0.997478 0.665707
Si Si4 0.205668 0.371782 0.782727
Si Si5 0.876125 0.404985 0.924035
Si Si6 0.180920 0.647736 0.652750
Si Si7 0.135511 0.035336 0.546658
Si Si8 0.612725 0.661487 0.808641
O O1 0.500000 0.311261 0.500000
O O2 0.682429 0.354604 0.328609
O O3 0.694847 0.242093 0.561310
O O4 0.658046 0.426745 0.571827
O O5 0.139912 0.297059 0.116013
O O6 0.269318 0.162560 0.196939
O O7 0.029813 0.149165 0.180332
O O8 0.165568 0.143160 0.957197
O O9 0.500000 0.975228 0.500000
O O10 0.613048 0.937984 0.714374
O O11 0.396069 0.968043 0.782421
O O12 0.548403 0.104473 0.668917
O O13 0.143386 0.270339 0.790000
O O14 0.220584 0.413107 0.939037
O O15 0.000000 0.414480 0.000000
O O16 0.270679 0.574220 0.573867
O O17 0.157888 0.097064 0.681213
O O18 0.000000 0.044852 0.500000
#
# Coordination Sequence:
#
# PCOD9120974 Si02
#       8
#     4   4   4   4   4   4   4   4
#     4  11  25  42  63  93 139 173 216 270 339 403
#     4  10  19  35  65  98 127 159 214 274 331 374
#     4  11  23  38  63 101 133 165 218 275 332 390
#     4  10  19  38  69  96 127 164 220 277 328 372
#     4   9  18  37  65 100 126 158 214 281 324 370
#     4  12  24  39  63  96 133 175 212 269 332 396
#     4  11  22  37  64  95 124 171 226 266 316 389
#     4  10  18  37  63 100 125 159 213 282 323 372
#
# _framework density 20.821788999999999
#
# number of rings (size 3 to 8) (size 9 to 14) (size 15 to 20)
#    0.000    1.500    7.500    0.375    1.750    0.500 
#    0.000    7.500    8.250    0.000    0.000    0.000 
#    0.000    0.000    0.000    0.000    0.000    0.000 
#
# Total GULP energy -89188.433040 kJ/mol
# GULP energy per Si atom -5574.277065 kJ/mol
# Density = 2.077440 g / cm^3
# Si number density = 20.821789 Si / 1000 Ang^3
#
#
#
# Elastic Constant Matrix: (Units=GPa)
#
#
# Indices 1 2 3 4 5 6 
#
# 1 42.4841 9.9927 39.3533 0.0000 -12.1809 0.0000
# 2 9.9927 96.8434 43.0214 0.0000 4.1269 0.0000
# 3 39.3533 43.0214 148.8057 0.0000 -16.1200 0.0000
# 4 0.0000 0.0000 0.0000 1.4797 0.0000 -1.5756
# 5 -12.1809 4.1269 -16.1200 0.0000 20.2122 0.0000
# 6 0.0000 0.0000 0.0000 -1.5756 0.0000 19.4209
#
#
#
# Elastic Compliance Matrix: (Units=1/GPa)
#
#
# Indices 1 2 3 4 5 6 
#
# 1 0.034952 -0.001038 -0.007266 0.000000 0.015481 0.000000
# 2 -0.001038 0.012496 -0.004031 0.000000 -0.006392 0.000000
# 3 -0.007266 -0.004031 0.010313 0.000000 0.004669 0.000000
# 4 0.000000 0.000000 0.000000 0.739698 0.000000 0.060010
# 5 0.015481 -0.006392 0.004669 0.000000 0.063833 0.000000
# 6 0.000000 0.000000 0.000000 0.060010 0.000000 0.056359
#
#
# Mechanical properties :
#
#
# Convention : Reuss Voigt Hill
#
# Bulk Modulus (GPa) = 30.22008 52.54088 41.38048
# Shear Modulus (GPa) = 5.24465 21.27361 13.25913
#
# Velocity S-wave (km/s) = 1.58880 3.19987 2.52621
# Velocity P-wave (km/s) = 4.23213 6.24024 5.33158
#
# Compressibility (1/GPa) = 0.03309058
#
# Stress axis : x y z
#
# Youngs Moduli (GPa) = 28.61087 80.02585 96.96633
#
# Poissons Ratio (x) = 0.08308 0.70458
# Poissons Ratio (y) = 0.02970 0.39083
# Poissons Ratio (z) = 0.20789 0.32255
#
# Static dielectric constant tensor:
#      x y z
#    x 1.778990 0.000000 -0.033520 
#    y 0.000000 1.772520 0.000000 
#    z -0.033520 0.000000 1.798470 
# 
# From -- ./inp_files/20664.got.cif
#   From: 2010.05.17/outbox.cif.g08.bks.cpg/sg5_11_cif.got.tgz:20664.got - 2010.06.03 18:56:24.
