data_PCOD9120973
_publ_section_title
;
Structure prediction by ZEFSAII (Michael W. Deem and Ramdas Pophale) SiO2 
 PCOD9120973
Probable space group: C 2
;
_chemical_formula_sum "Si O2"
_cell_formula_units_Z 24
_cell_length_a 12.266215
_cell_length_b 12.139609
_cell_length_c 6.985131
_cell_angle_alpha 90.000000
_cell_angle_beta 114.729853
_cell_angle_gamma 90.000000
_cell_volume 944.744818
_symmetry_space_group_name_H-M "C 2"
_symmetry_group_IT_number 5
_symmetry_cell_setting 'monoclinic'
loop_
_space_group_symop_operation_xyz
x,y,z
-x,y,-z
1/2+x,1/2+y,z
1/2-x,1/2+y,-z
loop_
_atom_site_type_symbol
_atom_site_label
_atom_site_fract_x
_atom_site_fract_y
_atom_site_fract_z
Si Si1 0.125725 0.953240 0.898771
Si Si2 0.429182 0.076362 0.104365
Si Si3 0.061496 0.769162 0.345457
Si Si4 0.795172 0.350419 0.702286
Si Si5 0.334709 0.902458 0.327213
Si Si6 0.334552 0.694203 0.075536
O O1 0.985373 0.873050 0.215602
O O2 0.198592 0.922926 0.144890
O O3 0.220538 0.928946 0.793866
O O4 0.092672 0.080864 0.868188
O O5 0.462822 0.163144 0.795399
O O6 0.304963 0.150553 0.003849
O O7 0.500000 0.999738 0.000000
O O8 0.400578 0.999175 0.261925
O O9 0.196943 0.788704 0.497908
O O10 0.000000 0.741088 0.500000
O O11 0.857507 0.409986 0.569881
O O12 0.848493 0.260087 0.885649
O O13 0.365568 0.782359 0.262349
#
# Coordination Sequence:
#
# PCOD9120973 Si02
#       6
#     4   4   4   4   4   4
#     4   9  20  36  59  94 128 167 209 263 324 390
#     4  11  21  37  62  93 128 167 214 270 317 382
#     4  10  18  37  62  96 125 160 222 270 316 373
#     4  10  20  37  63  97 126 164 219 270 318 386
#     4  10  21  37  60  90 131 170 213 256 332 388
#     4  10  20  40  60  91 130 169 215 261 330 391
#
# _framework density 25.403684999999999
#
# number of rings (size 3 to 8) (size 9 to 14) (size 15 to 20)
#    0.000    2.000    5.000    1.000    0.000    2.667 
#    9.000    0.000    7.333    3.000    0.000    0.000 
#    0.000    0.000    0.000    0.000    0.000    0.000 
#
# Total GULP energy -67026.771212 kJ/mol
# GULP energy per Si atom -5585.564268 kJ/mol
# Density = 2.534587 g / cm^3
# Si number density = 25.403685 Si / 1000 Ang^3
#
#
#
# Elastic Constant Matrix: (Units=GPa)
#
#
# Indices 1 2 3 4 5 6 
#
# 1 58.0622 -1.2125 28.9760 0.0000 -11.1448 0.0000
# 2 -1.2125 153.8905 46.1212 0.0000 -10.5810 0.0000
# 3 28.9760 46.1212 184.3651 0.0000 -28.8723 0.0000
# 4 0.0000 0.0000 0.0000 20.8649 0.0000 -3.3534
# 5 -11.1448 -10.5810 -28.8723 0.0000 37.5602 0.0000
# 6 0.0000 0.0000 0.0000 -3.3534 0.0000 -8.9495
#
#
#
# Elastic Compliance Matrix: (Units=1/GPa)
#
#
# Indices 1 2 3 4 5 6 
#
# 1 0.019380 0.001246 -0.002731 0.000000 0.004002 0.000000
# 2 0.001246 0.007122 -0.001825 0.000000 0.000973 0.000000
# 3 -0.002731 -0.001825 0.006938 0.000000 0.004008 0.000000
# 4 0.000000 0.000000 0.000000 0.045205 0.000000 -0.016938
# 5 0.004002 0.000973 0.004008 0.000000 0.031167 0.000000
# 6 0.000000 0.000000 0.000000 -0.016938 0.000000 -0.105391
#
#
# Mechanical properties :
#
#
# Convention : Reuss Voigt Hill
#
# Bulk Modulus (GPa) = 37.28551 60.45413 48.86982
# Shear Modulus (GPa) = 250.25651 31.39067 140.82359
#
# Velocity S-wave (km/s) = 9.93608 3.51903 7.45350
# Velocity P-wave (km/s) = 12.09725 6.35299 9.66188
#
# Compressibility (1/GPa) = 0.02682007
#
# Stress axis : x y z
#
# Youngs Moduli (GPa) = 51.59948 140.41307 144.14363
#
# Poissons Ratio (x) = -0.17500 0.39364
# Poissons Ratio (y) = -0.06431 0.26308
# Poissons Ratio (z) = 0.14091 0.25627
#
# Static dielectric constant tensor:
#      x y z
#    x 2.280500 0.000000 -0.098430 
#    y 0.000000 1.995390 0.000000 
#    z -0.098430 0.000000 2.143450 
# 
# From -- ./inp_files/8292.got.cif
#   From: 2010.05.17/outbox.cif.g08.bks.cpg/sg5_5_cif.got.tgz:8292.got - 2010.06.03 18:56:24.
