data_PCOD9120406
_publ_section_title
;
Structure prediction by ZEFSAII (Michael W. Deem and Ramdas Pophale) SiO2 
 PCOD9120406
Probable space group: C 2
;
_chemical_formula_sum "Si O2"
_cell_formula_units_Z 32
_cell_length_a 19.748209
_cell_length_b 22.918831
_cell_length_c 11.444421
_cell_angle_alpha 90.000000
_cell_angle_beta 20.914147
_cell_angle_gamma 90.000000
_cell_volume 1849.030542
_symmetry_space_group_name_H-M "C 2"
_symmetry_group_IT_number 5
_symmetry_cell_setting 'monoclinic'
loop_
_space_group_symop_operation_xyz
x,y,z
-x,y,-z
1/2+x,1/2+y,z
1/2-x,1/2+y,-z
loop_
_atom_site_type_symbol
_atom_site_label
_atom_site_fract_x
_atom_site_fract_y
_atom_site_fract_z
Si Si1 0.046531 0.234140 0.061516
Si Si2 0.544673 0.602391 0.067803
Si Si3 0.253614 0.489550 0.288893
Si Si4 0.294211 0.022954 0.360741
Si Si5 0.331466 0.332294 0.684737
Si Si6 0.281953 0.319819 0.350116
Si Si7 0.116301 0.911827 0.615880
Si Si8 0.482377 0.886304 0.392097
O O1 0.079291 0.168204 0.051370
O O2 0.858050 0.265751 0.411648
O O3 0.221734 0.276785 0.807127
O O4 0.000000 0.231544 0.000000
O O5 0.358418 0.572331 0.420915
O O6 0.500000 0.604074 0.000000
O O7 0.707072 0.553937 0.825290
O O8 0.233205 0.501555 0.460477
O O9 0.072894 0.453932 0.536477
O O10 0.437441 0.448823 0.957559
O O11 0.258270 0.963244 0.348844
O O12 0.500000 0.045498 0.000000
O O13 0.500000 0.315583 0.500000
O O14 0.418107 0.371788 0.441137
O O15 0.167748 0.367193 0.020417
O O16 0.284824 0.369325 0.447840
O O17 0.196842 0.351722 0.374123
O O18 0.500000 0.301019 0.000000
O O19 0.500000 0.873198 0.500000
#
# Coordination Sequence:
#
# PCOD9120406 Si02
#       8
#     4   4   4   4   4   4   4   4
#     4  10  20  36  55  79 107 144 193 228 269 324
#     4   8  18  33  51  76 107 143 184 233 269 318
#     4  10  18  34  54  80 110 145 177 224 283 326
#     4  10  18  28  53  83 112 144 177 229 280 328
#     4  11  24  36  54  82 115 150 180 233 283 331
#     4  11  20  32  56  81 112 146 178 224 276 330
#     4  11  18  32  54  81 113 139 182 221 280 334
#     4  11  22  34  52  83 118 142 181 223 282 342
#
# _framework density 17.306366000000001
#
# number of rings (size 3 to 8) (size 9 to 14) (size 15 to 20)
#    0.000    1.750    3.750    2.625    1.750    0.500 
#    0.000    0.625    0.000    0.000    0.000   28.000 
#    0.000    0.000    0.000    0.000    0.000    0.000 
#
# Total GULP energy -89080.343203 kJ/mol
# GULP energy per Si atom -5567.521450 kJ/mol
# Density = 1.726698 g / cm^3
# Si number density = 17.306366 Si / 1000 Ang^3
#
#
#
# Elastic Constant Matrix: (Units=GPa)
#
#
# Indices 1 2 3 4 5 6 
#
# 1 88.4194 31.7073 18.4517 -0.0277 -3.7615 0.0258
# 2 31.7073 140.4892 41.9354 0.0335 -3.7642 -0.0019
# 3 18.4517 41.9354 69.9667 -0.0227 -7.3071 0.0139
# 4 -0.0277 0.0335 -0.0227 5.9066 -0.0029 7.0579
# 5 -3.7615 -3.7642 -7.3071 -0.0029 23.7241 -0.0098
# 6 0.0258 -0.0019 0.0139 7.0579 -0.0098 6.1731
#
#
#
# Elastic Compliance Matrix: (Units=1/GPa)
#
#
# Indices 1 2 3 4 5 6 
#
# 1 0.012548 -0.002252 -0.001849 -0.000332 0.001063 0.000332
# 2 -0.002252 0.009074 -0.004889 0.000295 -0.000423 -0.000315
# 3 -0.001849 -0.004889 0.018183 -0.000339 0.004532 0.000360
# 4 -0.000332 0.000295 -0.000339 -0.462303 0.000052 0.528571
# 5 0.001063 -0.000423 0.004532 0.000052 0.043648 -0.000005
# 6 0.000332 -0.000315 0.000360 0.528571 -0.000005 -0.442345
#
#
# Mechanical properties :
#
#
# Convention : Reuss Voigt Hill
#
# Bulk Modulus (GPa) = 45.81504 53.67379 49.74441
# Shear Modulus (GPa) = -6.28188 20.94616 7.33214
#
# Velocity S-wave (km/s) = -1.90727 3.48273 2.06055
# Velocity P-wave (km/s) = 4.65620 6.87414 5.87086
#
# Compressibility (1/GPa) = 0.02182689
#
# Stress axis : x y z
#
# Youngs Moduli (GPa) = 79.69403 110.20446 54.99513
#
# Poissons Ratio (x) = 0.24813 0.10168
# Poissons Ratio (y) = 0.17944 0.26887
# Poissons Ratio (z) = 0.14734 0.53878
#
# Static dielectric constant tensor:
#      x y z
#    x 1.620300 0.000030 0.047010 
#    y 0.000030 1.605090 0.000030 
#    z 0.047010 0.000030 1.666770 
# 
# From -- ./inp_files/28050.got.cif
#   From: 2010.05.17/outbox.cif.g08.bks.cpg/sg5_15_cif.got.tgz:28050.got - 2010.06.03 18:56:24.
