data_PCOD9120440
_publ_section_title
;
Structure prediction by ZEFSAII (Michael W. Deem and Ramdas Pophale) SiO2 
 PCOD9120440
Probable space group: C 2
;
_chemical_formula_sum "Si O2"
_cell_formula_units_Z 20
_cell_length_a 13.606336
_cell_length_b 16.792658
_cell_length_c 13.755051
_cell_angle_alpha 90.000000
_cell_angle_beta 21.546060
_cell_angle_gamma 90.000000
_cell_volume 1154.206575
_symmetry_space_group_name_H-M "C 2"
_symmetry_group_IT_number 5
_symmetry_cell_setting 'monoclinic'
loop_
_space_group_symop_operation_xyz
x,y,z
-x,y,-z
1/2+x,1/2+y,z
1/2-x,1/2+y,-z
loop_
_atom_site_type_symbol
_atom_site_label
_atom_site_fract_x
_atom_site_fract_y
_atom_site_fract_z
Si Si1 0.707921 0.244090 0.008862
Si Si2 0.829790 0.495727 0.556917
Si Si3 0.776858 0.091337 0.059191
Si Si4 0.282431 0.251400 0.781162
Si Si5 0.840629 0.309592 0.545764
O O1 0.765547 0.150925 0.977589
O O2 0.668950 0.280660 0.153634
O O3 0.433926 0.260355 0.204665
O O4 0.959318 0.281469 0.722959
O O5 0.770472 0.402658 0.597744
O O6 0.000000 0.501467 0.500000
O O7 0.030151 0.531009 0.291892
O O8 0.556758 0.545925 0.810963
O O9 0.733813 0.155708 0.185695
O O10 0.500000 0.269160 0.500000
O O11 0.000000 0.278791 0.000000
O O12 0.000000 0.300442 0.500000
#
# Coordination Sequence:
#
# PCOD9120440 Si02
#       5
#     4   4   4   4   4
#     4  10  22  35  53  82 114 148 193 219 268 343
#     4  11  20  32  53  84 113 146 170 226 297 345
#     4  10  20  31  53  80 118 135 180 218 277 340
#     4  10  18  30  52  79 113 140 168 225 275 326
#     4  11  22  38  55  79 118 153 184 226 276 330
#
# _framework density 17.327919999999999
#
# number of rings (size 3 to 8) (size 9 to 14) (size 15 to 20)
#    1.200    0.400    0.000    7.800    0.000    3.200 
#    0.000    0.000    0.000    0.000    0.000   49.000 
#    0.000    0.000    0.000    0.000    0.000    0.000 
#
# Total GULP energy -55720.379129 kJ/mol
# GULP energy per Si atom -5572.037913 kJ/mol
# Density = 1.728848 g / cm^3
# Si number density = 17.327920 Si / 1000 Ang^3
#
#
#
# Elastic Constant Matrix: (Units=GPa)
#
#
# Indices 1 2 3 4 5 6 
#
# 1 38.7879 23.8170 5.8831 -0.1299 -4.2907 0.0281
# 2 23.8170 70.2840 27.5940 -0.5227 1.5982 0.1507
# 3 5.8831 27.5940 111.0232 -0.2495 -5.8212 0.0594
# 4 -0.1299 -0.5227 -0.2495 29.2708 0.3135 -11.0264
# 5 -4.2907 1.5982 -5.8212 0.3135 28.8471 -0.0736
# 6 0.0281 0.1507 0.0594 -11.0264 -0.0736 31.4977
#
#
#
# Elastic Compliance Matrix: (Units=1/GPa)
#
#
# Indices 1 2 3 4 5 6 
#
# 1 0.033674 -0.012157 0.001551 -0.000120 0.005996 -0.000003
# 2 -0.012157 0.020239 -0.004588 0.000319 -0.003859 0.000025
# 3 0.001551 -0.004588 0.010198 -0.000015 0.002543 0.000002
# 4 -0.000120 0.000319 -0.000015 0.039363 -0.000431 0.013778
# 5 0.005996 -0.003859 0.002543 -0.000431 0.036289 -0.000058
# 6 -0.000003 0.000025 0.000002 0.013778 -0.000058 0.036571
#
#
# Mechanical properties :
#
#
# Convention : Reuss Voigt Hill
#
# Bulk Modulus (GPa) = 29.65241 37.18703 33.41972
# Shear Modulus (GPa) = 22.93965 28.77652 25.85808
#
# Velocity S-wave (km/s) = 3.64243 4.07959 3.86719
# Velocity P-wave (km/s) = 5.90249 6.61045 6.26648
#
# Compressibility (1/GPa) = 0.03372407
#
# Stress axis : x y z
#
# Youngs Moduli (GPa) = 29.69665 49.40977 98.05420
#
# Poissons Ratio (x) = 0.60069 -0.15212
# Poissons Ratio (y) = 0.36103 0.44984
# Poissons Ratio (z) = -0.04607 0.22667
#
# Static dielectric constant tensor:
#      x y z
#    x 1.602210 0.000020 0.001060 
#    y 0.000020 1.591220 -0.000040 
#    z 0.001060 -0.000040 1.555810 
# 
# From -- ./inp_files/54812.got.cif
#   From: 2010.05.17/outbox.cif.g08.bks.cpg/sg5_28_cif.got.tgz:54812.got - 2010.06.03 18:56:24.
