data_PCOD9120596
_publ_section_title
;
Structure prediction by ZEFSAII (Michael W. Deem and Ramdas Pophale) SiO2 
 PCOD9120596
Probable space group: C 2
;
_chemical_formula_sum "Si O2"
_cell_formula_units_Z 32
_cell_length_a 19.643000
_cell_length_b 16.912442
_cell_length_c 14.493146
_cell_angle_alpha 90.000000
_cell_angle_beta 158.701363
_cell_angle_gamma 90.000000
_cell_volume 1748.869479
_symmetry_space_group_name_H-M "C 2"
_symmetry_group_IT_number 5
_symmetry_cell_setting 'monoclinic'
loop_
_space_group_symop_operation_xyz
x,y,z
-x,y,-z
1/2+x,1/2+y,z
1/2-x,1/2+y,-z
loop_
_atom_site_type_symbol
_atom_site_label
_atom_site_fract_x
_atom_site_fract_y
_atom_site_fract_z
Si Si1 0.833055 0.056760 0.612939
Si Si2 0.945337 0.732462 0.207816
Si Si3 0.110036 0.896624 0.392020
Si Si4 0.014347 0.340676 0.906667
Si Si5 0.837295 0.178425 0.991379
Si Si6 0.779717 0.145422 0.723784
Si Si7 0.301398 0.473904 0.297504
Si Si8 0.536313 0.121654 0.945152
O O1 0.775264 0.073198 0.646182
O O2 0.644621 0.070666 0.316201
O O3 0.926034 0.971414 0.718603
O O4 0.981755 0.122864 0.766575
O O5 0.789037 0.697374 0.079695
O O6 0.931540 0.686240 0.093669
O O7 0.957967 0.827061 0.210467
O O8 0.143577 0.709685 0.506541
O O9 0.306097 0.857694 0.607839
O O10 0.156374 0.938154 0.548343
O O11 0.000000 0.335125 0.000000
O O12 0.097413 0.262831 0.965756
O O13 0.156006 0.412860 0.067460
O O14 0.731371 0.137587 0.770311
O O15 0.000000 0.166631 0.000000
O O16 0.500000 0.476863 0.500000
O O17 0.203547 0.559072 0.170287
O O18 0.500000 0.157903 0.000000
#
# Coordination Sequence:
#
# PCOD9120596 Si02
#       8
#     4   4   4   4   4   4   4   4
#     4  10  20  36  60  83 115 162 210 236 297 376
#     4  11  24  35  59  91 125 153 203 257 319 351
#     4  11  20  37  55  87 118 158 204 249 286 371
#     4  10  18  33  56  83 116 154 191 237 308 359
#     4  11  21  37  58  89 122 154 194 265 311 362
#     4   9  18  36  58  82 112 157 197 243 297 368
#     4  11  21  33  60  90 123 149 192 262 316 344
#     4  11  21  41  57  85 119 166 206 238 301 388
#
# _framework density 18.297535
#
# number of rings (size 3 to 8) (size 9 to 14) (size 15 to 20)
#    0.000    1.500    2.500    6.375    1.750    0.000 
#    0.000    1.875    0.000    0.000    0.000    3.500 
#    0.000    0.000    0.000    0.000    0.000    0.000 
#
# Total GULP energy -89192.525672 kJ/mol
# GULP energy per Si atom -5574.532855 kJ/mol
# Density = 1.825589 g / cm^3
# Si number density = 18.297535 Si / 1000 Ang^3
#
#
#
# Elastic Constant Matrix: (Units=GPa)
#
#
# Indices 1 2 3 4 5 6 
#
# 1 129.6812 48.7793 39.0725 0.0000 2.8245 0.0000
# 2 48.7793 92.5436 15.3201 0.0000 0.9443 0.0000
# 3 39.0725 15.3201 43.4593 0.0000 9.3664 0.0000
# 4 0.0000 0.0000 0.0000 27.8480 0.0000 1.9686
# 5 2.8245 0.9443 9.3664 0.0000 22.4429 0.0000
# 6 0.0000 0.0000 0.0000 1.9686 0.0000 20.3358
#
#
#
# Elastic Compliance Matrix: (Units=1/GPa)
#
#
# Indices 1 2 3 4 5 6 
#
# 1 0.012590 -0.004980 -0.010183 0.000000 0.002875 0.000000
# 2 -0.004980 0.013481 -0.000317 0.000000 0.000192 0.000000
# 3 -0.010183 -0.000317 0.035160 0.000000 -0.013379 0.000000
# 4 0.000000 0.000000 0.000000 0.036157 0.000000 -0.003500
# 5 0.002875 0.000192 -0.013379 0.000000 0.049771 0.000000
# 6 0.000000 0.000000 0.000000 -0.003500 0.000000 0.049513
#
#
# Mechanical properties :
#
#
# Convention : Reuss Voigt Hill
#
# Bulk Modulus (GPa) = 33.03345 52.44757 42.74051
# Shear Modulus (GPa) = 21.03297 24.95948 22.99622
#
# Velocity S-wave (km/s) = 3.39410 3.69737 3.54897
# Velocity P-wave (km/s) = 5.78382 6.85225 6.34058
#
# Compressibility (1/GPa) = 0.03027234
#
# Stress axis : x y z
#
# Youngs Moduli (GPa) = 79.42911 74.17906 28.44105
#
# Poissons Ratio (x) = 0.36938 0.28962
# Poissons Ratio (y) = 0.39553 0.00900
# Poissons Ratio (z) = 0.80885 0.02348
#
# Static dielectric constant tensor:
#      x y z
#    x 1.674930 0.000000 -0.002160 
#    y 0.000000 1.656190 0.000000 
#    z -0.002160 0.000000 1.646030 
# 
# From -- ./inp_files/29870.got.cif
#   From: 2010.05.17/outbox.cif.g08.bks.cpg/sg5_15_cif.got.tgz:29870.got - 2010.06.03 18:56:24.
