data_PCOD9120623
_publ_section_title
;
Structure prediction by ZEFSAII (Michael W. Deem and Ramdas Pophale) SiO2 
 PCOD9120623
Probable space group: C 2
;
_chemical_formula_sum "Si O2"
_cell_formula_units_Z 24
_cell_length_a 17.233578
_cell_length_b 7.075324
_cell_length_c 16.823323
_cell_angle_alpha 90.000000
_cell_angle_beta 25.705296
_cell_angle_gamma 90.000000
_cell_volume 889.744720
_symmetry_space_group_name_H-M "C 2"
_symmetry_group_IT_number 5
_symmetry_cell_setting 'monoclinic'
loop_
_space_group_symop_operation_xyz
x,y,z
-x,y,-z
1/2+x,1/2+y,z
1/2-x,1/2+y,-z
loop_
_atom_site_type_symbol
_atom_site_label
_atom_site_fract_x
_atom_site_fract_y
_atom_site_fract_z
Si Si1 0.320092 0.821290 0.832014
Si Si2 0.784079 0.397697 0.038834
Si Si3 0.869462 0.302011 0.188090
Si Si4 0.922701 0.772987 0.427917
Si Si5 0.693232 0.237347 0.790429
Si Si6 0.202615 0.204100 0.478062
O O1 0.237236 0.610931 0.912208
O O2 0.315567 0.847347 0.740797
O O3 0.528481 0.822898 0.659405
O O4 0.235982 0.911291 0.989181
O O5 0.637199 0.266747 0.220122
O O6 0.984822 0.335264 0.875783
O O7 0.693190 0.207947 0.388968
O O8 0.802104 0.505595 0.215525
O O9 0.000000 0.216672 0.000000
O O10 0.875820 0.996896 0.467940
O O11 0.836924 0.696262 0.426439
O O12 0.713421 0.284175 0.679699
O O13 0.500000 0.286998 0.000000
#
# Coordination Sequence:
#
# PCOD9120623 Si02
#       6
#     4   4   4   4   4   4
#     4  11  21  37  60  90 117 158 200 241 299 353
#     4  11  22  36  61  90 119 155 199 243 297 353
#     4  10  19  37  59  84 119 151 196 241 291 344
#     4  10  22  35  58  89 117 154 197 244 296 349
#     4  10  18  33  59  84 116 153 198 240 287 346
#     4  10  21  36  58  86 119 154 199 244 292 352
#
# _framework density 26.974029999999999
#
# number of rings (size 3 to 8) (size 9 to 14) (size 15 to 20)
#    0.000    1.667    5.000    1.500    2.333    0.667 
#    0.000    0.000    3.667    0.000    0.000    0.000 
#    0.000    0.000    0.000    0.000    0.000    0.000 
#
# Total GULP energy -67064.305691 kJ/mol
# GULP energy per Si atom -5588.692141 kJ/mol
# Density = 2.691264 g / cm^3
# Si number density = 26.974030 Si / 1000 Ang^3
#
#
#
# Elastic Constant Matrix: (Units=GPa)
#
#
# Indices 1 2 3 4 5 6 
#
# 1 140.2971 26.8288 37.1024 -0.0006 26.3690 0.0000
# 2 26.8288 51.8266 21.9032 -0.0018 7.7677 0.0008
# 3 37.1024 21.9032 131.7186 -0.0014 28.0699 0.0009
# 4 -0.0006 -0.0018 -0.0014 12.9017 0.0007 2.9528
# 5 26.3690 7.7677 28.0699 0.0007 65.7504 -0.0002
# 6 0.0000 0.0008 0.0009 2.9528 -0.0002 26.9661
#
#
#
# Elastic Compliance Matrix: (Units=1/GPa)
#
#
# Indices 1 2 3 4 5 6 
#
# 1 0.008616 -0.003535 -0.001311 0.000000 -0.002478 0.000000
# 2 -0.003535 0.022273 -0.002695 0.000003 -0.000063 -0.000001
# 3 -0.001311 -0.002695 0.009053 0.000001 -0.003021 0.000000
# 4 0.000000 0.000003 0.000001 0.079501 -0.000001 -0.008706
# 5 -0.002478 -0.000063 -0.003021 -0.000001 0.017500 0.000000
# 6 0.000000 -0.000001 0.000000 -0.008706 0.000000 0.038037
#
#
# Mechanical properties :
#
#
# Convention : Reuss Voigt Hill
#
# Bulk Modulus (GPa) = 40.22273 55.05679 47.63976
# Shear Modulus (GPa) = 25.20811 36.99083 31.09947
#
# Velocity S-wave (km/s) = 3.06033 3.70719 3.39918
# Velocity P-wave (km/s) = 5.23751 6.22734 5.75375
#
# Compressibility (1/GPa) = 0.02486156
#
# Stress axis : x y z
#
# Youngs Moduli (GPa) = 116.06064 44.89695 110.45976
#
# Poissons Ratio (x) = 0.15870 0.14482
# Poissons Ratio (y) = 0.41025 0.29764
# Poissons Ratio (z) = 0.15217 0.12098
#
# Static dielectric constant tensor:
#      x y z
#    x 2.240450 0.000000 0.051310 
#    y 0.000000 2.195610 0.000000 
#    z 0.051310 0.000000 2.106760 
# 
# From -- ./inp_files/23308.got.cif
#   From: 2010.05.17/outbox.cif.g08.bks.cpg/sg5_12_cif.got.tgz:23308.got - 2010.06.03 18:56:24.
