data_PCOD9120981
_publ_section_title
;
Structure prediction by ZEFSAII (Michael W. Deem and Ramdas Pophale) SiO2 
 PCOD9120981
Probable space group: C 2
;
_chemical_formula_sum "Si O2"
_cell_formula_units_Z 22
_cell_length_a 10.272196
_cell_length_b 9.623254
_cell_length_c 11.280265
_cell_angle_alpha 90.000000
_cell_angle_beta 108.137575
_cell_angle_gamma 90.000000
_cell_volume 1059.670058
_symmetry_space_group_name_H-M "C 2"
_symmetry_group_IT_number 5
_symmetry_cell_setting 'monoclinic'
loop_
_space_group_symop_operation_xyz
x,y,z
-x,y,-z
1/2+x,1/2+y,z
1/2-x,1/2+y,-z
loop_
_atom_site_type_symbol
_atom_site_label
_atom_site_fract_x
_atom_site_fract_y
_atom_site_fract_z
Si Si1 0.593493 0.049730 0.136703
Si Si2 0.668492 0.792822 0.034960
Si Si3 0.743593 0.120234 0.726339
Si Si4 0.000000 0.543993 0.500000
Si Si5 0.445537 0.839340 0.668171
Si Si6 0.257657 0.804287 0.220614
O O1 0.653999 0.181633 0.219127
O O2 0.698496 0.943708 0.101705
O O3 0.527813 0.946634 0.214808
O O4 0.500000 0.094261 0.000000
O O5 0.746967 0.682342 0.138568
O O6 0.500000 0.771326 0.000000
O O7 0.718302 0.791524 0.914727
O O8 0.597632 0.124173 0.618404
O O9 0.844327 0.219637 0.680288
O O10 0.784431 0.958475 0.751666
O O11 0.096151 0.441158 0.449448
O O12 0.593481 0.776521 0.681367
#
# Coordination Sequence:
#
# PCOD9120981 Si02
#       6
#     4   4   4   2   4   4
#     4  10  20  37  58  93 130 158 198 255 309 375
#     4  10  18  37  64  91 131 158 195 255 316 367
#     4  10  22  40  65  91 123 164 211 252 300 376
#     4  10  24  40  68  84 124 176 204 250 306 354
#     4  10  22  45  60  88 127 162 209 255 299 368
#     4  11  20  36  63  89 123 166 195 251 322 348
#
# _framework density 20.761178999999998
#
# number of rings (size 3 to 8) (size 9 to 14) (size 15 to 20)
#    0.000    1.818    5.455    1.091    2.545    3.636 
#    3.273    3.636    0.000    2.182    0.000    0.000 
#    0.000    0.000    0.000    0.000    0.000    0.000 
#
# Total GULP energy -61296.775923 kJ/mol
# GULP energy per Si atom -5572.434175 kJ/mol
# Density = 2.071393 g / cm^3
# Si number density = 20.761179 Si / 1000 Ang^3
#
#
#
# Elastic Constant Matrix: (Units=GPa)
#
#
# Indices 1 2 3 4 5 6 
#
# 1 54.6465 51.0775 26.9209 0.0000 8.3865 0.0000
# 2 51.0775 118.6517 24.7434 0.0000 32.1738 0.0000
# 3 26.9209 24.7434 91.3469 0.0000 17.8216 0.0000
# 4 0.0000 0.0000 0.0000 32.5234 0.0000 5.3791
# 5 8.3865 32.1738 17.8216 0.0000 28.2752 0.0000
# 6 0.0000 0.0000 0.0000 5.3791 0.0000 31.1428
#
#
#
# Elastic Compliance Matrix: (Units=1/GPa)
#
#
# Indices 1 2 3 4 5 6 
#
# 1 0.037833 -0.018654 -0.009177 0.000000 0.015789 0.000000
# 2 -0.018654 0.021424 0.003844 0.000000 -0.021268 0.000000
# 3 -0.009177 0.003844 0.014746 0.000000 -0.010946 0.000000
# 4 0.000000 0.000000 0.000000 0.031651 0.000000 -0.005467
# 5 0.015789 -0.021268 -0.010946 0.000000 0.061783 0.000000
# 6 0.000000 0.000000 0.000000 -0.005467 0.000000 0.033054
#
#
# Mechanical properties :
#
#
# Convention : Reuss Voigt Hill
#
# Bulk Modulus (GPa) = 38.42074 52.23653 45.32863
# Shear Modulus (GPa) = 19.44439 29.18185 24.31312
#
# Velocity S-wave (km/s) = 3.06367 3.75320 3.42583
# Velocity P-wave (km/s) = 5.57324 6.63304 6.12610
#
# Compressibility (1/GPa) = 0.02602761
#
# Stress axis : x y z
#
# Youngs Moduli (GPa) = 26.43172 46.67720 67.81325
#
# Poissons Ratio (x) = 0.87073 0.62235
# Poissons Ratio (y) = 0.49306 -0.26066
# Poissons Ratio (z) = 0.24258 -0.17942
#
# Static dielectric constant tensor:
#      x y z
#    x 1.781630 0.000000 -0.016130 
#    y 0.000000 1.745550 0.000000 
#    z -0.016130 0.000000 1.796700 
# 
# From -- ./inp_files/38072.got.cif
#   From: 2010.05.17/outbox.cif.g08.bks.cpg/sg5_20_cif.got.tgz:38072.got - 2010.06.03 18:56:24.
