data_PCOD9120749
_publ_section_title
;
Structure prediction by ZEFSAII (Michael W. Deem and Ramdas Pophale) SiO2 
 PCOD9120749
Probable space group: C 2
;
_chemical_formula_sum "Si O2"
_cell_formula_units_Z 30
_cell_length_a 16.319908
_cell_length_b 18.027471
_cell_length_c 12.210944
_cell_angle_alpha 90.000000
_cell_angle_beta 155.208521
_cell_angle_gamma 90.000000
_cell_volume 1506.413842
_symmetry_space_group_name_H-M "C 2"
_symmetry_group_IT_number 5
_symmetry_cell_setting 'monoclinic'
loop_
_space_group_symop_operation_xyz
x,y,z
-x,y,-z
1/2+x,1/2+y,z
1/2-x,1/2+y,-z
loop_
_atom_site_type_symbol
_atom_site_label
_atom_site_fract_x
_atom_site_fract_y
_atom_site_fract_z
Si Si1 0.906157 0.991320 0.267331
Si Si2 0.205489 0.538198 0.695312
Si Si3 0.500000 0.409803 0.000000
Si Si4 0.832089 0.899680 0.571182
Si Si5 0.113304 0.134981 0.894327
Si Si6 0.620778 0.754739 0.259188
Si Si7 0.516858 0.018081 0.150633
Si Si8 0.535479 0.148596 0.311289
O O1 0.000000 0.986356 0.500000
O O2 0.993573 0.924769 0.299576
O O3 0.962165 0.070549 0.279278
O O4 0.673412 0.992632 0.009430
O O5 0.324162 0.464692 0.817554
O O6 0.147075 0.588897 0.522847
O O7 0.000000 0.518568 0.500000
O O8 0.332923 0.588964 0.931151
O O9 0.427359 0.371884 0.800495
O O10 0.668446 0.840695 0.335693
O O11 0.704789 0.974912 0.424023
O O12 0.986291 0.205343 0.777310
O O13 0.318277 0.160775 0.091538
O O14 0.837338 0.720835 0.520078
O O15 0.500000 0.745354 0.000000
O O16 0.531283 0.106336 0.190547
O O17 0.500000 0.003276 0.000000
#
# Coordination Sequence:
#
# PCOD9120749 Si02
#       8
#     4   4   2   4   4   4   4   4
#     4  11  23  40  67 101 132 166 220 276 327 383
#     4  10  18  34  64  94 115 146 206 272 315 371
#     4  12  22  40  66  88 128 164 218 268 320 392
#     4  12  26  42  60  97 132 180 218 265 334 392
#     4  10  21  39  64  94 123 158 215 269 321 375
#     4  12  25  41  61  90 132 177 216 264 323 399
#     4  11  22  40  66  99 130 168 217 275 329 387
#     4  10  21  38  63  95 120 160 212 269 322 375
#
# _framework density 19.914847000000002
#
# number of rings (size 3 to 8) (size 9 to 14) (size 15 to 20)
#    0.000    1.067    5.333    2.000    0.000    1.067 
#    1.200    0.000    0.000    0.000    0.000    0.000 
#    0.000    0.000    0.000    0.000    0.000    0.000 
#
# Total GULP energy -83658.515343 kJ/mol
# GULP energy per Si atom -5577.234356 kJ/mol
# Density = 1.986952 g / cm^3
# Si number density = 19.914847 Si / 1000 Ang^3
#
#
#
# Elastic Constant Matrix: (Units=GPa)
#
#
# Indices 1 2 3 4 5 6 
#
# 1 88.4138 33.1346 26.3904 0.0000 -9.9617 0.0000
# 2 33.1346 51.1773 3.8444 0.0000 8.7888 0.0000
# 3 26.3904 3.8444 50.7130 -0.0001 -9.8294 0.0000
# 4 0.0000 0.0000 -0.0001 -30.6893 0.0000 -7.7329
# 5 -9.9617 8.7888 -9.8294 0.0000 29.4518 0.0000
# 6 0.0000 0.0000 0.0000 -7.7329 0.0000 14.9333
#
#
#
# Elastic Compliance Matrix: (Units=1/GPa)
#
#
# Indices 1 2 3 4 5 6 
#
# 1 0.019530 -0.013466 -0.007573 0.000000 0.008097 0.000000
# 2 -0.013466 0.030300 0.002219 0.000000 -0.012856 0.000000
# 3 -0.007573 0.002219 0.024448 0.000000 0.004936 0.000000
# 4 0.000000 0.000000 0.000000 -0.028824 0.000000 -0.014926
# 5 0.008097 -0.012856 0.004936 0.000000 0.042176 0.000000
# 6 0.000000 0.000000 0.000000 -0.014926 0.000000 0.059235
#
#
# Mechanical properties :
#
#
# Convention : Reuss Voigt Hill
#
# Bulk Modulus (GPa) = 27.29459 35.22698 31.26078
# Shear Modulus (GPa) = 25.41711 11.20147 18.30929
#
# Velocity S-wave (km/s) = 3.57640 2.37421 3.03542
# Velocity P-wave (km/s) = 5.54883 5.02425 5.29304
#
# Compressibility (1/GPa) = 0.03663730
#
# Stress axis : x y z
#
# Youngs Moduli (GPa) = 51.20382 33.00374 40.90293
#
# Poissons Ratio (x) = 0.44443 0.30975
# Poissons Ratio (y) = 0.68952 -0.09076
# Poissons Ratio (z) = 0.38776 -0.07323
#
# Static dielectric constant tensor:
#      x y z
#    x 1.754870 0.000000 -0.003660 
#    y 0.000000 1.685140 0.000000 
#    z -0.003660 0.000000 1.717800 
# 
# From -- ./inp_files/43318.got.cif
#   From: 2010.05.17/outbox.cif.g08.bks.cpg/sg5_22_cif.got.tgz:43318.got - 2010.06.03 18:56:24.
