data_PCOD9120065
_publ_section_title
;
Structure prediction by ZEFSAII (Michael W. Deem and Ramdas Pophale) SiO2 
 PCOD9120065
Probable space group: C 2
;
_chemical_formula_sum "Si O2"
_cell_formula_units_Z 30
_cell_length_a 16.653850
_cell_length_b 8.776765
_cell_length_c 11.711494
_cell_angle_alpha 90.000000
_cell_angle_beta 62.510933
_cell_angle_gamma 90.000000
_cell_volume 1518.565303
_symmetry_space_group_name_H-M "C 2"
_symmetry_group_IT_number 5
_symmetry_cell_setting 'monoclinic'
loop_
_space_group_symop_operation_xyz
x,y,z
-x,y,-z
1/2+x,1/2+y,z
1/2-x,1/2+y,-z
loop_
_atom_site_type_symbol
_atom_site_label
_atom_site_fract_x
_atom_site_fract_y
_atom_site_fract_z
Si Si1 0.714425 0.419610 0.261981
Si Si2 0.232740 0.203276 0.585907
Si Si3 0.151290 0.645128 0.711348
Si Si4 0.778827 0.920434 0.236800
Si Si5 0.191022 0.172181 0.951009
Si Si6 0.043222 0.380469 0.724007
Si Si7 0.500000 0.777173 0.000000
Si Si8 0.371759 0.709588 0.748779
O O1 0.704492 0.316122 0.380548
O O2 0.802175 0.526444 0.230796
O O3 0.743600 0.303473 0.142628
O O4 0.632786 0.536018 0.293353
O O5 0.275966 0.175123 0.435839
O O6 0.135426 0.285372 0.644363
O O7 0.224707 0.047973 0.663112
O O8 0.139935 0.803414 0.786417
O O9 0.069744 0.558458 0.700520
O O10 0.690821 0.813943 0.289461
O O11 0.777656 0.009119 0.116952
O O12 0.092957 0.186565 0.954386
O O13 0.174992 0.191757 0.095362
O O14 0.010122 0.367242 0.876439
O O15 0.965929 0.297750 0.701827
#
# Coordination Sequence:
#
# PCOD9120065 Si02
#       8
#     4   4   4   4   4   4   2   4
#     4   9  18  35  54  86 112 152 192 224 288 351
#     4  10  19  37  61  79 115 153 199 231 277 339
#     4  10  19  35  59  84 110 151 200 232 276 342
#     4  10  19  34  55  84 114 153 190 228 288 348
#     4  10  18  33  58  80 120 151 186 228 291 346
#     4  10  20  37  59  85 113 149 192 240 290 333
#     4  10  16  34  60  84 112 146 182 246 282 334
#     4  10  21  33  59  83 119 146 190 236 293 345
#
# _framework density 19.755489000000001
#
# number of rings (size 3 to 8) (size 9 to 14) (size 15 to 20)
#    0.000    2.133    4.000    2.400    0.000    0.000 
#    0.000    9.333    0.000    4.800    0.000    0.000 
#    0.000    0.000    0.000    0.000    0.000    0.000 
#
# Total GULP energy -83547.844246 kJ/mol
# GULP energy per Si atom -5569.856283 kJ/mol
# Density = 1.971053 g / cm^3
# Si number density = 19.755489 Si / 1000 Ang^3
#
#
#
# Elastic Constant Matrix: (Units=GPa)
#
#
# Indices 1 2 3 4 5 6 
#
# 1 80.1770 42.1610 10.9014 0.0000 5.6011 0.0000
# 2 42.1610 136.7504 15.6030 0.0000 6.1202 0.0000
# 3 10.9014 15.6030 46.5889 0.0000 1.2124 0.0000
# 4 0.0000 0.0000 0.0000 11.0117 0.0000 7.9387
# 5 5.6011 6.1202 1.2124 0.0000 19.2630 0.0000
# 6 0.0000 0.0000 0.0000 7.9387 0.0000 27.5194
#
#
#
# Elastic Compliance Matrix: (Units=1/GPa)
#
#
# Indices 1 2 3 4 5 6 
#
# 1 0.015232 -0.004333 -0.002037 0.000000 -0.002924 0.000000
# 2 -0.004333 0.008935 -0.001941 0.000000 -0.001457 0.000000
# 3 -0.002037 -0.001941 0.022596 0.000000 -0.000213 0.000000
# 4 0.000000 0.000000 0.000000 0.114658 0.000000 -0.033076
# 5 -0.002924 -0.001457 -0.000213 0.000000 0.053240 0.000000
# 6 0.000000 0.000000 0.000000 -0.033076 0.000000 0.045880
#
#
# Mechanical properties :
#
#
# Convention : Reuss Voigt Hill
#
# Bulk Modulus (GPa) = 33.17559 44.53856 38.85707
# Shear Modulus (GPa) = 17.40890 24.54887 20.97889
#
# Velocity S-wave (km/s) = 2.97175 3.52893 3.26226
# Velocity P-wave (km/s) = 5.34833 6.26085 5.82250
#
# Compressibility (1/GPa) = 0.03014265
#
# Stress axis : x y z
#
# Youngs Moduli (GPa) = 65.65096 111.91859 44.25466
#
# Poissons Ratio (x) = 0.48493 0.09014
# Poissons Ratio (y) = 0.28446 0.08588
# Poissons Ratio (z) = 0.13373 0.21720
#
# Static dielectric constant tensor:
#      x y z
#    x 1.725740 0.000000 0.011230 
#    y 0.000000 1.765770 0.000000 
#    z 0.011230 0.000000 1.698590 
# 
# From -- ./inp_files/44138.got.cif
#   From: 2010.05.17/outbox.cif.g08.bks.cpg/sg5_23_cif.got.tgz:44138.got - 2010.06.03 18:56:24.
