data_PCOD9120960
_publ_section_title
;
Structure prediction by ZEFSAII (Michael W. Deem and Ramdas Pophale) SiO2 
 PCOD9120960
Probable space group: C 2
;
_chemical_formula_sum "Si O2"
_cell_formula_units_Z 24
_cell_length_a 17.145812
_cell_length_b 9.126277
_cell_length_c 22.174499
_cell_angle_alpha 90.000000
_cell_angle_beta 159.731286
_cell_angle_gamma 90.000000
_cell_volume 1202.023144
_symmetry_space_group_name_H-M "C 2"
_symmetry_group_IT_number 5
_symmetry_cell_setting 'monoclinic'
loop_
_space_group_symop_operation_xyz
x,y,z
-x,y,-z
1/2+x,1/2+y,z
1/2-x,1/2+y,-z
loop_
_atom_site_type_symbol
_atom_site_label
_atom_site_fract_x
_atom_site_fract_y
_atom_site_fract_z
Si Si1 0.254616 0.718220 0.903426
Si Si2 0.114284 0.455087 0.147934
Si Si3 0.350649 0.175197 0.035617
Si Si4 0.936708 0.907805 0.588205
Si Si5 0.071853 0.184846 0.344291
Si Si6 0.802393 0.892820 0.901930
O O1 0.164574 0.687608 0.904710
O O2 0.265420 0.564833 0.876712
O O3 0.087523 0.826432 0.747882
O O4 0.495999 0.800303 0.078098
O O5 0.380611 0.445133 0.330465
O O6 0.037448 0.569083 0.143024
O O7 0.000000 0.498997 0.000000
O O8 0.370049 0.333559 0.017462
O O9 0.110216 0.120027 0.834616
O O10 0.747073 0.788192 0.436797
O O11 0.841102 0.055840 0.549551
O O12 0.919980 0.298076 0.273403
O O13 0.000000 0.854750 0.000000
#
# Coordination Sequence:
#
# PCOD9120960 Si02
#       6
#     4   4   4   4   4   4
#     4  11  20  33  60  89 114 145 198 242 287 335
#     4  10  18  37  60  84 111 160 196 233 275 360
#     4  10  20  36  58  87 112 148 197 240 282 339
#     4  11  21  38  59  85 117 156 195 239 290 349
#     4  10  22  35  60  83 118 149 199 235 295 337
#     4  10  19  33  58  85 110 148 196 234 277 347
#
# _framework density 19.966338
#
# number of rings (size 3 to 8) (size 9 to 14) (size 15 to 20)
#    1.000    0.667    3.333    5.000    0.000    0.000 
#    0.000    0.833    0.000    3.000    0.000    0.000 
#    0.000    0.000    0.000    0.000    0.000    0.000 
#
# Total GULP energy -66902.911594 kJ/mol
# GULP energy per Si atom -5575.242633 kJ/mol
# Density = 1.992089 g / cm^3
# Si number density = 19.966338 Si / 1000 Ang^3
#
#
#
# Elastic Constant Matrix: (Units=GPa)
#
#
# Indices 1 2 3 4 5 6 
#
# 1 73.8548 3.6041 16.1910 0.0029 20.3298 0.0122
# 2 3.6041 109.2766 15.4205 -0.0460 11.2825 -0.0918
# 3 16.1910 15.4205 63.3660 -0.0656 30.3546 -0.1560
# 4 0.0029 -0.0460 -0.0656 -32.4924 0.0141 -65.0383
# 5 20.3298 11.2825 30.3546 0.0141 22.7623 0.0389
# 6 0.0122 -0.0918 -0.1560 -65.0383 0.0389 -80.5500
#
#
#
# Elastic Compliance Matrix: (Units=1/GPa)
#
#
# Indices 1 2 3 4 5 6 
#
# 1 0.019958 0.001212 0.009502 -0.000050 -0.031097 0.000009
# 2 0.001212 0.009719 0.000419 -0.000020 -0.006458 0.000001
# 3 0.009502 0.000419 0.048220 -0.000206 -0.072997 0.000038
# 4 -0.000050 -0.000020 -0.000206 0.049948 0.000367 -0.040329
# 5 -0.031097 -0.006458 -0.072997 0.000367 0.172252 -0.000069
# 6 0.000009 0.000001 0.000038 -0.040329 -0.000069 0.020148
#
#
# Mechanical properties :
#
#
# Convention : Reuss Voigt Hill
#
# Bulk Modulus (GPa) = 9.98391 35.21430 22.59911
# Shear Modulus (GPa) = 15.08910 -3.97058 5.55926
#
# Velocity S-wave (km/s) = 2.75203 -1.41172 1.67044
# Velocity P-wave (km/s) = 3.88709 3.87529 3.88119
#
# Compressibility (1/GPa) = 0.10016120
#
# Stress axis : x y z
#
# Youngs Moduli (GPa) = 50.10571 102.89354 20.73848
#
# Poissons Ratio (x) = -0.12466 -0.19706
# Poissons Ratio (y) = -0.06070 -0.00869
# Poissons Ratio (z) = -0.47611 -0.04310
#
# Static dielectric constant tensor:
#      x y z
#    x 1.716930 -0.000040 0.014690 
#    y -0.000040 1.720060 -0.000010 
#    z 0.014690 -0.000010 1.760770 
# 
# From -- ./inp_files/43919.got.cif
#   From: 2010.05.17/outbox.cif.g08.bks.cpg/sg5_22_cif.got.tgz:43919.got - 2010.06.03 18:56:24.
