data_PCOD9120101
_publ_section_title
;
Structure prediction by ZEFSAII (Michael W. Deem and Ramdas Pophale) SiO2 
 PCOD9120101
Probable space group: C 2
;
_chemical_formula_sum "Si O2"
_cell_formula_units_Z 22
_cell_length_a 10.238679
_cell_length_b 15.883323
_cell_length_c 7.064108
_cell_angle_alpha 90.000000
_cell_angle_beta 93.468618
_cell_angle_gamma 90.000000
_cell_volume 1146.690741
_symmetry_space_group_name_H-M "C 2"
_symmetry_group_IT_number 5
_symmetry_cell_setting 'monoclinic'
loop_
_space_group_symop_operation_xyz
x,y,z
-x,y,-z
1/2+x,1/2+y,z
1/2-x,1/2+y,-z
loop_
_atom_site_type_symbol
_atom_site_label
_atom_site_fract_x
_atom_site_fract_y
_atom_site_fract_z
Si Si1 0.500000 0.516750 0.000000
Si Si2 0.036683 0.701284 0.714175
Si Si3 0.662706 0.375485 0.825135
Si Si4 0.729317 0.256118 0.170691
Si Si5 0.824787 0.160643 0.848589
Si Si6 0.361242 0.812260 0.568186
O O1 0.416790 0.458259 0.134480
O O2 0.403148 0.575026 0.869050
O O3 0.000000 0.675609 0.500000
O O4 0.903066 0.701255 0.820937
O O5 0.285992 0.878943 0.694989
O O6 0.168959 0.654435 0.790081
O O7 0.702590 0.335463 0.031527
O O8 0.576012 0.300585 0.726110
O O9 0.831853 0.201590 0.059239
O O10 0.775603 0.285111 0.379459
O O11 0.124291 0.228938 0.298798
O O12 0.500000 0.840792 0.500000
#
# Coordination Sequence:
#
# PCOD9120101 Si02
#       6
#     2   4   4   4   4   4
#     4  12  22  40  56  94 134 156 194 244 324 364
#     4  10  16  36  67  91 109 155 221 247 284 351
#     4  10  21  34  63  89 118 163 197 253 296 360
#     4  10  17  37  64  88 116 155 214 254 279 363
#     4  10  22  33  58  93 124 158 189 256 304 352
#     4  10  20  37  62  94 116 156 211 255 291 349
#
# _framework density 19.185642000000001
#
# number of rings (size 3 to 8) (size 9 to 14) (size 15 to 20)
#    0.000    2.182    5.455    2.727    0.000    2.182 
#    0.000    8.182    8.000    0.000    0.000    0.000 
#    0.000    0.000    0.000    0.000    0.000    0.000 
#
# Total GULP energy -61305.752396 kJ/mol
# GULP energy per Si atom -5573.250218 kJ/mol
# Density = 1.914197 g / cm^3
# Si number density = 19.185642 Si / 1000 Ang^3
#
#
#
# Elastic Constant Matrix: (Units=GPa)
#
#
# Indices 1 2 3 4 5 6 
#
# 1 141.7972 54.5963 57.9530 0.0000 -19.8761 0.0000
# 2 54.5963 84.0720 33.3580 0.0000 -0.7255 0.0000
# 3 57.9530 33.3580 120.3931 0.0000 -7.7458 0.0000
# 4 0.0000 0.0000 0.0000 6.9642 0.0000 -0.4187
# 5 -19.8761 -0.7255 -7.7458 0.0000 37.2407 0.0000
# 6 0.0000 0.0000 0.0000 -0.4187 0.0000 32.0652
#
#
#
# Elastic Compliance Matrix: (Units=1/GPa)
#
#
# Indices 1 2 3 4 5 6 
#
# 1 0.011589 -0.006070 -0.003554 0.000000 0.005328 0.000000
# 2 -0.006070 0.016552 -0.001877 0.000000 -0.003307 0.000000
# 3 -0.003554 -0.001877 0.010554 0.000000 0.000262 0.000000
# 4 0.000000 0.000000 0.000000 0.143705 0.000000 0.001877
# 5 0.005328 -0.003307 0.000262 0.000000 0.029686 0.000000
# 6 0.000000 0.000000 0.000000 0.001877 0.000000 0.031211
#
#
# Mechanical properties :
#
#
# Convention : Reuss Voigt Hill
#
# Bulk Modulus (GPa) = 63.72146 70.89745 67.30945
# Shear Modulus (GPa) = 18.41424 28.61101 23.51262
#
# Velocity S-wave (km/s) = 3.10141 3.86589 3.50456
# Velocity P-wave (km/s) = 6.79045 7.54721 7.17881
#
# Compressibility (1/GPa) = 0.01569330
#
# Stress axis : x y z
#
# Youngs Moduli (GPa) = 86.29222 60.41386 94.75215
#
# Poissons Ratio (x) = 0.36668 0.33673
# Poissons Ratio (y) = 0.52375 0.17789
# Poissons Ratio (z) = 0.30667 0.11342
#
# Static dielectric constant tensor:
#      x y z
#    x 1.748030 0.000000 0.005300 
#    y 0.000000 1.643520 0.000000 
#    z 0.005300 0.000000 1.684620 
# 
# From -- ./inp_files/19844.got.cif
#   From: 2010.05.17/outbox.cif.g08.bks.cpg/sg5_10_cif.got.tgz:19844.got - 2010.06.03 18:56:24.
