data_PCOD9120292
_publ_section_title
;
Structure prediction by ZEFSAII (Michael W. Deem and Ramdas Pophale) SiO2 
 PCOD9120292
Probable space group: C 2
;
_chemical_formula_sum "Si O2"
_cell_formula_units_Z 28
_cell_length_a 9.609480
_cell_length_b 25.620869
_cell_length_c 5.321463
_cell_angle_alpha 90.000000
_cell_angle_beta 64.965145
_cell_angle_gamma 90.000000
_cell_volume 1187.072398
_symmetry_space_group_name_H-M "C 2"
_symmetry_group_IT_number 5
_symmetry_cell_setting 'monoclinic'
loop_
_space_group_symop_operation_xyz
x,y,z
-x,y,-z
1/2+x,1/2+y,z
1/2-x,1/2+y,-z
loop_
_atom_site_type_symbol
_atom_site_label
_atom_site_fract_x
_atom_site_fract_y
_atom_site_fract_z
Si Si1 0.168941 0.367970 0.142159
Si Si2 0.095779 0.997036 0.685745
Si Si3 0.676805 0.149346 0.788232
Si Si4 0.669909 0.611867 0.836211
Si Si5 0.335037 0.360096 0.517300
Si Si6 0.934281 0.463026 0.306402
Si Si7 0.317724 0.271694 0.210336
O O1 0.288761 0.379990 0.276019
O O2 0.183436 0.305189 0.169848
O O3 0.022639 0.406048 0.257666
O O4 0.229975 0.377883 0.821626
O O5 0.143831 0.053330 0.757082
O O6 0.000000 0.001265 0.500000
O O7 0.253300 0.969959 0.474303
O O8 0.000000 0.973975 0.000000
O O9 0.725603 0.136617 0.464560
O O10 0.710359 0.211080 0.794480
O O11 0.500000 0.142457 0.000000
O O12 0.763588 0.115839 0.933989
O O13 0.500000 0.636504 0.000000
O O14 0.500000 0.372489 0.500000
O O15 0.314678 0.297629 0.490044
O O16 0.000000 0.492176 0.500000
O O17 0.000000 0.486080 0.000000
O O18 0.500000 0.282445 0.000000
#
# Coordination Sequence:
#
# PCOD9120292 Si02
#       7
#     4   4   4   4   4   4   4
#     4  10  21  38  64  96 140 195 247 304 365 410
#     4  11  25  51  82 103 138 198 253 305 388 470
#     4  11  24  39  70 115 152 191 248 302 361 438
#     4  11  24  46  71 104 148 194 244 304 378 459
#     4  10  17  34  62  96 138 202 252 284 344 429
#     4  12  27  49  74 110 149 181 238 325 384 440
#     4   9  20  36  65  99 153 204 253 283 353 438
#
# _framework density 23.587443
#
# number of rings (size 3 to 8) (size 9 to 14) (size 15 to 20)
#    0.857    0.571    1.429    4.714    2.000    1.714 
#    0.000   11.429    0.000    0.000    0.000    0.000 
#    0.000    0.000    0.000    0.000    0.000    0.000 
#
# Total GULP energy -77938.859660 kJ/mol
# GULP energy per Si atom -5567.061404 kJ/mol
# Density = 2.353376 g / cm^3
# Si number density = 23.587443 Si / 1000 Ang^3
#
#
#
# Elastic Constant Matrix: (Units=GPa)
#
#
# Indices 1 2 3 4 5 6 
#
# 1 109.2825 12.5249 45.5098 0.0000 20.1109 0.0000
# 2 12.5249 69.9610 26.9112 0.0000 -4.7718 0.0000
# 3 45.5098 26.9112 195.7254 0.0000 4.7455 0.0000
# 4 0.0000 0.0000 0.0000 297.1181 0.0000 109.0815
# 5 20.1109 -4.7718 4.7455 0.0000 48.6775 0.0000
# 6 0.0000 0.0000 0.0000 109.0815 0.0000 69.5676
#
#
#
# Elastic Compliance Matrix: (Units=1/GPa)
#
#
# Indices 1 2 3 4 5 6 
#
# 1 0.011088 -0.001417 -0.002274 0.000000 -0.004498 0.000000
# 2 -0.001417 0.015412 -0.001845 0.000000 0.002276 0.000000
# 3 -0.002274 -0.001845 0.005887 0.000000 0.000185 0.000000
# 4 0.000000 0.000000 0.000000 0.007932 0.000000 -0.012437
# 5 -0.004498 0.002276 0.000185 0.000000 0.022607 0.000000
# 6 0.000000 0.000000 0.000000 -0.012437 0.000000 0.033875
#
#
# Mechanical properties :
#
#
# Convention : Reuss Voigt Hill
#
# Bulk Modulus (GPa) = 46.91501 60.54008 53.72755
# Shear Modulus (GPa) = 43.48664 102.40751 72.94708
#
# Velocity S-wave (km/s) = 4.29842 6.59624 5.56717
# Velocity P-wave (km/s) = 6.67594 9.15073 8.00949
#
# Compressibility (1/GPa) = 0.02131514
#
# Stress axis : x y z
#
# Youngs Moduli (GPa) = 90.18875 64.88353 169.86088
#
# Poissons Ratio (x) = 0.09194 0.38630
# Poissons Ratio (y) = 0.12780 0.31336
# Poissons Ratio (z) = 0.20511 0.11970
#
# Static dielectric constant tensor:
#      x y z
#    x 1.993650 0.000000 -0.044240 
#    y 0.000000 2.002620 0.000000 
#    z -0.044240 0.000000 1.861310 
# 
# From -- ./inp_files/3878.got.cif
#   From: 2010.05.17/outbox.cif.g08.bks.cpg/sg5_2_cif.got.tgz:3878.got - 2010.06.03 18:56:24.
