data_PCOD9120926
_publ_section_title
;
Structure prediction by ZEFSAII (Michael W. Deem and Ramdas Pophale) SiO2 
 PCOD9120926
Probable space group: C 2
;
_chemical_formula_sum "Si O2"
_cell_formula_units_Z 24
_cell_length_a 13.393713
_cell_length_b 9.787483
_cell_length_c 8.089522
_cell_angle_alpha 90.000000
_cell_angle_beta 68.483327
_cell_angle_gamma 90.000000
_cell_volume 986.558786
_symmetry_space_group_name_H-M "C 2"
_symmetry_group_IT_number 5
_symmetry_cell_setting 'monoclinic'
loop_
_space_group_symop_operation_xyz
x,y,z
-x,y,-z
1/2+x,1/2+y,z
1/2-x,1/2+y,-z
loop_
_atom_site_type_symbol
_atom_site_label
_atom_site_fract_x
_atom_site_fract_y
_atom_site_fract_z
Si Si1 0.949241 0.075340 0.275458
Si Si2 0.115931 0.815512 0.470282
Si Si3 0.713631 0.961104 0.822002
Si Si4 0.338698 0.477783 0.040313
Si Si5 0.422119 0.879966 0.405583
Si Si6 0.774634 0.750257 0.297166
O O1 0.964976 0.226641 0.335405
O O2 0.903796 0.963994 0.430830
O O3 0.862756 0.080403 0.177657
O O4 0.060565 0.012408 0.138986
O O5 0.201847 0.843313 0.277201
O O6 0.161464 0.713879 0.577275
O O7 0.000000 0.765260 0.500000
O O8 0.613700 0.939485 0.755091
O O9 0.762970 0.109502 0.752497
O O10 0.723895 0.968776 0.015436
O O11 0.347483 0.330372 0.122629
O O12 0.500000 0.941381 0.500000
O O13 0.313812 0.851950 0.576048
#
# Coordination Sequence:
#
# PCOD9120926 Si02
#       6
#     4   4   4   4   4   4
#     4  10  19  38  67  92 121 169 223 267 305 399
#     4  10  18  36  64  91 121 170 223 261 314 397
#     4  11  22  38  62  95 136 169 213 280 335 378
#     4  10  22  37  64  96 128 166 224 267 333 374
#     4  11  23  41  67  95 129 178 226 262 325 399
#     4  10  23  39  62  95 133 167 220 275 323 391
#
# _framework density 24.326985000000001
#
# number of rings (size 3 to 8) (size 9 to 14) (size 15 to 20)
#    0.000    1.667    3.333    1.500    2.333    0.667 
#    0.000    0.000   14.667    0.000    0.000    0.000 
#    0.000    0.000    0.000    0.000    0.000    0.000 
#
# Total GULP energy -66845.200125 kJ/mol
# GULP energy per Si atom -5570.433344 kJ/mol
# Density = 2.427162 g / cm^3
# Si number density = 24.326985 Si / 1000 Ang^3
#
#
#
# Elastic Constant Matrix: (Units=GPa)
#
#
# Indices 1 2 3 4 5 6 
#
# 1 142.5466 -2.7060 22.8739 0.0000 46.7095 0.0000
# 2 -2.7060 58.3735 14.0707 0.0000 -3.5220 0.0000
# 3 22.8739 14.0707 59.6217 0.0000 17.1451 0.0000
# 4 0.0000 0.0000 0.0000 21.0635 0.0000 0.3770
# 5 46.7095 -3.5220 17.1451 0.0000 55.6989 0.0000
# 6 0.0000 0.0000 0.0000 0.3770 0.0000 24.6311
#
#
#
# Elastic Compliance Matrix: (Units=1/GPa)
#
#
# Indices 1 2 3 4 5 6 
#
# 1 0.009807 0.000386 -0.001641 0.000000 -0.007695 0.000000
# 2 0.000386 0.018560 -0.005236 0.000000 0.002462 0.000000
# 3 -0.001641 -0.005236 0.020118 0.000000 -0.005148 0.000000
# 4 0.000000 0.000000 0.000000 0.047489 0.000000 -0.000727
# 5 -0.007695 0.002462 -0.005148 0.000000 0.026147 0.000000
# 6 0.000000 0.000000 0.000000 -0.000727 0.000000 0.040610
#
#
# Mechanical properties :
#
#
# Convention : Reuss Voigt Hill
#
# Bulk Modulus (GPa) = 28.16668 36.55767 32.36218
# Shear Modulus (GPa) = 26.66000 35.36559 31.01279
#
# Velocity S-wave (km/s) = 3.31403 3.81696 3.57435
# Velocity P-wave (km/s) = 5.12321 5.87246 5.51058
#
# Compressibility (1/GPa) = 0.03550294
#
# Stress axis : x y z
#
# Youngs Moduli (GPa) = 101.96392 53.88051 49.70692
#
# Poissons Ratio (x) = -0.02079 0.08156
# Poissons Ratio (y) = -0.03935 0.26027
# Poissons Ratio (z) = 0.16731 0.28212
#
# Static dielectric constant tensor:
#      x y z
#    x 2.214020 0.000000 0.078310 
#    y 0.000000 1.874290 0.000000 
#    z 0.078310 0.000000 1.969820 
# 
# From -- ./inp_files/23125.got.cif
#   From: 2010.05.17/outbox.cif.g08.bks.cpg/sg5_12_cif.got.tgz:23125.got - 2010.06.03 18:56:24.
