data_PCOD9120022
_publ_section_title
;
Structure prediction by ZEFSAII (Michael W. Deem and Ramdas Pophale) SiO2 
 PCOD9120022
Probable space group: C 2
;
_chemical_formula_sum "Si O2"
_cell_formula_units_Z 26
_cell_length_a 15.483325
_cell_length_b 9.279075
_cell_length_c 18.626007
_cell_angle_alpha 90.000000
_cell_angle_beta 158.240022
_cell_angle_gamma 90.000000
_cell_volume 992.050399
_symmetry_space_group_name_H-M "C 2"
_symmetry_group_IT_number 5
_symmetry_cell_setting 'monoclinic'
loop_
_space_group_symop_operation_xyz
x,y,z
-x,y,-z
1/2+x,1/2+y,z
1/2-x,1/2+y,-z
loop_
_atom_site_type_symbol
_atom_site_label
_atom_site_fract_x
_atom_site_fract_y
_atom_site_fract_z
Si Si1 0.000000 0.951090 0.000000
Si Si2 0.912408 0.732127 0.512497
Si Si3 0.040488 0.513345 0.951098
Si Si4 0.446915 0.107587 0.731769
Si Si5 0.021481 0.432276 0.663649
Si Si6 0.436377 0.483851 0.645314
Si Si7 0.550786 0.692358 0.916972
O O1 0.756591 0.862408 0.816307
O O2 0.008547 0.055623 0.936477
O O3 0.041897 0.593673 0.645043
O O4 0.961694 0.868067 0.600397
O O5 0.640913 0.690190 0.293866
O O6 0.000000 0.757963 0.500000
O O7 0.310029 0.529956 0.136317
O O8 0.897814 0.587500 0.777186
O O9 0.996868 0.342186 0.915034
O O10 0.000000 0.563523 0.000000
O O11 0.208126 0.116521 0.501823
O O12 0.531174 0.956271 0.757509
O O13 0.678430 0.200698 0.898005
O O14 0.744367 0.407960 0.438384
#
# Coordination Sequence:
#
# PCOD9120022 Si02
#       7
#     2   4   4   4   4   4   4
#     4  10  16  32  52  84 114 146 182 236 282 330
#     4  12  20  33  60  90 114 147 195 242 287 339
#     4  12  22  37  61  89 116 149 194 242 288 337
#     4   9  22  37  50  86 120 153 180 239 288 344
#     4   9  20  35  53  85 118 152 182 239 286 341
#     4  10  22  34  53  87 121 150 186 232 296 338
#     4  11  19  34  58  86 120 143 190 241 293 326
#
# _framework density 26.208347
#
# number of rings (size 3 to 8) (size 9 to 14) (size 15 to 20)
#    0.923    0.615    3.846    3.692    0.000    0.000 
#    0.000    0.000    0.000    0.000   32.000    1.077 
#    0.000    0.000    0.000    0.000    0.000    0.000 
#
# Total GULP energy -72537.048721 kJ/mol
# GULP energy per Si atom -5579.772979 kJ/mol
# Density = 2.614870 g / cm^3
# Si number density = 26.208347 Si / 1000 Ang^3
#
#
#
# Elastic Constant Matrix: (Units=GPa)
#
#
# Indices 1 2 3 4 5 6 
#
# 1 94.4186 -2.5714 5.9645 -0.0016 -4.3498 0.0005
# 2 -2.5714 59.2790 -11.4487 0.0153 -1.3781 -0.0004
# 3 5.9645 -11.4487 147.4654 0.0259 0.0038 0.0004
# 4 -0.0016 0.0153 0.0259 20.6462 0.0031 5.6178
# 5 -4.3498 -1.3781 0.0038 0.0031 53.6795 -0.0014
# 6 0.0005 -0.0004 0.0004 5.6178 -0.0014 19.3354
#
#
#
# Elastic Compliance Matrix: (Units=1/GPa)
#
#
# Indices 1 2 3 4 5 6 
#
# 1 0.010668 0.000406 -0.000400 0.000001 0.000875 -0.000001
# 2 0.000406 0.017152 0.001315 -0.000016 0.000473 0.000005
# 3 -0.000400 0.001315 0.006900 -0.000010 0.000001 0.000003
# 4 0.000001 -0.000016 -0.000010 0.052593 -0.000004 -0.015281
# 5 0.000875 0.000473 0.000001 -0.000004 0.018712 0.000002
# 6 -0.000001 0.000005 0.000003 -0.015281 0.000002 0.056158
#
#
# Mechanical properties :
#
#
# Convention : Reuss Voigt Hill
#
# Bulk Modulus (GPa) = 26.76562 31.67242 29.21902
# Shear Modulus (GPa) = 29.07073 39.34679 34.20876
#
# Velocity S-wave (km/s) = 3.33410 3.87887 3.61676
# Velocity P-wave (km/s) = 5.00564 5.67204 5.34923
#
# Compressibility (1/GPa) = 0.03736136
#
# Stress axis : x y z
#
# Youngs Moduli (GPa) = 93.74036 58.30228 144.93719
#
# Poissons Ratio (x) = -0.02366 0.05797
# Poissons Ratio (y) = -0.03804 -0.19062
# Poissons Ratio (z) = 0.03750 -0.07668
#
# Static dielectric constant tensor:
#      x y z
#    x 2.039860 0.000000 0.052690 
#    y 0.000000 2.144780 0.000000 
#    z 0.052690 0.000000 2.197840 
# 
# From -- ./inp_files/66164.got.cif
#   From: 2010.05.17/outbox.cif.g08.bks.cpg/sg5_34_cif.got.tgz:66164.got - 2010.06.03 18:56:24.
