data_PCOD9120394
_publ_section_title
;
Structure prediction by ZEFSAII (Michael W. Deem and Ramdas Pophale) SiO2 
 PCOD9120394
Probable space group: C 2
;
_chemical_formula_sum "Si O2"
_cell_formula_units_Z 30
_cell_length_a 5.135006
_cell_length_b 24.479607
_cell_length_c 12.978367
_cell_angle_alpha 90.000000
_cell_angle_beta 84.524090
_cell_angle_gamma 90.000000
_cell_volume 1623.973615
_symmetry_space_group_name_H-M "C 2"
_symmetry_group_IT_number 5
_symmetry_cell_setting 'monoclinic'
loop_
_space_group_symop_operation_xyz
x,y,z
-x,y,-z
1/2+x,1/2+y,z
1/2-x,1/2+y,-z
loop_
_atom_site_type_symbol
_atom_site_label
_atom_site_fract_x
_atom_site_fract_y
_atom_site_fract_z
Si Si1 0.044347 0.323510 0.722706
Si Si2 0.551632 0.389544 0.780331
Si Si3 0.026332 0.214242 0.618686
Si Si4 0.062098 0.001834 0.879456
Si Si5 0.500000 0.338577 0.000000
Si Si6 0.351623 0.751665 0.094185
Si Si7 0.015039 0.678979 0.255347
Si Si8 0.937605 0.574530 0.118978
O O1 0.297143 0.359300 0.744063
O O2 0.086978 0.279033 0.631758
O O3 0.989922 0.282246 0.821479
O O4 0.803422 0.364127 0.714767
O O5 0.530554 0.454524 0.795231
O O6 0.587995 0.372358 0.898410
O O7 0.259516 0.181603 0.666285
O O8 0.000000 0.201216 0.500000
O O9 0.753636 0.200249 0.685475
O O10 0.353410 0.026183 0.868907
O O11 0.852615 0.049729 0.867641
O O12 0.000000 0.983272 0.000000
O O13 0.723710 0.299566 0.033421
O O14 0.128757 0.718561 0.161948
O O15 0.500000 0.717463 0.000000
O O16 0.973642 0.621286 0.201867
O O17 0.000000 0.594618 0.000000
#
# Coordination Sequence:
#
# PCOD9120394 Si02
#       8
#     4   4   4   4   2   4   4   4
#     4  10  21  33  50  84 111 144 184 229 281 343
#     4  11  19  32  52  77 114 149 194 226 263 321
#     4  11  23  43  62  85 114 146 191 249 298 356
#     4  10  20  35  52  77 113 163 201 227 264 322
#     4  10  18  28  44  72 112 154 184 222 252 308
#     4  10  20  30  48  78 121 153 180 217 274 332
#     4  11  24  37  60  85 114 153 200 231 291 353
#     4  10  22  37  54  81 118 155 193 230 279 334
#
# _framework density 18.473206999999999
#
# number of rings (size 3 to 8) (size 9 to 14) (size 15 to 20)
#    0.000    1.600    2.000    4.400    2.800    1.600 
#    0.000    0.000    0.000    0.000    0.000   18.667 
#    0.000    0.000    0.000    0.000    0.000    0.000 
#
# Total GULP energy -83671.955587 kJ/mol
# GULP energy per Si atom -5578.130372 kJ/mol
# Density = 1.843116 g / cm^3
# Si number density = 18.473207 Si / 1000 Ang^3
#
#
#
# Elastic Constant Matrix: (Units=GPa)
#
#
# Indices 1 2 3 4 5 6 
#
# 1 92.5349 15.1513 35.0265 0.0000 9.3525 0.0000
# 2 15.1513 60.3924 30.1893 0.0000 4.0534 0.0000
# 3 35.0265 30.1893 63.9657 0.0000 11.9123 0.0000
# 4 0.0000 0.0000 0.0000 21.3444 0.0000 3.8865
# 5 9.3525 4.0534 11.9123 0.0000 20.3719 0.0000
# 6 0.0000 0.0000 0.0000 3.8865 0.0000 16.2016
#
#
#
# Elastic Compliance Matrix: (Units=1/GPa)
#
#
# Indices 1 2 3 4 5 6 
#
# 1 0.013720 0.000339 -0.007280 0.000000 -0.002109 0.000000
# 2 0.000339 0.021743 -0.010788 0.000000 0.001826 0.000000
# 3 -0.007280 -0.010788 0.026584 0.000000 -0.010056 0.000000
# 4 0.000000 0.000000 0.000000 0.048990 0.000000 -0.011752
# 5 -0.002109 0.001826 -0.010056 0.000000 0.055572 0.000000
# 6 0.000000 0.000000 0.000000 -0.011752 0.000000 0.064542
#
#
# Mechanical properties :
#
#
# Convention : Reuss Voigt Hill
#
# Bulk Modulus (GPa) = 37.60873 41.95859 39.78366
# Shear Modulus (GPa) = 18.15064 20.68529 19.41797
#
# Velocity S-wave (km/s) = 3.13795 3.34989 3.24565
# Velocity P-wave (km/s) = 5.79065 6.14206 5.96894
#
# Compressibility (1/GPa) = 0.02658957
#
# Stress axis : x y z
#
# Youngs Moduli (GPa) = 72.88593 45.99099 37.61706
#
# Poissons Ratio (x) = -0.01557 0.27385
# Poissons Ratio (y) = -0.02468 0.40579
# Poissons Ratio (z) = 0.53060 0.49613
#
# Static dielectric constant tensor:
#      x y z
#    x 1.648160 0.000000 -0.074060 
#    y 0.000000 1.655240 0.000000 
#    z -0.074060 0.000000 1.588460 
# 
# From -- ./inp_files/34259.got.cif
#   From: 2010.05.17/outbox.cif.g08.bks.cpg/sg5_18_cif.got.tgz:34259.got - 2010.06.03 18:56:24.
