data_PCOD9120704
_publ_section_title
;
Structure prediction by ZEFSAII (Michael W. Deem and Ramdas Pophale) SiO2 
 PCOD9120704
Probable space group: C 2
;
_chemical_formula_sum "Si O2"
_cell_formula_units_Z 32
_cell_length_a 15.946060
_cell_length_b 24.172980
_cell_length_c 8.931964
_cell_angle_alpha 90.000000
_cell_angle_beta 29.240983
_cell_angle_gamma 90.000000
_cell_volume 1681.825091
_symmetry_space_group_name_H-M "C 2"
_symmetry_group_IT_number 5
_symmetry_cell_setting 'monoclinic'
loop_
_space_group_symop_operation_xyz
x,y,z
-x,y,-z
1/2+x,1/2+y,z
1/2-x,1/2+y,-z
loop_
_atom_site_type_symbol
_atom_site_label
_atom_site_fract_x
_atom_site_fract_y
_atom_site_fract_z
Si Si1 0.819249 0.066890 0.863503
Si Si2 0.018469 0.763709 0.139304
Si Si3 0.149882 0.002910 0.878531
Si Si4 0.978051 0.482530 0.716093
Si Si5 0.847442 0.258229 0.123797
Si Si6 0.283488 0.878475 0.118530
Si Si7 0.317385 0.188212 0.871411
Si Si8 0.441723 0.385373 0.832810
O O1 0.000000 0.061562 0.500000
O O2 0.845563 0.044925 0.990709
O O3 0.750292 0.129052 0.971817
O O4 0.673906 0.026319 0.023877
O O5 0.832568 0.760377 0.506875
O O6 0.072059 0.828271 0.055179
O O7 0.145102 0.728767 0.047683
O O8 0.000000 0.742574 0.000000
O O9 0.338493 0.002876 0.513327
O O10 0.000000 0.017575 0.000000
O O11 0.115215 0.940677 0.994244
O O12 0.000000 0.475186 0.500000
O O13 0.922172 0.426017 0.880510
O O14 0.867735 0.319781 0.024633
O O15 0.815476 0.216128 0.037421
O O16 0.000000 0.244608 0.000000
O O17 0.137896 0.891558 0.469454
O O18 0.176546 0.876978 0.129761
O O19 0.500000 0.181726 0.500000
#
# Coordination Sequence:
#
# PCOD9120704 Si02
#       8
#     4   4   4   4   4   4   4   4
#     4  11  23  42  63  85 112 156 203 243 298 362
#     4  10  21  38  61  90 121 158 199 244 294 355
#     4  11  23  38  60  92 121 151 194 247 301 351
#     4  10  20  36  59  86 116 154 195 238 294 354
#     4  10  22  38  58  88 123 160 200 242 294 352
#     4  10  18  34  59  87 121 161 198 237 293 356
#     4  10  21  41  64  83 115 162 202 243 302 353
#     4  10  18  34  60  88 122 161 194 236 297 359
#
# _framework density 19.026948999999998
#
# number of rings (size 3 to 8) (size 9 to 14) (size 15 to 20)
#    0.000    1.750    3.750    2.250    0.000    4.500 
#    0.000    5.000    0.000    0.000    0.000    0.000 
#    0.000    0.000    0.000    0.000    0.000    0.000 
#
# Total GULP energy -89364.837580 kJ/mol
# GULP energy per Si atom -5585.302349 kJ/mol
# Density = 1.898364 g / cm^3
# Si number density = 19.026949 Si / 1000 Ang^3
#
#
#
# Elastic Constant Matrix: (Units=GPa)
#
#
# Indices 1 2 3 4 5 6 
#
# 1 78.1219 15.2950 25.8898 0.0000 -20.3331 -0.0002
# 2 15.2950 89.1722 39.9472 -0.0001 0.1934 0.0002
# 3 25.8898 39.9472 79.2566 0.0002 -15.1177 -0.0007
# 4 0.0000 -0.0001 0.0002 29.6748 -0.0002 -2.8531
# 5 -20.3331 0.1934 -15.1177 -0.0002 28.4796 0.0006
# 6 -0.0002 0.0002 -0.0007 -2.8531 0.0006 4.3563
#
#
#
# Elastic Compliance Matrix: (Units=1/GPa)
#
#
# Indices 1 2 3 4 5 6 
#
# 1 0.016756 -0.001746 -0.002569 0.000000 0.010611 -0.000001
# 2 -0.001746 0.015185 -0.008168 0.000000 -0.005685 -0.000001
# 3 -0.002569 -0.008168 0.019176 0.000000 0.008400 0.000002
# 4 0.000000 0.000000 0.000000 0.035963 0.000000 0.023553
# 5 0.010611 -0.005685 0.008400 0.000000 0.047186 -0.000004
# 6 -0.000001 -0.000001 0.000002 0.023553 -0.000004 0.244977
#
#
# Mechanical properties :
#
#
# Convention : Reuss Voigt Hill
#
# Bulk Modulus (GPa) = 38.24103 45.42387 41.83245
# Shear Modulus (GPa) = 12.10874 23.53005 17.81939
#
# Velocity S-wave (km/s) = 2.52543 3.52045 3.06361
# Velocity P-wave (km/s) = 5.35217 6.36003 5.87774
#
# Compressibility (1/GPa) = 0.02614992
#
# Stress axis : x y z
#
# Youngs Moduli (GPa) = 59.68184 65.85442 52.14976
#
# Poissons Ratio (x) = 0.11497 0.13400
# Poissons Ratio (y) = 0.10420 0.42595
# Poissons Ratio (z) = 0.15335 0.53788
#
# Static dielectric constant tensor:
#      x y z
#    x 1.663360 0.000000 0.000900 
#    y 0.000000 1.638890 0.000000 
#    z 0.000900 0.000000 1.663210 
# 
# From -- ./inp_files/25565.got.cif
#   From: 2010.05.17/outbox.cif.g08.bks.cpg/sg5_13_cif.got.tgz:25565.got - 2010.06.03 18:56:24.
