data_PCOD9120587
_publ_section_title
;
Structure prediction by ZEFSAII (Michael W. Deem and Ramdas Pophale) SiO2 
 PCOD9120587
Probable space group: C 2
;
_chemical_formula_sum "Si O2"
_cell_formula_units_Z 30
_cell_length_a 17.712642
_cell_length_b 18.326877
_cell_length_c 14.144982
_cell_angle_alpha 90.000000
_cell_angle_beta 158.625663
_cell_angle_gamma 90.000000
_cell_volume 1673.492427
_symmetry_space_group_name_H-M "C 2"
_symmetry_group_IT_number 5
_symmetry_cell_setting 'monoclinic'
loop_
_space_group_symop_operation_xyz
x,y,z
-x,y,-z
1/2+x,1/2+y,z
1/2-x,1/2+y,-z
loop_
_atom_site_type_symbol
_atom_site_label
_atom_site_fract_x
_atom_site_fract_y
_atom_site_fract_z
Si Si1 0.278525 0.310960 0.024071
Si Si2 0.746447 0.144422 0.959461
Si Si3 0.696074 0.935764 0.796684
Si Si4 0.493762 0.022097 0.736057
Si Si5 0.476990 0.561177 0.864942
Si Si6 0.500000 0.196930 0.500000
Si Si7 0.696354 0.326898 0.631487
Si Si8 0.443137 0.888136 0.071656
O O1 0.236566 0.224783 0.976417
O O2 0.490963 0.327056 0.328873
O O3 0.278129 0.357111 0.927395
O O4 0.106235 0.346085 0.890286
O O5 0.646324 0.091236 0.920122
O O6 0.577125 0.150624 0.677372
O O7 0.938796 0.112776 0.122618
O O8 0.500000 0.927602 0.500000
O O9 0.604459 0.977503 0.780903
O O10 0.877484 0.988433 0.969074
O O11 0.261472 0.042879 0.435070
O O12 0.490794 0.969353 0.823374
O O13 0.500000 0.590685 0.000000
O O14 0.678374 0.251255 0.669012
O O15 0.882416 0.341390 0.777329
O O16 0.744834 0.385508 0.770498
#
# Coordination Sequence:
#
# PCOD9120587 Si02
#       8
#     4   4   4   4   4   2   4   4
#     4  10  20  36  54  80 111 138 178 219 266 317
#     4  10  21  33  51  79 113 142 168 217 274 325
#     4  10  20  36  57  78 105 141 184 226 254 303
#     4  10  21  35  51  79 110 142 177 216 265 320
#     4  11  20  33  54  79 109 141 176 217 276 315
#     4  10  18  34  50  82 112 134 170 222 280 320
#     4  10  18  33  54  82 106 134 175 220 268 308
#     4  10  19  32  54  78 108 140 175 217 261 313
#
# _framework density 17.926580999999999
#
# number of rings (size 3 to 8) (size 9 to 14) (size 15 to 20)
#    0.000    1.867    4.000    1.600    1.867    3.200 
#    0.000    0.000    0.000    8.000    0.000    0.000 
#    0.000    0.000    0.000    0.000    0.000    0.000 
#
# Total GULP energy -83503.014936 kJ/mol
# GULP energy per Si atom -5566.867662 kJ/mol
# Density = 1.788578 g / cm^3
# Si number density = 17.926581 Si / 1000 Ang^3
#
#
#
# Elastic Constant Matrix: (Units=GPa)
#
#
# Indices 1 2 3 4 5 6 
#
# 1 43.9634 21.9300 13.0576 0.0001 19.4632 0.0001
# 2 21.9300 98.1739 31.9790 0.0000 8.2524 0.0000
# 3 13.0576 31.9790 49.8794 0.0002 16.4585 0.0001
# 4 0.0001 0.0000 0.0002 20.9885 0.0001 -8.2288
# 5 19.4632 8.2524 16.4585 0.0001 28.2879 0.0001
# 6 0.0001 0.0000 0.0001 -8.2288 0.0001 15.9275
#
#
#
# Elastic Compliance Matrix: (Units=1/GPa)
#
#
# Indices 1 2 3 4 5 6 
#
# 1 0.036285 -0.007067 0.003205 0.000000 -0.024769 0.000000
# 2 -0.007067 0.014290 -0.009332 0.000000 0.006123 0.000000
# 3 0.003205 -0.009332 0.030967 0.000000 -0.017500 0.000000
# 4 0.000000 0.000000 0.000000 0.059747 0.000000 0.030868
# 5 -0.024769 0.006123 -0.017500 0.000000 0.060788 0.000000
# 6 0.000000 0.000000 0.000000 0.030868 0.000000 0.078732
#
#
# Mechanical properties :
#
#
# Convention : Reuss Voigt Hill
#
# Bulk Modulus (GPa) = 18.13140 36.21665 27.17402
# Shear Modulus (GPa) = 15.35716 21.37747 18.36731
#
# Velocity S-wave (km/s) = 2.93007 3.45701 3.20439
# Velocity P-wave (km/s) = 4.64578 6.01508 5.37422
#
# Compressibility (1/GPa) = 0.05515294
#
# Stress axis : x y z
#
# Youngs Moduli (GPa) = 27.55963 69.98040 32.29284
#
# Poissons Ratio (x) = 0.49457 -0.10350
# Poissons Ratio (y) = 0.19477 0.30135
# Poissons Ratio (z) = -0.08833 0.65305
#
# Static dielectric constant tensor:
#      x y z
#    x 1.644180 0.000000 0.022140 
#    y 0.000000 1.667960 0.000000 
#    z 0.022140 0.000000 1.633170 
# 
# From -- ./inp_files/56211.got.cif
#   From: 2010.05.17/outbox.cif.g08.bks.cpg/sg5_29_cif.got.tgz:56211.got - 2010.06.03 18:56:24.
