data_PCOD9120272
_publ_section_title
;
Structure prediction by ZEFSAII (Michael W. Deem and Ramdas Pophale) SiO2 
 PCOD9120272
Probable space group: C 2
;
_chemical_formula_sum "Si O2"
_cell_formula_units_Z 26
_cell_length_a 14.752699
_cell_length_b 18.520905
_cell_length_c 8.490170
_cell_angle_alpha 90.000000
_cell_angle_beta 146.484617
_cell_angle_gamma 90.000000
_cell_volume 1280.901348
_symmetry_space_group_name_H-M "C 2"
_symmetry_group_IT_number 5
_symmetry_cell_setting 'monoclinic'
loop_
_space_group_symop_operation_xyz
x,y,z
-x,y,-z
1/2+x,1/2+y,z
1/2-x,1/2+y,-z
loop_
_atom_site_type_symbol
_atom_site_label
_atom_site_fract_x
_atom_site_fract_y
_atom_site_fract_z
Si Si1 0.127236 0.835630 0.323336
Si Si2 0.000000 0.077875 0.000000
Si Si3 0.406180 0.782077 0.519053
Si Si4 0.500000 0.569496 0.500000
Si Si5 0.500000 0.073353 0.000000
Si Si6 0.336572 0.671248 0.001248
Si Si7 0.182045 0.986468 0.524899
Si Si8 0.595528 0.201587 0.905974
O O1 0.302115 0.828687 0.489866
O O2 0.148626 0.901820 0.471964
O O3 0.047897 0.761973 0.280199
O O4 0.000000 0.855685 0.000000
O O5 0.141054 0.130160 0.131363
O O6 0.935004 0.026058 0.770094
O O7 0.500000 0.812905 0.500000
O O8 0.544692 0.740328 0.818547
O O9 0.259786 0.731398 0.235111
O O10 0.422573 0.619299 0.254673
O O11 0.638602 0.518766 0.630749
O O12 0.453459 0.128572 0.074129
O O13 0.642131 0.019282 0.259370
O O14 0.161475 0.689086 0.824471
#
# Coordination Sequence:
#
# PCOD9120272 Si02
#       8
#     4   2   4   2   2   4   4   4
#     4  10  20  36  57  89 123 157 199 249 308 357
#     4  10  22  35  61  88 130 144 198 256 330 327
#     4   9  16  31  59  86 113 154 207 241 292 365
#     4  10  18  34  64  82 120 156 214 232 312 364
#     4  12  20  37  67  92 114 162 218 242 286 367
#     4  10  17  35  59  94 109 155 203 266 286 358
#     4  11  23  40  60  90 123 165 193 257 303 373
#     4  10  17  33  63  88 112 157 216 243 281 373
#
# _framework density 20.298207000000001
#
# number of rings (size 3 to 8) (size 9 to 14) (size 15 to 20)
#    0.000    1.846    6.923    0.923    0.000    0.000 
#    0.000    9.231    0.000    0.000    0.000    0.000 
#    0.000    0.000    0.000    0.000    0.000    0.000 
#
# Total GULP energy -72439.253426 kJ/mol
# GULP energy per Si atom -5572.250264 kJ/mol
# Density = 2.025201 g / cm^3
# Si number density = 20.298207 Si / 1000 Ang^3
#
#
#
# Elastic Constant Matrix: (Units=GPa)
#
#
# Indices 1 2 3 4 5 6 
#
# 1 76.0269 19.2053 -3.7949 0.0000 26.7657 0.0000
# 2 19.2053 75.6081 12.3640 0.0000 11.9725 0.0000
# 3 -3.7949 12.3640 36.7321 0.0000 19.7515 0.0000
# 4 0.0000 0.0000 0.0000 9.8222 0.0000 11.0045
# 5 26.7657 11.9725 19.7515 0.0000 22.9365 0.0000
# 6 0.0000 0.0000 0.0000 11.0045 0.0000 -26.6250
#
#
#
# Elastic Compliance Matrix: (Units=1/GPa)
#
#
# Indices 1 2 3 4 5 6 
#
# 1 0.136508 -0.015853 0.187441 0.000000 -0.312435 0.000000
# 2 -0.015853 0.016303 -0.023273 0.000000 0.030031 0.000000
# 3 0.187441 -0.023273 0.308234 0.000000 -0.472017 0.000000
# 4 0.000000 0.000000 0.000000 0.069587 0.000000 0.028761
# 5 -0.312435 0.030031 -0.472017 0.000000 0.798990 0.000000
# 6 0.000000 0.000000 0.000000 0.028761 0.000000 -0.025671
#
#
# Mechanical properties :
#
#
# Convention : Reuss Voigt Hill
#
# Bulk Modulus (GPa) = 1.31983 27.10178 14.21080
# Shear Modulus (GPa) = 3.96863 11.93292 7.95077
#
# Velocity S-wave (km/s) = 1.39979 2.42725 1.98128
# Velocity P-wave (km/s) = 1.80670 4.60828 3.50003
#
# Compressibility (1/GPa) = 0.75767545
#
# Stress axis : x y z
#
# Youngs Moduli (GPa) = 7.32556 61.33711 3.24429
#
# Poissons Ratio (x) = 0.97235 -0.60811
# Poissons Ratio (y) = 0.11613 0.07551
# Poissons Ratio (z) = -1.37311 1.42752
#
# Static dielectric constant tensor:
#      x y z
#    x 1.785160 0.000000 0.010130 
#    y 0.000000 1.715290 0.000000 
#    z 0.010130 0.000000 1.771340 
# 
# From -- ./inp_files/25406.got.cif
#   From: 2010.05.17/outbox.cif.g08.bks.cpg/sg5_13_cif.got.tgz:25406.got - 2010.06.03 18:56:24.
