data_PCOD9120057
_publ_section_title
;
Structure prediction by ZEFSAII (Michael W. Deem and Ramdas Pophale) SiO2 
 PCOD9120057
Probable space group: C 2
;
_chemical_formula_sum "Si O2"
_cell_formula_units_Z 30
_cell_length_a 24.235761
_cell_length_b 8.444004
_cell_length_c 8.417062
_cell_angle_alpha 90.000000
_cell_angle_beta 128.854444
_cell_angle_gamma 90.000000
_cell_volume 1341.403162
_symmetry_space_group_name_H-M "C 2"
_symmetry_group_IT_number 5
_symmetry_cell_setting 'monoclinic'
loop_
_space_group_symop_operation_xyz
x,y,z
-x,y,-z
1/2+x,1/2+y,z
1/2-x,1/2+y,-z
loop_
_atom_site_type_symbol
_atom_site_label
_atom_site_fract_x
_atom_site_fract_y
_atom_site_fract_z
Si Si1 0.862348 0.407950 0.568286
Si Si2 0.918654 0.249420 0.378178
Si Si3 0.593334 0.608787 0.953710
Si Si4 0.795447 0.342723 0.751820
Si Si5 0.848745 0.739696 0.372848
Si Si6 0.889838 0.567984 0.141196
Si Si7 0.497742 0.318176 0.303413
Si Si8 0.000000 0.337263 0.000000
O O1 0.882624 0.266205 0.483065
O O2 0.797645 0.378294 0.569818
O O3 0.846219 0.566151 0.445252
O O4 0.933607 0.426143 0.802877
O O5 0.882169 0.136954 0.184721
O O6 0.915048 0.425604 0.299583
O O7 0.000000 0.199828 0.500000
O O8 0.551515 0.444599 0.874765
O O9 0.663246 0.672722 0.166929
O O10 0.534996 0.730021 0.923322
O O11 0.721103 0.330663 0.703783
O O12 0.839883 0.480202 0.924664
O O13 0.855774 0.701249 0.196334
O O14 0.918596 0.820238 0.575604
O O15 0.960165 0.650606 0.200726
O O16 0.500000 0.337702 0.500000
#
# Coordination Sequence:
#
# PCOD9120057 Si02
#       8
#     4   4   4   4   4   4   4   2
#     4  10  21  38  64  91 126 168 216 258 322 385
#     4  10  16  33  64  91 114 162 216 255 308 380
#     4  10  21  37  62  94 125 159 212 266 314 368
#     4  10  23  43  63  93 131 167 214 262 324 389
#     4  10  22  42  65  91 128 167 215 262 322 388
#     4   9  20  39  66  89 120 170 212 256 313 391
#     4  10  21  38  63  94 126 159 215 270 311 371
#     4  10  20  36  60  94 124 162 212 264 304 382
#
# _framework density 22.364640000000001
#
# number of rings (size 3 to 8) (size 9 to 14) (size 15 to 20)
#    0.000    2.133    1.333    2.400    3.733    2.133 
#    7.200    4.000    0.000    0.000    0.000    0.000 
#    0.000    0.000    0.000    0.000    0.000    0.000 
#
# Total GULP energy -83575.714323 kJ/mol
# GULP energy per Si atom -5571.714288 kJ/mol
# Density = 2.231374 g / cm^3
# Si number density = 22.364640 Si / 1000 Ang^3
#
#
#
# Elastic Constant Matrix: (Units=GPa)
#
#
# Indices 1 2 3 4 5 6 
#
# 1 118.5202 19.3295 28.1172 0.0000 6.6616 0.0000
# 2 19.3295 61.2679 18.3469 0.0000 11.6987 0.0000
# 3 28.1172 18.3469 38.1407 0.0000 -5.5782 0.0000
# 4 0.0000 0.0000 0.0000 7.9465 0.0000 6.6816
# 5 6.6616 11.6987 -5.5782 0.0000 35.9399 0.0000
# 6 0.0000 0.0000 0.0000 6.6816 0.0000 20.0945
#
#
#
# Elastic Compliance Matrix: (Units=1/GPa)
#
#
# Indices 1 2 3 4 5 6 
#
# 1 0.010588 -0.000317 -0.008109 0.000000 -0.003118 0.000000
# 2 -0.000317 0.021490 -0.011377 0.000000 -0.008702 0.000000
# 3 -0.008109 -0.011377 0.039323 0.000000 0.011310 0.000000
# 4 0.000000 0.000000 0.000000 0.174678 0.000000 -0.058082
# 5 -0.003118 -0.008702 0.011310 0.000000 0.032990 0.000000
# 6 0.000000 0.000000 0.000000 -0.058082 0.000000 0.069077
#
#
# Mechanical properties :
#
#
# Convention : Reuss Voigt Hill
#
# Bulk Modulus (GPa) = 31.45007 38.83511 35.14259
# Shear Modulus (GPa) = 12.55172 22.93851 17.74512
#
# Velocity S-wave (km/s) = 2.37160 3.20607 2.81987
# Velocity P-wave (km/s) = 4.64675 5.57740 5.13321
#
# Compressibility (1/GPa) = 0.03179644
#
# Stress axis : x y z
#
# Youngs Moduli (GPa) = 94.44585 46.53298 25.43014
#
# Poissons Ratio (x) = 0.01474 0.20622
# Poissons Ratio (y) = 0.02992 0.28931
# Poissons Ratio (z) = 0.76588 0.52939
#
# Static dielectric constant tensor:
#      x y z
#    x 1.875660 0.000000 -0.014700 
#    y 0.000000 1.869880 0.000000 
#    z -0.014700 0.000000 1.882490 
# 
# From -- ./inp_files/31657.got.cif
#   From: 2010.05.17/outbox.cif.g08.bks.cpg/sg5_16_cif.got.tgz:31657.got - 2010.06.03 18:56:24.
