data_PCOD9120793
_publ_section_title
;
Structure prediction by ZEFSAII (Michael W. Deem and Ramdas Pophale) SiO2 
 PCOD9120793
Probable space group: C 2
;
_chemical_formula_sum "Si O2"
_cell_formula_units_Z 28
_cell_length_a 19.013513
_cell_length_b 16.067798
_cell_length_c 11.607722
_cell_angle_alpha 90.000000
_cell_angle_beta 24.961976
_cell_angle_gamma 90.000000
_cell_volume 1496.564254
_symmetry_space_group_name_H-M "C 2"
_symmetry_group_IT_number 5
_symmetry_cell_setting 'monoclinic'
loop_
_space_group_symop_operation_xyz
x,y,z
-x,y,-z
1/2+x,1/2+y,z
1/2-x,1/2+y,-z
loop_
_atom_site_type_symbol
_atom_site_label
_atom_site_fract_x
_atom_site_fract_y
_atom_site_fract_z
Si Si1 0.625149 0.328700 0.401757
Si Si2 0.264573 0.394794 0.347020
Si Si3 0.682799 0.148882 0.200329
Si Si4 0.028171 0.802553 0.120833
Si Si5 0.440658 0.943725 0.957072
Si Si6 0.171535 0.086928 0.800628
Si Si7 0.456075 0.127235 0.837151
O O1 0.500000 0.372422 0.500000
O O2 0.679060 0.242711 0.257676
O O3 0.526533 0.309903 0.665532
O O4 0.778936 0.387156 0.196674
O O5 0.381228 0.346296 0.265494
O O6 0.079742 0.399460 0.670932
O O7 0.304429 0.349356 0.167570
O O8 0.318356 0.490440 0.249633
O O9 0.500000 0.110464 0.500000
O O10 0.671921 0.145624 0.078683
O O11 0.818257 0.100880 0.076346
O O12 0.052612 0.704695 0.063570
O O13 0.416390 0.036998 0.946275
O O14 0.500000 0.949966 0.000000
O O15 0.347414 0.124991 0.494134
O O16 0.000000 0.121442 0.000000
#
# Coordination Sequence:
#
# PCOD9120793 Si02
#       7
#     4   4   4   4   4   4   4
#     4  11  21  40  68  93 120 172 212 257 307 377
#     4  10  23  37  61  97 126 162 205 265 314 364
#     4   9  18  37  60  88 121 162 209 243 305 375
#     4  11  19  40  65  87 129 164 211 247 316 376
#     4  11  24  41  63  97 128 158 215 265 312 369
#     4  10  18  35  59  95 122 157 210 256 299 367
#     4  10  22  39  62  90 124 171 202 253 319 371
#
# _framework density 18.709520999999999
#
# number of rings (size 3 to 8) (size 9 to 14) (size 15 to 20)
#    0.000    1.714    7.143    0.000    2.000    2.857 
#    0.000    2.143    6.286    0.000    0.000    0.000 
#    0.000    0.000    0.000    0.000    0.000    0.000 
#
# Total GULP energy -77957.232549 kJ/mol
# GULP energy per Si atom -5568.373753 kJ/mol
# Density = 1.866694 g / cm^3
# Si number density = 18.709521 Si / 1000 Ang^3
#
#
#
# Elastic Constant Matrix: (Units=GPa)
#
#
# Indices 1 2 3 4 5 6 
#
# 1 125.5607 52.5564 43.8257 -0.0001 -18.4998 0.0000
# 2 52.5564 72.2512 20.8331 -0.0011 4.8414 0.0001
# 3 43.8257 20.8331 48.8706 -0.0020 8.1112 0.0002
# 4 -0.0001 -0.0011 -0.0020 4.1455 0.0003 8.7483
# 5 -18.4998 4.8414 8.1112 0.0003 33.4886 0.0000
# 6 0.0000 0.0001 0.0002 8.7483 0.0000 31.6219
#
#
#
# Elastic Compliance Matrix: (Units=1/GPa)
#
#
# Indices 1 2 3 4 5 6 
#
# 1 0.021616 -0.011944 -0.017255 -0.000030 0.017847 0.000008
# 2 -0.011944 0.022395 0.002914 0.000019 -0.010542 -0.000005
# 3 -0.017255 0.002914 0.037868 0.000050 -0.019125 -0.000014
# 4 -0.000030 0.000019 0.000050 0.579636 -0.000037 -0.160359
# 5 0.017847 -0.010542 -0.019125 -0.000037 0.045876 0.000010
# 6 0.000008 -0.000005 -0.000014 -0.160359 0.000010 0.075988
#
#
# Mechanical properties :
#
#
# Convention : Reuss Voigt Hill
#
# Bulk Modulus (GPa) = 34.11946 53.45697 43.78822
# Shear Modulus (GPa) = 5.91212 22.48234 14.19723
#
# Velocity S-wave (km/s) = 1.77955 3.47025 2.75766
# Velocity P-wave (km/s) = 4.74325 6.68513 5.79609
#
# Compressibility (1/GPa) = 0.02930879
#
# Stress axis : x y z
#
# Youngs Moduli (GPa) = 46.26154 44.65246 26.40736
#
# Poissons Ratio (x) = 0.53335 0.45566
# Poissons Ratio (y) = 0.55257 -0.07696
# Poissons Ratio (z) = 0.79825 -0.13013
#
# Static dielectric constant tensor:
#      x y z
#    x 1.706850 0.000000 0.014330 
#    y 0.000000 1.648170 0.000000 
#    z 0.014330 0.000000 1.675680 
# 
# From -- ./inp_files/57227.got.cif
#   From: 2010.05.17/outbox.cif.g08.bks.cpg/sg5_29_cif.got.tgz:57227.got - 2010.06.03 18:56:24.
