data_PCOD9120442
_publ_section_title
;
Structure prediction by ZEFSAII (Michael W. Deem and Ramdas Pophale) SiO2 
 PCOD9120442
Probable space group: C 2
;
_chemical_formula_sum "Si O2"
_cell_formula_units_Z 30
_cell_length_a 12.530548
_cell_length_b 7.313582
_cell_length_c 21.792649
_cell_angle_alpha 90.000000
_cell_angle_beta 39.738325
_cell_angle_gamma 90.000000
_cell_volume 1276.741338
_symmetry_space_group_name_H-M "C 2"
_symmetry_group_IT_number 5
_symmetry_cell_setting 'monoclinic'
loop_
_space_group_symop_operation_xyz
x,y,z
-x,y,-z
1/2+x,1/2+y,z
1/2-x,1/2+y,-z
loop_
_atom_site_type_symbol
_atom_site_label
_atom_site_fract_x
_atom_site_fract_y
_atom_site_fract_z
Si Si1 0.013081 0.866850 0.690487
Si Si2 0.836040 0.241070 0.185597
Si Si3 0.421744 0.761404 0.694690
Si Si4 0.670451 0.707278 0.393244
Si Si5 0.930370 0.657402 0.099261
Si Si6 0.062452 0.413285 0.746740
Si Si7 0.000000 0.192178 0.000000
Si Si8 0.639043 0.244675 0.120898
O O1 0.201543 0.796911 0.614836
O O2 0.864996 0.740151 0.727618
O O3 0.953441 0.872039 0.788520
O O4 0.998914 0.057192 0.661766
O O5 0.891639 0.444973 0.136097
O O6 0.909902 0.241678 0.220964
O O7 0.916384 0.109788 0.098821
O O8 0.380092 0.824790 0.644511
O O9 0.249143 0.746490 0.808734
O O10 0.544454 0.873491 0.683439
O O11 0.500000 0.649367 0.500000
O O12 0.776034 0.541776 0.317380
O O13 0.064812 0.745953 0.086118
O O14 0.000000 0.667738 0.000000
O O15 0.908417 0.538380 0.836441
O O16 0.833524 0.279624 0.043183
#
# Coordination Sequence:
#
# PCOD9120442 Si02
#       8
#     4   4   4   4   4   4   2   4
#     4   9  18  41  63  83 120 159 195 250 307 359
#     4   9  17  34  59  80 124 162 199 244 303 349
#     4  11  22  41  63  90 123 160 202 250 309 361
#     4  11  23  44  68  89 121 157 198 257 317 372
#     4  10  18  34  56  84 118 166 200 244 297 352
#     4  10  21  42  60  89 123 162 200 251 312 362
#     4  10  18  30  52  90 112 174 210 236 294 358
#     4   9  19  37  55  82 127 162 204 249 297 351
#
# _framework density 23.497319999999998
#
# number of rings (size 3 to 8) (size 9 to 14) (size 15 to 20)
#    0.000    2.133    6.000    0.000    1.867    1.067 
#    8.400    0.667    0.000    0.000    0.000    0.000 
#    0.000    0.000    0.000    0.000    0.000    0.000 
#
# Total GULP energy -83648.012971 kJ/mol
# GULP energy per Si atom -5576.534198 kJ/mol
# Density = 2.344384 g / cm^3
# Si number density = 23.497320 Si / 1000 Ang^3
#
#
#
# Elastic Constant Matrix: (Units=GPa)
#
#
# Indices 1 2 3 4 5 6 
#
# 1 143.8124 23.2178 5.7729 0.0000 -13.3965 0.0001
# 2 23.2178 37.7970 -4.1580 0.0000 -6.0403 0.0002
# 3 5.7729 -4.1580 64.7182 0.0000 -22.9317 0.0000
# 4 0.0000 0.0000 0.0000 2.7290 0.0000 1.7319
# 5 -13.3965 -6.0403 -22.9317 0.0000 33.8007 0.0000
# 6 0.0001 0.0002 0.0000 1.7319 0.0000 34.9028
#
#
#
# Elastic Compliance Matrix: (Units=1/GPa)
#
#
# Indices 1 2 3 4 5 6 
#
# 1 0.007896 -0.004529 -0.000228 0.000000 0.002165 0.000000
# 2 -0.004529 0.030902 0.004884 0.000000 0.007041 0.000000
# 3 -0.000228 0.004884 0.021146 0.000000 0.015129 0.000000
# 4 0.000000 0.000000 0.000000 0.378352 0.000000 -0.018774
# 5 0.002165 0.007041 0.015129 0.000000 0.041966 0.000000
# 6 0.000000 0.000000 0.000000 -0.018774 0.000000 0.029583
#
#
# Mechanical properties :
#
#
# Convention : Reuss Voigt Hill
#
# Bulk Modulus (GPa) = 16.61196 32.88813 24.75004
# Shear Modulus (GPa) = 9.44009 29.05284 19.24646
#
# Velocity S-wave (km/s) = 2.00655 3.52011 2.86508
# Velocity P-wave (km/s) = 3.52894 5.52707 4.63691
#
# Compressibility (1/GPa) = 0.06019760
#
# Stress axis : x y z
#
# Youngs Moduli (GPa) = 126.65344 32.36064 47.28934
#
# Poissons Ratio (x) = 0.14657 0.01079
# Poissons Ratio (y) = 0.57363 -0.23097
# Poissons Ratio (z) = 0.02889 -0.15805
#
# Static dielectric constant tensor:
#      x y z
#    x 1.923700 0.000000 0.009930 
#    y 0.000000 1.988140 0.000000 
#    z 0.009930 0.000000 1.845590 
# 
# From -- ./inp_files/68275.got.cif
#   From: 2010.05.17/outbox.cif.g08.bks.cpg/sg5_35_cif.got.tgz:68275.got - 2010.06.03 18:56:24.
