data_PCOD9120601
_publ_section_title
;
Structure prediction by ZEFSAII (Michael W. Deem and Ramdas Pophale) SiO2 
 PCOD9120601
Probable space group: C 2
;
_chemical_formula_sum "Si O2"
_cell_formula_units_Z 28
_cell_length_a 15.380102
_cell_length_b 14.078400
_cell_length_c 7.252369
_cell_angle_alpha 90.000000
_cell_angle_beta 53.022132
_cell_angle_gamma 90.000000
_cell_volume 1254.490535
_symmetry_space_group_name_H-M "C 2"
_symmetry_group_IT_number 5
_symmetry_cell_setting 'monoclinic'
loop_
_space_group_symop_operation_xyz
x,y,z
-x,y,-z
1/2+x,1/2+y,z
1/2-x,1/2+y,-z
loop_
_atom_site_type_symbol
_atom_site_label
_atom_site_fract_x
_atom_site_fract_y
_atom_site_fract_z
Si Si1 0.647686 0.308490 0.643766
Si Si2 0.052956 0.707067 0.230598
Si Si3 0.135503 0.213332 0.626107
Si Si4 0.374245 0.523942 0.211259
Si Si5 0.601082 0.753515 0.112889
Si Si6 0.798114 0.871043 0.840417
Si Si7 0.262568 0.578980 0.981785
O O1 0.551410 0.230959 0.762839
O O2 0.756902 0.262915 0.582644
O O3 0.626772 0.412366 0.750488
O O4 0.674080 0.331518 0.396462
O O5 0.118740 0.807988 0.145015
O O6 0.143172 0.623530 0.091777
O O7 0.000000 0.691030 0.500000
O O8 0.025560 0.256305 0.685958
O O9 0.146744 0.099649 0.599747
O O10 0.120619 0.232654 0.867732
O O11 0.284959 0.548707 0.168032
O O12 0.500000 0.546060 0.000000
O O13 0.675541 0.844086 0.054396
O O14 0.654357 0.665453 0.150349
O O15 0.801948 0.983609 0.833670
#
# Coordination Sequence:
#
# PCOD9120601 Si02
#       7
#     4   4   4   4   4   4   4
#     4  10  21  35  56  84 104 142 182 231 262 327
#     4   9  18  34  54  78 110 144 184 216 270 335
#     4   9  16  34  55  74 106 139 185 212 260 325
#     4  11  19  34  60  81 104 142 191 218 270 326
#     4   8  15  31  55  77  97 149 180 210 254 339
#     4   9  18  33  55  80 108 138 184 219 270 321
#     4  10  18  33  57  82 105 145 181 225 269 330
#
# _framework density 22.319818000000001
#
# number of rings (size 3 to 8) (size 9 to 14) (size 15 to 20)
#    0.000    2.571    2.857    3.429    0.000    0.000 
#    5.143    4.286    0.000    1.714    0.000    0.000 
#    0.000    0.000    0.000    0.000    0.000    0.000 
#
# Total GULP energy -78071.681634 kJ/mol
# GULP energy per Si atom -5576.548688 kJ/mol
# Density = 2.226902 g / cm^3
# Si number density = 22.319818 Si / 1000 Ang^3
#
#
#
# Elastic Constant Matrix: (Units=GPa)
#
#
# Indices 1 2 3 4 5 6 
#
# 1 68.9726 3.5143 29.1838 0.0000 -30.5740 0.0000
# 2 3.5143 53.9243 8.0424 0.0000 -12.7430 0.0000
# 3 29.1838 8.0424 55.0294 0.0000 -17.1353 0.0000
# 4 0.0000 0.0000 0.0000 33.6659 0.0000 -7.4294
# 5 -30.5740 -12.7430 -17.1353 0.0000 33.1973 0.0000
# 6 0.0000 0.0000 0.0000 -7.4294 0.0000 18.6365
#
#
#
# Elastic Compliance Matrix: (Units=1/GPa)
#
#
# Indices 1 2 3 4 5 6 
#
# 1 0.028249 0.004986 -0.008356 0.000000 0.023618 0.000000
# 2 0.004986 0.021294 -0.002122 0.000000 0.011671 0.000000
# 3 -0.008356 -0.002122 0.024144 0.000000 0.003952 0.000000
# 4 0.000000 0.000000 0.000000 0.032569 0.000000 0.012983
# 5 0.023618 0.011671 0.003952 0.000000 0.058395 0.000000
# 6 0.000000 0.000000 0.000000 0.012983 0.000000 0.058834
#
#
# Mechanical properties :
#
#
# Convention : Reuss Voigt Hill
#
# Bulk Modulus (GPa) = 15.94798 28.82304 22.38551
# Shear Modulus (GPa) = 19.57938 26.24565 22.91252
#
# Velocity S-wave (km/s) = 2.96500 3.43285 3.20747
# Velocity P-wave (km/s) = 4.34539 5.35297 4.87528
#
# Compressibility (1/GPa) = 0.06270385
#
# Stress axis : x y z
#
# Youngs Moduli (GPa) = 35.39892 46.96147 41.41756
#
# Poissons Ratio (x) = -0.23417 0.34609
# Poissons Ratio (y) = -0.17652 0.08791
# Poissons Ratio (z) = 0.29579 0.09967
#
# Static dielectric constant tensor:
#      x y z
#    x 1.895720 0.000000 0.068610 
#    y 0.000000 1.805110 0.000000 
#    z 0.068610 0.000000 1.859550 
# 
# From -- ./inp_files/24569.got.cif
#   From: 2010.05.17/outbox.cif.g08.bks.cpg/sg5_13_cif.got.tgz:24569.got - 2010.06.03 18:56:24.
