data_PCOD9120231
_publ_section_title
;
Structure prediction by ZEFSAII (Michael W. Deem and Ramdas Pophale) SiO2 
 PCOD9120231
Probable space group: C 2
;
_chemical_formula_sum "Si O2"
_cell_formula_units_Z 20
_cell_length_a 19.184427
_cell_length_b 4.941120
_cell_length_c 7.990408
_cell_angle_alpha 90.000000
_cell_angle_beta 103.151314
_cell_angle_gamma 90.000000
_cell_volume 737.565737
_symmetry_space_group_name_H-M "C 2"
_symmetry_group_IT_number 5
_symmetry_cell_setting 'monoclinic'
loop_
_space_group_symop_operation_xyz
x,y,z
-x,y,-z
1/2+x,1/2+y,z
1/2-x,1/2+y,-z
loop_
_atom_site_type_symbol
_atom_site_label
_atom_site_fract_x
_atom_site_fract_y
_atom_site_fract_z
Si Si1 0.449924 0.051080 0.596707
Si Si2 0.789672 0.940331 0.312600
Si Si3 0.693822 0.448234 0.276570
Si Si4 0.417529 0.873565 0.914660
Si Si5 0.097069 0.313854 0.734093
O O1 0.500000 0.234514 0.500000
O O2 0.419373 0.093879 0.764161
O O3 0.510304 0.821150 0.670373
O O4 0.388397 0.956083 0.437657
O O5 0.726427 0.158678 0.244718
O O6 0.807816 0.952517 0.520979
O O7 0.859455 0.037851 0.250554
O O8 0.756340 0.654797 0.251530
O O9 0.625201 0.612038 0.171377
O O10 0.500000 0.805084 0.000000
O O11 0.388351 0.955954 0.081405
#
# Coordination Sequence:
#
# PCOD9120231 Si02
#       5
#     4   4   4   4   4
#     4   7  14  28  51  79 116 148 196 233 290 344
#     4  10  20  38  58  87 117 157 192 243 291 351
#     4  10  21  36  61  84 119 154 198 237 295 349
#     4  10  17  32  56  87 112 156 192 245 287 350
#     4   8  16  29  54  81 114 150 192 238 290 342
#
# _framework density 27.116228
#
# number of rings (size 3 to 8) (size 9 to 14) (size 15 to 20)
#    1.200    1.600    2.000    0.000    0.000    1.600 
#    0.000    1.000    0.000   12.000    0.000    0.000 
#    0.000    0.000    0.000    0.000    0.000    0.000 
#
# Total GULP energy -55716.340876 kJ/mol
# GULP energy per Si atom -5571.634088 kJ/mol
# Density = 2.705451 g / cm^3
# Si number density = 27.116228 Si / 1000 Ang^3
#
#
#
# Elastic Constant Matrix: (Units=GPa)
#
#
# Indices 1 2 3 4 5 6 
#
# 1 98.1817 27.0247 31.1028 0.0000 3.6945 0.0000
# 2 27.0247 75.2420 19.5984 0.0000 -5.2203 0.0000
# 3 31.1028 19.5984 203.1353 0.0000 -18.7915 0.0000
# 4 0.0000 0.0000 0.0000 19.5170 0.0000 -3.9201
# 5 3.6945 -5.2203 -18.7915 0.0000 51.8229 0.0000
# 6 0.0000 0.0000 0.0000 -3.9201 0.0000 12.5599
#
#
#
# Elastic Compliance Matrix: (Units=1/GPa)
#
#
# Indices 1 2 3 4 5 6 
#
# 1 0.011853 -0.003967 -0.001601 0.000000 -0.001825 0.000000
# 2 -0.003967 0.015004 -0.000698 0.000000 0.001541 0.000000
# 3 -0.001601 -0.000698 0.005421 0.000000 0.002010 0.000000
# 4 0.000000 0.000000 0.000000 0.054664 0.000000 0.017061
# 5 -0.001825 0.001541 0.002010 0.000000 0.020311 0.000000
# 6 0.000000 0.000000 0.000000 0.017061 0.000000 0.084944
#
#
# Mechanical properties :
#
#
# Convention : Reuss Voigt Hill
#
# Bulk Modulus (GPa) = 50.64030 59.11231 54.87631
# Shear Modulus (GPa) = 23.66199 36.70219 30.18209
#
# Velocity S-wave (km/s) = 2.95721 3.68300 3.33988
# Velocity P-wave (km/s) = 5.51144 6.31925 5.92912
#
# Compressibility (1/GPa) = 0.01974712
#
# Stress axis : x y z
#
# Youngs Moduli (GPa) = 84.36742 66.64955 184.46214
#
# Poissons Ratio (x) = 0.26439 0.29532
# Poissons Ratio (y) = 0.33467 0.12868
# Poissons Ratio (z) = 0.13507 0.04650
#
# Static dielectric constant tensor:
#      x y z
#    x 2.204070 0.000000 -0.066750 
#    y 0.000000 2.176900 0.000000 
#    z -0.066750 0.000000 2.150100 
# 
# From -- ./inp_files/28191.got.cif
#   From: 2010.05.17/outbox.cif.g08.bks.cpg/sg5_15_cif.got.tgz:28191.got - 2010.06.03 18:56:24.
