data_PCOD9120226
_publ_section_title
;
Structure prediction by ZEFSAII (Michael W. Deem and Ramdas Pophale) SiO2 
 PCOD9120226
Probable space group: C 2
;
_chemical_formula_sum "Si O2"
_cell_formula_units_Z 28
_cell_length_a 11.509013
_cell_length_b 8.021241
_cell_length_c 16.439494
_cell_angle_alpha 90.000000
_cell_angle_beta 58.407345
_cell_angle_gamma 90.000000
_cell_volume 1292.714794
_symmetry_space_group_name_H-M "C 2"
_symmetry_group_IT_number 5
_symmetry_cell_setting 'monoclinic'
loop_
_space_group_symop_operation_xyz
x,y,z
-x,y,-z
1/2+x,1/2+y,z
1/2-x,1/2+y,-z
loop_
_atom_site_type_symbol
_atom_site_label
_atom_site_fract_x
_atom_site_fract_y
_atom_site_fract_z
Si Si1 0.000000 0.986040 0.500000
Si Si2 0.979760 0.082439 0.329048
Si Si3 0.865471 0.195964 0.870246
Si Si4 0.784038 0.754033 0.653827
Si Si5 0.000000 0.506068 0.000000
Si Si6 0.710465 0.343264 0.061237
Si Si7 0.587671 0.982402 0.803224
Si Si8 0.952251 0.704038 0.733675
O O1 0.127675 0.860764 0.441437
O O2 0.013966 0.093386 0.576443
O O3 0.842535 0.162155 0.341420
O O4 0.109440 0.164494 0.234447
O O5 0.984596 0.885246 0.307151
O O6 0.982383 0.328318 0.846747
O O7 0.878108 0.012266 0.905086
O O8 0.731302 0.267652 0.963864
O O9 0.729823 0.889341 0.740363
O O10 0.880262 0.643780 0.677193
O O11 0.137822 0.398773 0.965510
O O12 0.048559 0.589235 0.897293
O O13 0.651788 0.221152 0.151473
O O14 0.563514 0.080397 0.729020
#
# Coordination Sequence:
#
# PCOD9120226 Si02
#       8
#     2   4   4   4   2   4   4   4
#     4  10  22  40  68  90 120 164 204 264 328 360
#     4   9  21  41  63  92 121 159 209 260 313 371
#     4   9  19  33  58  85 126 164 205 250 298 360
#     4  10  21  42  63  90 122 162 205 258 314 371
#     4  10  18  30  54  84 118 168 198 234 296 356
#     4  10  17  32  54  83 122 166 206 245 297 363
#     4  10  20  37  60  87 123 166 206 249 304 367
#     4  10  20  38  62  87 123 164 202 254 307 365
#
# _framework density 21.659844
#
# number of rings (size 3 to 8) (size 9 to 14) (size 15 to 20)
#    0.000    2.286    1.429    1.714    0.000    2.286 
#    2.571    2.857    0.000    1.714    0.000    0.000 
#    0.000    0.000    0.000    0.000    0.000    0.000 
#
# Total GULP energy -77955.075030 kJ/mol
# GULP energy per Si atom -5568.219645 kJ/mol
# Density = 2.161055 g / cm^3
# Si number density = 21.659844 Si / 1000 Ang^3
#
#
#
# Elastic Constant Matrix: (Units=GPa)
#
#
# Indices 1 2 3 4 5 6 
#
# 1 72.7378 22.0097 26.1526 0.0000 24.6881 0.0000
# 2 22.0097 35.6304 21.3204 0.0000 7.6412 0.0000
# 3 26.1526 21.3204 149.8113 0.0000 25.1361 0.0000
# 4 0.0000 0.0000 0.0000 31.7666 0.0000 4.8693
# 5 24.6881 7.6412 25.1361 0.0000 32.9941 0.0000
# 6 0.0000 0.0000 0.0000 4.8693 0.0000 33.0684
#
#
#
# Elastic Compliance Matrix: (Units=1/GPa)
#
#
# Indices 1 2 3 4 5 6 
#
# 1 0.021540 -0.010373 0.000020 0.000000 -0.013730 0.000000
# 2 -0.010373 0.036224 -0.003714 0.000000 0.002202 0.000000
# 3 0.000020 -0.003714 0.008093 0.000000 -0.005320 0.000000
# 4 0.000000 0.000000 0.000000 0.032207 0.000000 -0.004742
# 5 -0.013730 0.002202 -0.005320 0.000000 0.044125 0.000000
# 6 0.000000 0.000000 0.000000 -0.004742 0.000000 0.030939
#
#
# Mechanical properties :
#
#
# Convention : Reuss Voigt Hill
#
# Bulk Modulus (GPa) = 26.50959 44.12720 35.31840
# Shear Modulus (GPa) = 23.38256 32.14560 27.76408
#
# Velocity S-wave (km/s) = 3.28919 3.85659 3.58414
# Velocity P-wave (km/s) = 5.16630 6.34414 5.78527
#
# Compressibility (1/GPa) = 0.03772219
#
# Stress axis : x y z
#
# Youngs Moduli (GPa) = 46.42566 27.60633 123.56704
#
# Poissons Ratio (x) = 0.28636 -0.00244
# Poissons Ratio (y) = 0.48157 0.45890
# Poissons Ratio (z) = -0.00092 0.10252
#
# Static dielectric constant tensor:
#      x y z
#    x 1.836730 0.000000 0.030000 
#    y 0.000000 1.790990 0.000000 
#    z 0.030000 0.000000 1.850140 
# 
# From -- ./inp_files/52218.got.cif
#   From: 2010.05.17/outbox.cif.g08.bks.cpg/sg5_27_cif.got.tgz:52218.got - 2010.06.03 18:56:24.
