data_PCOD9120326
_publ_section_title
;
Structure prediction by ZEFSAII (Michael W. Deem and Ramdas Pophale) SiO2 
 PCOD9120326
Probable space group: C 2
;
_chemical_formula_sum "Si O2"
_cell_formula_units_Z 26
_cell_length_a 10.348575
_cell_length_b 22.302853
_cell_length_c 6.554243
_cell_angle_alpha 90.000000
_cell_angle_beta 118.764642
_cell_angle_gamma 90.000000
_cell_volume 1326.071271
_symmetry_space_group_name_H-M "C 2"
_symmetry_group_IT_number 5
_symmetry_cell_setting 'monoclinic'
loop_
_space_group_symop_operation_xyz
x,y,z
-x,y,-z
1/2+x,1/2+y,z
1/2-x,1/2+y,-z
loop_
_atom_site_type_symbol
_atom_site_label
_atom_site_fract_x
_atom_site_fract_y
_atom_site_fract_z
Si Si1 0.869071 0.684500 0.771490
Si Si2 0.386638 0.615495 0.223434
Si Si3 0.500000 0.973071 0.000000
Si Si4 0.000000 0.613707 0.500000
Si Si5 0.269977 0.023733 0.151440
Si Si6 0.342860 0.920365 0.497517
Si Si7 0.145108 0.285001 0.466196
Si Si8 0.500000 0.717807 0.000000
O O1 0.773491 0.633134 0.810019
O O2 0.755736 0.735407 0.628700
O O3 0.952263 0.654712 0.648126
O O4 0.000000 0.711747 0.000000
O O5 0.500000 0.609034 0.500000
O O6 0.432373 0.671795 0.115323
O O7 0.364649 0.556372 0.066993
O O8 0.611780 0.939137 0.238786
O O9 0.390389 0.007017 0.069759
O O10 0.142535 0.573190 0.651565
O O11 0.248058 0.967596 0.290172
O O12 0.500000 0.920145 0.500000
O O13 0.290612 0.851893 0.469037
O O14 0.103514 0.262392 0.207816
O O15 0.000000 0.283523 0.500000
#
# Coordination Sequence:
#
# PCOD9120326 Si02
#       8
#     4   4   2   2   4   4   4   2
#     4  12  24  39  62  91 125 165 202 260 317 374
#     4  12  25  40  61  97 129 166 211 260 323 387
#     4  10  17  36  60  92 120 157 210 260 318 358
#     4  12  22  36  62  94 126 156 202 254 322 376
#     4  11  21  36  61  92 125 161 207 263 316 376
#     4   9  20  35  60  93 119 165 211 265 310 368
#     4  11  22  41  63  92 127 161 218 260 313 382
#     4  12  21  40  66  94 126 167 208 260 330 368
#
# _framework density 19.60679
#
# number of rings (size 3 to 8) (size 9 to 14) (size 15 to 20)
#    0.000    0.923    6.923    2.308    0.000    0.000 
#    0.000    0.000    5.077    0.000    0.000    0.000 
#    0.000    0.000    0.000    0.000    0.000    0.000 
#
# Total GULP energy -72510.540547 kJ/mol
# GULP energy per Si atom -5577.733888 kJ/mol
# Density = 1.956216 g / cm^3
# Si number density = 19.606790 Si / 1000 Ang^3
#
#
#
# Elastic Constant Matrix: (Units=GPa)
#
#
# Indices 1 2 3 4 5 6 
#
# 1 24.2302 6.6232 18.1798 0.0000 2.6161 0.0000
# 2 6.6232 138.8113 68.3996 0.0000 4.0844 0.0000
# 3 18.1798 68.3996 141.1121 0.0000 8.3945 0.0000
# 4 0.0000 0.0000 0.0000 24.2510 0.0000 5.9665
# 5 2.6161 4.0844 8.3945 0.0000 28.4468 0.0000
# 6 0.0000 0.0000 0.0000 5.9665 0.0000 76.0419
#
#
#
# Elastic Compliance Matrix: (Units=1/GPa)
#
#
# Indices 1 2 3 4 5 6 
#
# 1 0.045959 0.000952 -0.006233 0.000000 -0.002524 0.000000
# 2 0.000952 0.009484 -0.004717 0.000000 -0.000058 0.000000
# 3 -0.006233 -0.004717 0.010282 0.000000 -0.001784 0.000000
# 4 0.000000 0.000000 0.000000 0.042047 0.000000 -0.003299
# 5 -0.002524 -0.000058 -0.001784 0.000000 0.035920 0.000000
# 6 0.000000 0.000000 0.000000 -0.003299 0.000000 0.013410
#
#
# Mechanical properties :
#
#
# Convention : Reuss Voigt Hill
#
# Bulk Modulus (GPa) = 21.86640 54.50653 38.18646
# Shear Modulus (GPa) = 25.99570 39.81135 32.90352
#
# Velocity S-wave (km/s) = 3.64518 4.51098 4.10099
# Velocity P-wave (km/s) = 5.37523 7.41567 6.47631
#
# Compressibility (1/GPa) = 0.04573227
#
# Stress axis : x y z
#
# Youngs Moduli (GPa) = 21.75837 105.43685 97.25905
#
# Poissons Ratio (x) = -0.10043 0.60617
# Poissons Ratio (y) = -0.02072 0.45872
# Poissons Ratio (z) = 0.13561 0.49730
#
# Static dielectric constant tensor:
#      x y z
#    x 1.674900 0.000000 -0.051270 
#    y 0.000000 1.705810 0.000000 
#    z -0.051270 0.000000 1.636580 
# 
# From -- ./inp_files/5718.got.cif
#   From: 2010.05.17/outbox.cif.g08.bks.cpg/sg5_3_cif.got.tgz:5718.got - 2010.06.03 18:56:24.
