data_PCOD9120787
_publ_section_title
;
Structure prediction by ZEFSAII (Michael W. Deem and Ramdas Pophale) SiO2 
 PCOD9120787
Probable space group: C 2
;
_chemical_formula_sum "Si O2"
_cell_formula_units_Z 22
_cell_length_a 16.565566
_cell_length_b 4.916760
_cell_length_c 13.181035
_cell_angle_alpha 90.000000
_cell_angle_beta 55.038155
_cell_angle_gamma 90.000000
_cell_volume 879.835913
_symmetry_space_group_name_H-M "C 2"
_symmetry_group_IT_number 5
_symmetry_cell_setting 'monoclinic'
loop_
_space_group_symop_operation_xyz
x,y,z
-x,y,-z
1/2+x,1/2+y,z
1/2-x,1/2+y,-z
loop_
_atom_site_type_symbol
_atom_site_label
_atom_site_fract_x
_atom_site_fract_y
_atom_site_fract_z
Si Si1 0.525993 0.199280 0.654559
Si Si2 0.568510 0.701064 0.758672
Si Si3 0.313106 0.338730 0.831132
Si Si4 0.812820 0.835862 0.074138
Si Si5 0.728766 0.335872 0.449941
Si Si6 0.500000 0.009442 0.000000
O O1 0.548270 0.397766 0.735408
O O2 0.414306 0.256989 0.705469
O O3 0.537676 0.894058 0.686480
O O4 0.614694 0.270852 0.514137
O O5 0.685402 0.751812 0.688369
O O6 0.508703 0.813057 0.896621
O O7 0.279738 0.643153 0.833517
O O8 0.221680 0.138508 0.877948
O O9 0.330348 0.313706 0.940422
O O10 0.906232 0.707651 0.061187
O O11 0.744275 0.646744 0.471439
#
# Coordination Sequence:
#
# PCOD9120787 Si02
#       6
#     4   4   4   4   4   2
#     4  10  18  35  59  80 110 148 197 242 276 325
#     4  10  21  32  54  86 117 150 184 232 292 340
#     4  10  20  38  54  79 109 150 195 232 270 334
#     4  10  23  34  54  79 117 148 187 228 280 343
#     4   8  16  31  51  81 109 140 190 241 274 319
#     4  12  24  38  56  88 128 154 180 234 300 354
#
# _framework density 25.004662
#
# number of rings (size 3 to 8) (size 9 to 14) (size 15 to 20)
#    0.000    2.182    1.818    1.091    5.091    2.909 
#    0.000    0.000    0.000    1.091    0.000    2.545 
#    0.000    0.000    0.000    0.000    0.000    0.000 
#
# Total GULP energy -61587.600056 kJ/mol
# GULP energy per Si atom -5598.872732 kJ/mol
# Density = 2.494775 g / cm^3
# Si number density = 25.004662 Si / 1000 Ang^3
#
#
#
# Elastic Constant Matrix: (Units=GPa)
#
#
# Indices 1 2 3 4 5 6 
#
# 1 64.1089 1.7853 31.1723 -0.0013 1.6993 0.0010
# 2 1.7853 75.4470 -3.1972 -0.0002 6.6354 0.0068
# 3 31.1723 -3.1972 130.5047 0.0003 -40.4803 0.0001
# 4 -0.0013 -0.0002 0.0003 29.4791 -0.0001 -11.7714
# 5 1.6993 6.6354 -40.4803 -0.0001 35.2817 -0.0002
# 6 0.0010 0.0068 0.0001 -11.7714 -0.0002 16.1771
#
#
#
# Elastic Compliance Matrix: (Units=1/GPa)
#
#
# Indices 1 2 3 4 5 6 
#
# 1 0.019617 0.000073 -0.007734 0.000001 -0.009832 -0.000001
# 2 0.000073 0.013520 -0.000739 -0.000003 -0.003394 -0.000008
# 3 -0.007734 -0.000739 0.014982 0.000000 0.017701 0.000001
# 4 0.000001 -0.000003 0.000000 0.047816 0.000001 0.034794
# 5 -0.009832 -0.003394 0.017701 0.000001 0.049765 0.000003
# 6 -0.000001 -0.000008 0.000001 0.034794 0.000003 0.087134
#
#
# Mechanical properties :
#
#
# Convention : Reuss Voigt Hill
#
# Bulk Modulus (GPa) = 31.92848 36.62016 34.27432
# Shear Modulus (GPa) = 19.22535 32.20761 25.71648
#
# Velocity S-wave (km/s) = 2.77586 3.59285 3.21045
# Velocity P-wave (km/s) = 4.80319 5.64700 5.24210
#
# Compressibility (1/GPa) = 0.03132000
#
# Stress axis : x y z
#
# Youngs Moduli (GPa) = 50.97510 73.96561 66.74523
#
# Poissons Ratio (x) = -0.00538 0.51618
# Poissons Ratio (y) = -0.00371 0.04932
# Poissons Ratio (z) = 0.39422 0.05465
#
# Static dielectric constant tensor:
#      x y z
#    x 1.957090 0.000000 -0.030820 
#    y 0.000000 1.884130 0.000000 
#    z -0.030820 0.000000 1.991350 
# 
# From -- ./inp_files/66396.got.cif
#   From: 2010.05.17/outbox.cif.g08.bks.cpg/sg5_34_cif.got.tgz:66396.got - 2010.06.03 18:56:24.
