data_PCOD9120567
_publ_section_title
;
Structure prediction by ZEFSAII (Michael W. Deem and Ramdas Pophale) SiO2 
 PCOD9120567
Probable space group: C 2
;
_chemical_formula_sum "Si O2"
_cell_formula_units_Z 26
_cell_length_a 8.783074
_cell_length_b 27.488756
_cell_length_c 9.039770
_cell_angle_alpha 90.000000
_cell_angle_beta 146.617729
_cell_angle_gamma 90.000000
_cell_volume 1200.873513
_symmetry_space_group_name_H-M "C 2"
_symmetry_group_IT_number 5
_symmetry_cell_setting 'monoclinic'
loop_
_space_group_symop_operation_xyz
x,y,z
-x,y,-z
1/2+x,1/2+y,z
1/2-x,1/2+y,-z
loop_
_atom_site_type_symbol
_atom_site_label
_atom_site_fract_x
_atom_site_fract_y
_atom_site_fract_z
Si Si1 0.185220 0.021090 0.295110
Si Si2 0.312764 0.834016 0.705997
Si Si3 0.280365 0.765506 0.423126
Si Si4 0.083912 0.118625 0.893615
Si Si5 0.583376 0.174697 0.394036
Si Si6 0.754137 0.913742 0.587981
Si Si7 0.000000 0.848767 0.000000
O O1 0.500000 0.035522 0.500000
O O2 0.022180 0.065349 0.239466
O O3 0.208104 0.970943 0.402511
O O4 0.000000 0.009394 0.000000
O O5 0.403289 0.791181 0.668402
O O6 0.311283 0.883564 0.610844
O O7 0.000000 0.823430 0.500000
O O8 0.500000 0.836587 0.000000
O O9 0.500000 0.738369 0.500000
O O10 0.055904 0.727002 0.295405
O O11 0.183095 0.809828 0.239779
O O12 0.899808 0.157565 0.658362
O O13 0.399869 0.135100 0.158473
O O14 0.000000 0.119715 0.000000
O O15 0.500000 0.177822 0.500000
O O16 0.500000 0.907655 0.500000
O O17 0.020544 0.888039 0.881854
#
# Coordination Sequence:
#
# PCOD9120567 Si02
#       7
#     4   4   4   4   4   4   2
#     4  10  18  32  61  98 127 165 209 266 328 372
#     4  11  26  41  62  91 132 174 216 262 320 389
#     4  11  26  40  65  88 130 171 221 267 319 386
#     4   9  18  34  57  89 128 155 206 264 317 374
#     4  10  21  38  59  90 125 165 206 263 319 377
#     4  10  22  38  64  95 135 166 215 271 318 385
#     4  10  20  38  58  88 126 162 208 264 310 378
#
# _framework density 21.650905000000002
#
# number of rings (size 3 to 8) (size 9 to 14) (size 15 to 20)
#    0.000    1.846    0.769    4.615   10.769    1.846 
#    0.000    0.000    0.000    0.923    2.000    0.000 
#    0.000    0.000    0.000    0.000    0.000    0.000 
#
# Total GULP energy -72456.038449 kJ/mol
# GULP energy per Si atom -5573.541419 kJ/mol
# Density = 2.160163 g / cm^3
# Si number density = 21.650905 Si / 1000 Ang^3
#
#
#
# Elastic Constant Matrix: (Units=GPa)
#
#
# Indices 1 2 3 4 5 6 
#
# 1 60.0013 36.7565 39.3980 0.0000 -9.7980 0.0000
# 2 36.7565 136.3776 34.8805 0.0000 -6.0215 0.0000
# 3 39.3980 34.8805 140.4536 0.0000 -8.7378 0.0000
# 4 0.0000 0.0000 0.0000 13.7248 0.0000 -6.0216
# 5 -9.7980 -6.0215 -8.7378 0.0000 18.6794 0.0000
# 6 0.0000 0.0000 0.0000 -6.0216 0.0000 19.4415
#
#
#
# Elastic Compliance Matrix: (Units=1/GPa)
#
#
# Indices 1 2 3 4 5 6 
#
# 1 0.024459 -0.004898 -0.005093 0.000000 0.008868 0.000000
# 2 -0.004898 0.008861 -0.000833 0.000000 -0.000102 0.000000
# 3 -0.005093 -0.000833 0.008829 0.000000 0.001190 0.000000
# 4 0.000000 0.000000 0.000000 0.084318 0.000000 0.026116
# 5 0.008868 -0.000102 0.001190 0.000000 0.058710 0.000000
# 6 0.000000 0.000000 0.000000 0.026116 0.000000 0.059525
#
#
# Mechanical properties :
#
#
# Convention : Reuss Voigt Hill
#
# Bulk Modulus (GPa) = 48.77632 62.10027 55.43830
# Shear Modulus (GPa) = 18.30260 25.42232 21.86246
#
# Velocity S-wave (km/s) = 2.91065 3.43037 3.18114
# Velocity P-wave (km/s) = 5.82007 6.66593 6.25731
#
# Compressibility (1/GPa) = 0.02050175
#
# Stress axis : x y z
#
# Youngs Moduli (GPa) = 40.88460 112.85072 113.25969
#
# Poissons Ratio (x) = 0.55275 0.57681
# Poissons Ratio (y) = 0.20026 0.09435
# Poissons Ratio (z) = 0.20822 0.09401
#
# Static dielectric constant tensor:
#      x y z
#    x 1.836730 0.000000 0.069690 
#    y 0.000000 1.817030 0.000000 
#    z 0.069690 0.000000 1.817460 
# 
# From -- ./inp_files/17475.got.cif
#   From: 2010.05.17/outbox.cif.g08.bks.cpg/sg5_9_cif.got.tgz:17475.got - 2010.06.03 18:56:24.
