data_PCOD9120285
_publ_section_title
;
Structure prediction by ZEFSAII (Michael W. Deem and Ramdas Pophale) SiO2 
 PCOD9120285
Probable space group: C 2
;
_chemical_formula_sum "Si O2"
_cell_formula_units_Z 32
_cell_length_a 27.869518
_cell_length_b 6.125330
_cell_length_c 16.974547
_cell_angle_alpha 90.000000
_cell_angle_beta 148.467755
_cell_angle_gamma 90.000000
_cell_volume 1515.447297
_symmetry_space_group_name_H-M "C 2"
_symmetry_group_IT_number 5
_symmetry_cell_setting 'monoclinic'
loop_
_space_group_symop_operation_xyz
x,y,z
-x,y,-z
1/2+x,1/2+y,z
1/2-x,1/2+y,-z
loop_
_atom_site_type_symbol
_atom_site_label
_atom_site_fract_x
_atom_site_fract_y
_atom_site_fract_z
Si Si1 0.233900 0.002620 0.878727
Si Si2 0.666618 0.624249 0.048382
Si Si3 0.216178 0.733930 0.214411
Si Si4 0.936769 0.778659 0.673032
Si Si5 0.538426 0.974860 0.941700
Si Si6 0.721601 0.940286 0.555538
Si Si7 0.615766 0.664453 0.286640
Si Si8 0.386881 0.310825 0.164650
O O1 0.237982 0.134052 0.801268
O O2 0.144682 0.967715 0.808126
O O3 0.315183 0.109655 0.047282
O O4 0.251900 0.754423 0.877725
O O5 0.595098 0.811302 0.966193
O O6 0.627388 0.453670 0.933106
O O7 0.693240 0.484494 0.160849
O O8 0.281118 0.757779 0.380109
O O9 0.121085 0.605164 0.100098
O O10 0.843656 0.648807 0.521791
O O11 0.986051 0.644016 0.812492
O O12 0.005478 0.760726 0.694083
O O13 0.920976 0.013332 0.692553
O O14 0.460157 0.811276 0.863571
O O15 0.686556 0.831274 0.426155
O O16 0.826318 0.011785 0.689556
#
# Coordination Sequence:
#
# PCOD9120285 Si02
#       8
#     4   4   4   4   4   4   4   4
#     4  10  20  32  60  98 128 169 212 273 338 400
#     4  10  17  34  58  90 128 160 201 268 337 389
#     4  10  22  40  60  95 135 168 210 280 349 390
#     4  11  21  38  63  98 124 170 223 273 323 404
#     4  10  19  37  63  93 129 156 213 280 328 393
#     4  11  25  43  65  88 130 181 226 276 333 406
#     4  11  22  42  68  89 120 176 235 268 323 417
#     4  11  18  32  61  98 127 163 219 270 331 388
#
# _framework density 21.115879
#
# number of rings (size 3 to 8) (size 9 to 14) (size 15 to 20)
#    0.000    1.500    7.500    0.000    0.000    2.000 
#    0.000    3.750    0.000    4.500    0.000    0.000 
#    0.000    0.000    0.000    0.000    0.000    0.000 
#
# Total GULP energy -89098.491034 kJ/mol
# GULP energy per Si atom -5568.655690 kJ/mol
# Density = 2.106782 g / cm^3
# Si number density = 21.115879 Si / 1000 Ang^3
#
#
#
# Elastic Constant Matrix: (Units=GPa)
#
#
# Indices 1 2 3 4 5 6 
#
# 1 100.3999 15.2506 37.5186 0.0000 16.0396 0.0000
# 2 15.2506 75.9635 20.0225 0.0000 8.9172 0.0000
# 3 37.5186 20.0225 61.7682 0.0000 -0.4654 0.0000
# 4 0.0000 0.0000 0.0000 30.5400 0.0000 10.1444
# 5 16.0396 8.9172 -0.4654 0.0000 29.9964 0.0000
# 6 0.0000 0.0000 0.0000 10.1444 0.0000 31.4744
#
#
#
# Elastic Compliance Matrix: (Units=1/GPa)
#
#
# Indices 1 2 3 4 5 6 
#
# 1 0.014561 0.000403 -0.009036 0.000000 -0.008046 0.000000
# 2 0.000403 0.014997 -0.005142 0.000000 -0.004753 0.000000
# 3 -0.009036 -0.005142 0.023395 0.000000 0.006723 0.000000
# 4 0.000000 0.000000 0.000000 0.036670 0.000000 -0.011819
# 5 -0.008046 -0.004753 0.006723 0.000000 0.039157 0.000000
# 6 0.000000 0.000000 0.000000 -0.011819 0.000000 0.035581
#
#
# Mechanical properties :
#
#
# Convention : Reuss Voigt Hill
#
# Bulk Modulus (GPa) = 39.36431 42.63497 40.99964
# Shear Modulus (GPa) = 24.95290 29.42484 27.18887
#
# Velocity S-wave (km/s) = 3.44133 3.73700 3.59221
# Velocity P-wave (km/s) = 5.87136 6.23338 6.05508
#
# Compressibility (1/GPa) = 0.02540372
#
# Stress axis : x y z
#
# Youngs Moduli (GPa) = 68.67702 66.68187 42.74369
#
# Poissons Ratio (x) = -0.02686 0.38622
# Poissons Ratio (y) = -0.02767 0.21978
# Poissons Ratio (z) = 0.62054 0.34286
#
# Static dielectric constant tensor:
#      x y z
#    x 1.846440 0.000000 0.027620 
#    y 0.000000 1.798420 0.000000 
#    z 0.027620 0.000000 1.822700 
# 
# From -- ./inp_files/63758.got.cif
#   From: 2010.05.17/outbox.cif.g08.bks.cpg/sg5_32_cif.got.tgz:63758.got - 2010.06.03 18:56:24.
