data_PCOD9120686
_publ_section_title
;
Structure prediction by ZEFSAII (Michael W. Deem and Ramdas Pophale) SiO2 
 PCOD9120686
Probable space group: C 2
;
_chemical_formula_sum "Si O2"
_cell_formula_units_Z 28
_cell_length_a 12.340879
_cell_length_b 7.671223
_cell_length_c 15.378592
_cell_angle_alpha 90.000000
_cell_angle_beta 59.780623
_cell_angle_gamma 90.000000
_cell_volume 1258.037572
_symmetry_space_group_name_H-M "C 2"
_symmetry_group_IT_number 5
_symmetry_cell_setting 'monoclinic'
loop_
_space_group_symop_operation_xyz
x,y,z
-x,y,-z
1/2+x,1/2+y,z
1/2-x,1/2+y,-z
loop_
_atom_site_type_symbol
_atom_site_label
_atom_site_fract_x
_atom_site_fract_y
_atom_site_fract_z
Si Si1 0.500000 0.135310 0.500000
Si Si2 0.239032 0.819081 0.053331
Si Si3 0.538116 0.439402 0.265307
Si Si4 0.500000 0.779400 0.000000
Si Si5 0.296178 0.394333 0.649784
Si Si6 0.868182 0.101357 0.207790
Si Si7 0.296056 0.934385 0.851457
Si Si8 0.546331 0.039725 0.670070
O O1 0.381703 0.266427 0.557410
O O2 0.520419 0.021376 0.577892
O O3 0.132162 0.926348 0.145189
O O4 0.376325 0.885586 0.026740
O O5 0.225561 0.624283 0.095871
O O6 0.243576 0.811621 0.947534
O O7 0.610708 0.497854 0.322907
O O8 0.425903 0.557882 0.277253
O O9 0.486206 0.243738 0.301049
O O10 0.468850 0.659767 0.095516
O O11 0.225406 0.262468 0.743714
O O12 0.186861 0.494382 0.643191
O O13 0.789596 0.940842 0.199738
O O14 0.441903 0.929579 0.766120
#
# Coordination Sequence:
#
# PCOD9120686 Si02
#       8
#     2   4   4   2   4   4   4   4
#     4  10  22  44  66  92 124 162 206 268 326 356
#     4  10  19  34  55  87 123 167 210 242 301 366
#     4  10  21  40  60  92 126 164 207 253 307 371
#     4  10  18  34  58  86 126 172 206 248 302 362
#     4  11  22  44  67  90 125 164 205 266 316 368
#     4  11  20  39  63  86 130 171 200 259 309 365
#     4  10  20  38  60  90 128 168 206 252 308 367
#     4  10  22  43  66  92 125 161 210 261 314 373
#
# _framework density 22.256886999999999
#
# number of rings (size 3 to 8) (size 9 to 14) (size 15 to 20)
#    0.000    1.714    5.714    2.571    0.000    2.286 
#    7.714    0.000    0.000    0.000    0.000    0.000 
#    0.000    0.000    0.000    0.000    0.000    0.000 
#
# Total GULP energy -78171.542736 kJ/mol
# GULP energy per Si atom -5583.681624 kJ/mol
# Density = 2.220623 g / cm^3
# Si number density = 22.256887 Si / 1000 Ang^3
#
#
#
# Elastic Constant Matrix: (Units=GPa)
#
#
# Indices 1 2 3 4 5 6 
#
# 1 132.4382 14.1847 23.5443 0.0000 19.6405 0.0000
# 2 14.1847 20.2012 5.0965 0.0000 5.8710 0.0000
# 3 23.5443 5.0965 84.3643 0.0000 7.3069 0.0000
# 4 0.0000 0.0000 0.0000 21.5661 0.0000 2.1289
# 5 19.6405 5.8710 7.3069 0.0000 36.4915 0.0000
# 6 0.0000 0.0000 0.0000 2.1289 0.0000 32.9662
#
#
#
# Elastic Compliance Matrix: (Units=1/GPa)
#
#
# Indices 1 2 3 4 5 6 
#
# 1 0.008938 -0.004732 -0.001891 0.000000 -0.003671 0.000000
# 2 -0.004732 0.054940 -0.001479 0.000000 -0.005996 0.000000
# 3 -0.001891 -0.001479 0.012580 0.000000 -0.001263 0.000000
# 4 0.000000 0.000000 0.000000 0.046667 0.000000 -0.003014
# 5 -0.003671 -0.005996 -0.001263 0.000000 0.030597 0.000000
# 6 0.000000 0.000000 0.000000 -0.003014 0.000000 0.030529
#
#
# Mechanical properties :
#
#
# Convention : Reuss Voigt Hill
#
# Bulk Modulus (GPa) = 16.59625 35.85054 26.22340
# Shear Modulus (GPa) = 22.67173 31.14998 26.91086
#
# Velocity S-wave (km/s) = 3.19507 3.74514 3.48099
# Velocity P-wave (km/s) = 4.59175 5.90288 5.28811
#
# Compressibility (1/GPa) = 0.06025458
#
# Stress axis : x y z
#
# Youngs Moduli (GPa) = 111.88188 18.20152 79.49284
#
# Poissons Ratio (x) = 0.08613 0.15029
# Poissons Ratio (y) = 0.52945 0.11757
# Poissons Ratio (z) = 0.21152 0.02692
#
# Static dielectric constant tensor:
#      x y z
#    x 1.877250 0.000000 0.012940 
#    y 0.000000 1.828350 0.000000 
#    z 0.012940 0.000000 1.846170 
# 
# From -- ./inp_files/52132.got.cif
#   From: 2010.05.17/outbox.cif.g08.bks.cpg/sg5_27_cif.got.tgz:52132.got - 2010.06.03 18:56:24.
