data_PCOD9120954
_publ_section_title
;
Structure prediction by ZEFSAII (Michael W. Deem and Ramdas Pophale) SiO2 
 PCOD9120954
Probable space group: C 2
;
_chemical_formula_sum "Si O2"
_cell_formula_units_Z 32
_cell_length_a 22.672755
_cell_length_b 11.154853
_cell_length_c 7.279742
_cell_angle_alpha 90.000000
_cell_angle_beta 128.776046
_cell_angle_gamma 90.000000
_cell_volume 1435.343641
_symmetry_space_group_name_H-M "C 2"
_symmetry_group_IT_number 5
_symmetry_cell_setting 'monoclinic'
loop_
_space_group_symop_operation_xyz
x,y,z
-x,y,-z
1/2+x,1/2+y,z
1/2-x,1/2+y,-z
loop_
_atom_site_type_symbol
_atom_site_label
_atom_site_fract_x
_atom_site_fract_y
_atom_site_fract_z
Si Si1 0.789200 0.174260 0.212434
Si Si2 0.065576 0.313960 0.401676
Si Si3 0.552572 0.147086 0.878365
Si Si4 0.087810 0.380691 0.029116
Si Si5 0.734106 0.788036 0.197356
Si Si6 0.901018 0.578313 0.433304
Si Si7 0.227408 0.036157 0.153190
Si Si8 0.817653 0.795508 0.724487
O O1 0.875759 0.217506 0.405659
O O2 0.739846 0.196139 0.297581
O O3 0.750416 0.264876 0.986142
O O4 0.787175 0.049256 0.095826
O O5 0.073328 0.439676 0.523164
O O6 0.975220 0.301292 0.200076
O O7 0.093793 0.335630 0.248365
O O8 0.562714 0.018023 0.990930
O O9 0.462759 0.153623 0.668003
O O10 0.592469 0.132317 0.756818
O O11 0.598150 0.249811 0.070495
O O12 0.168406 0.382725 0.091454
O O13 0.798039 0.809922 0.471707
O O14 0.692955 0.659711 0.165107
O O15 0.817055 0.564244 0.347832
O O16 0.201536 0.919622 0.208701
#
# Coordination Sequence:
#
# PCOD9120954 Si02
#       8
#     4   4   4   4   4   4   4   4
#     4  10  21  37  58  85 118 160 199 251 300 364
#     4  10  19  35  59  90 122 147 197 269 301 349
#     4  10  22  33  62  90 119 161 193 258 313 360
#     4  10  20  34  60  93 119 152 200 253 314 356
#     4  10  23  36  60  89 117 160 202 243 301 374
#     4  10  18  37  57  89 121 152 204 248 305 360
#     4  10  23  39  59  89 124 159 211 245 303 374
#     4  12  22  41  59  88 130 157 198 256 306 359
#
# _framework density 22.294314
#
# number of rings (size 3 to 8) (size 9 to 14) (size 15 to 20)
#    0.750    1.000    3.750    0.750    3.500    1.500 
#    0.000    0.000    5.500    0.000    3.250    0.000 
#    0.000    0.000    0.000    0.000    0.000    0.000 
#
# Total GULP energy -89232.629242 kJ/mol
# GULP energy per Si atom -5577.039328 kJ/mol
# Density = 2.224357 g / cm^3
# Si number density = 22.294314 Si / 1000 Ang^3
#
#
#
# Elastic Constant Matrix: (Units=GPa)
#
#
# Indices 1 2 3 4 5 6 
#
# 1 68.2279 8.1629 34.3541 0.0000 5.1795 0.0000
# 2 8.1629 47.5230 24.2767 0.0000 10.2925 0.0000
# 3 34.3541 24.2767 142.6877 0.0000 11.8976 0.0000
# 4 0.0000 0.0000 0.0000 30.5964 0.0000 7.9013
# 5 5.1795 10.2925 11.8976 0.0000 34.2345 0.0000
# 6 0.0000 0.0000 0.0000 7.9013 0.0000 24.3581
#
#
#
# Elastic Compliance Matrix: (Units=1/GPa)
#
#
# Indices 1 2 3 4 5 6 
#
# 1 0.016744 -0.000706 -0.003829 0.000000 -0.000991 0.000000
# 2 -0.000706 0.024222 -0.003453 0.000000 -0.005975 0.000000
# 3 -0.003829 -0.003453 0.008633 0.000000 -0.001383 0.000000
# 4 0.000000 0.000000 0.000000 0.035672 0.000000 -0.011571
# 5 -0.000991 -0.005975 -0.001383 0.000000 0.031637 0.000000
# 6 0.000000 0.000000 0.000000 -0.011571 0.000000 0.044808
#
#
# Mechanical properties :
#
#
# Convention : Reuss Voigt Hill
#
# Bulk Modulus (GPa) = 29.74050 43.55842 36.64946
# Shear Modulus (GPa) = 26.46929 30.61414 28.54172
#
# Velocity S-wave (km/s) = 3.44941 3.70967 3.58190
# Velocity P-wave (km/s) = 5.40680 6.15866 5.79494
#
# Compressibility (1/GPa) = 0.03362418
#
# Stress axis : x y z
#
# Youngs Moduli (GPa) = 59.72205 41.28529 115.83570
#
# Poissons Ratio (x) = 0.02913 0.44351
# Poissons Ratio (y) = 0.04214 0.39997
# Poissons Ratio (z) = 0.22866 0.14255
#
# Static dielectric constant tensor:
#      x y z
#    x 1.876520 0.000000 -0.012710 
#    y 0.000000 1.839910 0.000000 
#    z -0.012710 0.000000 1.905140 
# 
# From -- ./inp_files/32661.got.cif
#   From: 2010.05.17/outbox.cif.g08.bks.cpg/sg5_17_cif.got.tgz:32661.got - 2010.06.03 18:56:24.
