data_PCOD9120068
_publ_section_title
;
Structure prediction by ZEFSAII (Michael W. Deem and Ramdas Pophale) SiO2 
 PCOD9120068
Probable space group: C 2
;
_chemical_formula_sum "Si O2"
_cell_formula_units_Z 26
_cell_length_a 9.038237
_cell_length_b 18.341994
_cell_length_c 8.106124
_cell_angle_alpha 90.000000
_cell_angle_beta 84.984619
_cell_angle_gamma 90.000000
_cell_volume 1338.682313
_symmetry_space_group_name_H-M "C 2"
_symmetry_group_IT_number 5
_symmetry_cell_setting 'monoclinic'
loop_
_space_group_symop_operation_xyz
x,y,z
-x,y,-z
1/2+x,1/2+y,z
1/2-x,1/2+y,-z
loop_
_atom_site_type_symbol
_atom_site_label
_atom_site_fract_x
_atom_site_fract_y
_atom_site_fract_z
Si Si1 0.338026 0.155310 0.968763
Si Si2 0.500000 0.509939 0.000000
Si Si3 0.831140 0.997709 0.518743
Si Si4 0.596306 0.747259 0.821012
Si Si5 0.199433 0.492850 0.165737
Si Si6 0.897463 0.124218 0.735422
Si Si7 0.430100 0.905378 0.321957
O O1 0.249522 0.208537 0.855831
O O2 0.342478 0.073608 0.892905
O O3 0.500000 0.181194 0.000000
O O4 0.243071 0.149515 0.145135
O O5 0.655521 0.468806 0.954919
O O6 0.477156 0.564141 0.846705
O O7 0.717162 0.954797 0.647335
O O8 0.000000 0.967533 0.500000
O O9 0.760137 0.996387 0.346043
O O10 0.846790 0.080257 0.581534
O O11 0.506563 0.692151 0.711319
O O12 0.609413 0.826083 0.741183
O O13 0.500000 0.751215 0.000000
O O14 0.054467 0.442406 0.192402
O O15 0.500000 0.899960 0.500000
#
# Coordination Sequence:
#
# PCOD9120068 Si02
#       7
#     4   2   4   4   4   4   4
#     4  10  19  35  61  87 117 148 197 251 284 342
#     4  10  16  34  60  90 118 146 194 246 278 342
#     4  11  20  36  60  87 119 156 195 243 290 346
#     4  10  20  39  58  83 119 154 194 234 296 355
#     4  10  20  37  58  90 122 148 199 241 292 346
#     4  10  18  35  61  87 115 151 195 237 289 351
#     4  10  24  39  57  86 122 158 192 241 294 354
#
# _framework density 19.422084999999999
#
# number of rings (size 3 to 8) (size 9 to 14) (size 15 to 20)
#    0.000    1.846    5.385    0.923    0.000    4.923 
#    0.000    6.154    3.385    4.615    0.000    0.000 
#    0.000    0.000    0.000    0.000    0.000    0.000 
#
# Total GULP energy -72573.979883 kJ/mol
# GULP energy per Si atom -5582.613837 kJ/mol
# Density = 1.937788 g / cm^3
# Si number density = 19.422085 Si / 1000 Ang^3
#
#
#
# Elastic Constant Matrix: (Units=GPa)
#
#
# Indices 1 2 3 4 5 6 
#
# 1 151.7895 72.4052 28.1315 0.0000 -23.2987 0.0000
# 2 72.4052 116.1156 34.2419 0.0000 -14.5046 0.0000
# 3 28.1315 34.2419 44.8456 0.0000 -6.0837 0.0000
# 4 0.0000 0.0000 0.0000 27.1712 0.0000 -0.3366
# 5 -23.2987 -14.5046 -6.0837 0.0000 33.3165 0.0000
# 6 0.0000 0.0000 0.0000 -0.3366 0.0000 8.4134
#
#
#
# Elastic Compliance Matrix: (Units=1/GPa)
#
#
# Indices 1 2 3 4 5 6 
#
# 1 0.010084 -0.005219 -0.001735 0.000000 0.004463 0.000000
# 2 -0.005219 0.014198 -0.007407 0.000000 0.001179 0.000000
# 3 -0.001735 -0.007407 0.029163 0.000000 0.000887 0.000000
# 4 0.000000 0.000000 0.000000 0.036822 0.000000 0.001473
# 5 0.004463 0.001179 0.000887 0.000000 0.033811 0.000000
# 6 0.000000 0.000000 0.000000 0.001473 0.000000 0.118916
#
#
# Mechanical properties :
#
#
# Convention : Reuss Voigt Hill
#
# Bulk Modulus (GPa) = 40.44873 64.70089 52.57481
# Shear Modulus (GPa) = 17.85973 25.64503 21.75238
#
# Velocity S-wave (km/s) = 3.03571 3.63768 3.35024
# Velocity P-wave (km/s) = 5.75836 7.14346 6.48798
#
# Compressibility (1/GPa) = 0.02472266
#
# Stress axis : x y z
#
# Youngs Moduli (GPa) = 99.16506 70.43247 34.28947
#
# Poissons Ratio (x) = 0.36758 0.05951
# Poissons Ratio (y) = 0.51753 0.25399
# Poissons Ratio (z) = 0.17210 0.52171
#
# Static dielectric constant tensor:
#      x y z
#    x 1.706580 0.000000 -0.010340 
#    y 0.000000 1.646540 0.000000 
#    z -0.010340 0.000000 1.733130 
# 
# From -- ./inp_files/16058.got.cif
#   From: 2010.05.17/outbox.cif.g08.bks.cpg/sg5_9_cif.got.tgz:16058.got - 2010.06.03 18:56:24.
