data_PCOD9120221
_publ_section_title
;
Structure prediction by ZEFSAII (Michael W. Deem and Ramdas Pophale) SiO2 
 PCOD9120221
Probable space group: C 2
;
_chemical_formula_sum "Si O2"
_cell_formula_units_Z 28
_cell_length_a 24.092716
_cell_length_b 7.333225
_cell_length_c 8.139178
_cell_angle_alpha 90.000000
_cell_angle_beta 135.808531
_cell_angle_gamma 90.000000
_cell_volume 1002.375522
_symmetry_space_group_name_H-M "C 2"
_symmetry_group_IT_number 5
_symmetry_cell_setting 'monoclinic'
loop_
_space_group_symop_operation_xyz
x,y,z
-x,y,-z
1/2+x,1/2+y,z
1/2-x,1/2+y,-z
loop_
_atom_site_type_symbol
_atom_site_label
_atom_site_fract_x
_atom_site_fract_y
_atom_site_fract_z
Si Si1 0.720158 0.803280 0.383186
Si Si2 0.418784 0.577631 0.623453
Si Si3 0.888218 0.063004 0.216256
Si Si4 0.571517 0.959790 0.255454
Si Si5 0.591418 0.001727 0.666597
Si Si6 0.247837 0.053133 0.849856
Si Si7 0.131883 0.925650 0.162410
O O1 0.646221 0.918476 0.297791
O O2 0.746305 0.885986 0.264297
O O3 0.684857 0.607866 0.276589
O O4 0.798348 0.781939 0.663278
O O5 0.432670 0.496295 0.474935
O O6 0.465042 0.761529 0.764437
O O7 0.327061 0.655687 0.395881
O O8 0.416966 0.443535 0.772734
O O9 0.900425 0.285637 0.254945
O O10 0.795499 0.018695 0.066009
O O11 0.910975 0.958217 0.099179
O O12 0.600995 0.036122 0.491600
O O13 0.500000 0.050707 0.000000
O O14 0.500000 0.051265 0.500000
O O15 0.661945 0.102704 0.914021
#
# Coordination Sequence:
#
# PCOD9120221 Si02
#       7
#     4   4   4   4   4   4   4
#     4  10  19  32  52  80 110 145 195 241 297 343
#     4   7  18  30  46  73 104 142 189 222 281 347
#     4   9  18  32  50  73 112 150 182 232 289 348
#     4  10  19  31  49  79 115 149 182 245 304 345
#     4  11  20  31  53  85 115 147 190 248 305 346
#     4   9  17  34  48  75 113 144 197 233 285 355
#     4  10  17  32  51  73 109 143 184 245 289 335
#
# _framework density 27.933646
#
# number of rings (size 3 to 8) (size 9 to 14) (size 15 to 20)
#    0.857    1.714    1.429    1.714    2.000    0.000 
#    0.000    0.000    0.000    0.000    0.000   12.000 
#   25.714    0.000    0.000    0.000    0.000    0.000 
#
# Total GULP energy -78140.173827 kJ/mol
# GULP energy per Si atom -5581.440988 kJ/mol
# Density = 2.787007 g / cm^3
# Si number density = 27.933646 Si / 1000 Ang^3
#
#
#
# Elastic Constant Matrix: (Units=GPa)
#
#
# Indices 1 2 3 4 5 6 
#
# 1 106.4943 24.0367 46.5081 0.0000 -28.6897 0.0000
# 2 24.0367 71.8756 28.0734 0.0000 4.5542 0.0000
# 3 46.5081 28.0734 239.2800 0.0000 -7.1224 0.0000
# 4 0.0000 0.0000 0.0000 23.2728 0.0000 3.4041
# 5 -28.6897 4.5542 -7.1224 0.0000 59.4440 0.0000
# 6 0.0000 0.0000 0.0000 3.4041 0.0000 16.3637
#
#
#
# Elastic Compliance Matrix: (Units=1/GPa)
#
#
# Indices 1 2 3 4 5 6 
#
# 1 0.012763 -0.003948 -0.001832 0.000000 0.006243 0.000000
# 2 -0.003948 0.015908 -0.001196 0.000000 -0.003268 0.000000
# 3 -0.001832 -0.001196 0.004669 0.000000 -0.000233 0.000000
# 4 0.000000 0.000000 0.000000 0.044317 0.000000 -0.009219
# 5 0.006243 -0.003268 -0.000233 0.000000 0.020058 0.000000
# 6 0.000000 0.000000 0.000000 -0.009219 0.000000 0.063029
#
#
# Mechanical properties :
#
#
# Convention : Reuss Voigt Hill
#
# Bulk Modulus (GPa) = 51.58128 68.32070 59.95099
# Shear Modulus (GPa) = 27.60017 41.08486 34.34252
#
# Velocity S-wave (km/s) = 3.14676 3.83926 3.51013
# Velocity P-wave (km/s) = 5.63103 6.64564 6.15926
#
# Compressibility (1/GPa) = 0.01938688
#
# Stress axis : x y z
#
# Youngs Moduli (GPa) = 78.35055 62.86295 214.19586
#
# Poissons Ratio (x) = 0.24821 0.39233
# Poissons Ratio (y) = 0.30936 0.25622
# Poissons Ratio (z) = 0.14351 0.07520
#
# Static dielectric constant tensor:
#      x y z
#    x 2.330510 0.000000 -0.069670 
#    y 0.000000 2.244150 0.000000 
#    z -0.069670 0.000000 2.327010 
# 
# From -- ./inp_files/30893.got.cif
#   From: 2010.05.17/outbox.cif.g08.bks.cpg/sg5_16_cif.got.tgz:30893.got - 2010.06.03 18:56:24.
