data_PCOD9120687
_publ_section_title
;
Structure prediction by ZEFSAII (Michael W. Deem and Ramdas Pophale) SiO2 
 PCOD9120687
Probable space group: C 2
;
_chemical_formula_sum "Si O2"
_cell_formula_units_Z 28
_cell_length_a 24.068620
_cell_length_b 9.220441
_cell_length_c 7.263026
_cell_angle_alpha 90.000000
_cell_angle_beta 45.264674
_cell_angle_gamma 90.000000
_cell_volume 1144.991966
_symmetry_space_group_name_H-M "C 2"
_symmetry_group_IT_number 5
_symmetry_cell_setting 'monoclinic'
loop_
_space_group_symop_operation_xyz
x,y,z
-x,y,-z
1/2+x,1/2+y,z
1/2-x,1/2+y,-z
loop_
_atom_site_type_symbol
_atom_site_label
_atom_site_fract_x
_atom_site_fract_y
_atom_site_fract_z
Si Si1 0.973235 0.241560 0.781484
Si Si2 0.108041 0.518028 0.005984
Si Si3 0.876805 0.408192 0.432390
Si Si4 0.226495 0.755955 0.736138
Si Si5 0.671321 0.562514 0.720265
Si Si6 0.538991 0.167031 0.609191
Si Si7 0.940097 0.986313 0.317633
O O1 0.040843 0.323882 0.742132
O O2 0.930131 0.382462 0.790771
O O3 0.898425 0.153886 0.027598
O O4 0.030451 0.105115 0.604300
O O5 0.138581 0.443663 0.746763
O O6 0.169627 0.630951 0.948723
O O7 0.037294 0.618635 0.097629
O O8 0.803416 0.311334 0.665276
O O9 0.892198 0.555797 0.505529
O O10 0.257444 0.673494 0.478863
O O11 0.184294 0.908678 0.788910
O O12 0.642095 0.524339 0.582619
O O13 0.500000 0.154170 0.500000
O O14 0.562047 0.329446 0.592221
O O15 0.000000 0.985660 0.000000
#
# Coordination Sequence:
#
# PCOD9120687 Si02
#       7
#     4   4   4   4   4   4   4
#     4  10  18  34  58  87 123 153 195 243 301 359
#     4  11  20  37  62  93 123 158 194 253 305 365
#     4  11  20  37  63  91 122 155 198 253 306 360
#     4  12  21  31  56  93 132 147 194 243 319 359
#     4  11  19  30  52  91 124 153 184 244 305 365
#     4  11  24  40  62  85 119 165 216 250 298 362
#     4  10  18  34  60  90 116 150 200 257 294 351
#
# _framework density 24.454318000000001
#
# number of rings (size 3 to 8) (size 9 to 14) (size 15 to 20)
#    0.000    1.143    4.286    6.857    0.000    0.000 
#    0.000    2.857    3.143    0.000    0.000    0.000 
#    0.000    0.000    0.000    0.000    0.000    0.000 
#
# Total GULP energy -77953.410897 kJ/mol
# GULP energy per Si atom -5568.100778 kJ/mol
# Density = 2.439866 g / cm^3
# Si number density = 24.454318 Si / 1000 Ang^3
#
#
#
# Elastic Constant Matrix: (Units=GPa)
#
#
# Indices 1 2 3 4 5 6 
#
# 1 66.4374 52.6522 26.0729 0.0000 -10.9793 0.0000
# 2 52.6522 236.4259 36.7127 0.0000 -24.2277 0.0000
# 3 26.0729 36.7127 45.9967 0.0000 -20.0664 0.0000
# 4 0.0000 0.0000 0.0000 12.7183 0.0000 -43.8992
# 5 -10.9793 -24.2277 -20.0664 0.0000 37.0212 0.0000
# 6 0.0000 0.0000 0.0000 -43.8992 0.0000 31.2674
#
#
#
# Elastic Compliance Matrix: (Units=1/GPa)
#
#
# Indices 1 2 3 4 5 6 
#
# 1 0.021429 -0.003345 -0.010032 0.000000 -0.001271 0.000000
# 2 -0.003345 0.005406 -0.001714 0.000000 0.001617 0.000000
# 3 -0.010032 -0.001714 0.035372 0.000000 0.015076 0.000000
# 4 0.000000 0.000000 0.000000 -0.020443 0.000000 -0.028702
# 5 -0.001271 0.001617 0.015076 0.000000 0.035864 0.000000
# 6 0.000000 0.000000 0.000000 -0.028702 0.000000 -0.008315
#
#
# Mechanical properties :
#
#
# Convention : Reuss Voigt Hill
#
# Bulk Modulus (GPa) = 31.22371 64.41507 47.81939
# Shear Modulus (GPa) = 45.38434 31.76286 38.57360
#
# Velocity S-wave (km/s) = 4.31267 3.60789 3.97592
# Velocity P-wave (km/s) = 6.13145 6.61468 6.37764
#
# Compressibility (1/GPa) = 0.03202694
#
# Stress axis : x y z
#
# Youngs Moduli (GPa) = 46.66467 184.96675 28.27093
#
# Poissons Ratio (x) = 0.61868 0.28361
# Poissons Ratio (y) = 0.15609 0.04845
# Poissons Ratio (z) = 0.46814 0.31696
#
# Static dielectric constant tensor:
#      x y z
#    x 1.996690 0.000000 0.108730 
#    y 0.000000 1.942530 0.000000 
#    z 0.108730 0.000000 2.264630 
# 
# From -- ./inp_files/31744.got.cif
#   From: 2010.05.17/outbox.cif.g08.bks.cpg/sg5_16_cif.got.tgz:31744.got - 2010.06.03 18:56:24.
