data_PCOD9120412
_publ_section_title
;
Structure prediction by ZEFSAII (Michael W. Deem and Ramdas Pophale) SiO2 
 PCOD9120412
Probable space group: C 2
;
_chemical_formula_sum "Si O2"
_cell_formula_units_Z 32
_cell_length_a 22.667722
_cell_length_b 7.227690
_cell_length_c 7.133937
_cell_angle_alpha 90.000000
_cell_angle_beta 86.529425
_cell_angle_gamma 90.000000
_cell_volume 1166.646938
_symmetry_space_group_name_H-M "C 2"
_symmetry_group_IT_number 5
_symmetry_cell_setting 'monoclinic'
loop_
_space_group_symop_operation_xyz
x,y,z
-x,y,-z
1/2+x,1/2+y,z
1/2-x,1/2+y,-z
loop_
_atom_site_type_symbol
_atom_site_label
_atom_site_fract_x
_atom_site_fract_y
_atom_site_fract_z
Si Si1 0.987327 0.346800 0.728128
Si Si2 0.232985 0.285412 0.778196
Si Si3 0.764241 0.698994 0.360298
Si Si4 0.636228 0.225822 0.158134
Si Si5 0.890968 0.724915 0.273756
Si Si6 0.485888 0.289612 0.792133
Si Si7 0.861279 0.311333 0.699773
Si Si8 0.110669 0.286023 0.721822
O O1 0.923391 0.262470 0.786279
O O2 0.000000 0.343774 0.500000
O O3 0.984665 0.562179 0.789629
O O4 0.044561 0.243890 0.798858
O O5 0.224325 0.498252 0.724699
O O6 0.247354 0.182705 0.580848
O O7 0.295031 0.282265 0.873339
O O8 0.165558 0.233202 0.846702
O O9 0.827460 0.802116 0.349281
O O10 0.707942 0.769774 0.254363
O O11 0.580968 0.339498 0.256929
O O12 0.638091 0.033283 0.269660
O O13 0.614370 0.214378 0.949802
O O14 0.951528 0.823760 0.324514
O O15 0.894417 0.507548 0.319102
O O16 0.500000 0.352884 0.000000
O O17 0.872054 0.225829 0.490804
#
# Coordination Sequence:
#
# PCOD9120412 Si02
#       8
#     4   4   4   4   4   4   4   4
#     4   8  13  24  45  70  90 113 148 186 224 265
#     4  10  19  32  47  67  93 126 157 188 228 271
#     4  10  20  33  49  67  95 126 154 189 229 273
#     4  10  18  29  49  73  95 118 151 192 233 275
#     4   9  17  29  47  71  94 120 155 192 227 268
#     4   8  15  27  43  67  93 117 148 190 229 263
#     4   9  17  30  50  73  95 120 148 188 233 274
#     4   8  15  28  46  68  93 120 151 187 225 267
#
# _framework density 27.429036
#
# number of rings (size 3 to 8) (size 9 to 14) (size 15 to 20)
#    0.000    3.000    0.000    2.250    0.000    3.000 
#    0.000    0.000    0.000    9.000    0.000   24.500 
#    0.000    0.000    0.000    0.000    0.000    0.000 
#
# Total GULP energy -89168.164070 kJ/mol
# GULP energy per Si atom -5573.010254 kJ/mol
# Density = 2.736661 g / cm^3
# Si number density = 27.429036 Si / 1000 Ang^3
#
#
#
# Elastic Constant Matrix: (Units=GPa)
#
#
# Indices 1 2 3 4 5 6 
#
# 1 351.4156 11.9452 22.3517 0.0000 -1.4923 0.0000
# 2 11.9452 72.2821 -8.1360 0.0000 -0.4942 0.0000
# 3 22.3517 -8.1360 56.9131 0.0000 -1.3960 0.0000
# 4 0.0000 0.0000 0.0000 -6.8247 0.0000 -0.5625
# 5 -1.4923 -0.4942 -1.3960 0.0000 38.0214 0.0000
# 6 0.0000 0.0000 0.0000 -0.5625 0.0000 21.5982
#
#
#
# Elastic Compliance Matrix: (Units=1/GPa)
#
#
# Indices 1 2 3 4 5 6 
#
# 1 0.002946 -0.000627 -0.001245 0.000000 0.000062 0.000000
# 2 -0.000627 0.014197 0.002282 0.000000 0.000244 0.000000
# 3 -0.001245 0.002282 0.018402 0.000000 0.000656 0.000000
# 4 0.000000 0.000000 0.000000 -0.146213 0.000000 -0.003808
# 5 0.000062 0.000244 0.000656 0.000000 0.026331 0.000000
# 6 0.000000 0.000000 0.000000 -0.003808 0.000000 0.046201
#
#
# Mechanical properties :
#
#
# Convention : Reuss Voigt Hill
#
# Bulk Modulus (GPa) = 27.49935 59.21472 43.35703
# Shear Modulus (GPa) = -186.33153 40.85564 -72.73794
#
# Velocity S-wave (km/s) = -8.25104 3.86360 -5.15521
# Velocity P-wave (km/s) = 8.98474 6.44503 4.42646
#
# Compressibility (1/GPa) = 0.03636450
#
# Stress axis : x y z
#
# Youngs Moduli (GPa) = 339.39746 70.43883 54.34202
#
# Poissons Ratio (x) = 0.04414 0.06767
# Poissons Ratio (y) = 0.21268 -0.12399
# Poissons Ratio (z) = 0.42262 -0.16071
#
# Static dielectric constant tensor:
#      x y z
#    x 2.346010 0.000000 -0.033080 
#    y 0.000000 2.220970 0.000000 
#    z -0.033080 0.000000 2.216850 
# 
# From -- ./inp_files/30576.got.cif
#   From: 2010.05.17/outbox.cif.g08.bks.cpg/sg5_16_cif.got.tgz:30576.got - 2010.06.03 18:56:24.
