data_PCOD9120832
_publ_section_title
;
Structure prediction by ZEFSAII (Michael W. Deem and Ramdas Pophale) SiO2 
 PCOD9120832
Probable space group: C 2
;
_chemical_formula_sum "Si O2"
_cell_formula_units_Z 20
_cell_length_a 5.447885
_cell_length_b 23.695321
_cell_length_c 6.910886
_cell_angle_alpha 90.000000
_cell_angle_beta 78.791132
_cell_angle_gamma 90.000000
_cell_volume 875.104860
_symmetry_space_group_name_H-M "C 2"
_symmetry_group_IT_number 5
_symmetry_cell_setting 'monoclinic'
loop_
_space_group_symop_operation_xyz
x,y,z
-x,y,-z
1/2+x,1/2+y,z
1/2-x,1/2+y,-z
loop_
_atom_site_type_symbol
_atom_site_label
_atom_site_fract_x
_atom_site_fract_y
_atom_site_fract_z
Si Si1 0.500000 0.786221 0.000000
Si Si2 0.500000 0.214934 0.000000
Si Si3 0.836669 0.069872 0.280474
Si Si4 0.529973 0.441708 0.272250
Si Si5 0.532696 0.889897 0.263621
Si Si6 0.660916 0.112830 0.732836
O O1 0.247208 0.750504 0.012170
O O2 0.520561 0.828548 0.814638
O O3 0.563925 0.174436 0.806883
O O4 0.748932 0.096305 0.501488
O O5 0.582769 0.073902 0.197997
O O6 0.085059 0.103722 0.187090
O O7 0.937146 0.006200 0.276227
O O8 0.500000 0.423886 0.500000
O O9 0.824081 0.430915 0.200103
O O10 0.320900 0.407334 0.186911
O O11 0.500000 0.891799 0.500000
#
# Coordination Sequence:
#
# PCOD9120832 Si02
#       6
#     2   2   4   4   4   4
#     4  12  26  50  65  90 137 172 226 302 316 364
#     4  12  26  46  65  88 135 174 224 288 332 362
#     4  10  19  37  65  95 132 164 207 255 322 404
#     4  10  18  35  67  95 130 167 201 260 325 401
#     4  10  23  41  67  96 128 168 226 262 330 399
#     4  10  21  37  61  94 124 173 212 261 318 390
#
# _framework density 22.854405
#
# number of rings (size 3 to 8) (size 9 to 14) (size 15 to 20)
#    0.000    1.600    2.000    3.600    5.600    0.000 
#   10.800    6.000    0.000    0.000    0.000    0.000 
#    0.000    0.000    0.000    0.000    0.000    0.000 
#
# Total GULP energy -55788.114366 kJ/mol
# GULP energy per Si atom -5578.811437 kJ/mol
# Density = 2.280239 g / cm^3
# Si number density = 22.854405 Si / 1000 Ang^3
#
#
#
# Elastic Constant Matrix: (Units=GPa)
#
#
# Indices 1 2 3 4 5 6 
#
# 1 279.0103 101.5463 57.4787 0.0000 -6.4304 0.0000
# 2 101.5463 127.6350 29.9298 0.0000 2.8777 0.0000
# 3 57.4787 29.9298 100.2081 0.0000 -0.6330 0.0000
# 4 0.0000 0.0000 0.0000 37.4837 0.0000 3.0774
# 5 -6.4304 2.8777 -0.6330 0.0000 42.2336 0.0000
# 6 0.0000 0.0000 0.0000 3.0774 0.0000 60.6713
#
#
#
# Elastic Compliance Matrix: (Units=1/GPa)
#
#
# Indices 1 2 3 4 5 6 
#
# 1 0.005422 -0.003882 -0.001944 0.000000 0.001061 0.000000
# 2 -0.003882 0.011220 -0.001133 0.000000 -0.001372 0.000000
# 3 -0.001944 -0.001133 0.011432 0.000000 -0.000047 0.000000
# 4 0.000000 0.000000 0.000000 0.026790 0.000000 -0.001359
# 5 0.001061 -0.001372 -0.000047 0.000000 0.023932 0.000000
# 6 0.000000 0.000000 0.000000 -0.001359 0.000000 0.016551
#
#
# Mechanical properties :
#
#
# Convention : Reuss Voigt Hill
#
# Bulk Modulus (GPa) = 70.63929 98.30700 84.47314
# Shear Modulus (GPa) = 43.86613 49.27097 46.56855
#
# Velocity S-wave (km/s) = 4.38582 4.64816 4.51890
# Velocity P-wave (km/s) = 7.52480 8.48028 8.01679
#
# Compressibility (1/GPa) = 0.01415643
#
# Stress axis : x y z
#
# Youngs Moduli (GPa) = 184.44376 89.12867 87.47093
#
# Poissons Ratio (x) = 0.34596 0.17003
# Poissons Ratio (y) = 0.71594 0.09913
# Poissons Ratio (z) = 0.35852 0.10101
#
# Static dielectric constant tensor:
#      x y z
#    x 1.878570 0.000000 0.005100 
#    y 0.000000 1.831940 0.000000 
#    z 0.005100 0.000000 1.926310 
# 
# From -- ./inp_files/12298.got.cif
#   From: 2010.05.17/outbox.cif.g08.bks.cpg/sg5_7_cif.got.tgz:12298.got - 2010.06.03 18:56:24.
