data_PCOD9120429
_publ_section_title
;
Structure prediction by ZEFSAII (Michael W. Deem and Ramdas Pophale) SiO2 
 PCOD9120429
Probable space group: C 2
;
_chemical_formula_sum "Si O2"
_cell_formula_units_Z 20
_cell_length_a 7.011117
_cell_length_b 22.532275
_cell_length_c 7.756150
_cell_angle_alpha 90.000000
_cell_angle_beta 38.781998
_cell_angle_gamma 90.000000
_cell_volume 767.470554
_symmetry_space_group_name_H-M "C 2"
_symmetry_group_IT_number 5
_symmetry_cell_setting 'monoclinic'
loop_
_space_group_symop_operation_xyz
x,y,z
-x,y,-z
1/2+x,1/2+y,z
1/2-x,1/2+y,-z
loop_
_atom_site_type_symbol
_atom_site_label
_atom_site_fract_x
_atom_site_fract_y
_atom_site_fract_z
Si Si1 0.852319 0.567270 0.910485
Si Si2 0.216394 0.887000 0.100529
Si Si3 0.167382 0.305438 0.563819
Si Si4 0.640200 0.499422 0.596652
Si Si5 0.156279 0.684977 0.703574
O O1 0.012129 0.515669 0.685939
O O2 0.945232 0.632306 0.783426
O O3 0.000000 0.565495 0.000000
O O4 0.505309 0.553558 0.195090
O O5 0.968655 0.844003 0.356299
O O6 0.985314 0.940964 0.218731
O O7 0.500000 0.917191 0.000000
O O8 0.415769 0.838454 0.855800
O O9 0.282152 0.237492 0.476422
O O10 0.000000 0.309511 0.500000
O O11 0.500000 0.494897 0.500000
O O12 0.500000 0.661792 0.500000
O O13 0.000000 0.704779 0.000000
#
# Coordination Sequence:
#
# PCOD9120429 Si02
#       5
#     4   4   4   4   4
#     4   9  16  27  48  77 110 140 171 225 292 329
#     4  12  23  37  57  84 115 150 188 230 276 332
#     4  11  23  39  57  82 114 151 189 230 276 331
#     4  10  18  30  49  79 113 141 175 228 283 329
#     4  10  18  31  51  78 109 140 178 229 280 327
#
# _framework density 26.059633999999999
#
# number of rings (size 3 to 8) (size 9 to 14) (size 15 to 20)
#    0.000    1.600    0.000   10.800    0.000    0.000 
#    0.000    0.000    0.000    0.000    0.000   28.000 
#    0.000    0.000    0.000    0.000    0.000    0.000 
#
# Total GULP energy -55746.072956 kJ/mol
# GULP energy per Si atom -5574.607296 kJ/mol
# Density = 2.600032 g / cm^3
# Si number density = 26.059634 Si / 1000 Ang^3
#
#
#
# Elastic Constant Matrix: (Units=GPa)
#
#
# Indices 1 2 3 4 5 6 
#
# 1 34.7136 12.1885 32.2434 0.0000 -6.3687 0.0000
# 2 12.1885 195.5630 89.1524 0.0000 1.0786 0.0000
# 3 32.2434 89.1524 198.8322 0.0000 -17.6701 0.0000
# 4 0.0000 0.0000 0.0000 61.5993 0.0000 -9.6175
# 5 -6.3687 1.0786 -17.6701 0.0000 34.1344 0.0000
# 6 0.0000 0.0000 0.0000 -9.6175 0.0000 42.7257
#
#
#
# Elastic Compliance Matrix: (Units=1/GPa)
#
#
# Indices 1 2 3 4 5 6 
#
# 1 0.034368 0.000292 -0.005383 0.000000 0.003617 0.000000
# 2 0.000292 0.006534 -0.003135 0.000000 -0.001775 0.000000
# 3 -0.005383 -0.003135 0.007576 0.000000 0.003017 0.000000
# 4 0.000000 0.000000 0.000000 0.016825 0.000000 0.003787
# 5 0.003617 -0.001775 0.003017 0.000000 0.031588 0.000000
# 6 0.000000 0.000000 0.000000 0.003787 0.000000 0.024258
#
#
# Mechanical properties :
#
#
# Convention : Reuss Voigt Hill
#
# Bulk Modulus (GPa) = 31.22399 77.36416 54.29408
# Shear Modulus (GPa) = 33.72089 47.39351 40.55720
#
# Velocity S-wave (km/s) = 3.60111 4.26920 3.94931
# Velocity P-wave (km/s) = 5.41280 7.35209 6.45568
#
# Compressibility (1/GPa) = 0.03202666
#
# Stress axis : x y z
#
# Youngs Moduli (GPa) = 29.09695 153.04246 131.99704
#
# Poissons Ratio (x) = -0.04467 0.71050
# Poissons Ratio (y) = -0.00849 0.41379
# Poissons Ratio (z) = 0.15662 0.47976
#
# Static dielectric constant tensor:
#      x y z
#    x 2.160400 0.000000 0.215470 
#    y 0.000000 2.187130 0.000000 
#    z 0.215470 0.000000 1.370190 
# 
# From -- ./inp_files/17275.got.cif
#   From: 2010.05.17/outbox.cif.g08.bks.cpg/sg5_9_cif.got.tgz:17275.got - 2010.06.03 18:56:24.
