data_PCOD9120348
_publ_section_title
;
Structure prediction by ZEFSAII (Michael W. Deem and Ramdas Pophale) SiO2 
 PCOD9120348
Probable space group: C 2
;
_chemical_formula_sum "Si O2"
_cell_formula_units_Z 22
_cell_length_a 17.450980
_cell_length_b 9.415484
_cell_length_c 8.663105
_cell_angle_alpha 90.000000
_cell_angle_beta 143.440582
_cell_angle_gamma 90.000000
_cell_volume 847.874631
_symmetry_space_group_name_H-M "C 2"
_symmetry_group_IT_number 5
_symmetry_cell_setting 'monoclinic'
loop_
_space_group_symop_operation_xyz
x,y,z
-x,y,-z
1/2+x,1/2+y,z
1/2-x,1/2+y,-z
loop_
_atom_site_type_symbol
_atom_site_label
_atom_site_fract_x
_atom_site_fract_y
_atom_site_fract_z
Si Si1 0.402542 0.658130 0.205266
Si Si2 0.681766 0.971406 0.953804
Si Si3 0.500000 0.221744 0.000000
Si Si4 0.327803 0.672205 0.763821
Si Si5 0.532411 0.214021 0.384472
Si Si6 0.215555 0.478836 0.361245
O O1 0.500000 0.625538 0.500000
O O2 0.350723 0.816128 0.157707
O O3 0.290215 0.544086 0.030504
O O4 0.431443 0.669020 0.069214
O O5 0.554037 0.069531 0.754555
O O6 0.742090 0.967003 0.223002
O O7 0.617414 0.110602 0.207781
O O8 0.492113 0.291002 0.157996
O O9 0.183888 0.682933 0.609957
O O10 0.323271 0.532113 0.652483
O O11 0.336636 0.822001 0.685420
O O12 0.500000 0.279739 0.500000
#
# Coordination Sequence:
#
# PCOD9120348 Si02
#       6
#     4   4   2   4   4   4
#     4  11  24  43  68 102 137 180 232 283 351 415
#     4  10  22  43  66  98 137 177 233 285 344 419
#     4   8  18  34  62  88 128 174 228 272 334 412
#     4  10  21  40  69 100 133 181 235 278 352 415
#     4  10  17  36  69  94 125 181 227 275 344 413
#     4   9  20  40  62  96 133 175 230 284 344 413
#
# _framework density 25.947234000000002
#
# number of rings (size 3 to 8) (size 9 to 14) (size 15 to 20)
#    0.000    2.182    1.818    0.545    0.000    1.455 
#   16.364    0.000   24.000    0.000    0.000    0.000 
#    0.000    0.000    0.000    0.000    0.000    0.000 
#
# Total GULP energy -61429.320067 kJ/mol
# GULP energy per Si atom -5584.483642 kJ/mol
# Density = 2.588818 g / cm^3
# Si number density = 25.947234 Si / 1000 Ang^3
#
#
#
# Elastic Constant Matrix: (Units=GPa)
#
#
# Indices 1 2 3 4 5 6 
#
# 1 79.7292 27.1421 40.3653 0.0000 -3.8526 0.0000
# 2 27.1421 82.1475 36.6213 0.0000 -7.5275 0.0000
# 3 40.3653 36.6213 178.4651 0.0000 -39.9629 0.0000
# 4 0.0000 0.0000 0.0000 33.4838 0.0000 0.0163
# 5 -3.8526 -7.5275 -39.9629 0.0000 47.4978 0.0000
# 6 0.0000 0.0000 0.0000 0.0163 0.0000 38.1911
#
#
#
# Elastic Compliance Matrix: (Units=1/GPa)
#
#
# Indices 1 2 3 4 5 6 
#
# 1 0.015342 -0.003859 -0.003125 0.000000 -0.001997 0.000000
# 2 -0.003859 0.014372 -0.002016 0.000000 0.000268 0.000000
# 3 -0.003125 -0.002016 0.008127 0.000000 0.006265 0.000000
# 4 0.000000 0.000000 0.000000 0.029865 0.000000 -0.000013
# 5 -0.001997 0.000268 0.006265 0.000000 0.026205 0.000000
# 6 0.000000 0.000000 0.000000 -0.000013 0.000000 0.026184
#
#
# Mechanical properties :
#
#
# Convention : Reuss Voigt Hill
#
# Bulk Modulus (GPa) = 50.40421 60.95545 55.67983
# Shear Modulus (GPa) = 34.55227 39.58209 37.06718
#
# Velocity S-wave (km/s) = 3.65312 3.90998 3.78373
# Velocity P-wave (km/s) = 6.10422 6.62775 6.37136
#
# Compressibility (1/GPa) = 0.01983961
#
# Stress axis : x y z
#
# Youngs Moduli (GPa) = 65.18095 69.58166 123.05061
#
# Poissons Ratio (x) = 0.26850 0.38457
# Poissons Ratio (y) = 0.25152 0.24810
# Poissons Ratio (z) = 0.20371 0.14029
#
# Static dielectric constant tensor:
#      x y z
#    x 2.069050 0.000000 0.004010 
#    y 0.000000 2.019620 0.000000 
#    z 0.004010 0.000000 2.192630 
# 
# From -- ./inp_files/29059.got.cif
#   From: 2010.05.17/outbox.cif.g08.bks.cpg/sg5_15_cif.got.tgz:29059.got - 2010.06.03 18:56:24.
