data_PCOD9120073
_publ_section_title
;
Structure prediction by ZEFSAII (Michael W. Deem and Ramdas Pophale) SiO2 
 PCOD9120073
Probable space group: C 2
;
_chemical_formula_sum "Si O2"
_cell_formula_units_Z 22
_cell_length_a 19.636804
_cell_length_b 8.358495
_cell_length_c 8.822241
_cell_angle_alpha 90.000000
_cell_angle_beta 144.551183
_cell_angle_gamma 90.000000
_cell_volume 839.822356
_symmetry_space_group_name_H-M "C 2"
_symmetry_group_IT_number 5
_symmetry_cell_setting 'monoclinic'
loop_
_space_group_symop_operation_xyz
x,y,z
-x,y,-z
1/2+x,1/2+y,z
1/2-x,1/2+y,-z
loop_
_atom_site_type_symbol
_atom_site_label
_atom_site_fract_x
_atom_site_fract_y
_atom_site_fract_z
Si Si1 0.136793 0.759270 0.274880
Si Si2 0.268887 0.169875 0.999050
Si Si3 0.237460 0.007557 0.640888
Si Si4 0.000000 0.295169 0.500000
Si Si5 0.510614 0.731857 0.191764
Si Si6 0.810912 0.973067 0.907274
O O1 0.166882 0.576478 0.301373
O O2 0.191345 0.831531 0.525347
O O3 0.202974 0.862411 0.264330
O O4 0.000000 0.788270 0.000000
O O5 0.285836 0.044051 0.893995
O O6 0.128053 0.207172 0.738831
O O7 0.289940 0.076214 0.192757
O O8 0.336670 0.333237 0.080779
O O9 0.125866 0.121099 0.408380
O O10 0.992118 0.348145 0.665336
O O11 0.408336 0.600497 0.034954
O O12 0.500000 0.792552 0.000000
#
# Coordination Sequence:
#
# PCOD9120073 Si02
#       6
#     4   4   4   2   4   4
#     4  11  21  39  63  89 124 158 203 260 314 371
#     4   9  20  32  57  82 114 157 203 250 307 371
#     4  10  20  36  60  89 119 158 206 254 311 380
#     4   8  18  32  52  82 116 148 208 250 296 372
#     4  10  16  34  62  84 114 164 205 247 313 373
#     4  10  18  35  60  82 118 159 200 252 314 360
#
# _framework density 26.196017000000001
#
# number of rings (size 3 to 8) (size 9 to 14) (size 15 to 20)
#    0.000    2.182    3.636    0.000    0.000    1.455 
#    0.000    1.818   24.000    0.000    0.000    0.000 
#    0.000    0.000    0.000    0.000    0.000    0.000 
#
# Total GULP energy -61308.487314 kJ/mol
# GULP energy per Si atom -5573.498847 kJ/mol
# Density = 2.613639 g / cm^3
# Si number density = 26.196017 Si / 1000 Ang^3
#
#
#
# Elastic Constant Matrix: (Units=GPa)
#
#
# Indices 1 2 3 4 5 6 
#
# 1 121.5579 60.8261 55.1725 0.0000 -31.7047 0.0000
# 2 60.8261 91.8192 69.8434 0.0000 -4.8609 0.0000
# 3 55.1725 69.8434 69.1609 0.0000 -13.3038 0.0000
# 4 0.0000 0.0000 0.0000 47.5527 0.0000 3.0898
# 5 -31.7047 -4.8609 -13.3038 0.0000 38.2705 0.0000
# 6 0.0000 0.0000 0.0000 3.0898 0.0000 26.2721
#
#
#
# Elastic Compliance Matrix: (Units=1/GPa)
#
#
# Indices 1 2 3 4 5 6 
#
# 1 0.016749 -0.008862 -0.002100 0.000000 0.012020 0.000000
# 2 -0.008862 0.056696 -0.053812 0.000000 -0.018846 0.000000
# 3 -0.002100 -0.053812 0.073760 0.000000 0.017066 0.000000
# 4 0.000000 0.000000 0.000000 0.021191 0.000000 -0.002492
# 5 0.012020 -0.018846 0.017066 0.000000 0.039626 0.000000
# 6 0.000000 0.000000 0.000000 -0.002492 0.000000 0.038356
#
#
# Mechanical properties :
#
#
# Convention : Reuss Voigt Hill
#
# Bulk Modulus (GPa) = 56.63082 72.69134 64.66108
# Shear Modulus (GPa) = 13.09544 28.86546 20.98045
#
# Velocity S-wave (km/s) = 2.23827 3.32309 2.83309
# Velocity P-wave (km/s) = 5.32399 6.52175 5.95307
#
# Compressibility (1/GPa) = 0.01765823
#
# Stress axis : x y z
#
# Youngs Moduli (GPa) = 59.70494 17.63786 13.55747
#
# Poissons Ratio (x) = 0.15630 0.02847
# Poissons Ratio (y) = 0.52908 0.72955
# Poissons Ratio (z) = 0.12539 0.94912
#
# Static dielectric constant tensor:
#      x y z
#    x 2.119950 0.000000 -0.052500 
#    y 0.000000 2.052680 0.000000 
#    z -0.052500 0.000000 2.118360 
# 
# From -- ./inp_files/28848.got.cif
#   From: 2010.05.17/outbox.cif.g08.bks.cpg/sg5_15_cif.got.tgz:28848.got - 2010.06.03 18:56:24.
