data_PCOD9120896
_publ_section_title
;
Structure prediction by ZEFSAII (Michael W. Deem and Ramdas Pophale) SiO2 
 PCOD9120896
Probable space group: C 2
;
_chemical_formula_sum "Si O2"
_cell_formula_units_Z 30
_cell_length_a 15.133251
_cell_length_b 10.701516
_cell_length_c 18.715478
_cell_angle_alpha 90.000000
_cell_angle_beta 29.935430
_cell_angle_gamma 90.000000
_cell_volume 1512.514834
_symmetry_space_group_name_H-M "C 2"
_symmetry_group_IT_number 5
_symmetry_cell_setting 'monoclinic'
loop_
_space_group_symop_operation_xyz
x,y,z
-x,y,-z
1/2+x,1/2+y,z
1/2-x,1/2+y,-z
loop_
_atom_site_type_symbol
_atom_site_label
_atom_site_fract_x
_atom_site_fract_y
_atom_site_fract_z
Si Si1 0.945321 0.920020 0.811936
Si Si2 0.267031 0.603213 0.435192
Si Si3 0.149710 0.668830 0.672489
Si Si4 0.809955 0.280591 0.114286
Si Si5 0.285616 0.028812 0.897681
Si Si6 0.589840 0.936526 0.334756
Si Si7 0.802019 0.670281 0.661560
Si Si8 0.000000 0.211675 0.500000
O O1 0.803921 0.866685 0.855840
O O2 0.071908 0.804908 0.746216
O O3 0.063141 0.016210 0.684445
O O4 0.839777 0.975750 0.953086
O O5 0.220513 0.672166 0.540853
O O6 0.299674 0.686335 0.341369
O O7 0.095041 0.514177 0.541981
O O8 0.322167 0.639865 0.599769
O O9 0.977822 0.577350 0.792227
O O10 0.811279 0.147870 0.071327
O O11 0.731267 0.252466 0.246664
O O12 0.000000 0.332098 0.000000
O O13 0.327327 0.935737 0.802350
O O14 0.553888 0.805631 0.397567
O O15 0.708381 0.026357 0.303025
O O16 0.000000 0.695634 0.500000
#
# Coordination Sequence:
#
# PCOD9120896 Si02
#       8
#     4   4   4   4   4   4   4   2
#     4  11  20  40  63  84 124 162 196 252 301 355
#     4  10  18  36  62  87 114 154 202 245 304 350
#     4  10  23  39  61  93 118 158 207 249 293 370
#     4  10  21  36  55  86 118 152 197 242 288 359
#     4   9  21  39  60  88 124 155 198 248 310 357
#     4   9  16  32  62  89 110 147 197 250 298 346
#     4   9  15  31  58  87 110 135 190 256 288 334
#     4  12  18  38  62  88 122 152 204 256 290 354
#
# _framework density 19.834515
#
# number of rings (size 3 to 8) (size 9 to 14) (size 15 to 20)
#    0.000    2.133    3.333    3.200    0.000    1.067 
#    9.600    1.333    0.000    0.000    0.000    0.000 
#    0.000    0.000    0.000    0.000    0.000    0.000 
#
# Total GULP energy -83622.799183 kJ/mol
# GULP energy per Si atom -5574.853279 kJ/mol
# Density = 1.978937 g / cm^3
# Si number density = 19.834515 Si / 1000 Ang^3
#
#
#
# Elastic Constant Matrix: (Units=GPa)
#
#
# Indices 1 2 3 4 5 6 
#
# 1 92.7409 17.6866 37.7922 -0.0003 -1.7091 0.0000
# 2 17.6866 23.8054 35.5401 -0.0014 13.8297 0.0004
# 3 37.7922 35.5401 116.8231 -0.0014 26.0609 0.0007
# 4 -0.0003 -0.0014 -0.0014 40.8289 0.0005 11.7497
# 5 -1.7091 13.8297 26.0609 0.0005 36.9661 -0.0002
# 6 0.0000 0.0004 0.0007 11.7497 -0.0002 15.3602
#
#
#
# Elastic Compliance Matrix: (Units=1/GPa)
#
#
# Indices 1 2 3 4 5 6 
#
# 1 0.013952 -0.009528 -0.003030 -0.000001 0.006346 0.000001
# 2 -0.009528 0.090715 -0.019990 0.000004 -0.020286 -0.000005
# 3 -0.003030 -0.019990 0.016594 0.000000 -0.004360 0.000000
# 4 -0.000001 0.000004 0.000000 0.031406 -0.000002 -0.024024
# 5 0.006346 -0.020286 -0.004360 -0.000002 0.038009 0.000003
# 6 0.000001 -0.000005 0.000000 -0.024024 0.000003 0.083480
#
#
# Mechanical properties :
#
#
# Convention : Reuss Voigt Hill
#
# Bulk Modulus (GPa) = 17.80483 46.15636 31.98059
# Shear Modulus (GPa) = 13.96748 28.12108 21.04428
#
# Velocity S-wave (km/s) = 2.65656 3.76943 3.26082
# Velocity P-wave (km/s) = 4.29021 6.50124 5.50781
#
# Compressibility (1/GPa) = 0.05616454
#
# Stress axis : x y z
#
# Youngs Moduli (GPa) = 71.67588 11.02351 60.26176
#
# Poissons Ratio (x) = 0.10504 0.18261
# Poissons Ratio (y) = 0.68295 1.20461
# Poissons Ratio (z) = 0.21720 0.22036
#
# Static dielectric constant tensor:
#      x y z
#    x 1.717950 0.000000 -0.055510 
#    y 0.000000 1.715900 0.000000 
#    z -0.055510 0.000000 1.663460 
# 
# From -- ./inp_files/23632.got.cif
#   From: 2010.05.17/outbox.cif.g08.bks.cpg/sg5_12_cif.got.tgz:23632.got - 2010.06.03 18:56:24.
