data_PCOD9120365
_publ_section_title
;
Structure prediction by ZEFSAII (Michael W. Deem and Ramdas Pophale) SiO2 
 PCOD9120365
Probable space group: C 2
;
_chemical_formula_sum "Si O2"
_cell_formula_units_Z 32
_cell_length_a 9.437923
_cell_length_b 20.298859
_cell_length_c 15.950652
_cell_angle_alpha 90.000000
_cell_angle_beta 33.639777
_cell_angle_gamma 90.000000
_cell_volume 1692.826616
_symmetry_space_group_name_H-M "C 2"
_symmetry_group_IT_number 5
_symmetry_cell_setting 'monoclinic'
loop_
_space_group_symop_operation_xyz
x,y,z
-x,y,-z
1/2+x,1/2+y,z
1/2-x,1/2+y,-z
loop_
_atom_site_type_symbol
_atom_site_label
_atom_site_fract_x
_atom_site_fract_y
_atom_site_fract_z
Si Si1 0.705694 0.013480 0.157159
Si Si2 0.301336 0.628779 0.358899
Si Si3 0.428274 0.263162 0.390945
Si Si4 0.064069 0.391089 0.111754
Si Si5 0.764273 0.617341 0.419863
Si Si6 0.751165 0.995668 0.319924
Si Si7 0.098641 0.267227 0.718358
Si Si8 0.104283 0.885328 0.216117
O O1 0.489249 0.070601 0.272489
O O2 0.644139 0.959140 0.116473
O O3 0.699206 0.976341 0.250270
O O4 0.000000 0.036904 0.000000
O O5 0.308412 0.598968 0.448424
O O6 0.348483 0.571088 0.270363
O O7 0.483486 0.691322 0.255847
O O8 0.000000 0.650777 0.500000
O O9 0.357757 0.193230 0.384456
O O10 0.240370 0.281063 0.560482
O O11 0.704479 0.260272 0.300332
O O12 0.435962 0.321853 0.320937
O O13 0.070702 0.329427 0.172491
O O14 0.782657 0.398547 0.209111
O O15 0.232716 0.373042 0.947924
O O16 0.500000 0.613598 0.500000
O O17 0.500000 0.997186 0.500000
O O18 0.943321 0.948731 0.272299
#
# Coordination Sequence:
#
# PCOD9120365 Si02
#       8
#     4   4   4   4   4   4   4   4
#     4  12  24  43  61  92 128 168 203 256 318 371
#     4  10  17  38  61  88 120 157 204 253 306 366
#     4   9  18  37  60  91 121 153 204 257 300 358
#     4  10  23  39  59  88 127 162 202 251 304 366
#     4  11  23  40  63  97 125 154 208 270 306 361
#     4  11  22  38  63  88 117 166 209 251 311 372
#     4   9  16  35  63  85 115 160 205 239 300 370
#     4  10  22  41  58  90 124 164 203 251 306 367
#
# _framework density 18.903295
#
# number of rings (size 3 to 8) (size 9 to 14) (size 15 to 20)
#    0.000    1.750    6.250    0.000    3.500    0.500 
#   11.250    0.000    0.000    0.000    3.250    0.000 
#    0.000    0.000    0.000    0.000    0.000    0.000 
#
# Total GULP energy -89110.713640 kJ/mol
# GULP energy per Si atom -5569.419602 kJ/mol
# Density = 1.886027 g / cm^3
# Si number density = 18.903295 Si / 1000 Ang^3
#
#
#
# Elastic Constant Matrix: (Units=GPa)
#
#
# Indices 1 2 3 4 5 6 
#
# 1 81.2149 31.6524 34.8276 -0.0064 4.6077 0.0005
# 2 31.6524 111.6536 43.4671 0.0104 -4.9833 0.0120
# 3 34.8276 43.4671 60.7901 -0.0080 1.6681 0.0154
# 4 -0.0064 0.0104 -0.0080 6.4107 0.0043 -2.0098
# 5 4.6077 -4.9833 1.6681 0.0043 25.4611 -0.0018
# 6 0.0005 0.0120 0.0154 -2.0098 -0.0018 21.8782
#
#
#
# Elastic Compliance Matrix: (Units=1/GPa)
#
#
# Indices 1 2 3 4 5 6 
#
# 1 0.016667 -0.001610 -0.008321 0.000013 -0.002786 0.000007
# 2 -0.001610 0.012802 -0.008323 -0.000036 0.003342 -0.000004
# 3 -0.008321 -0.008323 0.027221 0.000037 -0.001907 -0.000011
# 4 0.000013 -0.000036 0.000037 0.160615 -0.000038 0.014755
# 5 -0.002786 0.003342 -0.001907 -0.000038 0.040559 -0.000001
# 6 0.000007 -0.000004 -0.000011 0.014755 -0.000001 0.047063
#
#
# Mechanical properties :
#
#
# Convention : Reuss Voigt Hill
#
# Bulk Modulus (GPa) = 49.55045 52.61698 51.08372
# Shear Modulus (GPa) = 14.36110 20.33078 17.34594
#
# Velocity S-wave (km/s) = 2.75928 3.28306 3.03250
# Velocity P-wave (km/s) = 6.03498 6.50128 6.27246
#
# Compressibility (1/GPa) = 0.02018145
#
# Stress axis : x y z
#
# Youngs Moduli (GPa) = 59.99921 78.11194 36.73589
#
# Poissons Ratio (x) = 0.12574 0.30569
# Poissons Ratio (y) = 0.09658 0.30577
# Poissons Ratio (z) = 0.49927 0.65016
#
# Static dielectric constant tensor:
#      x y z
#    x 1.702230 0.000000 -0.010060 
#    y 0.000000 1.690320 0.000010 
#    z -0.010060 0.000010 1.675040 
# 
# From -- ./inp_files/51556.got.cif
#   From: 2010.05.17/outbox.cif.g08.bks.cpg/sg5_26_cif.got.tgz:51556.got - 2010.06.03 18:56:24.
