data_PCOD9120901
_publ_section_title
;
Structure prediction by ZEFSAII (Michael W. Deem and Ramdas Pophale) SiO2 
 PCOD9120901
Probable space group: C 2
;
_chemical_formula_sum "Si O2"
_cell_formula_units_Z 30
_cell_length_a 5.715114
_cell_length_b 17.751814
_cell_length_c 13.414967
_cell_angle_alpha 90.000000
_cell_angle_beta 81.426504
_cell_angle_gamma 90.000000
_cell_volume 1345.788707
_symmetry_space_group_name_H-M "C 2"
_symmetry_group_IT_number 5
_symmetry_cell_setting 'monoclinic'
loop_
_space_group_symop_operation_xyz
x,y,z
-x,y,-z
1/2+x,1/2+y,z
1/2-x,1/2+y,-z
loop_
_atom_site_type_symbol
_atom_site_label
_atom_site_fract_x
_atom_site_fract_y
_atom_site_fract_z
Si Si1 0.054234 0.213350 0.815105
Si Si2 0.090439 0.526913 0.118144
Si Si3 0.501755 0.898032 0.603463
Si Si4 0.160810 0.374552 0.819056
Si Si5 0.581945 0.161889 0.743126
Si Si6 0.575284 0.461109 0.738038
Si Si7 0.702498 0.548108 0.406734
Si Si8 0.000000 0.098651 0.000000
O O1 0.071583 0.295663 0.863775
O O2 0.322015 0.201023 0.753782
O O3 0.822229 0.207376 0.758051
O O4 0.020026 0.151326 0.902706
O O5 0.268417 0.509484 0.198497
O O6 0.261587 0.548475 0.016111
O O7 0.959784 0.447197 0.124234
O O8 0.950491 0.599311 0.167103
O O9 0.500000 0.852579 0.500000
O O10 0.605206 0.869749 0.702508
O O11 0.235898 0.919967 0.647213
O O12 0.647357 0.974882 0.572948
O O13 0.435013 0.396684 0.805892
O O14 0.636663 0.117829 0.636751
O O15 0.413633 0.519290 0.689010
O O16 0.500000 0.564948 0.500000
#
# Coordination Sequence:
#
# PCOD9120901 Si02
#       8
#     4   4   4   4   4   4   4   2
#     4  11  27  46  66  93 138 182 211 267 350 409
#     4  10  21  40  68  95 121 167 224 279 327 384
#     4  10  19  32  63  96 126 164 225 281 318 374
#     4  10  23  40  66  92 129 180 216 271 335 404
#     4  11  23  43  67  93 135 174 218 271 340 395
#     4  10  18  36  62  92 128 159 221 272 332 369
#     4  11  19  31  60  98 125 168 221 276 316 378
#     4  10  24  46  66 100 128 170 218 280 332 404
#
# _framework density 22.29176
#
# number of rings (size 3 to 8) (size 9 to 14) (size 15 to 20)
#    0.000    1.600    5.333    1.600    3.733    2.133 
#    2.400    0.667    2.933    0.000    0.000    0.000 
#    0.000    0.000    0.000    0.000    0.000    0.000 
#
# Total GULP energy -83678.956147 kJ/mol
# GULP energy per Si atom -5578.597076 kJ/mol
# Density = 2.224102 g / cm^3
# Si number density = 22.291760 Si / 1000 Ang^3
#
#
#
# Elastic Constant Matrix: (Units=GPa)
#
#
# Indices 1 2 3 4 5 6 
#
# 1 101.7586 25.4692 11.9460 0.0000 -23.9302 0.0000
# 2 25.4692 93.8650 13.3140 0.0000 -23.3362 0.0000
# 3 11.9460 13.3140 66.5672 0.0000 -18.6877 0.0000
# 4 0.0000 0.0000 0.0000 13.7239 0.0000 -4.8226
# 5 -23.9302 -23.3362 -18.6877 0.0000 47.7246 0.0000
# 6 0.0000 0.0000 0.0000 -4.8226 0.0000 22.3547
#
#
#
# Elastic Compliance Matrix: (Units=1/GPa)
#
#
# Indices 1 2 3 4 5 6 
#
# 1 0.011442 -0.001892 -0.000364 0.000000 0.004669 0.000000
# 2 -0.001892 0.012484 -0.000798 0.000000 0.004843 0.000000
# 3 -0.000364 -0.000798 0.016950 0.000000 0.006065 0.000000
# 4 0.000000 0.000000 0.000000 0.078843 0.000000 0.017009
# 5 0.004669 0.004843 0.006065 0.000000 0.028038 0.000000
# 6 0.000000 0.000000 0.000000 0.017009 0.000000 0.048403
#
#
# Mechanical properties :
#
#
# Convention : Reuss Voigt Hill
#
# Bulk Modulus (GPa) = 28.76190 40.40544 34.58367
# Shear Modulus (GPa) = 23.38020 30.85806 27.11913
#
# Velocity S-wave (km/s) = 3.24207 3.72463 3.49170
# Velocity P-wave (km/s) = 5.19088 6.05493 5.63948
#
# Compressibility (1/GPa) = 0.03476822
#
# Stress axis : x y z
#
# Youngs Moduli (GPa) = 87.40075 80.10075 58.99771
#
# Poissons Ratio (x) = 0.15155 0.02148
# Poissons Ratio (y) = 0.16536 0.04706
# Poissons Ratio (z) = 0.03181 0.06390
#
# Static dielectric constant tensor:
#      x y z
#    x 1.923640 0.000000 0.018160 
#    y 0.000000 1.819940 0.000000 
#    z 0.018160 0.000000 1.877180 
# 
# From -- ./inp_files/49212.got.cif
#   From: 2010.05.17/outbox.cif.g08.bks.cpg/sg5_25_cif.got.tgz:49212.got - 2010.06.03 18:56:24.
