data_PCOD9120317
_publ_section_title
;
Structure prediction by ZEFSAII (Michael W. Deem and Ramdas Pophale) SiO2 
 PCOD9120317
Probable space group: C 2
;
_chemical_formula_sum "Si O2"
_cell_formula_units_Z 32
_cell_length_a 20.283397
_cell_length_b 14.666850
_cell_length_c 15.448237
_cell_angle_alpha 90.000000
_cell_angle_beta 161.901413
_cell_angle_gamma 90.000000
_cell_volume 1427.683699
_symmetry_space_group_name_H-M "C 2"
_symmetry_group_IT_number 5
_symmetry_cell_setting 'monoclinic'
loop_
_space_group_symop_operation_xyz
x,y,z
-x,y,-z
1/2+x,1/2+y,z
1/2-x,1/2+y,-z
loop_
_atom_site_type_symbol
_atom_site_label
_atom_site_fract_x
_atom_site_fract_y
_atom_site_fract_z
Si Si1 0.584974 0.841140 0.320965
Si Si2 0.752203 0.749870 0.796112
Si Si3 0.165489 0.963343 0.486575
Si Si4 0.145320 0.659690 0.900736
Si Si5 0.151838 0.161379 0.493772
Si Si6 0.580194 0.987340 0.458234
Si Si7 0.919332 0.830607 0.302139
Si Si8 0.182114 0.953693 0.086750
O O1 0.671812 0.887977 0.343636
O O2 0.659047 0.737359 0.427672
O O3 0.648012 0.904451 0.481611
O O4 0.331561 0.846167 0.005688
O O5 0.500000 0.760615 0.500000
O O6 0.754836 0.708481 0.705231
O O7 0.850830 0.849500 0.926838
O O8 0.850298 0.687826 0.993648
O O9 0.033164 0.917147 0.399143
O O10 0.255785 0.062532 0.617423
O O11 0.012751 0.983575 0.214008
O O12 0.005857 0.571653 0.704541
O O13 0.060424 0.743595 0.736371
O O14 0.396346 0.645813 0.190530
O O15 0.381297 0.955911 0.269266
O O16 0.758043 0.008953 0.752376
O O17 0.000000 0.813827 0.500000
#
# Coordination Sequence:
#
# PCOD9120317 Si02
#       8
#     4   4   4   4   4   4   4   4
#     4  11  24  44  68  98 138 176 226 283 339 402
#     4  10  17  35  65  96 134 172 227 279 331 392
#     4  12  25  43  70  98 140 176 231 282 340 405
#     4  10  20  36  68 103 132 179 228 277 340 407
#     4  10  21  40  64 101 135 176 224 289 332 404
#     4  11  20  36  66  99 136 173 225 277 336 396
#     4  11  25  44  67  95 135 185 226 274 346 409
#     4  11  19  38  67  98 132 178 227 278 328 402
#
# _framework density 22.413927999999999
#
# number of rings (size 3 to 8) (size 9 to 14) (size 15 to 20)
#    0.000    1.250    6.250    0.750    1.750    4.500 
#    0.000    0.000    0.000    3.000    0.000    0.000 
#    0.000    0.000    0.000    0.000    0.000    0.000 
#
# Total GULP energy -89508.522107 kJ/mol
# GULP energy per Si atom -5594.282632 kJ/mol
# Density = 2.236291 g / cm^3
# Si number density = 22.413928 Si / 1000 Ang^3
#
#
#
# Elastic Constant Matrix: (Units=GPa)
#
#
# Indices 1 2 3 4 5 6 
#
# 1 56.3830 38.5845 30.6814 -0.0009 -5.4873 -0.0008
# 2 38.5845 138.1219 26.4013 -0.0008 -11.7776 -0.0008
# 3 30.6814 26.4013 37.5414 -0.0003 -14.4397 -0.0002
# 4 -0.0009 -0.0008 -0.0003 30.1146 -0.0009 -8.9794
# 5 -5.4873 -11.7776 -14.4397 -0.0009 43.7098 -0.0009
# 6 -0.0008 -0.0008 -0.0002 -8.9794 -0.0009 27.7584
#
#
#
# Elastic Compliance Matrix: (Units=1/GPa)
#
#
# Indices 1 2 3 4 5 6 
#
# 1 0.036016 -0.005207 -0.028150 0.000001 -0.006181 0.000001
# 2 -0.005207 0.009122 -0.001679 0.000000 0.001250 0.000000
# 3 -0.028150 -0.001679 0.056465 0.000000 0.014667 0.000000
# 4 0.000001 0.000000 0.000000 0.036751 0.000001 0.011888
# 5 -0.006181 0.001250 0.014667 0.000001 0.027284 0.000001
# 6 0.000001 0.000000 0.000000 0.011888 0.000001 0.039871
#
#
# Mechanical properties :
#
#
# Convention : Reuss Voigt Hill
#
# Bulk Modulus (GPa) = 31.71453 47.04229 39.37841
# Shear Modulus (GPa) = 17.47686 29.40850 23.44268
#
# Velocity S-wave (km/s) = 2.79540 3.62617 3.23754
# Velocity P-wave (km/s) = 4.95976 6.21013 5.61983
#
# Compressibility (1/GPa) = 0.03153128
#
# Stress axis : x y z
#
# Youngs Moduli (GPa) = 27.76546 109.62380 17.70996
#
# Poissons Ratio (x) = 0.57086 0.49854
# Poissons Ratio (y) = 0.14459 0.02973
# Poissons Ratio (z) = 0.78160 0.18402
#
# Static dielectric constant tensor:
#      x y z
#    x 1.852340 0.000000 0.040260 
#    y 0.000000 1.802610 0.000000 
#    z 0.040260 0.000000 1.852780 
# 
# From -- ./inp_files/57198.got.cif
#   From: 2010.05.17/outbox.cif.g08.bks.cpg/sg5_29_cif.got.tgz:57198.got - 2010.06.03 18:56:24.
