data_PCOD9120747
_publ_section_title
;
Structure prediction by ZEFSAII (Michael W. Deem and Ramdas Pophale) SiO2 
 PCOD9120747
Probable space group: C 2
;
_chemical_formula_sum "Si O2"
_cell_formula_units_Z 20
_cell_length_a 11.756198
_cell_length_b 14.731059
_cell_length_c 8.380624
_cell_angle_alpha 90.000000
_cell_angle_beta 46.325783
_cell_angle_gamma 90.000000
_cell_volume 1049.741710
_symmetry_space_group_name_H-M "C 2"
_symmetry_group_IT_number 5
_symmetry_cell_setting 'monoclinic'
loop_
_space_group_symop_operation_xyz
x,y,z
-x,y,-z
1/2+x,1/2+y,z
1/2-x,1/2+y,-z
loop_
_atom_site_type_symbol
_atom_site_label
_atom_site_fract_x
_atom_site_fract_y
_atom_site_fract_z
Si Si1 0.694720 0.843270 0.596369
Si Si2 0.177413 0.721055 0.265242
Si Si3 0.500000 0.899613 0.500000
Si Si4 0.538243 0.395970 0.276386
Si Si5 0.786270 0.531821 0.919123
Si Si6 0.000000 0.483662 0.000000
O O1 0.721077 0.756409 0.683593
O O2 0.582389 0.838746 0.554245
O O3 0.618943 0.919932 0.784501
O O4 0.868809 0.872022 0.369491
O O5 0.152044 0.807496 0.172499
O O6 0.240124 0.631266 0.124151
O O7 0.000000 0.701545 0.500000
O O8 0.377413 0.967072 0.705759
O O9 0.500000 0.413372 0.500000
O O10 0.627110 0.479915 0.116534
O O11 0.897119 0.536976 0.969441
#
# Coordination Sequence:
#
# PCOD9120747 Si02
#       6
#     4   4   2   4   4   2
#     4   9  19  38  61  90 124 169 205 257 311 364
#     4   9  18  37  63  94 124 166 207 249 311 372
#     4  10  22  34  64  94 124 166 212 250 318 372
#     4   9  18  37  65  90 124 166 204 256 312 367
#     4  11  19  36  66  95 124 166 212 253 314 377
#     4  10  18  34  64  88 128 162 204 254 314 370
#
# _framework density 19.052305
#
# number of rings (size 3 to 8) (size 9 to 14) (size 15 to 20)
#    0.000    2.800    5.000    0.000    0.000    0.800 
#    0.000    6.000    2.200    0.000    2.600    0.000 
#    0.000    0.000    0.000    0.000    0.000    0.000 
#
# Total GULP energy -55770.788626 kJ/mol
# GULP energy per Si atom -5577.078863 kJ/mol
# Density = 1.900894 g / cm^3
# Si number density = 19.052305 Si / 1000 Ang^3
#
#
#
# Elastic Constant Matrix: (Units=GPa)
#
#
# Indices 1 2 3 4 5 6 
#
# 1 137.0362 72.7775 29.4375 0.0000 11.6527 0.0000
# 2 72.7775 142.8173 54.8680 0.0000 2.5404 0.0000
# 3 29.4375 54.8680 50.7654 0.0000 -1.3902 0.0000
# 4 0.0000 0.0000 0.0000 36.0854 0.0000 6.5824
# 5 11.6527 2.5404 -1.3902 0.0000 18.4042 0.0000
# 6 0.0000 0.0000 0.0000 6.5824 0.0000 19.7385
#
#
#
# Elastic Compliance Matrix: (Units=1/GPa)
#
#
# Indices 1 2 3 4 5 6 
#
# 1 0.010657 -0.004929 -0.001020 0.000000 -0.006144 0.000000
# 2 -0.004929 0.014383 -0.012682 0.000000 0.000178 0.000000
# 3 -0.001020 -0.012682 0.034133 0.000000 0.004975 0.000000
# 4 0.000000 0.000000 0.000000 0.029507 0.000000 -0.009840
# 5 -0.006144 0.000178 0.004975 0.000000 0.058577 0.000000
# 6 0.000000 0.000000 0.000000 -0.009840 0.000000 0.053944
#
#
# Mechanical properties :
#
#
# Convention : Reuss Voigt Hill
#
# Bulk Modulus (GPa) = 45.64148 71.64275 58.64212
# Shear Modulus (GPa) = 20.34450 26.41469 23.37960
#
# Velocity S-wave (km/s) = 3.27130 3.72752 3.50684
# Velocity P-wave (km/s) = 6.18680 7.49738 6.87340
#
# Compressibility (1/GPa) = 0.02190989
#
# Stress axis : x y z
#
# Youngs Moduli (GPa) = 93.83667 69.52692 29.29700
#
# Poissons Ratio (x) = 0.34272 0.02989
# Poissons Ratio (y) = 0.46255 0.37155
# Poissons Ratio (z) = 0.09573 0.88174
#
# Static dielectric constant tensor:
#      x y z
#    x 1.701510 0.000000 -0.007380 
#    y 0.000000 1.641930 0.000000 
#    z -0.007380 0.000000 1.676890 
# 
# From -- ./inp_files/19481.got.cif
#   From: 2010.05.17/outbox.cif.g08.bks.cpg/sg5_10_cif.got.tgz:19481.got - 2010.06.03 18:56:24.
