data_PCOD9120344
_publ_section_title
;
Structure prediction by ZEFSAII (Michael W. Deem and Ramdas Pophale) SiO2 
 PCOD9120344
Probable space group: C 2
;
_chemical_formula_sum "Si O2"
_cell_formula_units_Z 26
_cell_length_a 9.852968
_cell_length_b 13.053395
_cell_length_c 6.985918
_cell_angle_alpha 90.000000
_cell_angle_beta 75.890046
_cell_angle_gamma 90.000000
_cell_volume 871.383848
_symmetry_space_group_name_H-M "C 2"
_symmetry_group_IT_number 5
_symmetry_cell_setting 'monoclinic'
loop_
_space_group_symop_operation_xyz
x,y,z
-x,y,-z
1/2+x,1/2+y,z
1/2-x,1/2+y,-z
loop_
_atom_site_type_symbol
_atom_site_label
_atom_site_fract_x
_atom_site_fract_y
_atom_site_fract_z
Si Si1 0.253326 0.214320 0.662351
Si Si2 0.552793 0.702438 0.191806
Si Si3 0.154902 0.702341 0.917786
Si Si4 0.128871 0.444343 0.129207
Si Si5 0.500000 0.074357 0.500000
Si Si6 0.799102 0.948667 0.706126
Si Si7 0.890088 0.925876 0.271478
O O1 0.369622 0.148831 0.516755
O O2 0.275642 0.333815 0.625698
O O3 0.094504 0.195205 0.653046
O O4 0.292791 0.210387 0.877524
O O5 0.698918 0.652164 0.209364
O O6 0.591769 0.823942 0.163894
O O7 0.500000 0.667116 0.000000
O O8 0.125015 0.805864 0.802355
O O9 0.000000 0.655848 0.000000
O O10 0.279514 0.474064 0.165322
O O11 0.029300 0.504281 0.308259
O O12 0.834180 0.462291 0.106463
O O13 0.840220 0.986206 0.481664
O O14 0.943958 0.943383 0.777038
#
# Coordination Sequence:
#
# PCOD9120344 Si02
#       7
#     4   4   4   4   2   4   4
#     4  11  22  43  68 103 150 202 245 316 382 457
#     4   9  18  38  72 104 133 195 263 301 355 461
#     4  10  17  36  67 109 143 186 253 317 360 446
#     4  11  23  44  68 110 148 197 252 319 375 457
#     4  12  30  44  66 116 164 202 240 334 414 432
#     4  11  20  38  80 104 145 195 267 302 370 466
#     4  10  19  36  69 113 134 187 256 323 356 449
#
# _framework density 29.837596000000001
#
# number of rings (size 3 to 8) (size 9 to 14) (size 15 to 20)
#    0.000    1.538    6.154    1.385    2.154    0.000 
#    0.000    6.923    0.000    1.846    0.000    0.000 
#    0.000    0.000    0.000    0.000    0.000    0.000 
#
# Total GULP energy -72577.243996 kJ/mol
# GULP energy per Si atom -5582.864923 kJ/mol
# Density = 2.976968 g / cm^3
# Si number density = 29.837596 Si / 1000 Ang^3
#
#
#
# Elastic Constant Matrix: (Units=GPa)
#
#
# Indices 1 2 3 4 5 6 
#
# 1 244.3182 59.2244 75.7110 0.0000 -15.9029 0.0000
# 2 59.2244 98.2324 68.7983 0.0000 -26.2901 0.0000
# 3 75.7110 68.7983 139.8780 0.0000 -18.9040 0.0000
# 4 0.0000 0.0000 0.0000 57.1149 0.0000 -19.8199
# 5 -15.9029 -26.2901 -18.9040 0.0000 66.6231 0.0000
# 6 0.0000 0.0000 0.0000 -19.8199 0.0000 57.7474
#
#
#
# Elastic Compliance Matrix: (Units=1/GPa)
#
#
# Indices 1 2 3 4 5 6 
#
# 1 0.005106 -0.001746 -0.001906 0.000000 -0.000011 0.000000
# 2 -0.001746 0.017295 -0.006962 0.000000 0.004432 0.000000
# 3 -0.001906 -0.006962 0.011618 0.000000 0.000094 0.000000
# 4 0.000000 0.000000 0.000000 0.019876 0.000000 0.006822
# 5 -0.000011 0.004432 0.000094 0.000000 0.016783 0.000000
# 6 0.000000 0.000000 0.000000 0.006822 0.000000 0.019658
#
#
# Mechanical properties :
#
#
# Convention : Reuss Voigt Hill
#
# Bulk Modulus (GPa) = 78.18979 98.87735 88.53357
# Shear Modulus (GPa) = 43.16666 54.87674 49.02170
#
# Velocity S-wave (km/s) = 3.80770 4.29322 4.05773
# Velocity P-wave (km/s) = 6.75230 7.60172 7.18956
#
# Compressibility (1/GPa) = 0.01278939
#
# Stress axis : x y z
#
# Youngs Moduli (GPa) = 195.83139 57.81933 86.07295
#
# Poissons Ratio (x) = 0.10098 0.16409
# Poissons Ratio (y) = 0.34201 0.59926
# Poissons Ratio (z) = 0.37334 0.40255
#
# Static dielectric constant tensor:
#      x y z
#    x 2.337250 0.000000 -0.088800 
#    y 0.000000 2.534420 0.000000 
#    z -0.088800 0.000000 2.501580 
# 
# From -- ./inp_files/16069.got.cif
#   From: 2010.05.17/outbox.cif.g08.bks.cpg/sg5_9_cif.got.tgz:16069.got - 2010.06.03 18:56:24.
