data_PCOD9120457
_publ_section_title
;
Structure prediction by ZEFSAII (Michael W. Deem and Ramdas Pophale) SiO2 
 PCOD9120457
Probable space group: C 2
;
_chemical_formula_sum "Si O2"
_cell_formula_units_Z 30
_cell_length_a 11.098299
_cell_length_b 8.381324
_cell_length_c 14.689525
_cell_angle_alpha 90.000000
_cell_angle_beta 119.795664
_cell_angle_gamma 90.000000
_cell_volume 1185.763235
_symmetry_space_group_name_H-M "C 2"
_symmetry_group_IT_number 5
_symmetry_cell_setting 'monoclinic'
loop_
_space_group_symop_operation_xyz
x,y,z
-x,y,-z
1/2+x,1/2+y,z
1/2-x,1/2+y,-z
loop_
_atom_site_type_symbol
_atom_site_label
_atom_site_fract_x
_atom_site_fract_y
_atom_site_fract_z
Si Si1 0.330029 0.582450 0.432584
Si Si2 0.114428 0.402095 0.622040
Si Si3 0.828711 0.710611 0.443131
Si Si4 0.117972 0.633822 0.119573
Si Si5 0.947518 0.567194 0.226128
Si Si6 0.315649 0.423269 0.967397
Si Si7 0.000000 0.193867 0.000000
Si Si8 0.774204 0.845520 0.148751
O O1 0.500000 0.568336 0.500000
O O2 0.315508 0.729296 0.355094
O O3 0.244365 0.656033 0.488077
O O4 0.286467 0.394854 0.404634
O O5 0.209561 0.556834 0.634681
O O6 0.036929 0.446832 0.685594
O O7 0.000000 0.394780 0.500000
O O8 0.000000 0.713103 0.500000
O O9 0.136158 0.817317 0.099462
O O10 0.257353 0.532042 0.157229
O O11 0.068132 0.600798 0.201884
O O12 0.000000 0.582024 0.000000
O O13 0.829687 0.490778 0.118572
O O14 0.886866 0.736935 0.239901
O O15 0.412797 0.571181 0.027374
O O16 0.305819 0.321112 0.053920
O O17 0.116304 0.283409 0.101967
#
# Coordination Sequence:
#
# PCOD9120457 Si02
#       8
#     4   4   4   4   4   4   2   4
#     4  10  20  39  69  98 126 174 230 284 354 411
#     4  10  23  47  67  92 140 184 227 297 342 403
#     4  10  20  39  69  98 126 174 230 284 354 411
#     4  12  20  38  64  91 125 170 210 268 338 403
#     4  11  24  42  60  94 132 169 228 264 336 412
#     4  11  20  36  61  89 124 164 208 267 326 395
#     4  10  18  30  56  82 114 160 194 244 322 368
#     4  11  20  36  61  89 124 164 208 267 326 395
#
# _framework density 25.300159000000001
#
# number of rings (size 3 to 8) (size 9 to 14) (size 15 to 20)
#    0.000    1.333    5.333    0.800    0.000    0.000 
#   12.000    0.000    0.000    0.000    0.000    0.000 
#    0.000    0.000    0.000    0.000    0.000    0.000 
#
# Total GULP energy -83673.030418 kJ/mol
# GULP energy per Si atom -5578.202028 kJ/mol
# Density = 2.524258 g / cm^3
# Si number density = 25.300159 Si / 1000 Ang^3
#
#
#
# Elastic Constant Matrix: (Units=GPa)
#
#
# Indices 1 2 3 4 5 6 
#
# 1 129.6148 32.2136 35.8638 0.0000 -18.4129 0.0000
# 2 32.2136 179.8225 19.6313 0.0000 -9.9600 0.0000
# 3 35.8638 19.6313 61.9472 0.0000 -11.1839 0.0000
# 4 0.0000 0.0000 0.0000 15.5850 0.0000 -10.4477
# 5 -18.4129 -9.9600 -11.1839 0.0000 27.8372 0.0000
# 6 0.0000 0.0000 0.0000 -10.4477 0.0000 47.6820
#
#
#
# Elastic Compliance Matrix: (Units=1/GPa)
#
#
# Indices 1 2 3 4 5 6 
#
# 1 0.009855 -0.001024 -0.004604 0.000000 0.004302 0.000000
# 2 -0.001024 0.005920 -0.001103 0.000000 0.000997 0.000000
# 3 -0.004604 -0.001103 0.019986 0.000000 0.004590 0.000000
# 4 0.000000 0.000000 0.000000 0.075212 0.000000 0.016480
# 5 0.004302 0.000997 0.004590 0.000000 0.040970 0.000000
# 6 0.000000 0.000000 0.000000 0.016480 0.000000 0.024583
#
#
# Mechanical properties :
#
#
# Convention : Reuss Voigt Hill
#
# Bulk Modulus (GPa) = 44.84583 60.75576 52.80080
# Shear Modulus (GPa) = 25.32646 37.13256 31.22951
#
# Velocity S-wave (km/s) = 3.16735 3.83519 3.51716
# Velocity P-wave (km/s) = 5.58034 6.60891 6.11628
#
# Compressibility (1/GPa) = 0.02229862
#
# Stress axis : x y z
#
# Youngs Moduli (GPa) = 101.47268 168.91254 50.03405
#
# Poissons Ratio (x) = 0.17305 0.23036
# Poissons Ratio (y) = 0.10396 0.05518
# Poissons Ratio (z) = 0.46718 0.18630
#
# Static dielectric constant tensor:
#      x y z
#    x 2.101570 0.000000 0.110270 
#    y 0.000000 2.064460 0.000000 
#    z 0.110270 0.000000 2.115060 
# 
# From -- ./inp_files/52485.got.cif
#   From: 2010.05.17/outbox.cif.g08.bks.cpg/sg5_27_cif.got.tgz:52485.got - 2010.06.03 18:56:24.
