data_PCOD9120557
_publ_section_title
;
Structure prediction by ZEFSAII (Michael W. Deem and Ramdas Pophale) SiO2 
 PCOD9120557
Probable space group: C 2
;
_chemical_formula_sum "Si O2"
_cell_formula_units_Z 28
_cell_length_a 12.588470
_cell_length_b 19.844627
_cell_length_c 7.004553
_cell_angle_alpha 90.000000
_cell_angle_beta 127.336279
_cell_angle_gamma 90.000000
_cell_volume 1391.273129
_symmetry_space_group_name_H-M "C 2"
_symmetry_group_IT_number 5
_symmetry_cell_setting 'monoclinic'
loop_
_space_group_symop_operation_xyz
x,y,z
-x,y,-z
1/2+x,1/2+y,z
1/2-x,1/2+y,-z
loop_
_atom_site_type_symbol
_atom_site_label
_atom_site_fract_x
_atom_site_fract_y
_atom_site_fract_z
Si Si1 0.000000 0.324790 0.500000
Si Si2 0.300069 0.587134 0.626646
Si Si3 0.000672 0.565348 0.271529
Si Si4 0.275521 0.616227 0.051063
Si Si5 0.515881 0.708273 0.246313
Si Si6 0.000000 0.979897 0.000000
Si Si7 0.627656 0.465793 0.764676
Si Si8 0.093539 0.414764 0.933509
O O1 0.124396 0.179376 0.820097
O O2 0.061199 0.273952 0.409716
O O3 0.154604 0.575318 0.381189
O O4 0.378493 0.648003 0.616233
O O5 0.279428 0.605919 0.825946
O O6 0.402105 0.524923 0.758935
O O7 0.000000 0.568916 0.500000
O O8 0.958658 0.489938 0.170251
O O9 0.882664 0.615511 0.072844
O O10 0.336758 0.546036 0.198722
O O11 0.412180 0.872433 0.268054
O O12 0.500000 0.719215 0.000000
O O13 0.905047 0.945728 0.051336
O O14 0.500000 0.452016 0.500000
O O15 0.755589 0.424828 0.834754
O O16 0.000000 0.387081 0.000000
#
# Coordination Sequence:
#
# PCOD9120557 Si02
#       8
#     2   4   4   4   4   2   4   4
#     4  12  26  40  62  82 122 172 208 244 280 372
#     4   9  15  30  57  90 122 152 185 252 310 356
#     4   9  17  33  60  88 125 154 185 252 322 355
#     4   8  16  31  53  92 122 146 190 245 315 360
#     4  10  19  37  59  85 116 155 206 245 293 362
#     4  10  18  32  58  96 130 148 186 242 324 372
#     4  10  21  35  61  91 123 158 195 257 311 363
#     4  11  25  41  58  89 122 164 212 246 296 360
#
# _framework density 20.125454000000001
#
# number of rings (size 3 to 8) (size 9 to 14) (size 15 to 20)
#    0.000    2.286    4.286    1.286    3.000    0.000 
#    2.571    0.000    0.000    9.429    0.000    0.000 
#    0.000    0.000    0.000    0.000    0.000    0.000 
#
# Total GULP energy -78044.530357 kJ/mol
# GULP energy per Si atom -5574.609311 kJ/mol
# Density = 2.007965 g / cm^3
# Si number density = 20.125454 Si / 1000 Ang^3
#
#
#
# Elastic Constant Matrix: (Units=GPa)
#
#
# Indices 1 2 3 4 5 6 
#
# 1 96.0865 24.1136 61.9772 0.0000 9.0111 0.0000
# 2 24.1136 57.4487 39.0701 0.0000 7.8369 0.0000
# 3 61.9772 39.0701 120.3025 0.0000 23.1204 0.0000
# 4 0.0000 0.0000 0.0000 4.0686 0.0000 -7.3106
# 5 9.0111 7.8369 23.1204 0.0000 46.4500 0.0000
# 6 0.0000 0.0000 0.0000 -7.3106 0.0000 8.8776
#
#
#
# Elastic Compliance Matrix: (Units=1/GPa)
#
#
# Indices 1 2 3 4 5 6 
#
# 1 0.015724 -0.001408 -0.007854 0.000000 0.001097 0.000000
# 2 -0.001408 0.022469 -0.006519 0.000000 -0.000273 0.000000
# 3 -0.007854 -0.006519 0.015449 0.000000 -0.005066 0.000000
# 4 0.000000 0.000000 0.000000 -0.512398 0.000000 -0.421954
# 5 0.001097 -0.000273 -0.005066 0.000000 0.023884 0.000000
# 6 0.000000 0.000000 0.000000 -0.421954 0.000000 -0.234831
#
#
# Mechanical properties :
#
#
# Convention : Reuss Voigt Hill
#
# Bulk Modulus (GPa) = 45.29117 58.23994 51.76556
# Shear Modulus (GPa) = -7.92667 21.79103 6.93218
#
# Velocity S-wave (km/s) = -1.98675 3.29410 1.85795
# Velocity P-wave (km/s) = 4.15817 6.59313 5.51180
#
# Compressibility (1/GPa) = 0.02207936
#
# Stress axis : x y z
#
# Youngs Moduli (GPa) = 63.59797 44.50636 64.72709
#
# Poissons Ratio (x) = 0.06267 0.50837
# Poissons Ratio (y) = 0.08955 0.42197
# Poissons Ratio (z) = 0.49950 0.29015
#
# Static dielectric constant tensor:
#      x y z
#    x 1.800580 0.000000 -0.014670 
#    y 0.000000 1.689640 0.000000 
#    z -0.014670 0.000000 1.748750 
# 
# From -- ./inp_files/25259.got.cif
#   From: 2010.05.17/outbox.cif.g08.bks.cpg/sg5_13_cif.got.tgz:25259.got - 2010.06.03 18:56:24.
