data_PCOD9120924
_publ_section_title
;
Structure prediction by ZEFSAII (Michael W. Deem and Ramdas Pophale) SiO2 
 PCOD9120924
Probable space group: C 2
;
_chemical_formula_sum "Si O2"
_cell_formula_units_Z 24
_cell_length_a 13.752620
_cell_length_b 17.396216
_cell_length_c 9.249231
_cell_angle_alpha 90.000000
_cell_angle_beta 151.304371
_cell_angle_gamma 90.000000
_cell_volume 1062.499527
_symmetry_space_group_name_H-M "C 2"
_symmetry_group_IT_number 5
_symmetry_cell_setting 'monoclinic'
loop_
_space_group_symop_operation_xyz
x,y,z
-x,y,-z
1/2+x,1/2+y,z
1/2-x,1/2+y,-z
loop_
_atom_site_type_symbol
_atom_site_label
_atom_site_fract_x
_atom_site_fract_y
_atom_site_fract_z
Si Si1 0.806352 0.994800 0.849840
Si Si2 0.128931 0.766209 0.314065
Si Si3 0.565131 0.422351 0.418893
Si Si4 0.259738 0.666707 0.731549
Si Si5 0.500000 0.920247 0.000000
Si Si6 0.905724 0.292336 0.116033
Si Si7 0.500000 0.873889 0.500000
O O1 0.642090 0.930785 0.594593
O O2 0.720379 0.080029 0.725658
O O3 0.000000 0.987977 0.000000
O O4 0.892629 0.974224 0.120175
O O5 0.091209 0.844252 0.357859
O O6 0.123022 0.696579 0.421585
O O7 0.363652 0.763783 0.570919
O O8 0.000000 0.763059 0.000000
O O9 0.500000 0.407954 0.500000
O O10 0.787955 0.462396 0.693983
O O11 0.500000 0.669352 0.000000
O O12 0.258421 0.728913 0.858582
O O13 0.572185 0.862328 0.967490
O O14 0.859491 0.323619 0.213685
#
# Coordination Sequence:
#
# PCOD9120924 Si02
#       7
#     4   4   4   4   2   4   2
#     4  11  24  42  64  90 134 177 207 265 330 384
#     4  10  19  37  67  98 122 165 228 267 314 385
#     4  11  21  36  63 101 129 166 214 270 322 383
#     4   9  19  41  67  85 130 175 205 265 335 373
#     4  10  18  36  64  90 124 162 220 266 310 372
#     4  10  18  38  64  91 123 169 212 263 319 377
#     4  12  24  38  66  98 126 168 224 258 314 390
#
# _framework density 22.588246999999999
#
# number of rings (size 3 to 8) (size 9 to 14) (size 15 to 20)
#    0.000    1.667    4.167    4.500    0.000    0.000 
#    3.000    0.000   36.667    0.000    0.000    0.000 
#    0.000    0.000    0.000    0.000    0.000    0.000 
#
# Total GULP energy -67049.593382 kJ/mol
# GULP energy per Si atom -5587.466115 kJ/mol
# Density = 2.253684 g / cm^3
# Si number density = 22.588247 Si / 1000 Ang^3
#
#
#
# Elastic Constant Matrix: (Units=GPa)
#
#
# Indices 1 2 3 4 5 6 
#
# 1 97.7617 35.2954 40.0481 0.0000 -9.5054 0.0000
# 2 35.2954 99.8195 37.8008 0.0000 -32.0026 0.0000
# 3 40.0481 37.8008 133.5619 0.0000 -23.7086 0.0000
# 4 0.0000 0.0000 0.0000 18.9177 0.0000 -6.4853
# 5 -9.5054 -32.0026 -23.7086 0.0000 54.9751 0.0000
# 6 0.0000 0.0000 0.0000 -6.4853 0.0000 14.0655
#
#
#
# Elastic Compliance Matrix: (Units=1/GPa)
#
#
# Indices 1 2 3 4 5 6 
#
# 1 0.012680 -0.003773 -0.002962 0.000000 -0.001281 0.000000
# 2 -0.003773 0.014191 -0.001662 0.000000 0.006892 0.000000
# 3 -0.002962 -0.001662 0.009294 0.000000 0.002529 0.000000
# 4 0.000000 0.000000 0.000000 0.062784 0.000000 0.028948
# 5 -0.001281 0.006892 0.002529 0.000000 0.023071 0.000000
# 6 0.000000 0.000000 0.000000 0.028948 0.000000 0.084443
#
#
# Mechanical properties :
#
#
# Convention : Reuss Voigt Hill
#
# Bulk Modulus (GPa) = 51.61787 61.93686 56.77737
# Shear Modulus (GPa) = 21.76626 32.12493 26.94559
#
# Velocity S-wave (km/s) = 3.10757 3.77529 3.45759
# Velocity P-wave (km/s) = 5.98141 6.81786 6.41329
#
# Compressibility (1/GPa) = 0.01937313
#
# Stress axis : x y z
#
# Youngs Moduli (GPa) = 78.86644 70.46754 107.59156
#
# Poissons Ratio (x) = 0.26584 0.31865
# Poissons Ratio (y) = 0.29753 0.17879
# Poissons Ratio (z) = 0.23357 0.11710
#
# Static dielectric constant tensor:
#      x y z
#    x 1.917620 0.000000 0.029860 
#    y 0.000000 1.834100 0.000000 
#    z 0.029860 0.000000 1.903000 
# 
# From -- ./inp_files/16899.got.cif
#   From: 2010.05.17/outbox.cif.g08.bks.cpg/sg5_9_cif.got.tgz:16899.got - 2010.06.03 18:56:24.
