data_PCOD9120253
_publ_section_title
;
Structure prediction by ZEFSAII (Michael W. Deem and Ramdas Pophale) SiO2 
 PCOD9120253
Probable space group: C 2
;
_chemical_formula_sum "Si O2"
_cell_formula_units_Z 28
_cell_length_a 17.366238
_cell_length_b 6.867565
_cell_length_c 24.990519
_cell_angle_alpha 90.000000
_cell_angle_beta 159.462993
_cell_angle_gamma 90.000000
_cell_volume 1045.583241
_symmetry_space_group_name_H-M "C 2"
_symmetry_group_IT_number 5
_symmetry_cell_setting 'monoclinic'
loop_
_space_group_symop_operation_xyz
x,y,z
-x,y,-z
1/2+x,1/2+y,z
1/2-x,1/2+y,-z
loop_
_atom_site_type_symbol
_atom_site_label
_atom_site_fract_x
_atom_site_fract_y
_atom_site_fract_z
Si Si1 0.218449 0.372000 0.110102
Si Si2 0.158050 0.051683 0.238949
Si Si3 0.904286 0.628252 0.626870
Si Si4 0.954540 0.501623 0.858916
Si Si5 0.807944 0.518077 0.099205
Si Si6 0.361395 0.105315 0.480415
Si Si7 0.021362 0.064653 0.452234
O O1 0.432096 0.309259 0.281091
O O2 0.271352 0.240685 0.092710
O O3 0.000000 0.306507 0.000000
O O4 0.130203 0.554846 0.019881
O O5 0.124048 0.274858 0.198032
O O6 0.184502 0.045212 0.320488
O O7 0.401331 0.005957 0.375941
O O8 0.937363 0.944482 0.074890
O O9 0.807316 0.572340 0.506866
O O10 0.709304 0.669764 0.541009
O O11 0.054887 0.466668 0.757182
O O12 0.725689 0.593990 0.728771
O O13 0.048840 0.528766 0.860999
O O14 0.402161 0.337160 0.497323
O O15 0.000000 0.123058 0.500000
#
# Coordination Sequence:
#
# PCOD9120253 Si02
#       7
#     4   4   4   4   4   4   4
#     4   9  18  33  53  80 104 130 178 228 257 300
#     4   9  17  32  54  75 102 141 176 219 266 317
#     4  10  20  30  52  87 106 133 179 230 262 307
#     4  10  17  33  55  78 100 142 183 212 260 322
#     4   9  18  29  50  81 101 136 179 223 258 314
#     4  10  18  33  54  77 107 135 177 225 265 316
#     4  11  17  33  57  77 104 144 180 211 265 329
#
# _framework density 26.779309999999999
#
# number of rings (size 3 to 8) (size 9 to 14) (size 15 to 20)
#    0.857    1.429    4.286    2.571    0.000    0.000 
#    5.143    0.000    0.000   10.286    0.000    0.000 
#    0.000    0.000    0.000    0.000    0.000    0.000 
#
# Total GULP energy -78000.788946 kJ/mol
# GULP energy per Si atom -5571.484925 kJ/mol
# Density = 2.671836 g / cm^3
# Si number density = 26.779310 Si / 1000 Ang^3
#
#
#
# Elastic Constant Matrix: (Units=GPa)
#
#
# Indices 1 2 3 4 5 6 
#
# 1 179.2928 18.6839 53.2497 -0.0141 4.5937 0.0033
# 2 18.6839 79.2929 21.3656 -0.0118 7.3910 0.0022
# 3 53.2497 21.3656 109.9618 -0.0821 8.6838 0.0243
# 4 -0.0141 -0.0118 -0.0821 24.1299 0.0189 -3.5707
# 5 4.5937 7.3910 8.6838 0.0189 52.5982 -0.0075
# 6 0.0033 0.0022 0.0243 -3.5707 -0.0075 26.2892
#
#
#
# Elastic Compliance Matrix: (Units=1/GPa)
#
#
# Indices 1 2 3 4 5 6 
#
# 1 0.006554 -0.000730 -0.003034 -0.000007 0.000031 0.000001
# 2 -0.000730 0.013501 -0.002153 0.000000 -0.001478 0.000001
# 3 -0.003034 -0.002153 0.011082 0.000035 -0.001262 -0.000005
# 4 -0.000007 0.000000 0.000035 0.042293 -0.000020 0.005744
# 5 0.000031 -0.001478 -0.001262 -0.000020 0.019425 0.000004
# 6 0.000001 0.000001 -0.000005 0.005744 0.000004 0.038819
#
#
# Mechanical properties :
#
#
# Convention : Reuss Voigt Hill
#
# Bulk Modulus (GPa) = 51.80761 61.68286 56.74524
# Shear Modulus (GPa) = 33.34620 38.95337 36.14978
#
# Velocity S-wave (km/s) = 3.53260 3.81807 3.67810
# Velocity P-wave (km/s) = 6.00226 6.52079 6.26689
#
# Compressibility (1/GPa) = 0.01930218
#
# Stress axis : x y z
#
# Youngs Moduli (GPa) = 152.57997 74.06666 90.23956
#
# Poissons Ratio (x) = 0.05404 0.27383
# Poissons Ratio (y) = 0.11132 0.19431
# Poissons Ratio (z) = 0.46300 0.15949
#
# Static dielectric constant tensor:
#      x y z
#    x 2.047790 0.000000 -0.164470 
#    y 0.000000 2.257310 -0.000010 
#    z -0.164470 -0.000010 2.613980 
# 
# From -- ./inp_files/70925.got.cif
#   From: 2010.05.17/outbox.cif.g08.bks.cpg/sg5_36_cif.got.tgz:70925.got - 2010.06.03 18:56:24.
