data_PCOD9120446
_publ_section_title
;
Structure prediction by ZEFSAII (Michael W. Deem and Ramdas Pophale) SiO2 
 PCOD9120446
Probable space group: C 2
;
_chemical_formula_sum "Si O2"
_cell_formula_units_Z 30
_cell_length_a 19.014036
_cell_length_b 8.186374
_cell_length_c 14.511697
_cell_angle_alpha 90.000000
_cell_angle_beta 33.694726
_cell_angle_gamma 90.000000
_cell_volume 1253.127833
_symmetry_space_group_name_H-M "C 2"
_symmetry_group_IT_number 5
_symmetry_cell_setting 'monoclinic'
loop_
_space_group_symop_operation_xyz
x,y,z
-x,y,-z
1/2+x,1/2+y,z
1/2-x,1/2+y,-z
loop_
_atom_site_type_symbol
_atom_site_label
_atom_site_fract_x
_atom_site_fract_y
_atom_site_fract_z
Si Si1 0.174170 0.243240 0.722457
Si Si2 0.442891 0.342320 0.390763
Si Si3 0.578449 0.925075 0.992791
Si Si4 0.929716 0.206650 0.478915
Si Si5 0.879117 0.322958 0.872296
Si Si6 0.135628 0.949621 0.038819
Si Si7 0.734932 0.431587 0.739793
Si Si8 0.500000 0.116168 0.500000
O O1 0.296547 0.297608 0.534378
O O2 0.037253 0.308119 0.844739
O O3 0.180816 0.050014 0.721339
O O4 0.178401 0.322509 0.821968
O O5 0.442824 0.523145 0.432131
O O6 0.523791 0.353802 0.210962
O O7 0.502276 0.224815 0.404399
O O8 0.633595 0.960059 0.032187
O O9 0.500000 0.026362 0.000000
O O10 0.784439 0.258732 0.651384
O O11 0.000000 0.218016 0.500000
O O12 0.996338 0.319371 0.328537
O O13 0.861269 0.139460 0.932627
O O14 0.764457 0.363544 0.930108
O O15 0.135577 0.932682 0.929760
O O16 0.867610 0.517233 0.631326
#
# Coordination Sequence:
#
# PCOD9120446 Si02
#       8
#     4   4   4   4   4   4   4   2
#     4   8  19  37  63  75 100 148 205 221 263 316
#     4  10  21  31  51  84 112 147 177 233 277 337
#     4   8  18  38  63  79 103 148 203 234 257 316
#     4  11  21  33  49  82 128 147 167 222 311 333
#     4  11  21  36  57  88 113 149 182 232 279 342
#     4  11  21  32  54  85 118 141 182 227 287 330
#     4  11  18  36  54  81 111 154 184 231 270 344
#     4  10  18  30  54  72 110 148 200 214 270 322
#
# _framework density 23.940094999999999
#
# number of rings (size 3 to 8) (size 9 to 14) (size 15 to 20)
#    0.800    1.067    4.000    0.800    1.867    1.067 
#    0.000    2.667    0.000    4.800    0.000    0.000 
#    0.000    0.000    0.000    0.000    0.000    0.000 
#
# Total GULP energy -83697.522206 kJ/mol
# GULP energy per Si atom -5579.834814 kJ/mol
# Density = 2.388561 g / cm^3
# Si number density = 23.940095 Si / 1000 Ang^3
#
#
#
# Elastic Constant Matrix: (Units=GPa)
#
#
# Indices 1 2 3 4 5 6 
#
# 1 12.4949 0.6336 3.1503 0.0000 1.1229 0.0000
# 2 0.6336 23.9565 24.0811 -0.0001 7.8430 0.0000
# 3 3.1503 24.0811 120.9469 0.0000 13.8861 0.0000
# 4 0.0000 -0.0001 0.0000 21.9400 0.0000 3.1841
# 5 1.1229 7.8430 13.8861 0.0000 32.6520 0.0000
# 6 0.0000 0.0000 0.0000 3.1841 0.0000 6.6628
#
#
#
# Elastic Compliance Matrix: (Units=1/GPa)
#
#
# Indices 1 2 3 4 5 6 
#
# 1 0.080688 0.000520 -0.001968 0.000000 -0.002063 0.000000
# 2 0.000520 0.054554 -0.009850 0.000000 -0.008933 -0.000001
# 3 -0.001968 -0.009850 0.010515 0.000000 -0.002038 0.000000
# 4 0.000000 0.000000 0.000000 0.048975 0.000000 -0.023405
# 5 -0.002063 -0.008933 -0.002038 0.000000 0.033709 0.000000
# 6 0.000000 -0.000001 0.000000 -0.023405 0.000000 0.161272
#
#
# Mechanical properties :
#
#
# Convention : Reuss Voigt Hill
#
# Bulk Modulus (GPa) = 8.11952 23.68093 15.90022
# Shear Modulus (GPa) = 11.02868 20.88652 15.95760
#
# Velocity S-wave (km/s) = 2.14867 2.95693 2.58459
# Velocity P-wave (km/s) = 3.09106 4.64447 3.94498
#
# Compressibility (1/GPa) = 0.12316003
#
# Stress axis : x y z
#
# Youngs Moduli (GPa) = 12.39341 18.33038 95.10666
#
# Poissons Ratio (x) = -0.00953 0.18721
# Poissons Ratio (y) = -0.00644 0.93680
# Poissons Ratio (z) = 0.02440 0.18055
#
# Static dielectric constant tensor:
#      x y z
#    x 1.971840 0.000000 0.006130 
#    y 0.000000 1.955730 0.000000 
#    z 0.006130 0.000000 1.891610 
# 
# From -- ./inp_files/57588.got.cif
#   From: 2010.05.17/outbox.cif.g08.bks.cpg/sg5_29_cif.got.tgz:57588.got - 2010.06.03 18:56:24.
