data_PCOD9120675
_publ_section_title
;
Structure prediction by ZEFSAII (Michael W. Deem and Ramdas Pophale) SiO2 
 PCOD9120675
Probable space group: C 2
;
_chemical_formula_sum "Si O2"
_cell_formula_units_Z 32
_cell_length_a 15.269345
_cell_length_b 12.116913
_cell_length_c 10.247968
_cell_angle_alpha 90.000000
_cell_angle_beta 129.923961
_cell_angle_gamma 90.000000
_cell_volume 1454.075984
_symmetry_space_group_name_H-M "C 2"
_symmetry_group_IT_number 5
_symmetry_cell_setting 'monoclinic'
loop_
_space_group_symop_operation_xyz
x,y,z
-x,y,-z
1/2+x,1/2+y,z
1/2-x,1/2+y,-z
loop_
_atom_site_type_symbol
_atom_site_label
_atom_site_fract_x
_atom_site_fract_y
_atom_site_fract_z
Si Si1 0.587873 0.216520 0.408439
Si Si2 0.774956 0.861350 0.256276
Si Si3 0.083355 0.990515 0.812812
Si Si4 0.376935 0.657514 0.953617
Si Si5 0.347118 0.543400 0.493692
Si Si6 0.921270 0.780906 0.044535
Si Si7 0.213343 0.520338 0.625336
Si Si8 0.236610 0.266422 0.667290
O O1 0.631612 0.288740 0.573041
O O2 0.464885 0.231672 0.223272
O O3 0.607068 0.092204 0.474576
O O4 0.673903 0.249637 0.369975
O O5 0.820619 0.924752 0.173254
O O6 0.673341 0.778872 0.122596
O O7 0.755783 0.964158 0.335500
O O8 0.060093 0.911589 0.914891
O O9 0.972171 0.992687 0.616555
O O10 0.104837 0.113765 0.882439
O O11 0.275787 0.575495 0.807748
O O12 0.500000 0.647455 0.000000
O O13 0.308179 0.544618 0.605285
O O14 0.346834 0.664155 0.432168
O O15 0.798164 0.758054 0.866711
O O16 0.000000 0.742221 0.000000
O O17 0.191985 0.390893 0.614969
#
# Coordination Sequence:
#
# PCOD9120675 Si02
#       8
#     4   4   4   4   4   4   4   4
#     4   9  19  33  57  88 126 166 212 267 329 382
#     4  11  24  39  60  97 132 166 216 277 332 388
#     4  12  22  37  64  93 124 175 215 265 323 406
#     4  11  23  42  69  97 127 173 227 276 324 387
#     4  11  21  36  60  94 129 170 216 263 329 394
#     4  10  18  34  57  89 122 165 219 265 312 379
#     4  10  18  35  61  93 123 168 220 279 317 375
#     4  10  19  33  60  89 124 159 218 282 309 376
#
# _framework density 22.007103000000001
#
# number of rings (size 3 to 8) (size 9 to 14) (size 15 to 20)
#    0.000    1.500    5.000    1.500    0.000    1.000 
#    0.000    4.375    0.000    1.500    3.250    0.000 
#    0.000    0.000    0.000    0.000    0.000    0.000 
#
# Total GULP energy -89216.505801 kJ/mol
# GULP energy per Si atom -5576.031613 kJ/mol
# Density = 2.195701 g / cm^3
# Si number density = 22.007103 Si / 1000 Ang^3
#
#
#
# Elastic Constant Matrix: (Units=GPa)
#
#
# Indices 1 2 3 4 5 6 
#
# 1 28.4859 -0.7345 21.3659 0.0000 -11.0084 0.0000
# 2 -0.7345 106.8193 35.1622 0.0000 15.5531 0.0000
# 3 21.3659 35.1622 94.9410 0.0000 -2.8524 0.0000
# 4 0.0000 0.0000 0.0000 40.6530 0.0000 5.9750
# 5 -11.0084 15.5531 -2.8524 0.0000 17.8659 0.0000
# 6 0.0000 0.0000 0.0000 5.9750 0.0000 19.4398
#
#
#
# Elastic Compliance Matrix: (Units=1/GPa)
#
#
# Indices 1 2 3 4 5 6 
#
# 1 0.056754 -0.000751 -0.011479 0.000000 0.033791 0.000000
# 2 -0.000751 0.012784 -0.004938 0.000000 -0.012381 0.000000
# 3 -0.011479 -0.004938 0.014933 0.000000 -0.000390 0.000000
# 4 0.000000 0.000000 0.000000 0.025762 0.000000 -0.007918
# 5 0.033791 -0.012381 -0.000390 0.000000 0.087510 0.000000
# 6 0.000000 0.000000 0.000000 -0.007918 0.000000 0.053875
#
#
# Mechanical properties :
#
#
# Convention : Reuss Voigt Hill
#
# Bulk Modulus (GPa) = 19.94572 37.98148 28.96360
# Shear Modulus (GPa) = 16.51989 27.22190 21.87089
#
# Velocity S-wave (km/s) = 2.74279 3.52086 3.15590
# Velocity P-wave (km/s) = 4.37190 5.81591 5.14482
#
# Compressibility (1/GPa) = 0.05013606
#
# Stress axis : x y z
#
# Youngs Moduli (GPa) = 17.61991 78.21980 66.96550
#
# Poissons Ratio (x) = 0.05877 0.76867
# Poissons Ratio (y) = 0.01324 0.33066
# Poissons Ratio (z) = 0.20225 0.38623
#
# Static dielectric constant tensor:
#      x y z
#    x 1.890950 0.000000 -0.025460 
#    y 0.000000 1.841620 0.000000 
#    z -0.025460 0.000000 1.829420 
# 
# From -- ./inp_files/46336.got.cif
#   From: 2010.05.17/outbox.cif.g08.bks.cpg/sg5_24_cif.got.tgz:46336.got - 2010.06.03 18:56:24.
