data_PCOD9120286
_publ_section_title
;
Structure prediction by ZEFSAII (Michael W. Deem and Ramdas Pophale) SiO2 
 PCOD9120286
Probable space group: C 2
;
_chemical_formula_sum "Si O2"
_cell_formula_units_Z 28
_cell_length_a 5.444991
_cell_length_b 32.449865
_cell_length_c 7.866583
_cell_angle_alpha 90.000000
_cell_angle_beta 118.614307
_cell_angle_gamma 90.000000
_cell_volume 1220.177861
_symmetry_space_group_name_H-M "C 2"
_symmetry_group_IT_number 5
_symmetry_cell_setting 'monoclinic'
loop_
_space_group_symop_operation_xyz
x,y,z
-x,y,-z
1/2+x,1/2+y,z
1/2-x,1/2+y,-z
loop_
_atom_site_type_symbol
_atom_site_label
_atom_site_fract_x
_atom_site_fract_y
_atom_site_fract_z
Si Si1 0.836828 0.277360 0.119779
Si Si2 0.103974 0.979831 0.270588
Si Si3 0.226293 0.074810 0.293942
Si Si4 0.000000 0.135974 0.000000
Si Si5 0.388128 0.946877 0.717359
Si Si6 0.329106 0.853605 0.619317
Si Si7 0.500000 0.629251 0.500000
Si Si8 0.224767 0.190881 0.791785
O O1 0.861369 0.238271 0.254759
O O2 0.998842 0.318002 0.230852
O O3 0.500000 0.285379 0.000000
O O4 0.000000 0.264699 0.000000
O O5 0.249624 0.966448 0.498990
O O6 0.284876 0.954628 0.195808
O O7 0.782752 0.969040 0.192006
O O8 0.146083 0.027668 0.243565
O O9 0.500000 0.075907 0.500000
O O10 0.009697 0.098200 0.345141
O O11 0.240741 0.102605 0.129288
O O12 0.014258 0.166520 0.845494
O O13 0.331154 0.898336 0.707433
O O14 0.500000 0.859705 0.500000
O O15 0.000000 0.841712 0.500000
O O16 0.740491 0.662904 0.628454
O O17 0.500000 0.191106 0.000000
#
# Coordination Sequence:
#
# PCOD9120286 Si02
#       8
#     4   4   4   2   4   4   2   4
#     4  11  25  45  67  92 134 179 205 268 343 397
#     4  10  18  32  59  85 125 168 207 251 327 370
#     4  11  21  35  61  90 124 162 217 264 316 378
#     4  10  22  40  60  90 122 166 212 264 330 378
#     4  10  17  34  58  91 122 169 203 260 321 377
#     4  12  22  39  68 103 125 162 227 273 311 391
#     4  10  22  36  60  96 114 166 224 258 318 396
#     4  10  21  42  63  85 131 167 211 264 339 381
#
# _framework density 22.947474
#
# number of rings (size 3 to 8) (size 9 to 14) (size 15 to 20)
#    0.000    1.429    5.000    2.571    1.000    0.000 
#    0.000    0.714    4.714    0.000    0.000    0.000 
#    0.000    0.000    0.000    0.000    0.000    0.000 
#
# Total GULP energy -78033.757008 kJ/mol
# GULP energy per Si atom -5573.839786 kJ/mol
# Density = 2.289524 g / cm^3
# Si number density = 22.947474 Si / 1000 Ang^3
#
#
#
# Elastic Constant Matrix: (Units=GPa)
#
#
# Indices 1 2 3 4 5 6 
#
# 1 117.8341 7.7009 18.8111 0.0000 30.6756 0.0000
# 2 7.7009 162.1831 31.1464 0.0000 26.5046 0.0000
# 3 18.8111 31.1464 68.0196 0.0000 5.9144 0.0000
# 4 0.0000 0.0000 0.0000 -0.5055 0.0000 7.3777
# 5 30.6756 26.5046 5.9144 0.0000 29.0325 0.0000
# 6 0.0000 0.0000 0.0000 7.3777 0.0000 34.3099
#
#
#
# Elastic Compliance Matrix: (Units=1/GPa)
#
#
# Indices 1 2 3 4 5 6 
#
# 1 0.012800 0.002513 -0.003375 0.000000 -0.015131 0.000000
# 2 0.002513 0.008302 -0.003672 0.000000 -0.009487 0.000000
# 3 -0.003375 -0.003672 0.017016 0.000000 0.003452 0.000000
# 4 0.000000 0.000000 0.000000 -0.478020 0.000000 0.102789
# 5 -0.015131 -0.009487 0.003452 0.000000 0.058389 0.000000
# 6 0.000000 0.000000 0.000000 0.102789 0.000000 0.007043
#
#
# Mechanical properties :
#
#
# Convention : Reuss Voigt Hill
#
# Bulk Modulus (GPa) = 34.42183 51.48375 42.95279
# Shear Modulus (GPa) = -14.05609 31.92593 8.93492
#
# Velocity S-wave (km/s) = -2.47763 3.73401 1.97537
# Velocity P-wave (km/s) = 2.61687 6.40895 4.89503
#
# Compressibility (1/GPa) = 0.02905134
#
# Stress axis : x y z
#
# Youngs Moduli (GPa) = 78.12365 120.45275 58.76755
#
# Poissons Ratio (x) = -0.30273 0.19835
# Poissons Ratio (y) = -0.19634 0.21578
# Poissons Ratio (z) = 0.26367 0.44227
#
# Static dielectric constant tensor:
#      x y z
#    x 1.941670 0.000000 -0.070760 
#    y 0.000000 1.809450 0.000000 
#    z -0.070760 0.000000 1.974010 
# 
# From -- ./inp_files/13412.got.cif
#   From: 2010.05.17/outbox.cif.g08.bks.cpg/sg5_7_cif.got.tgz:13412.got - 2010.06.03 18:56:24.
