data_PCOD9120994
_publ_section_title
;
Structure prediction by ZEFSAII (Michael W. Deem and Ramdas Pophale) SiO2 
 PCOD9120994
Probable space group: C 2
;
_chemical_formula_sum "Si O2"
_cell_formula_units_Z 30
_cell_length_a 7.833896
_cell_length_b 15.137520
_cell_length_c 11.434825
_cell_angle_alpha 90.000000
_cell_angle_beta 90.905511
_cell_angle_gamma 90.000000
_cell_volume 1355.838041
_symmetry_space_group_name_H-M "C 2"
_symmetry_group_IT_number 5
_symmetry_cell_setting 'monoclinic'
loop_
_space_group_symop_operation_xyz
x,y,z
-x,y,-z
1/2+x,1/2+y,z
1/2-x,1/2+y,-z
loop_
_atom_site_type_symbol
_atom_site_label
_atom_site_fract_x
_atom_site_fract_y
_atom_site_fract_z
Si Si1 0.500000 0.662340 0.000000
Si Si2 0.688609 0.895449 0.482803
Si Si3 0.602663 0.696116 0.391553
Si Si4 0.002959 0.446079 0.859774
Si Si5 0.189522 0.066923 0.213939
Si Si6 0.641900 0.449253 0.728662
Si Si7 0.662797 0.757530 0.798086
Si Si8 0.056924 0.796999 0.367197
O O1 0.616016 0.610911 0.094517
O O2 0.363050 0.717486 0.074465
O O3 0.500000 0.929712 0.500000
O O4 0.658065 0.794924 0.431087
O O5 0.785929 0.963065 0.400822
O O6 0.807044 0.873322 0.593245
O O7 0.500000 0.657510 0.500000
O O8 0.729486 0.630681 0.326145
O O9 0.468255 0.709512 0.287782
O O10 0.134458 0.519513 0.816472
O O11 0.089123 0.356422 0.811022
O O12 0.807517 0.457254 0.812969
O O13 0.000000 0.442770 0.000000
O O14 0.025520 0.004912 0.243889
O O15 0.584083 0.347086 0.711367
O O16 0.837982 0.743274 0.728358
O O17 0.000000 0.765053 0.500000
#
# Coordination Sequence:
#
# PCOD9120994 Si02
#       8
#     2   4   4   4   4   4   4   4
#     4  10  24  44  70  94 136 186 228 288 348 408
#     4  10  18  37  69  99 135 175 225 278 329 402
#     4  10  20  39  69  97 139 183 216 280 347 401
#     4  12  24  43  72  97 128 180 236 289 333 402
#     4  11  25  44  67  94 144 181 219 286 356 402
#     4  11  23  40  68 102 131 178 231 285 331 407
#     4  11  19  41  72  97 126 183 231 279 335 401
#     4  10  20  35  65 108 132 165 226 287 329 399
#
# _framework density 22.126536999999999
#
# number of rings (size 3 to 8) (size 9 to 14) (size 15 to 20)
#    0.000    1.333    6.000    0.800    0.000    1.600 
#    0.000    8.000    2.933    0.000    0.000    0.000 
#    0.000    0.000    0.000    0.000    0.000    0.000 
#
# Total GULP energy -83505.770380 kJ/mol
# GULP energy per Si atom -5567.051359 kJ/mol
# Density = 2.207618 g / cm^3
# Si number density = 22.126537 Si / 1000 Ang^3
#
#
#
# Elastic Constant Matrix: (Units=GPa)
#
#
# Indices 1 2 3 4 5 6 
#
# 1 114.8698 10.8874 44.2494 0.0000 -15.5151 0.0000
# 2 10.8874 30.0881 38.8744 0.0000 -7.7388 0.0000
# 3 44.2494 38.8744 149.0639 0.0000 -23.8019 0.0000
# 4 0.0000 0.0000 0.0000 30.3102 0.0000 -7.0506
# 5 -15.5151 -7.7388 -23.8019 0.0000 47.0043 0.0000
# 6 0.0000 0.0000 0.0000 -7.0506 0.0000 23.1232
#
#
#
# Elastic Compliance Matrix: (Units=1/GPa)
#
#
# Indices 1 2 3 4 5 6 
#
# 1 0.009996 0.000478 -0.002777 0.000000 0.001972 0.000000
# 2 0.000478 0.050285 -0.012956 0.000000 0.001876 0.000000
# 3 -0.002777 -0.012956 0.011342 0.000000 0.002693 0.000000
# 4 0.000000 0.000000 0.000000 0.035511 0.000000 0.010828
# 5 0.001972 0.001876 0.002693 0.000000 0.023598 0.000000
# 6 0.000000 0.000000 0.000000 0.010828 0.000000 0.046548
#
#
# Mechanical properties :
#
#
# Convention : Reuss Voigt Hill
#
# Bulk Modulus (GPa) = 24.32333 53.56046 38.94190
# Shear Modulus (GPa) = 22.57385 33.42157 27.99771
#
# Velocity S-wave (km/s) = 3.19755 3.89070 3.56103
# Velocity P-wave (km/s) = 4.96479 6.66651 5.87756
#
# Compressibility (1/GPa) = 0.04111279
#
# Stress axis : x y z
#
# Youngs Moduli (GPa) = 100.03637 19.88667 88.16866
#
# Poissons Ratio (x) = -0.00951 0.24487
# Poissons Ratio (y) = -0.04785 1.14233
# Poissons Ratio (z) = 0.27783 0.25766
#
# Static dielectric constant tensor:
#      x y z
#    x 1.966850 0.000000 -0.121300 
#    y 0.000000 1.892160 0.000000 
#    z -0.121300 0.000000 1.904330 
# 
# From -- ./inp_files/36170.got.cif
#   From: 2010.05.17/outbox.cif.g08.bks.cpg/sg5_19_cif.got.tgz:36170.got - 2010.06.03 18:56:24.
