data_PCOD9120509
_publ_section_title
;
Structure prediction by ZEFSAII (Michael W. Deem and Ramdas Pophale) SiO2 
 PCOD9120509
Probable space group: C 2
;
_chemical_formula_sum "Si O2"
_cell_formula_units_Z 28
_cell_length_a 5.539045
_cell_length_b 24.718664
_cell_length_c 10.042248
_cell_angle_alpha 90.000000
_cell_angle_beta 62.980174
_cell_angle_gamma 90.000000
_cell_volume 1224.884420
_symmetry_space_group_name_H-M "C 2"
_symmetry_group_IT_number 5
_symmetry_cell_setting 'monoclinic'
loop_
_space_group_symop_operation_xyz
x,y,z
-x,y,-z
1/2+x,1/2+y,z
1/2-x,1/2+y,-z
loop_
_atom_site_type_symbol
_atom_site_label
_atom_site_fract_x
_atom_site_fract_y
_atom_site_fract_z
Si Si1 0.295090 0.637660 0.787322
Si Si2 0.763316 0.678935 0.829167
Si Si3 0.500000 0.215518 0.500000
Si Si4 0.324027 0.465082 0.179257
Si Si5 0.000000 0.216406 0.500000
Si Si6 0.870959 0.344625 0.819057
Si Si7 0.855666 0.804332 0.841460
Si Si8 0.320912 0.016023 0.182433
O O1 0.466390 0.656993 0.871949
O O2 0.396501 0.676617 0.642820
O O3 0.321012 0.573879 0.761212
O O4 0.974262 0.646452 0.863950
O O5 0.773395 0.741672 0.867080
O O6 0.892519 0.679386 0.647330
O O7 0.750450 0.247640 0.497897
O O8 0.199407 0.404981 0.208223
O O9 0.560774 0.476044 0.228863
O O10 0.053724 0.502359 0.233425
O O11 0.500000 0.471758 0.000000
O O12 0.680879 0.307873 0.772401
O O13 0.186362 0.330267 0.762170
O O14 0.751468 0.334020 0.998116
O O15 0.500000 0.016463 0.000000
#
# Coordination Sequence:
#
# PCOD9120509 Si02
#       8
#     4   4   2   4   2   4   4   4
#     4  10  19  35  49  74 103 132 166 197 239 293
#     4  10  19  33  51  72 103 131 163 199 241 287
#     4   8  16  30  50  72  91 126 167 204 234 278
#     4  10  18  32  52  67  93 123 164 212 232 277
#     4   8  16  30  54  68  91 130 169 206 228 272
#     4  10  19  32  48  71  95 121 169 205 237 281
#     4  10  19  30  48  73  93 127 163 201 237 285
#     4  10  21  32  48  73  99 129 164 190 251 297
#
# _framework density 22.859297999999999
#
# number of rings (size 3 to 8) (size 9 to 14) (size 15 to 20)
#    0.000    2.286    1.429    2.571    4.000    0.000 
#    7.714    0.000    0.000    0.000    0.000    6.000 
#    0.000    0.000    0.000    0.000    0.000    0.000 
#
# Total GULP energy -78017.394365 kJ/mol
# GULP energy per Si atom -5572.671026 kJ/mol
# Density = 2.280727 g / cm^3
# Si number density = 22.859298 Si / 1000 Ang^3
#
#
#
# Elastic Constant Matrix: (Units=GPa)
#
#
# Indices 1 2 3 4 5 6 
#
# 1 260.6514 41.9229 12.8657 0.0000 19.6828 0.0000
# 2 41.9229 102.9489 -13.3927 0.0000 9.4781 0.0000
# 3 12.8657 -13.3927 35.0784 0.0000 7.1461 0.0000
# 4 0.0000 0.0000 0.0000 19.1741 0.0000 4.1512
# 5 19.6828 9.4781 7.1461 0.0000 19.0319 0.0000
# 6 0.0000 0.0000 0.0000 4.1512 0.0000 40.0022
#
#
#
# Elastic Compliance Matrix: (Units=1/GPa)
#
#
# Indices 1 2 3 4 5 6 
#
# 1 0.004431 -0.001735 -0.001657 0.000000 -0.003097 0.000000
# 2 -0.001735 0.011870 0.006505 0.000000 -0.006559 0.000000
# 3 -0.001657 0.006505 0.034552 0.000000 -0.014500 0.000000
# 4 0.000000 0.000000 0.000000 0.053352 0.000000 -0.005537
# 5 -0.003097 -0.006559 -0.014500 0.000000 0.064457 0.000000
# 6 0.000000 0.000000 0.000000 -0.005537 0.000000 0.025573
#
#
# Mechanical properties :
#
#
# Convention : Reuss Voigt Hill
#
# Bulk Modulus (GPa) = 17.51944 53.49674 35.50809
# Shear Modulus (GPa) = 24.15028 39.46050 31.80539
#
# Velocity S-wave (km/s) = 3.25387 4.15930 3.73413
# Velocity P-wave (km/s) = 4.66879 6.82055 5.84455
#
# Compressibility (1/GPa) = 0.05707945
#
# Stress axis : x y z
#
# Youngs Moduli (GPa) = 225.67231 84.24512 28.94152
#
# Poissons Ratio (x) = 0.14616 0.04795
# Poissons Ratio (y) = 0.39152 -0.18825
# Poissons Ratio (z) = 0.37389 -0.54797
#
# Static dielectric constant tensor:
#      x y z
#    x 1.958070 0.000000 -0.057330 
#    y 0.000000 1.810430 0.000000 
#    z -0.057330 0.000000 1.952500 
# 
# From -- ./inp_files/33922.got.cif
#   From: 2010.05.17/outbox.cif.g08.bks.cpg/sg5_17_cif.got.tgz:33922.got - 2010.06.03 18:56:24.
