data_PCOD9120410
_publ_section_title
;
Structure prediction by ZEFSAII (Michael W. Deem and Ramdas Pophale) SiO2 
 PCOD9120410
Probable space group: C 2
;
_chemical_formula_sum "Si O2"
_cell_formula_units_Z 30
_cell_length_a 5.309259
_cell_length_b 31.528983
_cell_length_c 10.334020
_cell_angle_alpha 90.000000
_cell_angle_beta 110.881209
_cell_angle_gamma 90.000000
_cell_volume 1616.253499
_symmetry_space_group_name_H-M "C 2"
_symmetry_group_IT_number 5
_symmetry_cell_setting 'monoclinic'
loop_
_space_group_symop_operation_xyz
x,y,z
-x,y,-z
1/2+x,1/2+y,z
1/2-x,1/2+y,-z
loop_
_atom_site_type_symbol
_atom_site_label
_atom_site_fract_x
_atom_site_fract_y
_atom_site_fract_z
Si Si1 0.500000 0.977700 0.500000
Si Si2 0.128240 0.639799 0.665440
Si Si3 0.183929 0.504813 0.157726
Si Si4 0.870307 0.831095 0.331853
Si Si5 0.774063 0.927693 0.346376
Si Si6 0.628771 0.783742 0.668815
Si Si7 0.251951 0.541110 0.719316
Si Si8 0.630118 0.685913 0.669226
O O1 0.522936 0.945532 0.383480
O O2 0.726998 0.012015 0.584456
O O3 0.202158 0.590587 0.689209
O O4 0.398216 0.667701 0.718990
O O5 0.000000 0.645863 0.500000
O O6 0.895475 0.656768 0.717319
O O7 0.294828 0.460404 0.233516
O O8 0.446473 0.532939 0.175665
O O9 0.988740 0.525354 0.230925
O O10 0.000000 0.498236 0.000000
O O11 0.780494 0.879730 0.299420
O O12 0.607495 0.801628 0.284141
O O13 0.000000 0.829333 0.500000
O O14 0.107473 0.813365 0.284901
O O15 0.000000 0.931846 0.500000
O O16 0.500000 0.785011 0.500000
O O17 0.696181 0.734894 0.708069
O O18 0.500000 0.684719 0.500000
#
# Coordination Sequence:
#
# PCOD9120410 Si02
#       8
#     2   4   4   4   4   4   4   4
#     4  10  20  32  52  78 104 136 178 230 272 300
#     4  10  18  29  47  75 100 135 176 218 257 308
#     4  11  24  39  55  76 110 148 179 219 270 323
#     4   9  18  25  44  65  96 130 175 213 249 306
#     4  10  20  33  53  77 106 137 185 224 262 308
#     4   9  16  28  39  64  98 141 167 197 258 322
#     4  11  21  36  55  76 107 137 183 224 269 310
#     4   9  17  27  43  64 104 139 170 205 261 323
#
# _framework density 18.561446
#
# number of rings (size 3 to 8) (size 9 to 14) (size 15 to 20)
#    0.000    2.133    2.000    2.000    4.667    3.200 
#    0.000    0.000    0.000    0.000    0.000    0.000 
#    0.000   21.333    0.000    0.000    0.000    0.000 
#
# Total GULP energy -83535.837909 kJ/mol
# GULP energy per Si atom -5569.055861 kJ/mol
# Density = 1.851920 g / cm^3
# Si number density = 18.561446 Si / 1000 Ang^3
#
#
#
# Elastic Constant Matrix: (Units=GPa)
#
#
# Indices 1 2 3 4 5 6 
#
# 1 110.3667 66.1582 9.7017 0.0000 20.3346 0.0000
# 2 66.1582 127.6819 10.1534 0.0000 12.2667 0.0000
# 3 9.7017 10.1534 26.6462 0.0000 12.6318 0.0000
# 4 0.0000 0.0000 0.0000 3.8177 0.0000 4.3629
# 5 20.3346 12.2667 12.6318 0.0000 16.9812 0.0000
# 6 0.0000 0.0000 0.0000 4.3629 0.0000 29.3419
#
#
#
# Elastic Compliance Matrix: (Units=1/GPa)
#
#
# Indices 1 2 3 4 5 6 
#
# 1 0.016201 -0.007066 0.005516 0.000000 -0.018400 0.000000
# 2 -0.007066 0.011502 -0.002908 0.000000 0.002315 0.000000
# 3 0.005516 -0.002908 0.059880 0.000000 -0.049048 0.000000
# 4 0.000000 0.000000 0.000000 0.315555 0.000000 -0.046920
# 5 -0.018400 0.002315 -0.049048 0.000000 0.115735 0.000000
# 6 0.000000 0.000000 0.000000 -0.046920 0.000000 0.041058
#
#
# Mechanical properties :
#
#
# Convention : Reuss Voigt Hill
#
# Bulk Modulus (GPa) = 12.71159 48.52462 30.61811
# Shear Modulus (GPa) = 8.40241 21.94027 15.17134
#
# Velocity S-wave (km/s) = 2.12994 3.44180 2.86205
# Velocity P-wave (km/s) = 3.59334 6.48029 5.23957
#
# Compressibility (1/GPa) = 0.07866835
#
# Stress axis : x y z
#
# Youngs Moduli (GPa) = 61.72319 86.94297 16.70016
#
# Poissons Ratio (x) = 0.61431 -0.09212
# Poissons Ratio (y) = 0.43611 0.04856
# Poissons Ratio (z) = -0.34048 0.25281
#
# Static dielectric constant tensor:
#      x y z
#    x 1.743980 0.000000 0.003060 
#    y 0.000000 1.625830 0.000000 
#    z 0.003060 0.000000 1.642140 
# 
# From -- ./inp_files/34351.got.cif
#   From: 2010.05.17/outbox.cif.g08.bks.cpg/sg5_18_cif.got.tgz:34351.got - 2010.06.03 18:56:24.
