data_PCOD9120808
_publ_section_title
;
Structure prediction by ZEFSAII (Michael W. Deem and Ramdas Pophale) SiO2 
 PCOD9120808
Probable space group: C 2
;
_chemical_formula_sum "Si O2"
_cell_formula_units_Z 32
_cell_length_a 25.738386
_cell_length_b 11.616292
_cell_length_c 8.992156
_cell_angle_alpha 90.000000
_cell_angle_beta 139.515036
_cell_angle_gamma 90.000000
_cell_volume 1745.515061
_symmetry_space_group_name_H-M "C 2"
_symmetry_group_IT_number 5
_symmetry_cell_setting 'monoclinic'
loop_
_space_group_symop_operation_xyz
x,y,z
-x,y,-z
1/2+x,1/2+y,z
1/2-x,1/2+y,-z
loop_
_atom_site_type_symbol
_atom_site_label
_atom_site_fract_x
_atom_site_fract_y
_atom_site_fract_z
Si Si1 0.379769 0.394150 0.017056
Si Si2 0.318368 0.248985 0.142332
Si Si3 0.932831 0.140102 0.062520
Si Si4 0.215031 0.576266 0.179657
Si Si5 0.700716 0.802622 0.140779
Si Si6 0.444192 0.313364 0.664884
Si Si7 0.834151 0.742697 0.669031
Si Si8 0.399661 0.579161 0.644244
O O1 0.329545 0.349412 0.045686
O O2 0.463347 0.323752 0.178842
O O3 0.401689 0.526724 0.079465
O O4 0.333699 0.359712 0.766349
O O5 0.239270 0.264763 0.068390
O O6 0.392465 0.265234 0.415849
O O7 0.316842 0.133584 0.041389
O O8 0.885640 0.249782 0.016710
O O9 0.911062 0.110413 0.842840
O O10 0.028544 0.146266 0.281141
O O11 0.203223 0.440062 0.157303
O O12 0.174631 0.640097 0.232426
O O13 0.309887 0.602685 0.398442
O O14 0.760225 0.749510 0.395052
O O15 0.414095 0.242432 0.742781
O O16 0.418252 0.444422 0.651539
#
# Coordination Sequence:
#
# PCOD9120808 Si02
#       8
#     4   4   4   4   4   4   4   4
#     4  10  19  34  60  89 114 141 197 253 300 343
#     4  10  23  34  54  83 118 159 193 238 296 354
#     4  10  20  33  63  93 115 147 187 259 310 344
#     4  11  21  38  56  84 125 159 197 243 289 366
#     4  11  22  37  57  86 126 155 196 240 300 357
#     4  10  18  36  58  90 112 140 192 259 297 338
#     4  10  19  33  59  86 112 153 191 246 298 348
#     4  10  18  35  61  91 118 140 193 252 302 342
#
# _framework density 18.332698000000001
#
# number of rings (size 3 to 8) (size 9 to 14) (size 15 to 20)
#    0.000    1.750    5.000    0.750    1.750    0.000 
#    0.000    0.625   11.000    3.000    0.000    0.000 
#    0.000    0.000    0.000    0.000    0.000    0.000 
#
# Total GULP energy -89247.965080 kJ/mol
# GULP energy per Si atom -5577.997818 kJ/mol
# Density = 1.829097 g / cm^3
# Si number density = 18.332698 Si / 1000 Ang^3
#
#
#
# Elastic Constant Matrix: (Units=GPa)
#
#
# Indices 1 2 3 4 5 6 
#
# 1 107.5322 43.7469 46.1789 0.0000 -2.7667 0.0000
# 2 43.7469 75.3587 18.3361 0.0000 -1.1340 0.0000
# 3 46.1789 18.3361 54.6603 0.0000 1.9506 0.0000
# 4 0.0000 0.0000 0.0000 17.8725 0.0000 6.8035
# 5 -2.7667 -1.1340 1.9506 0.0000 34.2012 0.0000
# 6 0.0000 0.0000 0.0000 6.8035 0.0000 28.8410
#
#
#
# Elastic Compliance Matrix: (Units=1/GPa)
#
#
# Indices 1 2 3 4 5 6 
#
# 1 0.017673 -0.007166 -0.012595 0.000000 0.001910 0.000000
# 2 -0.007166 0.017375 0.000226 0.000000 -0.000017 0.000000
# 3 -0.012595 0.000226 0.028954 0.000000 -0.002663 0.000000
# 4 0.000000 0.000000 0.000000 0.061472 0.000000 -0.014501
# 5 0.001910 -0.000017 -0.002663 0.000000 0.029545 0.000000
# 6 0.000000 0.000000 0.000000 -0.014501 0.000000 0.038094
#
#
# Mechanical properties :
#
#
# Convention : Reuss Voigt Hill
#
# Bulk Modulus (GPa) = 40.10804 50.45276 45.28040
# Shear Modulus (GPa) = 20.79072 24.80224 22.79648
#
# Velocity S-wave (km/s) = 3.37126 3.68216 3.53014
# Velocity P-wave (km/s) = 6.08927 6.75708 6.43185
#
# Compressibility (1/GPa) = 0.02493266
#
# Stress axis : x y z
#
# Youngs Moduli (GPa) = 56.58418 57.55549 34.53696
#
# Poissons Ratio (x) = 0.41244 0.43499
# Poissons Ratio (y) = 0.40548 -0.00782
# Poissons Ratio (z) = 0.71267 -0.01302
#
# Static dielectric constant tensor:
#      x y z
#    x 1.652340 0.000000 -0.011840 
#    y 0.000000 1.608070 0.000000 
#    z -0.011840 0.000000 1.661920 
# 
# From -- ./inp_files/27269.got.cif
#   From: 2010.05.17/outbox.cif.g08.bks.cpg/sg5_14_cif.got.tgz:27269.got - 2010.06.03 18:56:24.
