data_PCOD9120088
_publ_section_title
;
Structure prediction by ZEFSAII (Michael W. Deem and Ramdas Pophale) SiO2 
 PCOD9120088
Probable space group: C 2
;
_chemical_formula_sum "Si O2"
_cell_formula_units_Z 28
_cell_length_a 26.651480
_cell_length_b 7.706999
_cell_length_c 11.568282
_cell_angle_alpha 90.000000
_cell_angle_beta 29.930741
_cell_angle_gamma 90.000000
_cell_volume 1185.591159
_symmetry_space_group_name_H-M "C 2"
_symmetry_group_IT_number 5
_symmetry_cell_setting 'monoclinic'
loop_
_space_group_symop_operation_xyz
x,y,z
-x,y,-z
1/2+x,1/2+y,z
1/2-x,1/2+y,-z
loop_
_atom_site_type_symbol
_atom_site_label
_atom_site_fract_x
_atom_site_fract_y
_atom_site_fract_z
Si Si1 0.276574 0.202880 0.587439
Si Si2 0.455034 0.309343 0.770208
Si Si3 0.151128 0.584644 0.336215
Si Si4 0.744471 0.758667 0.069681
Si Si5 0.630321 0.544654 0.485181
Si Si6 0.112713 0.169081 0.769084
Si Si7 0.397566 0.260441 0.142367
O O1 0.303190 0.056504 0.626462
O O2 0.332542 0.363137 0.534413
O O3 0.166913 0.259106 0.769263
O O4 0.314724 0.160010 0.381639
O O5 0.541509 0.173370 0.556341
O O6 0.518091 0.488671 0.665600
O O7 0.355857 0.320410 0.889782
O O8 0.411979 0.243727 0.978796
O O9 0.160262 0.405901 0.249721
O O10 0.232747 0.700835 0.105321
O O11 0.700969 0.609732 0.241048
O O12 0.636112 0.670961 0.584980
O O13 0.118071 0.965189 0.798102
O O14 0.000000 0.230344 0.000000
O O15 0.500000 0.210032 0.000000
#
# Coordination Sequence:
#
# PCOD9120088 Si02
#       7
#     4   4   4   4   4   4   4
#     4  10  20  36  67  94 131 175 213 269 328 388
#     4  11  21  44  71  95 132 178 215 272 334 389
#     4  11  24  42  67  98 126 173 229 271 331 398
#     4  12  26  46  68  95 132 174 226 285 329 385
#     4  10  22  42  66  95 131 174 224 264 328 401
#     4  10  18  34  62  96 130 167 210 262 323 397
#     4  10  16  35  63  90 130 168 209 256 322 392
#
# _framework density 23.616910000000001
#
# number of rings (size 3 to 8) (size 9 to 14) (size 15 to 20)
#    0.000    1.429    5.714    3.857    0.000    1.143 
#    2.571    2.857    0.000    0.000    0.000    0.000 
#    0.000    0.000    0.000    0.000    0.000    0.000 
#
# Total GULP energy -78068.239582 kJ/mol
# GULP energy per Si atom -5576.302827 kJ/mol
# Density = 2.356316 g / cm^3
# Si number density = 23.616910 Si / 1000 Ang^3
#
#
#
# Elastic Constant Matrix: (Units=GPa)
#
#
# Indices 1 2 3 4 5 6 
#
# 1 62.6594 -5.1715 23.9483 0.0000 0.3786 0.0000
# 2 -5.1715 47.8642 15.1689 0.0000 12.3742 0.0000
# 3 23.9483 15.1689 96.8016 0.0000 29.8078 0.0000
# 4 0.0000 0.0000 0.0000 38.7708 0.0000 10.9904
# 5 0.3786 12.3742 29.8078 0.0000 45.5927 0.0000
# 6 0.0000 0.0000 0.0000 10.9904 0.0000 13.9290
#
#
#
# Elastic Compliance Matrix: (Units=1/GPa)
#
#
# Indices 1 2 3 4 5 6 
#
# 1 0.018475 0.003136 -0.005951 0.000000 0.002886 0.000000
# 2 0.003136 0.023333 -0.003098 0.000000 -0.004334 0.000000
# 3 -0.005951 -0.003098 0.015042 0.000000 -0.008944 0.000000
# 4 0.000000 0.000000 0.000000 0.033224 0.000000 -0.026214
# 5 0.002886 -0.004334 -0.008944 0.000000 0.028933 0.000000
# 6 0.000000 0.000000 0.000000 -0.026214 0.000000 0.092477
#
#
# Mechanical properties :
#
#
# Convention : Reuss Voigt Hill
#
# Bulk Modulus (GPa) = 22.20967 30.57963 26.39465
# Shear Modulus (GPa) = 20.98041 31.21713 26.09877
#
# Velocity S-wave (km/s) = 2.98378 3.63962 3.32789
# Velocity P-wave (km/s) = 4.61466 5.53523 5.09578
#
# Compressibility (1/GPa) = 0.04502544
#
# Stress axis : x y z
#
# Youngs Moduli (GPa) = 54.12711 42.85716 66.47990
#
# Poissons Ratio (x) = -0.13440 0.39560
# Poissons Ratio (y) = -0.16974 0.20594
# Poissons Ratio (z) = 0.32209 0.13276
#
# Static dielectric constant tensor:
#      x y z
#    x 0.849360 0.000000 1.091400 
#    y 0.000000 1.980840 0.000000 
#    z 1.091400 0.000000 0.909580 
# 
# From -- ./inp_files/47919.got.cif
#   From: 2010.05.17/outbox.cif.g08.bks.cpg/sg5_24_cif.got.tgz:47919.got - 2010.06.03 18:56:24.
