data_PCOD9120458
_publ_section_title
;
Structure prediction by ZEFSAII (Michael W. Deem and Ramdas Pophale) SiO2 
 PCOD9120458
Probable space group: C 2
;
_chemical_formula_sum "Si O2"
_cell_formula_units_Z 30
_cell_length_a 9.695820
_cell_length_b 33.074515
_cell_length_c 5.161157
_cell_angle_alpha 90.000000
_cell_angle_beta 77.839445
_cell_angle_gamma 90.000000
_cell_volume 1617.964662
_symmetry_space_group_name_H-M "C 2"
_symmetry_group_IT_number 5
_symmetry_cell_setting 'monoclinic'
loop_
_space_group_symop_operation_xyz
x,y,z
-x,y,-z
1/2+x,1/2+y,z
1/2-x,1/2+y,-z
loop_
_atom_site_type_symbol
_atom_site_label
_atom_site_fract_x
_atom_site_fract_y
_atom_site_fract_z
Si Si1 0.399708 0.759100 0.288215
Si Si2 0.351003 0.014012 0.428576
Si Si3 0.848428 0.082542 0.416212
Si Si4 0.254113 0.471681 0.012659
Si Si5 0.167832 0.827829 0.420605
Si Si6 0.667123 0.381679 0.924202
Si Si7 0.500000 0.522915 0.000000
Si Si8 0.401705 0.668053 0.286038
O O1 0.500000 0.760314 0.500000
O O2 0.271487 0.789692 0.384927
O O3 0.342241 0.713090 0.273618
O O4 0.500000 0.768214 0.000000
O O5 0.500000 0.023644 0.500000
O O6 0.275500 0.988128 0.686226
O O7 0.269035 0.055726 0.398073
O O8 0.349954 0.987662 0.168180
O O9 0.806949 0.128290 0.364959
O O10 0.000000 0.084125 0.500000
O O11 0.887473 0.054440 0.158348
O O12 0.258019 0.423712 0.040741
O O13 0.405303 0.491904 0.869495
O O14 0.197971 0.859720 0.639986
O O15 0.000000 0.817513 0.500000
O O16 0.195476 0.849946 0.139254
O O17 0.500000 0.390772 0.000000
O O18 0.500000 0.670828 0.500000
O O19 0.500000 0.659170 0.000000
#
# Coordination Sequence:
#
# PCOD9120458 Si02
#       8
#     4   4   4   4   4   4   2   4
#     4  10  20  37  58  84 113 151 184 229 287 349
#     4  11  24  37  52  77 117 154 179 222 281 343
#     4  10  18  33  55  82 107 138 191 230 271 316
#     4  11  21  37  57  78 109 143 191 228 279 327
#     4  10  21  37  58  84 112 144 183 238 288 340
#     4  10  20  36  58  84 109 138 187 244 285 322
#     4  10  18  30  56  86 102 134 182 240 264 320
#     4   9  18  31  54  82 112 136 181 236 276 321
#
# _framework density 18.541815
#
# number of rings (size 3 to 8) (size 9 to 14) (size 15 to 20)
#    0.000    1.867    2.667    2.000    0.000    0.000 
#    0.000    7.333    0.000    0.000    0.000    7.467 
#    0.000    0.000    0.000    0.000    0.000    0.000 
#
# Total GULP energy -83525.256550 kJ/mol
# GULP energy per Si atom -5568.350437 kJ/mol
# Density = 1.849961 g / cm^3
# Si number density = 18.541815 Si / 1000 Ang^3
#
#
#
# Elastic Constant Matrix: (Units=GPa)
#
#
# Indices 1 2 3 4 5 6 
#
# 1 67.1551 57.2156 13.9857 0.0000 10.3196 0.0000
# 2 57.2156 138.3589 11.3990 0.0000 2.4822 0.0000
# 3 13.9857 11.3990 84.1964 0.0000 15.7303 0.0000
# 4 0.0000 0.0000 0.0000 -6.5164 0.0000 13.5424
# 5 10.3196 2.4822 15.7303 0.0000 19.4467 0.0000
# 6 0.0000 0.0000 0.0000 13.5424 0.0000 8.8558
#
#
#
# Elastic Compliance Matrix: (Units=1/GPa)
#
#
# Indices 1 2 3 4 5 6 
#
# 1 0.025644 -0.010339 -0.000664 0.000000 -0.011751 0.000000
# 2 -0.010339 0.011478 -0.000693 0.000000 0.004582 0.000000
# 3 -0.000664 -0.000693 0.014135 0.000000 -0.010993 0.000000
# 4 0.000000 0.000000 0.000000 -0.036730 0.000000 0.056168
# 5 -0.011751 0.004582 -0.010993 0.000000 0.065965 0.000000
# 6 0.000000 0.000000 0.000000 0.056168 0.000000 0.027027
#
#
# Mechanical properties :
#
#
# Convention : Reuss Voigt Hill
#
# Bulk Modulus (GPa) = 35.88779 50.54565 43.21672
# Shear Modulus (GPa) = 35.66361 18.16456 26.91408
#
# Velocity S-wave (km/s) = 4.39043 3.13334 3.81403
# Velocity P-wave (km/s) = 6.71553 6.35688 6.53866
#
# Compressibility (1/GPa) = 0.02786463
#
# Stress axis : x y z
#
# Youngs Moduli (GPa) = 38.99601 87.12413 70.74708
#
# Poissons Ratio (x) = 0.90076 0.04701
# Poissons Ratio (y) = 0.40317 0.04900
# Poissons Ratio (z) = 0.02591 0.06034
#
# Static dielectric constant tensor:
#      x y z
#    x 1.695120 0.000000 0.005720 
#    y 0.000000 1.654140 0.000000 
#    z 0.005720 0.000000 1.745220 
# 
# From -- ./inp_files/3799.got.cif
#   From: 2010.05.17/outbox.cif.g08.bks.cpg/sg5_2_cif.got.tgz:3799.got - 2010.06.03 18:56:24.
