data_PCOD9120643
_publ_section_title
;
Structure prediction by ZEFSAII (Michael W. Deem and Ramdas Pophale) SiO2 
 PCOD9120643
Probable space group: C 2
;
_chemical_formula_sum "Si O2"
_cell_formula_units_Z 30
_cell_length_a 18.222321
_cell_length_b 12.767356
_cell_length_c 20.596367
_cell_angle_alpha 90.000000
_cell_angle_beta 19.916751
_cell_angle_gamma 90.000000
_cell_volume 1632.335157
_symmetry_space_group_name_H-M "C 2"
_symmetry_group_IT_number 5
_symmetry_cell_setting 'monoclinic'
loop_
_space_group_symop_operation_xyz
x,y,z
-x,y,-z
1/2+x,1/2+y,z
1/2-x,1/2+y,-z
loop_
_atom_site_type_symbol
_atom_site_label
_atom_site_fract_x
_atom_site_fract_y
_atom_site_fract_z
Si Si1 0.528414 0.323820 0.169206
Si Si2 0.691475 0.641831 0.468218
Si Si3 0.000000 0.209999 0.500000
Si Si4 0.272076 0.628159 0.225258
Si Si5 0.236294 0.976912 0.534428
Si Si6 0.821139 0.886591 0.203548
Si Si7 0.182824 0.678591 0.444467
Si Si8 0.003110 0.292241 0.723518
O O1 0.400971 0.217815 0.294731
O O2 0.470194 0.408987 0.272469
O O3 0.421896 0.369503 0.191455
O O4 0.776815 0.302403 0.947783
O O5 0.617074 0.641412 0.456314
O O6 0.728078 0.531447 0.471344
O O7 0.515521 0.699289 0.660556
O O8 0.155321 0.291853 0.334361
O O9 0.227442 0.503420 0.272621
O O10 0.275769 0.675190 0.294455
O O11 0.075421 0.680470 0.349469
O O12 0.500000 0.638192 0.000000
O O13 0.435665 0.896942 0.366457
O O14 0.267577 0.069805 0.559745
O O15 0.000000 0.875646 0.000000
O O16 0.303987 0.765712 0.386419
#
# Coordination Sequence:
#
# PCOD9120643 Si02
#       8
#     4   4   2   4   4   4   4   4
#     4  10  20  35  55  84 112 147 187 227 284 336
#     4   9  21  36  55  82 109 144 184 234 281 332
#     4  10  18  34  54  74 116 138 176 230 282 332
#     4  10  21  33  57  83 112 149 183 236 287 334
#     4  10  21  36  54  80 111 147 187 231 274 337
#     4  10  19  29  53  85 109 141 179 228 288 338
#     4  10  21  37  53  83 116 146 189 232 283 337
#     4  10  22  36  57  79 113 153 187 231 276 335
#
# _framework density 18.378578000000001
#
# number of rings (size 3 to 8) (size 9 to 14) (size 15 to 20)
#    0.000    2.133    1.333    1.600    7.467    5.333 
#    0.000    1.333    0.000    0.000    0.000    0.933 
#    0.000    0.000    0.000    0.000    0.000    0.000 
#
# Total GULP energy -83656.361571 kJ/mol
# GULP energy per Si atom -5577.090771 kJ/mol
# Density = 1.833675 g / cm^3
# Si number density = 18.378578 Si / 1000 Ang^3
#
#
#
# Elastic Constant Matrix: (Units=GPa)
#
#
# Indices 1 2 3 4 5 6 
#
# 1 58.4568 8.0512 15.9285 -0.0086 -6.1171 -0.0162
# 2 8.0512 39.4052 14.0396 -0.0525 -0.6577 0.0010
# 3 15.9285 14.0396 118.6873 -0.0159 10.5824 0.0104
# 4 -0.0086 -0.0525 -0.0159 22.0434 0.0017 11.5657
# 5 -6.1171 -0.6577 10.5824 0.0017 25.4981 -0.0104
# 6 -0.0162 0.0010 0.0104 11.5657 -0.0104 27.4049
#
#
#
# Elastic Compliance Matrix: (Units=1/GPa)
#
#
# Indices 1 2 3 4 5 6 
#
# 1 0.018805 -0.002792 -0.002689 -0.000012 0.005555 0.000019
# 2 -0.002792 0.027013 -0.002932 0.000079 0.001244 -0.000034
# 3 -0.002689 -0.002932 0.009551 0.000004 -0.004685 -0.000008
# 4 -0.000012 0.000079 0.000004 0.058267 -0.000016 -0.024591
# 5 0.005555 0.001244 -0.004685 -0.000016 0.042528 0.000028
# 6 0.000019 -0.000034 -0.000008 -0.024591 0.000028 0.046868
#
#
# Mechanical properties :
#
#
# Convention : Reuss Voigt Hill
#
# Bulk Modulus (GPa) = 25.94371 32.50976 29.22673
# Shear Modulus (GPa) = 21.48650 26.89129 24.18889
#
# Velocity S-wave (km/s) = 3.42293 3.82931 3.63181
# Velocity P-wave (km/s) = 5.45608 6.10564 5.78998
#
# Compressibility (1/GPa) = 0.03854499
#
# Stress axis : x y z
#
# Youngs Moduli (GPa) = 53.17697 37.01909 104.70298
#
# Poissons Ratio (x) = 0.10334 0.28153
# Poissons Ratio (y) = 0.14844 0.30695
# Poissons Ratio (z) = 0.14299 0.10853
#
# Static dielectric constant tensor:
#      x y z
#    x 1.650850 -0.000020 -0.014720 
#    y -0.000020 1.614070 0.000010 
#    z -0.014720 0.000010 1.624530 
# 
# From -- ./inp_files/62930.got.cif
#   From: 2010.05.17/outbox.cif.g08.bks.cpg/sg5_32_cif.got.tgz:62930.got - 2010.06.03 18:56:24.
