data_PCOD9120216
_publ_section_title
;
Structure prediction by ZEFSAII (Michael W. Deem and Ramdas Pophale) SiO2 
 PCOD9120216
Probable space group: C 2
;
_chemical_formula_sum "Si O2"
_cell_formula_units_Z 26
_cell_length_a 27.968732
_cell_length_b 8.272608
_cell_length_c 8.408230
_cell_angle_alpha 90.000000
_cell_angle_beta 146.207760
_cell_angle_gamma 90.000000
_cell_volume 1082.025675
_symmetry_space_group_name_H-M "C 2"
_symmetry_group_IT_number 5
_symmetry_cell_setting 'monoclinic'
loop_
_space_group_symop_operation_xyz
x,y,z
-x,y,-z
1/2+x,1/2+y,z
1/2-x,1/2+y,-z
loop_
_atom_site_type_symbol
_atom_site_label
_atom_site_fract_x
_atom_site_fract_y
_atom_site_fract_z
Si Si1 0.500000 0.069981 0.500000
Si Si2 0.216945 0.858812 0.302461
Si Si3 0.898110 0.803058 0.723130
Si Si4 0.258505 0.639729 0.858426
Si Si5 0.021687 0.394842 0.241442
Si Si6 0.828396 0.137566 0.393064
Si Si7 0.854240 0.415774 0.939870
O O1 0.537058 0.026167 0.421966
O O2 0.597898 0.066220 0.845688
O O3 0.137432 0.814486 0.194993
O O4 0.269686 0.714957 0.366857
O O5 0.199669 0.989410 0.118737
O O6 0.285510 0.940620 0.612746
O O7 0.838641 0.668835 0.471709
O O8 0.872942 0.972483 0.570497
O O9 0.000000 0.782863 0.000000
O O10 0.309769 0.799492 0.944236
O O11 0.271118 0.613497 0.078410
O O12 0.097763 0.266955 0.443838
O O13 0.000000 0.442420 0.000000
O O14 0.933713 0.320620 0.074404
#
# Coordination Sequence:
#
# PCOD9120216 Si02
#       7
#     2   4   4   4   4   4   4
#     4   8  16  32  54  98 128 152 218 280 312 378
#     4  11  24  40  69  97 134 179 233 274 347 404
#     4  11  26  45  68  97 139 181 227 279 351 417
#     4  11  23  43  63 102 139 177 216 291 350 405
#     4  10  17  31  62  97 124 157 224 274 323 377
#     4  12  21  42  70  99 129 180 235 278 330 423
#     4   9  18  36  59  94 133 165 213 279 324 409
#
# _framework density 24.029005000000002
#
# number of rings (size 3 to 8) (size 9 to 14) (size 15 to 20)
#    0.923    0.615    3.077    3.231    2.154    0.000 
#    2.769    2.308    0.000    0.000    0.000    0.000 
#    0.000    0.000    0.000    0.000    0.000    0.000 
#
# Total GULP energy -72437.234921 kJ/mol
# GULP energy per Si atom -5572.094994 kJ/mol
# Density = 2.397431 g / cm^3
# Si number density = 24.029005 Si / 1000 Ang^3
#
#
#
# Elastic Constant Matrix: (Units=GPa)
#
#
# Indices 1 2 3 4 5 6 
#
# 1 185.0968 40.3187 89.4265 0.0000 9.8511 0.0000
# 2 40.3187 55.0842 35.3298 0.0000 -8.3971 0.0000
# 3 89.4265 35.3298 147.2254 0.0000 -0.4966 0.0000
# 4 0.0000 0.0000 0.0000 25.0654 0.0000 2.3302
# 5 9.8511 -8.3971 -0.4966 0.0000 68.2513 0.0000
# 6 0.0000 0.0000 0.0000 2.3302 0.0000 20.7801
#
#
#
# Elastic Compliance Matrix: (Units=1/GPa)
#
#
# Indices 1 2 3 4 5 6 
#
# 1 0.008304 -0.003659 -0.004172 0.000000 -0.001679 0.000000
# 2 -0.003659 0.023541 -0.003415 0.000000 0.003399 0.000000
# 3 -0.004172 -0.003415 0.010147 0.000000 0.000256 0.000000
# 4 0.000000 0.000000 0.000000 0.040316 0.000000 -0.004521
# 5 -0.001679 0.003399 0.000256 0.000000 0.015314 0.000000
# 6 0.000000 0.000000 0.000000 -0.004521 0.000000 0.048630
#
#
# Mechanical properties :
#
#
# Convention : Reuss Voigt Hill
#
# Bulk Modulus (GPa) = 51.28145 79.72848 65.50496
# Shear Modulus (GPa) = 28.53168 37.64147 33.08658
#
# Velocity S-wave (km/s) = 3.44958 3.96220 3.71474
# Velocity P-wave (km/s) = 6.10360 7.36099 6.76159
#
# Compressibility (1/GPa) = 0.01950023
#
# Stress axis : x y z
#
# Youngs Moduli (GPa) = 120.41682 42.47969 98.55289
#
# Poissons Ratio (x) = 0.15542 0.41116
# Poissons Ratio (y) = 0.44056 0.33659
# Poissons Ratio (z) = 0.50237 0.14508
#
# Static dielectric constant tensor:
#      x y z
#    x 1.903020 0.000000 0.028180 
#    y 0.000000 1.955500 0.000000 
#    z 0.028180 0.000000 1.916960 
# 
# From -- ./inp_files/31677.got.cif
#   From: 2010.05.17/outbox.cif.g08.bks.cpg/sg5_16_cif.got.tgz:31677.got - 2010.06.03 18:56:24.
