data_PCOD9120224
_publ_section_title
;
Structure prediction by ZEFSAII (Michael W. Deem and Ramdas Pophale) SiO2 
 PCOD9120224
Probable space group: C 2
;
_chemical_formula_sum "Si O2"
_cell_formula_units_Z 30
_cell_length_a 20.640877
_cell_length_b 9.162712
_cell_length_c 9.026918
_cell_angle_alpha 90.000000
_cell_angle_beta 114.382685
_cell_angle_gamma 90.000000
_cell_volume 1554.958260
_symmetry_space_group_name_H-M "C 2"
_symmetry_group_IT_number 5
_symmetry_cell_setting 'monoclinic'
loop_
_space_group_symop_operation_xyz
x,y,z
-x,y,-z
1/2+x,1/2+y,z
1/2-x,1/2+y,-z
loop_
_atom_site_type_symbol
_atom_site_label
_atom_site_fract_x
_atom_site_fract_y
_atom_site_fract_z
Si Si1 0.123029 0.781140 0.313423
Si Si2 0.393350 0.953852 0.046125
Si Si3 0.268430 0.886433 0.336278
Si Si4 0.842216 0.921311 0.347487
Si Si5 0.500000 0.172540 0.000000
Si Si6 0.313696 0.962920 0.677740
Si Si7 0.784528 0.639538 0.140849
Si Si8 0.851466 0.193215 0.178466
O O1 0.185095 0.864108 0.282865
O O2 0.118293 0.850821 0.473019
O O3 0.152452 0.615024 0.342785
O O4 0.052136 0.769540 0.149418
O O5 0.405301 0.810604 0.157455
O O6 0.333243 0.050551 0.071683
O O7 0.360570 0.906514 0.857449
O O8 0.457024 0.063316 0.068532
O O9 0.306616 0.860710 0.528977
O O10 0.302287 0.782832 0.246543
O O11 0.281747 0.048857 0.289849
O O12 0.766855 0.981725 0.339979
O O13 0.818840 0.795036 0.210629
O O14 0.879216 0.052069 0.292369
O O15 0.705453 0.647674 0.000539
#
# Coordination Sequence:
#
# PCOD9120224 Si02
#       8
#     4   4   4   4   2   4   4   4
#     4  10  20  35  59  91 119 168 198 254 287 367
#     4  10  21  36  61  85 120 164 199 252 294 373
#     4  10  20  32  56  90 123 148 195 251 315 357
#     4  11  19  32  57  95 130 151 193 257 317 363
#     4  10  22  42  60  86 120 170 224 238 290 376
#     4  10  17  32  53  87 125 149 192 246 313 354
#     4  11  19  34  57  94 122 157 188 251 325 365
#     4  11  19  33  54  93 126 150 191 253 319 358
#
# _framework density 19.293120999999999
#
# number of rings (size 3 to 8) (size 9 to 14) (size 15 to 20)
#    0.000    1.600    5.333    1.600    0.000    0.000 
#    0.000    0.667    0.000    3.200   13.867    0.000 
#    0.000    0.000    0.000    0.000    0.000    0.000 
#
# Total GULP energy -83654.108892 kJ/mol
# GULP energy per Si atom -5576.940593 kJ/mol
# Density = 1.924921 g / cm^3
# Si number density = 19.293121 Si / 1000 Ang^3
#
#
#
# Elastic Constant Matrix: (Units=GPa)
#
#
# Indices 1 2 3 4 5 6 
#
# 1 33.9105 10.8374 26.2671 0.0000 -1.9078 0.0000
# 2 10.8374 81.9673 41.5275 0.0000 -4.2400 0.0000
# 3 26.2671 41.5275 117.7659 0.0000 -7.2883 0.0000
# 4 0.0000 0.0000 0.0000 29.0556 0.0000 -2.9869
# 5 -1.9078 -4.2400 -7.2883 0.0000 22.2552 0.0000
# 6 0.0000 0.0000 0.0000 -2.9869 0.0000 23.8845
#
#
#
# Elastic Compliance Matrix: (Units=1/GPa)
#
#
# Indices 1 2 3 4 5 6 
#
# 1 0.035699 -0.000825 -0.007647 0.000000 0.000399 0.000000
# 2 -0.000825 0.014901 -0.005000 0.000000 0.001131 0.000000
# 3 -0.007647 -0.005000 0.012106 0.000000 0.002356 0.000000
# 4 0.000000 0.000000 0.000000 0.034865 0.000000 0.004360
# 5 0.000399 0.001131 0.002356 0.000000 0.045955 0.000000
# 6 0.000000 0.000000 0.000000 0.004360 0.000000 0.042413
#
#
# Mechanical properties :
#
#
# Convention : Reuss Voigt Hill
#
# Bulk Modulus (GPa) = 27.96343 43.43417 35.69880
# Shear Modulus (GPa) = 22.24160 25.37319 23.80740
#
# Velocity S-wave (km/s) = 3.39901 3.63042 3.51662
# Velocity P-wave (km/s) = 5.47082 6.33521 5.91882
#
# Compressibility (1/GPa) = 0.03576099
#
# Stress axis : x y z
#
# Youngs Moduli (GPa) = 28.01221 67.10970 82.60278
#
# Poissons Ratio (x) = 0.05538 0.63164
# Poissons Ratio (y) = 0.02312 0.41305
# Poissons Ratio (z) = 0.21420 0.33558
#
# Static dielectric constant tensor:
#      x y z
#    x 1.652090 0.000000 -0.020430 
#    y 0.000000 1.707450 0.000000 
#    z -0.020430 0.000000 1.684630 
# 
# From -- ./inp_files/30691.got.cif
#   From: 2010.05.17/outbox.cif.g08.bks.cpg/sg5_16_cif.got.tgz:30691.got - 2010.06.03 18:56:24.
