data_PCOD9120187
_publ_section_title
;
Structure prediction by ZEFSAII (Michael W. Deem and Ramdas Pophale) SiO2 
 PCOD9120187
Probable space group: C 2
;
_chemical_formula_sum "Si O2"
_cell_formula_units_Z 30
_cell_length_a 8.050593
_cell_length_b 18.921786
_cell_length_c 9.810891
_cell_angle_alpha 90.000000
_cell_angle_beta 102.479979
_cell_angle_gamma 90.000000
_cell_volume 1459.195822
_symmetry_space_group_name_H-M "C 2"
_symmetry_group_IT_number 5
_symmetry_cell_setting 'monoclinic'
loop_
_space_group_symop_operation_xyz
x,y,z
-x,y,-z
1/2+x,1/2+y,z
1/2-x,1/2+y,-z
loop_
_atom_site_type_symbol
_atom_site_label
_atom_site_fract_x
_atom_site_fract_y
_atom_site_fract_z
Si Si1 0.447830 0.166030 0.650622
Si Si2 0.031893 0.924450 0.790763
Si Si3 0.500000 0.810565 0.000000
Si Si4 0.782195 0.438433 0.054697
Si Si5 0.195429 0.283907 0.535207
Si Si6 0.204240 0.774529 0.761357
Si Si7 0.751282 0.946407 0.554357
Si Si8 0.972078 0.507674 0.702508
O O1 0.500000 0.160181 0.500000
O O2 0.300375 0.224525 0.632537
O O3 0.602280 0.202054 0.758728
O O4 0.409842 0.087752 0.693305
O O5 0.873388 0.931622 0.867054
O O6 0.946457 0.954357 0.637243
O O7 0.093295 0.843223 0.784373
O O8 0.192804 0.959897 0.896075
O O9 0.369373 0.862154 0.054269
O O10 0.618494 0.770970 0.127772
O O11 0.934529 0.484925 0.142628
O O12 0.264593 0.284744 0.393484
O O13 0.211859 0.364804 0.586571
O O14 0.000000 0.264229 0.500000
O O15 0.629792 0.996885 0.623192
O O16 0.678835 0.959367 0.388806
#
# Coordination Sequence:
#
# PCOD9120187 Si02
#       8
#     4   4   2   4   4   4   4   4
#     4  10  20  36  56  82 121 156 195 243 311 355
#     4   9  18  34  54  86 110 148 197 255 290 341
#     4  10  20  34  56  86 116 152 198 258 284 358
#     4   9  19  34  57  81 116 150 197 245 304 346
#     4  11  21  35  61  87 117 154 204 252 300 355
#     4  10  21  34  56  86 119 151 198 249 302 354
#     4  10  17  30  59  85 108 142 204 237 287 352
#     4  10  18  33  58  84 112 158 190 241 301 362
#
# _framework density 20.559269
#
# number of rings (size 3 to 8) (size 9 to 14) (size 15 to 20)
#    0.000    2.133    4.000    0.800    1.867    0.000 
#    0.000    2.667    8.800    3.200    0.000    0.000 
#    0.000    0.000    0.000    0.000    0.000    0.000 
#
# Total GULP energy -83629.554784 kJ/mol
# GULP energy per Si atom -5575.303652 kJ/mol
# Density = 2.051248 g / cm^3
# Si number density = 20.559269 Si / 1000 Ang^3
#
#
#
# Elastic Constant Matrix: (Units=GPa)
#
#
# Indices 1 2 3 4 5 6 
#
# 1 75.7560 16.1260 36.1917 0.0000 31.1705 0.0000
# 2 16.1260 103.0042 38.9154 0.0000 26.4116 0.0000
# 3 36.1917 38.9154 151.4250 0.0000 53.5268 0.0000
# 4 0.0000 0.0000 0.0000 23.0602 0.0000 8.6393
# 5 31.1705 26.4116 53.5268 0.0000 50.7547 0.0000
# 6 0.0000 0.0000 0.0000 8.6393 0.0000 17.4881
#
#
#
# Elastic Compliance Matrix: (Units=1/GPa)
#
#
# Indices 1 2 3 4 5 6 
#
# 1 0.017701 0.000097 -0.000630 0.000000 -0.010257 0.000000
# 2 0.000097 0.011368 -0.001327 0.000000 -0.004575 0.000000
# 3 -0.000630 -0.001327 0.010706 0.000000 -0.010213 0.000000
# 4 0.000000 0.000000 0.000000 0.053213 0.000000 -0.026288
# 5 -0.010257 -0.004575 -0.010213 0.000000 0.039153 0.000000
# 6 0.000000 0.000000 0.000000 -0.026288 0.000000 0.070168
#
#
# Mechanical properties :
#
#
# Convention : Reuss Voigt Hill
#
# Bulk Modulus (GPa) = 27.73638 56.96127 42.34882
# Shear Modulus (GPa) = 22.93073 34.19074 28.56074
#
# Velocity S-wave (km/s) = 3.34331 4.08245 3.73123
# Velocity P-wave (km/s) = 5.33140 7.07021 6.26146
#
# Compressibility (1/GPa) = 0.03605373
#
# Stress axis : x y z
#
# Youngs Moduli (GPa) = 56.49432 87.96785 93.40794
#
# Poissons Ratio (x) = -0.00851 0.05883
# Poissons Ratio (y) = -0.00547 0.12398
# Poissons Ratio (z) = 0.03558 0.11676
#
# Static dielectric constant tensor:
#      x y z
#    x 1.749150 0.000000 -0.009470 
#    y 0.000000 1.690560 0.000000 
#    z -0.009470 0.000000 1.842390 
# 
# From -- ./inp_files/36898.got.cif
#   From: 2010.05.17/outbox.cif.g08.bks.cpg/sg5_19_cif.got.tgz:36898.got - 2010.06.03 18:56:24.
