data_PCOD9120890
_publ_section_title
;
Structure prediction by ZEFSAII (Michael W. Deem and Ramdas Pophale) SiO2 
 PCOD9120890
Probable space group: C 2
;
_chemical_formula_sum "Si O2"
_cell_formula_units_Z 30
_cell_length_a 11.204485
_cell_length_b 14.601305
_cell_length_c 17.806874
_cell_angle_alpha 90.000000
_cell_angle_beta 29.925335
_cell_angle_gamma 90.000000
_cell_volume 1453.314242
_symmetry_space_group_name_H-M "C 2"
_symmetry_group_IT_number 5
_symmetry_cell_setting 'monoclinic'
loop_
_space_group_symop_operation_xyz
x,y,z
-x,y,-z
1/2+x,1/2+y,z
1/2-x,1/2+y,-z
loop_
_atom_site_type_symbol
_atom_site_label
_atom_site_fract_x
_atom_site_fract_y
_atom_site_fract_z
Si Si1 0.268029 0.094840 0.824556
Si Si2 0.782983 0.978583 0.852458
Si Si3 0.480049 0.909305 0.346336
Si Si4 0.979721 0.297920 0.212432
Si Si5 0.500000 0.954809 0.500000
Si Si6 0.556949 0.435322 0.389665
Si Si7 0.245878 0.277330 0.914156
Si Si8 0.127298 0.102711 0.729912
O O1 0.358221 0.182670 0.822710
O O2 0.220425 0.117028 0.763250
O O3 0.450661 0.010778 0.720571
O O4 0.000000 0.068763 0.000000
O O5 0.869975 0.054537 0.863647
O O6 0.872495 0.996392 0.719198
O O7 0.865200 0.875474 0.831376
O O8 0.500000 0.976878 0.000000
O O9 0.598362 0.845995 0.219060
O O10 0.550003 0.902183 0.395490
O O11 0.196388 0.890277 0.494601
O O12 0.771457 0.362834 0.289830
O O13 0.870347 0.203794 0.303228
O O14 0.165236 0.275848 0.044671
O O15 0.285132 0.026123 0.602832
O O16 0.500000 0.482738 0.500000
O O17 0.000000 0.278208 0.000000
#
# Coordination Sequence:
#
# PCOD9120890 Si02
#       8
#     4   4   4   4   2   4   4   4
#     4  10  20  38  60  93 128 160 217 267 314 385
#     4  11  21  38  63  92 129 169 217 269 325 386
#     4  10  23  38  62  92 131 169 217 268 329 377
#     4  11  21  38  64  96 122 160 222 270 310 393
#     4  10  22  42  58  88 126 170 210 264 326 386
#     4  10  20  37  60  91 125 160 219 266 319 377
#     4  10  18  36  61  92 124 155 213 263 319 373
#     4  11  22  36  64  91 122 163 215 264 316 382
#
# _framework density 20.642474
#
# number of rings (size 3 to 8) (size 9 to 14) (size 15 to 20)
#    0.000    1.600    6.667    0.000    4.667    0.000 
#    0.000    0.667    1.467    0.000    0.000    0.000 
#    0.000    0.000    0.000    0.000    0.000    0.000 
#
# Total GULP energy -83553.859492 kJ/mol
# GULP energy per Si atom -5570.257299 kJ/mol
# Density = 2.059549 g / cm^3
# Si number density = 20.642474 Si / 1000 Ang^3
#
#
#
# Elastic Constant Matrix: (Units=GPa)
#
#
# Indices 1 2 3 4 5 6 
#
# 1 86.1326 54.8885 26.4318 -0.0002 31.7542 -0.0032
# 2 54.8885 87.9958 13.2312 -0.0134 15.9371 -0.0019
# 3 26.4318 13.2312 56.4786 -0.0235 25.4261 -0.0016
# 4 -0.0002 -0.0134 -0.0235 10.5447 0.0067 8.3340
# 5 31.7542 15.9371 25.4261 0.0067 37.0948 0.0054
# 6 -0.0032 -0.0019 -0.0016 8.3340 0.0054 25.2855
#
#
#
# Elastic Compliance Matrix: (Units=1/GPa)
#
#
# Indices 1 2 3 4 5 6 
#
# 1 0.026544 -0.013424 -0.002379 -0.000022 -0.015325 0.000013
# 2 -0.013424 0.019133 0.000474 0.000032 0.002947 -0.000012
# 3 -0.002379 0.000474 0.025864 0.000087 -0.015895 -0.000024
# 4 -0.000022 0.000032 0.000087 0.128242 -0.000072 -0.042268
# 5 -0.015325 0.002947 -0.015895 -0.000072 0.049706 0.000010
# 6 0.000013 -0.000012 -0.000024 -0.042268 0.000010 0.053480
#
#
# Mechanical properties :
#
#
# Convention : Reuss Voigt Hill
#
# Bulk Modulus (GPa) = 24.46026 46.63445 35.54736
# Shear Modulus (GPa) = 14.39866 23.65537 19.02701
#
# Velocity S-wave (km/s) = 2.64394 3.38887 3.03931
# Velocity P-wave (km/s) = 4.60388 6.16061 5.43824
#
# Compressibility (1/GPa) = 0.04088264
#
# Stress axis : x y z
#
# Youngs Moduli (GPa) = 37.67285 52.26634 38.66370
#
# Poissons Ratio (x) = 0.70163 0.09197
# Poissons Ratio (y) = 0.50573 -0.01831
# Poissons Ratio (z) = 0.08961 -0.02476
#
# Static dielectric constant tensor:
#      x y z
#    x 1.787200 0.000000 -0.037280 
#    y 0.000000 1.778020 0.000000 
#    z -0.037280 0.000000 1.863780 
# 
# From -- ./inp_files/60652.got.cif
#   From: 2010.05.17/outbox.cif.g08.bks.cpg/sg5_31_cif.got.tgz:60652.got - 2010.06.03 18:56:24.
