data_PCOD9120413
_publ_section_title
;
Structure prediction by ZEFSAII (Michael W. Deem and Ramdas Pophale) SiO2 
 PCOD9120413
Probable space group: C 2
;
_chemical_formula_sum "Si O2"
_cell_formula_units_Z 32
_cell_length_a 12.227090
_cell_length_b 18.825946
_cell_length_c 7.015236
_cell_angle_alpha 90.000000
_cell_angle_beta 52.412155
_cell_angle_gamma 90.000000
_cell_volume 1279.608508
_symmetry_space_group_name_H-M "C 2"
_symmetry_group_IT_number 5
_symmetry_cell_setting 'monoclinic'
loop_
_space_group_symop_operation_xyz
x,y,z
-x,y,-z
1/2+x,1/2+y,z
1/2-x,1/2+y,-z
loop_
_atom_site_type_symbol
_atom_site_label
_atom_site_fract_x
_atom_site_fract_y
_atom_site_fract_z
Si Si1 0.795491 0.455600 0.942321
Si Si2 0.548835 0.366571 0.196513
Si Si3 0.312615 0.119055 0.380025
Si Si4 0.505646 0.833103 0.718002
Si Si5 0.876721 0.001911 0.514320
Si Si6 0.286876 0.278848 0.359989
Si Si7 0.875653 0.608354 0.855418
Si Si8 0.756821 0.756958 0.933424
O O1 0.934987 0.410072 0.811921
O O2 0.679548 0.408427 0.957680
O O3 0.731195 0.469966 0.219037
O O4 0.822036 0.533508 0.834635
O O5 0.455990 0.434757 0.344591
O O6 0.436337 0.311436 0.238571
O O7 0.637167 0.317743 0.251062
O O8 0.267366 0.199737 0.462020
O O9 0.339804 0.112275 0.121160
O O10 0.200924 0.057815 0.535741
O O11 0.459177 0.109272 0.325411
O O12 0.500000 0.814577 0.500000
O O13 0.667228 0.826559 0.580747
O O14 0.400461 0.779561 0.934378
O O15 0.000000 0.041517 0.500000
O O16 0.275082 0.267176 0.144350
O O17 0.805421 0.677791 0.841015
#
# Coordination Sequence:
#
# PCOD9120413 Si02
#       8
#     4   4   4   4   4   4   4   4
#     4   9  19  33  48  68 102 132 163 201 245 294
#     4  10  18  30  48  73 100 132 162 196 248 298
#     4   9  17  28  47  73  98 122 161 209 251 279
#     4   9  19  31  48  73 101 129 162 200 246 295
#     4   9  19  32  48  73 102 131 165 200 247 300
#     4  10  18  29  49  77 101 123 163 208 251 287
#     4   9  16  29  49  71  96 127 161 203 248 291
#     4   9  17  32  51  72  99 130 162 205 248 290
#
# _framework density 25.007648
#
# number of rings (size 3 to 8) (size 9 to 14) (size 15 to 20)
#    0.000    2.750    1.250    0.375    1.750    4.500 
#    0.000    0.000    0.000    3.750    0.000    3.500 
#    0.000    0.000    0.000    0.000    0.000    0.000 
#
# Total GULP energy -89334.272555 kJ/mol
# GULP energy per Si atom -5583.392035 kJ/mol
# Density = 2.495073 g / cm^3
# Si number density = 25.007648 Si / 1000 Ang^3
#
#
#
# Elastic Constant Matrix: (Units=GPa)
#
#
# Indices 1 2 3 4 5 6 
#
# 1 84.2229 24.1173 33.6637 0.0000 -9.6456 0.0000
# 2 24.1173 212.0058 77.3341 0.0000 -35.2988 0.0000
# 3 33.6637 77.3341 145.9441 0.0000 -36.3311 0.0000
# 4 0.0000 0.0000 0.0000 33.1129 0.0000 -13.4334
# 5 -9.6456 -35.2988 -36.3311 0.0000 40.5513 0.0000
# 6 0.0000 0.0000 0.0000 -13.4334 0.0000 23.4432
#
#
#
# Elastic Compliance Matrix: (Units=1/GPa)
#
#
# Indices 1 2 3 4 5 6 
#
# 1 0.013121 -0.000454 -0.002712 0.000000 0.000296 0.000000
# 2 -0.000454 0.006156 -0.002381 0.000000 0.003117 0.000000
# 3 -0.002712 -0.002381 0.010377 0.000000 0.006579 0.000000
# 4 0.000000 0.000000 0.000000 0.039346 0.000000 0.022546
# 5 0.000296 0.003117 0.006579 0.000000 0.033338 0.000000
# 6 0.000000 0.000000 0.000000 0.022546 0.000000 0.055576
#
#
# Mechanical properties :
#
#
# Convention : Reuss Voigt Hill
#
# Bulk Modulus (GPa) = 53.88158 79.15587 66.51873
# Shear Modulus (GPa) = 28.53925 39.89198 34.21561
#
# Velocity S-wave (km/s) = 3.38186 3.99832 3.70294
# Velocity P-wave (km/s) = 6.06977 7.28263 6.70369
#
# Compressibility (1/GPa) = 0.01855922
#
# Stress axis : x y z
#
# Youngs Moduli (GPa) = 76.21220 162.43847 96.36467
#
# Poissons Ratio (x) = 0.07375 0.26138
# Poissons Ratio (y) = 0.03460 0.22948
# Poissons Ratio (z) = 0.20672 0.38682
#
# Static dielectric constant tensor:
#      x y z
#    x 2.106660 0.000000 0.114640 
#    y 0.000000 1.966580 0.000000 
#    z 0.114640 0.000000 2.050420 
# 
# From -- ./inp_files/24640.got.cif
#   From: 2010.05.17/outbox.cif.g08.bks.cpg/sg5_13_cif.got.tgz:24640.got - 2010.06.03 18:56:24.
