data_PCOD9120459
_publ_section_title
;
Structure prediction by ZEFSAII (Michael W. Deem and Ramdas Pophale) SiO2 
 PCOD9120459
Probable space group: C 2
;
_chemical_formula_sum "Si O2"
_cell_formula_units_Z 30
_cell_length_a 18.273302
_cell_length_b 12.102598
_cell_length_c 15.638924
_cell_angle_alpha 90.000000
_cell_angle_beta 154.014709
_cell_angle_gamma 90.000000
_cell_volume 1515.359943
_symmetry_space_group_name_H-M "C 2"
_symmetry_group_IT_number 5
_symmetry_cell_setting 'monoclinic'
loop_
_space_group_symop_operation_xyz
x,y,z
-x,y,-z
1/2+x,1/2+y,z
1/2-x,1/2+y,-z
loop_
_atom_site_type_symbol
_atom_site_label
_atom_site_fract_x
_atom_site_fract_y
_atom_site_fract_z
Si Si1 0.787491 0.011710 0.205396
Si Si2 0.862164 0.988033 0.483974
Si Si3 0.140862 0.193753 0.388754
Si Si4 0.756490 0.263673 0.197967
Si Si5 0.886071 0.808134 0.765282
Si Si6 0.032887 0.420366 0.232197
Si Si7 0.706100 0.034196 0.568371
Si Si8 0.500000 0.949784 0.500000
O O1 0.795251 0.002928 0.316585
O O2 0.811935 0.144758 0.222220
O O3 0.946962 0.949706 0.331403
O O4 0.616769 0.968726 0.982774
O O5 0.889088 0.093889 0.575586
O O6 0.710636 0.922169 0.368767
O O7 0.304502 0.249688 0.600023
O O8 0.010036 0.293880 0.240454
O O9 0.193814 0.141091 0.354669
O O10 0.705746 0.260542 0.245984
O O11 0.888595 0.362546 0.328513
O O12 0.581164 0.291806 0.971863
O O13 0.839753 0.935565 0.712727
O O14 0.072362 0.499309 0.354652
O O15 0.612792 0.026209 0.559591
#
# Coordination Sequence:
#
# PCOD9120459 Si02
#       8
#     4   4   4   4   4   4   4   2
#     4  11  21  35  64  95 117 158 204 254 308 363
#     4  10  21  38  62  89 124 154 207 252 301 368
#     4  10  19  40  60  83 121 165 193 251 307 370
#     4  10  18  30  58  89 115 142 197 254 304 350
#     4   9  18  32  58  86 111 152 194 243 307 358
#     4  10  22  38  60  88 126 158 201 252 313 362
#     4   9  20  37  58  83 119 156 202 248 312 359
#     4  10  20  36  56  90 124 152 202 266 300 368
#
# _framework density 19.797277999999999
#
# number of rings (size 3 to 8) (size 9 to 14) (size 15 to 20)
#    0.000    2.133    1.333    2.800    5.600    0.000 
#    7.200    4.000   11.733    0.000    0.000    0.000 
#    0.000    0.000    0.000    0.000    0.000    0.000 
#
# Total GULP energy -83550.174197 kJ/mol
# GULP energy per Si atom -5570.011613 kJ/mol
# Density = 1.975222 g / cm^3
# Si number density = 19.797278 Si / 1000 Ang^3
#
#
#
# Elastic Constant Matrix: (Units=GPa)
#
#
# Indices 1 2 3 4 5 6 
#
# 1 48.2338 13.1994 16.7107 0.0000 2.2184 0.0000
# 2 13.1994 42.8233 5.9942 0.0001 -6.7301 0.0001
# 3 16.7107 5.9942 68.4581 0.0000 -1.7682 0.0001
# 4 0.0000 0.0001 0.0000 6.4489 0.0001 -6.2229
# 5 2.2184 -6.7301 -1.7682 0.0001 19.6796 0.0001
# 6 0.0000 0.0001 0.0001 -6.2229 0.0001 26.0796
#
#
#
# Elastic Compliance Matrix: (Units=1/GPa)
#
#
# Indices 1 2 3 4 5 6 
#
# 1 0.025111 -0.007906 -0.005593 0.000000 -0.006037 0.000000
# 2 -0.007906 0.027429 -0.000207 -0.000001 0.010253 0.000000
# 3 -0.005593 -0.000207 0.016043 0.000000 0.002001 0.000000
# 4 0.000000 -0.000001 0.000000 0.201449 -0.000001 0.048068
# 5 -0.006037 0.010253 0.002001 -0.000001 0.055181 0.000000
# 6 0.000000 0.000000 0.000000 0.048068 0.000000 0.049814
#
#
# Mechanical properties :
#
#
# Convention : Reuss Voigt Hill
#
# Bulk Modulus (GPa) = 24.28937 25.70265 24.99601
# Shear Modulus (GPa) = 12.01455 18.68234 15.34844
#
# Velocity S-wave (km/s) = 2.46616 3.07527 2.78741
# Velocity P-wave (km/s) = 4.51719 5.06170 4.79718
#
# Compressibility (1/GPa) = 0.04117028
#
# Stress axis : x y z
#
# Youngs Moduli (GPa) = 39.82264 36.45786 62.33387
#
# Poissons Ratio (x) = 0.28823 0.34866
# Poissons Ratio (y) = 0.31483 0.01290
# Poissons Ratio (z) = 0.22274 0.00755
#
# Static dielectric constant tensor:
#      x y z
#    x 1.745460 0.000000 -0.011470 
#    y 0.000000 1.742040 0.000000 
#    z -0.011470 0.000000 1.677900 
# 
# From -- ./inp_files/27229.got.cif
#   From: 2010.05.17/outbox.cif.g08.bks.cpg/sg5_14_cif.got.tgz:27229.got - 2010.06.03 18:56:24.
