data_PCOD9120581
_publ_section_title
;
Structure prediction by ZEFSAII (Michael W. Deem and Ramdas Pophale) SiO2 
 PCOD9120581
Probable space group: C 2
;
_chemical_formula_sum "Si O2"
_cell_formula_units_Z 26
_cell_length_a 17.010046
_cell_length_b 5.410758
_cell_length_c 23.966186
_cell_angle_alpha 90.000000
_cell_angle_beta 31.090422
_cell_angle_gamma 90.000000
_cell_volume 1139.043998
_symmetry_space_group_name_H-M "C 2"
_symmetry_group_IT_number 5
_symmetry_cell_setting 'monoclinic'
loop_
_space_group_symop_operation_xyz
x,y,z
-x,y,-z
1/2+x,1/2+y,z
1/2-x,1/2+y,-z
loop_
_atom_site_type_symbol
_atom_site_label
_atom_site_fract_x
_atom_site_fract_y
_atom_site_fract_z
Si Si1 0.676969 0.014580 0.998693
Si Si2 0.699635 0.516393 0.705326
Si Si3 0.000000 0.244235 0.500000
Si Si4 0.579186 0.514995 0.054161
Si Si5 0.943274 0.519437 0.244458
Si Si6 0.549724 0.965978 0.639514
Si Si7 0.914897 0.969767 0.440529
O O1 0.639928 0.265838 0.989844
O O2 0.554602 0.013782 0.123957
O O3 0.641357 0.763159 0.988765
O O4 0.836217 0.017060 0.935297
O O5 0.872027 0.427345 0.602702
O O6 0.599556 0.513706 0.823058
O O7 0.631797 0.289800 0.710019
O O8 0.667722 0.783954 0.698003
O O9 0.944874 0.062883 0.484595
O O10 0.022450 0.492858 0.255716
O O11 0.733304 0.968216 0.539255
O O12 0.523039 0.202538 0.616088
O O13 0.514498 0.695889 0.637705
#
# Coordination Sequence:
#
# PCOD9120581 Si02
#       7
#     4   4   2   4   4   4   4
#     4   8  14  24  46  68  98 127 164 210 266 310
#     4  10  21  30  50  74 108 140 175 215 259 314
#     4  12  24  38  52  82 108 152 180 218 260 324
#     4   8  14  27  40  69 101 131 160 209 266 306
#     4  10  18  33  52  76 100 137 175 221 264 313
#     4  10  20  38  52  73  98 142 174 224 258 306
#     4  10  23  34  54  70 104 139 180 214 261 305
#
# _framework density 22.826159000000001
#
# number of rings (size 3 to 8) (size 9 to 14) (size 15 to 20)
#    0.000    2.462    1.538    0.923    4.308    2.462 
#    0.000    0.000    0.000    0.000    0.000    1.077 
#    0.000    2.462    0.000    0.154    0.000    0.308 
#
# Total GULP energy -72513.193013 kJ/mol
# GULP energy per Si atom -5577.937924 kJ/mol
# Density = 2.277421 g / cm^3
# Si number density = 22.826159 Si / 1000 Ang^3
#
#
#
# Elastic Constant Matrix: (Units=GPa)
#
#
# Indices 1 2 3 4 5 6 
#
# 1 33.5655 10.2041 -3.2461 -0.0460 3.9969 -0.0068
# 2 10.2041 170.5038 18.7733 -0.0474 -4.6837 -0.0025
# 3 -3.2461 18.7733 62.5169 -0.0046 -19.0494 0.0081
# 4 -0.0460 -0.0474 -0.0046 25.3510 0.0108 -4.0750
# 5 3.9969 -4.6837 -19.0494 0.0108 17.6082 0.0145
# 6 -0.0068 -0.0025 0.0081 -4.0750 0.0145 23.4346
#
#
#
# Elastic Compliance Matrix: (Units=1/GPa)
#
#
# Indices 1 2 3 4 5 6 
#
# 1 0.031341 -0.002076 -0.000127 0.000060 -0.007804 0.000024
# 2 -0.002076 0.006206 -0.001976 0.000008 -0.000016 0.000002
# 3 -0.000127 -0.001976 0.024511 -0.000015 0.026021 -0.000027
# 4 0.000060 0.000008 -0.000015 0.040581 -0.000059 0.007056
# 5 -0.007804 -0.000016 0.026021 -0.000059 0.086709 -0.000075
# 6 0.000024 0.000002 -0.000027 0.007056 -0.000075 0.043899
#
#
# Mechanical properties :
#
#
# Convention : Reuss Voigt Hill
#
# Bulk Modulus (GPa) = 18.62230 35.33876 26.98053
# Shear Modulus (GPa) = 19.26736 29.33576 24.30156
#
# Velocity S-wave (km/s) = 2.90848 3.58883 3.26642
# Velocity P-wave (km/s) = 4.41078 5.71736 5.10604
#
# Compressibility (1/GPa) = 0.05369907
#
# Stress axis : x y z
#
# Youngs Moduli (GPa) = 31.90746 161.12433 40.79752
#
# Poissons Ratio (x) = 0.33449 0.00519
# Poissons Ratio (y) = 0.06624 0.08063
# Poissons Ratio (z) = 0.00406 0.31845
#
# Static dielectric constant tensor:
#      x y z
#    x 1.836030 -0.000020 -0.028300 
#    y -0.000020 1.945780 0.000050 
#    z -0.028300 0.000050 1.919640 
# 
# From -- ./inp_files/62020.got.cif
#   From: 2010.05.17/outbox.cif.g08.bks.cpg/sg5_32_cif.got.tgz:62020.got - 2010.06.03 18:56:24.
