data_PCOD9120912
_publ_section_title
;
Structure prediction by ZEFSAII (Michael W. Deem and Ramdas Pophale) SiO2 
 PCOD9120912
Probable space group: C 2
;
_chemical_formula_sum "Si O2"
_cell_formula_units_Z 24
_cell_length_a 9.807476
_cell_length_b 13.254240
_cell_length_c 14.318243
_cell_angle_alpha 90.000000
_cell_angle_beta 148.416256
_cell_angle_gamma 90.000000
_cell_volume 974.812448
_symmetry_space_group_name_H-M "C 2"
_symmetry_group_IT_number 5
_symmetry_cell_setting 'monoclinic'
loop_
_space_group_symop_operation_xyz
x,y,z
-x,y,-z
1/2+x,1/2+y,z
1/2-x,1/2+y,-z
loop_
_atom_site_type_symbol
_atom_site_label
_atom_site_fract_x
_atom_site_fract_y
_atom_site_fract_z
Si Si1 0.871489 0.585660 0.803287
Si Si2 0.340495 0.658151 0.520541
Si Si3 0.627026 0.064912 0.702274
Si Si4 0.763648 0.371656 0.519409
Si Si5 0.168802 0.361126 0.218290
Si Si6 0.877193 0.150340 0.041592
O O1 0.612847 0.611775 0.709748
O O2 0.754716 0.603293 0.629982
O O3 0.960044 0.471052 0.870385
O O4 0.122816 0.655794 0.957984
O O5 0.367086 0.776227 0.523181
O O6 0.096738 0.646700 0.447641
O O7 0.750845 0.098712 0.874821
O O8 0.454749 0.964051 0.603907
O O9 0.883859 0.077213 0.789807
O O10 0.447406 0.373163 0.327635
O O11 0.795661 0.356290 0.649185
O O12 0.002723 0.260915 0.099747
#
# Coordination Sequence:
#
# PCOD9120912 Si02
#       6
#     4   4   4   4   4   4
#     4  10  20  39  61  84 124 158 197 250 302 349
#     4  10  18  36  63  88 113 161 204 239 290 366
#     4  10  19  38  60  87 118 159 195 248 293 350
#     4  11  20  35  67  87 114 165 206 236 300 363
#     4  11  20  36  65  89 115 166 200 241 306 357
#     4  10  21  35  62  88 122 154 198 250 302 347
#
# _framework density 24.620121999999999
#
# number of rings (size 3 to 8) (size 9 to 14) (size 15 to 20)
#    0.000    1.667    6.667    1.000    0.000    1.333 
#    0.000    0.000   22.000    0.000    0.000    0.000 
#    0.000    0.000    0.000    0.000    0.000    0.000 
#
# Total GULP energy -66865.356833 kJ/mol
# GULP energy per Si atom -5572.113069 kJ/mol
# Density = 2.456409 g / cm^3
# Si number density = 24.620122 Si / 1000 Ang^3
#
#
#
# Elastic Constant Matrix: (Units=GPa)
#
#
# Indices 1 2 3 4 5 6 
#
# 1 54.5463 5.6953 57.6675 0.0021 11.6271 0.0001
# 2 5.6953 204.7912 70.6020 0.0045 27.0196 0.0004
# 3 57.6675 70.6020 179.5952 0.0124 55.3595 0.0019
# 4 0.0021 0.0045 0.0124 47.8027 -0.0004 11.7533
# 5 11.6271 27.0196 55.3595 -0.0004 69.6960 -0.0011
# 6 0.0001 0.0004 0.0019 11.7533 -0.0011 15.3526
#
#
#
# Elastic Compliance Matrix: (Units=1/GPa)
#
#
# Indices 1 2 3 4 5 6 
#
# 1 0.029591 0.002743 -0.011561 0.000001 0.003183 0.000000
# 2 0.002743 0.005920 -0.003124 0.000000 -0.000271 0.000000
# 3 -0.011561 -0.003124 0.012634 -0.000003 -0.006895 0.000000
# 4 0.000001 0.000000 -0.000003 0.025770 0.000002 -0.019728
# 5 0.003183 -0.000271 -0.006895 0.000002 0.019399 0.000001
# 6 0.000000 0.000000 0.000000 -0.019728 0.000001 0.080238
#
#
# Mechanical properties :
#
#
# Convention : Reuss Voigt Hill
#
# Bulk Modulus (GPa) = 41.22140 78.54025 59.88082
# Shear Modulus (GPa) = 24.32825 46.90145 35.61485
#
# Velocity S-wave (km/s) = 3.14689 4.36937 3.80751
# Velocity P-wave (km/s) = 5.47569 7.57795 6.61092
#
# Compressibility (1/GPa) = 0.02425925
#
# Stress axis : x y z
#
# Youngs Moduli (GPa) = 33.79461 168.93082 79.15245
#
# Poissons Ratio (x) = -0.46333 0.91506
# Poissons Ratio (y) = -0.09269 0.24730
# Poissons Ratio (z) = 0.39069 0.52779
#
# Static dielectric constant tensor:
#      x y z
#    x 2.447960 0.000000 0.006640 
#    y 0.000000 1.978810 0.000000 
#    z 0.006640 0.000000 1.976850 
# 
# From -- ./inp_files/42178.got.cif
#   From: 2010.05.17/outbox.cif.g08.bks.cpg/sg5_22_cif.got.tgz:42178.got - 2010.06.03 18:56:24.
