data_PCOD9120503
_publ_section_title
;
Structure prediction by ZEFSAII (Michael W. Deem and Ramdas Pophale) SiO2 
 PCOD9120503
Probable space group: C 2
;
_chemical_formula_sum "Si O2"
_cell_formula_units_Z 32
_cell_length_a 17.483048
_cell_length_b 13.914140
_cell_length_c 17.782597
_cell_angle_alpha 90.000000
_cell_angle_beta 156.705408
_cell_angle_gamma 90.000000
_cell_volume 1710.684661
_symmetry_space_group_name_H-M "C 2"
_symmetry_group_IT_number 5
_symmetry_cell_setting 'monoclinic'
loop_
_space_group_symop_operation_xyz
x,y,z
-x,y,-z
1/2+x,1/2+y,z
1/2-x,1/2+y,-z
loop_
_atom_site_type_symbol
_atom_site_label
_atom_site_fract_x
_atom_site_fract_y
_atom_site_fract_z
Si Si1 0.101934 0.609500 0.670578
Si Si2 0.320560 0.927248 0.945204
Si Si3 0.002370 0.247377 0.833195
Si Si4 0.774646 0.804719 0.280480
Si Si5 0.648453 0.213438 0.423166
Si Si6 0.937448 0.935233 0.672303
Si Si7 0.061354 0.535314 0.262427
Si Si8 0.331000 0.534375 0.997228
O O1 0.228476 0.702651 0.764442
O O2 0.000000 0.581781 0.500000
O O3 0.949300 0.652692 0.595101
O O4 0.240071 0.528999 0.831515
O O5 0.303932 0.883045 0.847715
O O6 0.112378 0.971631 0.777157
O O7 0.350987 0.835885 0.029693
O O8 0.500980 0.996264 0.126278
O O9 0.846063 0.284431 0.753842
O O10 0.874247 0.228708 0.644171
O O11 0.100859 0.145414 0.937103
O O12 0.000000 0.824677 0.500000
O O13 0.569100 0.320454 0.342797
O O14 0.610902 0.146801 0.317550
O O15 0.736055 0.977965 0.459830
O O16 0.999687 0.971207 0.812032
O O17 0.860218 0.519543 0.125186
#
# Coordination Sequence:
#
# PCOD9120503 Si02
#       8
#     4   4   4   4   4   4   4   4
#     4  10  18  32  50  78 118 147 177 224 279 343
#     4  11  21  33  51  81 112 151 189 219 286 348
#     4  12  19  32  55  82 123 146 177 234 283 351
#     4  11  20  31  52  85 119 155 176 221 296 343
#     4  11  19  34  53  78 113 147 188 233 281 330
#     4  11  20  36  54  72 111 156 190 235 272 338
#     4  10  22  35  53  74 110 155 191 237 272 337
#     4  10  22  33  50  79 110 154 192 217 283 344
#
# _framework density 18.705960999999999
#
# number of rings (size 3 to 8) (size 9 to 14) (size 15 to 20)
#    0.000    1.250    7.500    1.125    0.000    0.000 
#    0.000    0.000    0.000    0.000    0.000    0.875 
#   18.750    0.000    1.000    0.000    0.000    0.000 
#
# Total GULP energy -89108.512143 kJ/mol
# GULP energy per Si atom -5569.282009 kJ/mol
# Density = 1.866339 g / cm^3
# Si number density = 18.705961 Si / 1000 Ang^3
#
#
#
# Elastic Constant Matrix: (Units=GPa)
#
#
# Indices 1 2 3 4 5 6 
#
# 1 37.3685 16.8503 33.3541 -0.0011 -11.2837 -0.0003
# 2 16.8503 50.5931 40.6946 -0.0084 -5.4792 -0.0016
# 3 33.3541 40.6946 152.8678 -0.0076 -10.0012 -0.0019
# 4 -0.0011 -0.0084 -0.0076 30.3844 -0.0028 -14.6065
# 5 -11.2837 -5.4792 -10.0012 -0.0028 31.5178 -0.0006
# 6 -0.0003 -0.0016 -0.0019 -14.6065 -0.0006 26.4767
#
#
#
# Elastic Compliance Matrix: (Units=1/GPa)
#
#
# Indices 1 2 3 4 5 6 
#
# 1 0.038290 -0.006921 -0.005815 -0.000002 0.010660 -0.000001
# 2 -0.006921 0.026566 -0.005537 0.000009 0.000383 0.000006
# 3 -0.005815 -0.005537 0.009278 0.000001 -0.000100 0.000001
# 4 -0.000002 0.000009 0.000001 0.044790 0.000006 0.024710
# 5 0.010660 0.000383 -0.000100 0.000006 0.035579 0.000004
# 6 -0.000001 0.000006 0.000001 0.024710 0.000004 0.051401
#
#
# Mechanical properties :
#
#
# Convention : Reuss Voigt Hill
#
# Bulk Modulus (GPa) = 26.60399 46.95860 36.78130
# Shear Modulus (GPa) = 19.60946 27.67113 23.64029
#
# Velocity S-wave (km/s) = 3.24126 3.85030 3.55883
# Velocity P-wave (km/s) = 5.31608 6.70257 6.04918
#
# Compressibility (1/GPa) = 0.03758834
#
# Stress axis : x y z
#
# Youngs Moduli (GPa) = 26.11622 37.64245 107.78579
#
# Poissons Ratio (x) = 0.26054 0.62673
# Poissons Ratio (y) = 0.18076 0.59678
# Poissons Ratio (z) = 0.15186 0.20842
#
# Static dielectric constant tensor:
#      x y z
#    x 1.736770 0.000000 0.004700 
#    y 0.000000 1.669340 0.000000 
#    z 0.004700 0.000000 1.756460 
# 
# From -- ./inp_files/67160.got.cif
#   From: 2010.05.17/outbox.cif.g08.bks.cpg/sg5_34_cif.got.tgz:67160.got - 2010.06.03 18:56:24.
