data_PCOD9120607
_publ_section_title
;
Structure prediction by ZEFSAII (Michael W. Deem and Ramdas Pophale) SiO2 
 PCOD9120607
Probable space group: C 2
;
_chemical_formula_sum "Si O2"
_cell_formula_units_Z 22
_cell_length_a 23.893862
_cell_length_b 7.119469
_cell_length_c 16.845915
_cell_angle_alpha 90.000000
_cell_angle_beta 162.429101
_cell_angle_gamma 90.000000
_cell_volume 865.109592
_symmetry_space_group_name_H-M "C 2"
_symmetry_group_IT_number 5
_symmetry_cell_setting 'monoclinic'
loop_
_space_group_symop_operation_xyz
x,y,z
-x,y,-z
1/2+x,1/2+y,z
1/2-x,1/2+y,-z
loop_
_atom_site_type_symbol
_atom_site_label
_atom_site_fract_x
_atom_site_fract_y
_atom_site_fract_z
Si Si1 0.818778 0.096890 0.684705
Si Si2 0.500000 0.848591 0.500000
Si Si3 0.497824 0.897703 0.156251
Si Si4 0.491609 0.210556 0.321198
Si Si5 0.092930 0.987725 0.940397
Si Si6 0.176547 0.019328 0.812270
O O1 0.913808 0.300361 0.800917
O O2 0.694299 0.119035 0.594360
O O3 0.655098 0.033008 0.403180
O O4 0.980708 0.958548 0.872355
O O5 0.545735 0.699642 0.631695
O O6 0.689450 0.962336 0.751460
O O7 0.462993 0.701927 0.157609
O O8 0.301773 0.000335 0.901691
O O9 0.472896 0.351766 0.219519
O O10 0.438891 0.336333 0.323981
O O11 0.333304 0.056379 0.090909
#
# Coordination Sequence:
#
# PCOD9120607 Si02
#       6
#     4   2   4   4   4   4
#     4   9  16  31  56  87 113 146 190 250 283 334
#     4  10  22  36  54  88 126 160 186 228 304 354
#     4   9  17  30  55  87 112 145 193 241 288 332
#     4  10  18  33  57  91 114 146 202 245 281 330
#     4   9  17  33  54  85 116 152 192 238 285 349
#     4  10  21  34  57  94 117 154 189 244 291 348
#
# _framework density 25.430304
#
# number of rings (size 3 to 8) (size 9 to 14) (size 15 to 20)
#    1.091    1.455    1.818    1.091    0.000    0.727 
#    0.000    0.000    0.000    1.091   28.364    0.000 
#    0.000    0.000    0.000    0.000    0.000    0.000 
#
# Total GULP energy -61263.513996 kJ/mol
# GULP energy per Si atom -5569.410363 kJ/mol
# Density = 2.537242 g / cm^3
# Si number density = 25.430304 Si / 1000 Ang^3
#
#
#
# Elastic Constant Matrix: (Units=GPa)
#
#
# Indices 1 2 3 4 5 6 
#
# 1 76.6392 29.3891 69.6349 0.0000 19.4713 0.0000
# 2 29.3891 72.1680 28.6698 0.0000 -5.5030 0.0000
# 3 69.6349 28.6698 168.2726 0.0000 25.7196 0.0000
# 4 0.0000 0.0000 0.0000 33.6215 0.0000 15.4938
# 5 19.4713 -5.5030 25.7196 0.0000 27.0119 0.0000
# 6 0.0000 0.0000 0.0000 15.4938 0.0000 35.1296
#
#
#
# Elastic Compliance Matrix: (Units=1/GPa)
#
#
# Indices 1 2 3 4 5 6 
#
# 1 0.026848 -0.009073 -0.007401 0.000000 -0.014154 0.000000
# 2 -0.009073 0.018926 -0.001240 0.000000 0.011576 0.000000
# 3 -0.007401 -0.001240 0.009877 0.000000 -0.004322 0.000000
# 4 0.000000 0.000000 0.000000 0.037330 0.000000 -0.016464
# 5 -0.014154 0.011576 -0.004322 0.000000 0.053698 0.000000
# 6 0.000000 0.000000 0.000000 -0.016464 0.000000 0.035728
#
#
# Mechanical properties :
#
#
# Convention : Reuss Voigt Hill
#
# Bulk Modulus (GPa) = 49.44286 63.60749 56.52517
# Shear Modulus (GPa) = 22.26425 31.77832 27.02128
#
# Velocity S-wave (km/s) = 2.96210 3.53884 3.26323
# Velocity P-wave (km/s) = 5.58421 6.46255 6.03937
#
# Compressibility (1/GPa) = 0.02022537
#
# Stress axis : x y z
#
# Youngs Moduli (GPa) = 37.24653 52.83662 101.24207
#
# Poissons Ratio (x) = 0.47936 0.74931
# Poissons Ratio (y) = 0.33792 0.12549
# Poissons Ratio (z) = 0.27567 0.06549
#
# Static dielectric constant tensor:
#      x y z
#    x 2.138150 0.000000 0.013250 
#    y 0.000000 2.001870 0.000000 
#    z 0.013250 0.000000 2.010130 
# 
# From -- ./inp_files/22718.got.cif
#   From: 2010.05.17/outbox.cif.g08.bks.cpg/sg5_12_cif.got.tgz:22718.got - 2010.06.03 18:56:24.
