data_PCOD9120013
_publ_section_title
;
Structure prediction by ZEFSAII (Michael W. Deem and Ramdas Pophale) SiO2 
 PCOD9120013
Probable space group: C 2
;
_chemical_formula_sum "Si O2"
_cell_formula_units_Z 26
_cell_length_a 11.561579
_cell_length_b 14.562460
_cell_length_c 19.059753
_cell_angle_alpha 90.000000
_cell_angle_beta 153.159737
_cell_angle_gamma 90.000000
_cell_volume 1448.876640
_symmetry_space_group_name_H-M "C 2"
_symmetry_group_IT_number 5
_symmetry_cell_setting 'monoclinic'
loop_
_space_group_symop_operation_xyz
x,y,z
-x,y,-z
1/2+x,1/2+y,z
1/2-x,1/2+y,-z
loop_
_atom_site_type_symbol
_atom_site_label
_atom_site_fract_x
_atom_site_fract_y
_atom_site_fract_z
Si Si1 0.500000 0.723250 0.500000
Si Si2 0.183022 0.079214 0.481388
Si Si3 0.746455 0.975193 0.173210
Si Si4 0.747694 0.383895 0.582779
Si Si5 0.464356 0.309803 0.203760
Si Si6 0.496920 0.829038 0.147642
Si Si7 0.043210 0.726655 0.653313
O O1 0.594278 0.654202 0.490468
O O2 0.741835 0.785665 0.653204
O O3 0.412327 0.130485 0.566469
O O4 0.277721 0.983338 0.565184
O O5 0.934787 0.051509 0.303363
O O6 0.906376 0.908017 0.208441
O O7 0.630004 0.910158 0.172258
O O8 0.500000 0.012691 0.000000
O O9 0.500000 0.390732 0.500000
O O10 0.983575 0.357771 0.760806
O O11 0.661506 0.305963 0.480712
O O12 0.393705 0.240622 0.229927
O O13 0.272130 0.305383 0.033956
O O14 0.695762 0.745387 0.246337
#
# Coordination Sequence:
#
# PCOD9120013 Si02
#       7
#     2   4   4   4   4   4   4
#     4  10  20  30  52  80  96 134 170 214 256 296
#     4  11  17  31  52  78 100 131 173 215 243 304
#     4   9  16  30  53  75  94 135 175 209 243 300
#     4  10  16  31  53  75  99 130 172 208 241 302
#     4   9  17  32  52  72 103 131 169 206 257 300
#     4   9  16  31  55  75  97 132 172 208 245 300
#     4   9  18  28  52  79  99 132 169 203 255 292
#
# _framework density 17.944935999999998
#
# number of rings (size 3 to 8) (size 9 to 14) (size 15 to 20)
#    0.000    2.462    5.385    1.385    0.000    0.000 
#    2.769    0.000    5.077    3.692    0.000    0.000 
#    0.000    0.000    0.000    0.000    0.000    0.000 
#
# Total GULP energy -72369.643655 kJ/mol
# GULP energy per Si atom -5566.895666 kJ/mol
# Density = 1.790409 g / cm^3
# Si number density = 17.944936 Si / 1000 Ang^3
#
#
#
# Elastic Constant Matrix: (Units=GPa)
#
#
# Indices 1 2 3 4 5 6 
#
# 1 14.1366 12.2123 27.6127 0.0001 -9.1657 0.0013
# 2 12.2123 72.2331 63.1720 -0.0041 -2.8965 0.0007
# 3 27.6127 63.1720 180.4198 -0.0086 -24.3457 0.0051
# 4 0.0001 -0.0041 -0.0086 34.1910 0.0013 5.6424
# 5 -9.1657 -2.8965 -24.3457 0.0013 24.8336 0.0026
# 6 0.0013 0.0007 0.0051 5.6424 0.0026 14.5989
#
#
#
# Elastic Compliance Matrix: (Units=1/GPa)
#
#
# Indices 1 2 3 4 5 6 
#
# 1 0.121740 -0.009922 -0.010661 -0.000004 0.033323 -0.000012
# 2 -0.009922 0.021366 -0.007054 0.000001 -0.008085 0.000004
# 3 -0.010661 -0.007054 0.010374 0.000002 0.005413 -0.000004
# 4 -0.000004 0.000001 0.000002 0.031240 0.000001 -0.012074
# 5 0.033323 -0.008085 0.005413 0.000001 0.056931 -0.000015
# 6 -0.000012 0.000004 -0.000004 -0.012074 -0.000015 0.073165
#
#
# Mechanical properties :
#
#
# Convention : Reuss Voigt Hill
#
# Bulk Modulus (GPa) = 10.18261 52.53150 31.35705
# Shear Modulus (GPa) = 12.41229 25.64418 19.02824
#
# Velocity S-wave (km/s) = 2.63285 3.78438 3.25986
# Velocity P-wave (km/s) = 3.86383 6.95935 5.62858
#
# Compressibility (1/GPa) = 0.09820668
#
# Stress axis : x y z
#
# Youngs Moduli (GPa) = 8.21422 46.80299 96.39087
#
# Poissons Ratio (x) = 0.46440 1.02763
# Poissons Ratio (y) = 0.08150 0.67990
# Poissons Ratio (z) = 0.08757 0.33013
#
# Static dielectric constant tensor:
#      x y z
#    x 1.662710 0.000000 -0.011290 
#    y 0.000000 1.616130 0.000000 
#    z -0.011290 0.000000 1.648060 
# 
# From -- ./inp_files/39297.got.cif
#   From: 2010.05.17/outbox.cif.g08.bks.cpg/sg5_20_cif.got.tgz:39297.got - 2010.06.03 18:56:24.
