data_PCOD9120207
_publ_section_title
;
Structure prediction by ZEFSAII (Michael W. Deem and Ramdas Pophale) SiO2 
 PCOD9120207
Probable space group: C 2
;
_chemical_formula_sum "Si O2"
_cell_formula_units_Z 32
_cell_length_a 7.408533
_cell_length_b 15.879738
_cell_length_c 12.376298
_cell_angle_alpha 90.000000
_cell_angle_beta 87.906182
_cell_angle_gamma 90.000000
_cell_volume 1455.044425
_symmetry_space_group_name_H-M "C 2"
_symmetry_group_IT_number 5
_symmetry_cell_setting 'monoclinic'
loop_
_space_group_symop_operation_xyz
x,y,z
-x,y,-z
1/2+x,1/2+y,z
1/2-x,1/2+y,-z
loop_
_atom_site_type_symbol
_atom_site_label
_atom_site_fract_x
_atom_site_fract_y
_atom_site_fract_z
Si Si1 0.718200 0.819300 0.999029
Si Si2 0.255954 0.065127 0.225185
Si Si3 0.741799 0.878384 0.761757
Si Si4 0.810483 0.574220 0.759192
Si Si5 0.290314 0.123194 0.996800
Si Si6 0.691873 0.729540 0.365790
Si Si7 0.736490 0.730038 0.606474
Si Si8 0.699331 0.887491 0.226472
O O1 0.789988 0.851652 0.882901
O O2 0.777519 0.723235 0.014572
O O3 0.500000 0.818125 0.000000
O O4 0.763156 0.875560 0.101726
O O5 0.473923 0.068711 0.228117
O O6 0.198318 0.143179 0.299140
O O7 0.196053 0.972960 0.263580
O O8 0.200484 0.079176 0.101635
O O9 0.806180 0.809016 0.674864
O O10 0.520923 0.881690 0.767529
O O11 0.729322 0.602264 0.876883
O O12 0.775187 0.644453 0.670429
O O13 0.749452 0.479735 0.732968
O O14 0.500000 0.097332 0.000000
O O15 0.787942 0.724697 0.479719
O O16 0.479353 0.743449 0.388350
O O17 0.763051 0.807920 0.294420
#
# Coordination Sequence:
#
# PCOD9120207 Si02
#       8
#     4   4   4   4   4   4   4   4
#     4  10  17  31  57  80 102 138 179 211 255 322
#     4  10  20  35  56  81 109 139 174 216 264 317
#     4   9  18  33  55  80 104 136 176 216 259 313
#     4  10  20  35  56  81 109 139 174 216 264 317
#     4  10  19  31  51  82 114 136 163 215 271 312
#     4  10  21  37  55  77 106 139 180 226 263 302
#     4  10  21  37  55  77 106 139 180 226 263 302
#     4   9  18  33  55  80 104 136 176 216 259 313
#
# _framework density 21.992455
#
# number of rings (size 3 to 8) (size 9 to 14) (size 15 to 20)
#    0.000    2.250    2.500    0.750    0.000    4.500 
#    0.000    5.000    0.000    1.500    0.000    0.000 
#    0.000    0.000    0.000    0.000    0.000    0.000 
#
# Total GULP energy -89385.750537 kJ/mol
# GULP energy per Si atom -5586.609409 kJ/mol
# Density = 2.194240 g / cm^3
# Si number density = 21.992455 Si / 1000 Ang^3
#
#
#
# Elastic Constant Matrix: (Units=GPa)
#
#
# Indices 1 2 3 4 5 6 
#
# 1 49.3193 -37.1534 -23.9983 0.0000 6.1561 0.0000
# 2 -37.1534 137.8260 47.1040 0.0000 6.9295 0.0000
# 3 -23.9983 47.1040 124.7059 0.0000 12.2298 0.0000
# 4 0.0000 0.0000 0.0000 2.8610 0.0000 4.3524
# 5 6.1561 6.9295 12.2298 0.0000 12.1600 0.0000
# 6 0.0000 0.0000 0.0000 4.3524 0.0000 16.3731
#
#
#
# Elastic Compliance Matrix: (Units=1/GPa)
#
#
# Indices 1 2 3 4 5 6 
#
# 1 0.032653 0.008162 0.005856 0.000000 -0.027071 0.000000
# 2 0.008162 0.010405 -0.001523 0.000000 -0.008530 0.000000
# 3 0.005856 -0.001523 0.011013 0.000000 -0.013173 0.000000
# 4 0.000000 0.000000 0.000000 0.586849 0.000000 -0.155999
# 5 -0.027071 -0.008530 -0.013173 0.000000 0.114051 0.000000
# 6 0.000000 0.000000 0.000000 -0.155999 0.000000 0.102544
#
#
# Mechanical properties :
#
#
# Convention : Reuss Voigt Hill
#
# Bulk Modulus (GPa) = 12.64859 31.52842 22.08851
# Shear Modulus (GPa) = 5.82154 28.00541 16.91348
#
# Velocity S-wave (km/s) = 1.62874 3.57236 2.77620
# Velocity P-wave (km/s) = 3.04974 5.60204 4.51019
#
# Compressibility (1/GPa) = 0.07906021
#
# Stress axis : x y z
#
# Youngs Moduli (GPa) = 30.62503 96.10670 90.80327
#
# Poissons Ratio (x) = -0.78442 -0.53171
# Poissons Ratio (y) = -0.24996 0.13829
# Poissons Ratio (z) = -0.17933 0.14637
#
# Static dielectric constant tensor:
#      x y z
#    x 1.901770 0.000000 0.018930 
#    y 0.000000 1.764480 0.000000 
#    z 0.018930 0.000000 1.797310 
# 
# From -- ./inp_files/36417.got.cif
#   From: 2010.05.17/outbox.cif.g08.bks.cpg/sg5_19_cif.got.tgz:36417.got - 2010.06.03 18:56:24.
