data_PCOD9120790
_publ_section_title
;
Structure prediction by ZEFSAII (Michael W. Deem and Ramdas Pophale) SiO2 
 PCOD9120790
Probable space group: C 2
;
_chemical_formula_sum "Si O2"
_cell_formula_units_Z 30
_cell_length_a 17.978527
_cell_length_b 15.308762
_cell_length_c 8.543295
_cell_angle_alpha 90.000000
_cell_angle_beta 141.767591
_cell_angle_gamma 90.000000
_cell_volume 1455.147271
_symmetry_space_group_name_H-M "C 2"
_symmetry_group_IT_number 5
_symmetry_cell_setting 'monoclinic'
loop_
_space_group_symop_operation_xyz
x,y,z
-x,y,-z
1/2+x,1/2+y,z
1/2-x,1/2+y,-z
loop_
_atom_site_type_symbol
_atom_site_label
_atom_site_fract_x
_atom_site_fract_y
_atom_site_fract_z
Si Si1 0.297806 0.758820 0.394406
Si Si2 0.159708 0.072910 0.535265
Si Si3 0.500000 0.496784 0.000000
Si Si4 0.682696 0.415179 0.811039
Si Si5 0.274422 0.324856 0.418422
Si Si6 0.133072 0.497974 0.288450
Si Si7 0.558661 0.341655 0.890926
Si Si8 0.621985 0.943070 0.608114
O O1 0.356679 0.670398 0.430717
O O2 0.290461 0.757184 0.573051
O O3 0.365809 0.844922 0.443522
O O4 0.160212 0.773328 0.109244
O O5 0.074333 0.051639 0.247497
O O6 0.143952 0.995686 0.636062
O O7 0.295823 0.070753 0.691400
O O8 0.421149 0.429081 0.972082
O O9 0.740119 0.341117 0.791221
O O10 0.584707 0.369668 0.757827
O O11 0.776251 0.451859 0.092393
O O12 0.217697 0.414587 0.391469
O O13 0.418917 0.317141 0.679314
O O14 0.129262 0.506141 0.469350
O O15 0.000000 0.484967 0.000000
O O16 0.500000 0.954380 0.500000
#
# Coordination Sequence:
#
# PCOD9120790 Si02
#       8
#     4   4   2   4   4   4   4   4
#     4  10  22  38  57  87 129 159 205 263 326 361
#     4  11  23  40  58  99 125 167 207 276 320 372
#     4  12  20  40  64  88 126 170 228 244 308 392
#     4  10  20  35  63  92 119 156 221 264 316 369
#     4  10  18  35  59  88 113 162 215 250 303 385
#     4  10  20  38  63  86 119 162 215 252 312 383
#     4  11  18  37  66  88 117 171 216 263 293 400
#     4  10  20  39  60  85 118 169 209 255 311 394
#
# _framework density 20.616471000000001
#
# number of rings (size 3 to 8) (size 9 to 14) (size 15 to 20)
#    0.000    1.600    4.000    3.600    0.000    1.067 
#    9.600    4.000    0.000    3.200    0.000    0.000 
#    0.000    0.000    0.000    0.000    0.000    0.000 
#
# Total GULP energy -83587.234561 kJ/mol
# GULP energy per Si atom -5572.482304 kJ/mol
# Density = 2.056955 g / cm^3
# Si number density = 20.616471 Si / 1000 Ang^3
#
#
#
# Elastic Constant Matrix: (Units=GPa)
#
#
# Indices 1 2 3 4 5 6 
#
# 1 110.1537 -5.3406 6.9438 0.0000 -27.7129 0.0000
# 2 -5.3406 55.5220 -6.4822 0.0000 -13.6649 0.0000
# 3 6.9438 -6.4822 85.9043 0.0000 -20.7765 0.0000
# 4 0.0000 0.0000 0.0000 13.8454 0.0000 -1.0443
# 5 -27.7129 -13.6649 -20.7765 0.0000 37.1142 0.0000
# 6 0.0000 0.0000 0.0000 -1.0443 0.0000 16.1300
#
#
#
# Elastic Compliance Matrix: (Units=1/GPa)
#
#
# Indices 1 2 3 4 5 6 
#
# 1 0.012150 0.004366 0.002233 0.000000 0.011930 0.000000
# 2 0.004366 0.022488 0.004782 0.000000 0.014217 0.000000
# 3 0.002233 0.004782 0.014631 0.000000 0.011618 0.000000
# 4 0.000000 0.000000 0.000000 0.072580 0.000000 0.004699
# 5 0.011930 0.014217 0.011618 0.000000 0.047590 0.000000
# 6 0.000000 0.000000 0.000000 0.004699 0.000000 0.062301
#
#
# Mechanical properties :
#
#
# Convention : Reuss Voigt Hill
#
# Bulk Modulus (GPa) = 13.88294 26.86913 20.37603
# Shear Modulus (GPa) = 21.46012 30.51518 25.98765
#
# Velocity S-wave (km/s) = 3.22983 3.85143 3.55424
# Velocity P-wave (km/s) = 4.54506 5.73054 5.17188
#
# Compressibility (1/GPa) = 0.07203088
#
# Stress axis : x y z
#
# Youngs Moduli (GPa) = 82.30131 44.46795 68.34679
#
# Poissons Ratio (x) = -0.19413 -0.15259
# Poissons Ratio (y) = -0.35929 -0.32686
# Poissons Ratio (z) = -0.18374 -0.21267
#
# Static dielectric constant tensor:
#      x y z
#    x 1.786720 0.000000 0.008430 
#    y 0.000000 1.739560 0.000000 
#    z 0.008430 0.000000 1.794190 
# 
# From -- ./inp_files/27752.got.cif
#   From: 2010.05.17/outbox.cif.g08.bks.cpg/sg5_14_cif.got.tgz:27752.got - 2010.06.03 18:56:24.
