data_PCOD9120417
_publ_section_title
;
Structure prediction by ZEFSAII (Michael W. Deem and Ramdas Pophale) SiO2 
 PCOD9120417
Probable space group: C 2
;
_chemical_formula_sum "Si O2"
_cell_formula_units_Z 28
_cell_length_a 6.078056
_cell_length_b 13.765559
_cell_length_c 19.887023
_cell_angle_alpha 90.000000
_cell_angle_beta 138.620939
_cell_angle_gamma 90.000000
_cell_volume 1099.903407
_symmetry_space_group_name_H-M "C 2"
_symmetry_group_IT_number 5
_symmetry_cell_setting 'monoclinic'
loop_
_space_group_symop_operation_xyz
x,y,z
-x,y,-z
1/2+x,1/2+y,z
1/2-x,1/2+y,-z
loop_
_atom_site_type_symbol
_atom_site_label
_atom_site_fract_x
_atom_site_fract_y
_atom_site_fract_z
Si Si1 0.888327 0.446020 0.329921
Si Si2 0.704429 0.862921 0.887778
Si Si3 0.771564 0.683590 0.808032
Si Si4 0.903635 0.191197 0.900544
Si Si5 0.397334 0.444644 0.337163
Si Si6 0.799233 0.762874 0.393025
Si Si7 0.785156 0.014666 0.108603
O O1 0.710907 0.475200 0.360982
O O2 0.577996 0.452924 0.207404
O O3 0.208847 0.493198 0.360758
O O4 0.023718 0.335715 0.363034
O O5 0.839736 0.780724 0.866834
O O6 0.519967 0.791198 0.896263
O O7 0.421669 0.924395 0.785113
O O8 0.000000 0.910432 0.000000
O O9 0.390904 0.689497 0.699039
O O10 0.853003 0.585176 0.865233
O O11 0.011278 0.684304 0.800227
O O12 0.062144 0.097748 0.903453
O O13 0.000000 0.189852 0.000000
O O14 0.495853 0.339936 0.391808
O O15 0.000000 0.718049 0.500000
O O16 0.500000 0.963721 0.000000
#
# Coordination Sequence:
#
# PCOD9120417 Si02
#       7
#     4   4   4   4   4   4   4
#     4  10  23  41  60  91 124 166 213 259 310 388
#     4  10  18  29  50  84 117 157 201 252 307 364
#     4  10  19  36  57  89 123 158 213 260 310 381
#     4  11  18  31  57  83 122 171 203 247 307 379
#     4   9  22  38  58  90 121 157 207 262 310 374
#     4   9  21  42  69  92 122 164 215 277 331 365
#     4  11  23  36  59  90 133 174 208 248 319 389
#
# _framework density 25.456780999999999
#
# number of rings (size 3 to 8) (size 9 to 14) (size 15 to 20)
#    0.857    1.143    2.857    1.714    2.000    1.714 
#    0.000    0.000    6.286    0.000    0.000    0.000 
#    0.000    0.000    0.000    0.000    0.000    0.000 
#
# Total GULP energy -78011.802098 kJ/mol
# GULP energy per Si atom -5572.271578 kJ/mol
# Density = 2.539884 g / cm^3
# Si number density = 25.456781 Si / 1000 Ang^3
#
#
#
# Elastic Constant Matrix: (Units=GPa)
#
#
# Indices 1 2 3 4 5 6 
#
# 1 164.8145 31.8765 -6.9693 0.0008 1.9986 0.0001
# 2 31.8765 39.1255 -0.0204 0.0004 0.1815 0.0001
# 3 -6.9693 -0.0204 60.5182 0.0042 -29.4792 -0.0003
# 4 0.0008 0.0004 0.0042 15.0650 0.0013 -8.6951
# 5 1.9986 0.1815 -29.4792 0.0013 18.9018 -0.0002
# 6 0.0001 0.0001 -0.0003 -8.6951 -0.0002 19.7439
#
#
#
# Elastic Compliance Matrix: (Units=1/GPa)
#
#
# Indices 1 2 3 4 5 6 
#
# 1 0.007271 -0.005935 0.002033 -0.000001 0.002459 -0.000001
# 2 -0.005935 0.030406 -0.002121 0.000000 -0.002973 0.000000
# 3 0.002033 -0.002121 0.069341 -0.000037 0.107949 -0.000014
# 4 -0.000001 0.000000 -0.000037 0.089002 -0.000063 0.039196
# 5 0.002459 -0.002973 0.107949 -0.000063 0.221030 -0.000024
# 6 -0.000001 0.000000 -0.000014 0.039196 -0.000024 0.067910
#
#
# Mechanical properties :
#
#
# Convention : Reuss Voigt Hill
#
# Bulk Modulus (GPa) = 10.52919 34.91466 22.72193
# Shear Modulus (GPa) = 9.45781 26.71359 18.08570
#
# Velocity S-wave (km/s) = 1.92959 3.24291 2.66831
# Velocity P-wave (km/s) = 3.01819 5.26944 4.29398
#
# Compressibility (1/GPa) = 0.09497405
#
# Stress axis : x y z
#
# Youngs Moduli (GPa) = 137.52564 32.88776 14.42152
#
# Poissons Ratio (x) = 0.19517 -0.02932
# Poissons Ratio (y) = 0.81615 0.03059
# Poissons Ratio (z) = -0.27964 0.06976
#
# Static dielectric constant tensor:
#      x y z
#    x 2.163140 0.000000 0.012750 
#    y 0.000000 1.956700 0.000000 
#    z 0.012750 0.000000 2.051160 
# 
# From -- ./inp_files/64127.got.cif
#   From: 2010.05.17/outbox.cif.g08.bks.cpg/sg5_33_cif.got.tgz:64127.got - 2010.06.03 18:56:24.
