data_PCOD9120023
_publ_section_title
;
Structure prediction by ZEFSAII (Michael W. Deem and Ramdas Pophale) SiO2 
 PCOD9120023
Probable space group: C 2
;
_chemical_formula_sum "Si O2"
_cell_formula_units_Z 28
_cell_length_a 5.603434
_cell_length_b 27.128406
_cell_length_c 9.256350
_cell_angle_alpha 90.000000
_cell_angle_beta 127.227238
_cell_angle_gamma 90.000000
_cell_volume 1120.375513
_symmetry_space_group_name_H-M "C 2"
_symmetry_group_IT_number 5
_symmetry_cell_setting 'monoclinic'
loop_
_space_group_symop_operation_xyz
x,y,z
-x,y,-z
1/2+x,1/2+y,z
1/2-x,1/2+y,-z
loop_
_atom_site_type_symbol
_atom_site_label
_atom_site_fract_x
_atom_site_fract_y
_atom_site_fract_z
Si Si1 0.840203 0.866420 0.590247
Si Si2 0.443224 0.599059 0.193358
Si Si3 0.480424 0.712297 0.730593
Si Si4 0.259641 0.357545 0.009644
Si Si5 0.144798 0.460679 0.894738
Si Si6 0.423261 0.249324 0.673399
Si Si7 0.022649 0.561302 0.772479
O O1 0.500000 0.880491 0.500000
O O2 0.858774 0.806317 0.608812
O O3 0.000000 0.880499 0.500000
O O4 0.046468 0.884321 0.796479
O O5 0.438252 0.658003 0.188207
O O6 0.784141 0.582949 0.287733
O O7 0.290826 0.582982 0.287702
O O8 0.240878 0.575104 0.990864
O O9 0.777390 0.737760 0.774459
O O10 0.259143 0.715885 0.509154
O O11 0.271103 0.737728 0.774498
O O12 0.500000 0.330383 0.000000
O O13 0.115193 0.401824 0.865167
O O14 0.000000 0.330386 0.000000
O O15 0.993172 0.502525 0.743032
O O16 0.500000 0.470102 0.000000
O O17 0.000000 0.470110 0.000000
#
# Coordination Sequence:
#
# PCOD9120023 Si02
#       7
#     4   4   4   4   4   4   4
#     4  12  21  40  68  91 118 167 223 247 308 389
#     4  10  18  27  49  75 107 130 185 235 276 340
#     4  10  18  32  51  77  98 138 190 245 281 334
#     4  10  23  38  62  96 128 156 202 268 316 370
#     4  10  16  32  54  79 112 145 191 223 307 371
#     4  10  19  35  55  74 100 149 197 239 292 359
#     4  10  17  30  47  78 107 145 178 229 286 361
#
# _framework density 24.991622
#
# number of rings (size 3 to 8) (size 9 to 14) (size 15 to 20)
#    0.000    1.714    5.714    1.714    0.000    0.000 
#    0.000    0.000   18.857    0.000    7.429    0.000 
#    0.000    0.000    0.000    0.000    0.000    0.000 
#
# Total GULP energy -78112.994523 kJ/mol
# GULP energy per Si atom -5579.499609 kJ/mol
# Density = 2.493474 g / cm^3
# Si number density = 24.991622 Si / 1000 Ang^3
#
#
#
# Elastic Constant Matrix: (Units=GPa)
#
#
# Indices 1 2 3 4 5 6 
#
# 1 331.8371 24.4634 29.5405 0.0000 -27.8131 0.0000
# 2 24.4634 87.4223 11.7632 0.0000 -1.1774 0.0000
# 3 29.5405 11.7632 78.1315 0.0000 3.5927 0.0000
# 4 0.0000 0.0000 0.0000 -4.5435 0.0000 -6.0343
# 5 -27.8131 -1.1774 3.5927 0.0000 9.3005 0.0000
# 6 0.0000 0.0000 0.0000 -6.0343 0.0000 58.4598
#
#
#
# Elastic Compliance Matrix: (Units=1/GPa)
#
#
# Indices 1 2 3 4 5 6 
#
# 1 0.004444 -0.000757 -0.002212 0.000000 0.014047 0.000000
# 2 -0.000757 0.011848 -0.001489 0.000000 -0.000187 0.000000
# 3 -0.002212 -0.001489 0.014429 0.000000 -0.012378 0.000000
# 4 0.000000 0.000000 0.000000 -0.193561 0.000000 -0.019980
# 5 0.014047 -0.000187 -0.012378 0.000000 0.154288 0.000000
# 6 0.000000 0.000000 0.000000 -0.019980 0.000000 0.015043
#
#
# Mechanical properties :
#
#
# Convention : Reuss Voigt Hill
#
# Bulk Modulus (GPa) = 45.86137 69.88058 57.87098
# Shear Modulus (GPa) = 220.50613 41.41828 130.96221
#
# Velocity S-wave (km/s) = 9.40338 4.07540 7.24681
# Velocity P-wave (km/s) = 11.67427 7.08290 9.65547
#
# Compressibility (1/GPa) = 0.02180484
#
# Stress axis : x y z
#
# Youngs Moduli (GPa) = 225.04167 84.40031 69.30641
#
# Poissons Ratio (x) = 0.06386 0.15331
# Poissons Ratio (y) = 0.17027 0.10321
# Poissons Ratio (z) = 0.49782 0.12569
#
# Static dielectric constant tensor:
#      x y z
#    x 2.003920 0.000000 0.002020 
#    y 0.000000 1.908610 0.000000 
#    z 0.002020 0.000000 2.027430 
# 
# From -- ./inp_files/13383.got.cif
#   From: 2010.05.17/outbox.cif.g08.bks.cpg/sg5_7_cif.got.tgz:13383.got - 2010.06.03 18:56:24.
