data_PCOD9120986
_publ_section_title
;
Structure prediction by ZEFSAII (Michael W. Deem and Ramdas Pophale) SiO2 
 PCOD9120986
Probable space group: C 2
;
_chemical_formula_sum "Si O2"
_cell_formula_units_Z 28
_cell_length_a 13.499989
_cell_length_b 7.986460
_cell_length_c 19.219764
_cell_angle_alpha 90.000000
_cell_angle_beta 144.631609
_cell_angle_gamma 90.000000
_cell_volume 1199.465784
_symmetry_space_group_name_H-M "C 2"
_symmetry_group_IT_number 5
_symmetry_cell_setting 'monoclinic'
loop_
_space_group_symop_operation_xyz
x,y,z
-x,y,-z
1/2+x,1/2+y,z
1/2-x,1/2+y,-z
loop_
_atom_site_type_symbol
_atom_site_label
_atom_site_fract_x
_atom_site_fract_y
_atom_site_fract_z
Si Si1 0.120264 0.717300 0.000397
Si Si2 0.198006 0.041843 0.092090
Si Si3 0.129499 0.784255 0.270674
Si Si4 0.245224 0.930412 0.694141
Si Si5 0.588833 0.864746 0.975286
Si Si6 0.024108 0.706534 0.667607
Si Si7 0.684834 0.114343 0.572728
O O1 0.252720 0.865417 0.091224
O O2 0.198560 0.533375 0.035829
O O3 0.000000 0.694026 0.000000
O O4 0.995660 0.777412 0.867350
O O5 0.311773 0.087939 0.223784
O O6 0.191834 0.192722 0.032910
O O7 0.000000 0.018837 0.000000
O O8 0.258550 0.626376 0.328903
O O9 0.034411 0.744747 0.288272
O O10 0.204065 0.967454 0.330150
O O11 0.430256 0.895706 0.834116
O O12 0.101374 0.862113 0.666692
O O13 0.237304 0.800794 0.625855
O O14 0.500000 0.852770 0.000000
O O15 0.864747 0.621169 0.536828
O O16 0.500000 0.085460 0.500000
#
# Coordination Sequence:
#
# PCOD9120986 Si02
#       7
#     4   4   4   4   4   4   4
#     4   9  20  35  63  93 129 172 226 273 346 423
#     4  10  18  37  66  87 132 179 213 282 351 403
#     4  11  25  45  69 106 139 184 247 294 357 442
#     4  10  21  45  70  95 134 189 229 294 366 414
#     4   9  15  32  62  90 122 168 221 266 339 422
#     4  11  24  44  70 105 139 188 244 292 361 433
#     4  10  25  44  69  96 134 184 245 289 360 426
#
# _framework density 23.343727000000001
#
# number of rings (size 3 to 8) (size 9 to 14) (size 15 to 20)
#    0.000    2.000    2.857    0.857    8.000    1.714 
#    5.143    2.857    0.000    0.000    0.000    0.000 
#    0.000    0.000    0.000    0.000    0.000    0.000 
#
# Total GULP energy -78107.664105 kJ/mol
# GULP energy per Si atom -5579.118865 kJ/mol
# Density = 2.329060 g / cm^3
# Si number density = 23.343727 Si / 1000 Ang^3
#
#
#
# Elastic Constant Matrix: (Units=GPa)
#
#
# Indices 1 2 3 4 5 6 
#
# 1 87.0726 12.3972 17.9733 0.0000 -16.7071 0.0000
# 2 12.3972 120.2543 -12.7904 0.0000 -8.3327 0.0000
# 3 17.9733 -12.7904 54.5961 0.0000 -27.8400 0.0000
# 4 0.0000 0.0000 0.0000 21.7476 0.0000 -5.6152
# 5 -16.7071 -8.3327 -27.8400 0.0000 27.2851 0.0000
# 6 0.0000 0.0000 0.0000 -5.6152 0.0000 8.8404
#
#
#
# Elastic Compliance Matrix: (Units=1/GPa)
#
#
# Indices 1 2 3 4 5 6 
#
# 1 0.013129 -0.001052 -0.001320 0.000000 0.006371 0.000000
# 2 -0.001052 0.010045 0.008204 0.000000 0.010794 0.000000
# 3 -0.001320 0.008204 0.044899 0.000000 0.047509 0.000000
# 4 0.000000 0.000000 0.000000 0.055003 0.000000 0.034937
# 5 0.006371 0.010794 0.047509 0.000000 0.092323 0.000000
# 6 0.000000 0.000000 0.000000 0.034937 0.000000 0.135308
#
#
# Mechanical properties :
#
#
# Convention : Reuss Voigt Hill
#
# Bulk Modulus (GPa) = 12.54151 33.00925 22.77538
# Shear Modulus (GPa) = 13.67530 27.86415 20.76972
#
# Velocity S-wave (km/s) = 2.42300 3.45867 2.98608
# Velocity P-wave (km/s) = 3.63485 5.48826 4.65474
#
# Compressibility (1/GPa) = 0.07973522
#
# Stress axis : x y z
#
# Youngs Moduli (GPa) = 76.16466 99.55513 22.27224
#
# Poissons Ratio (x) = 0.10478 0.02940
# Poissons Ratio (y) = 0.08016 -0.18271
# Poissons Ratio (z) = 0.10054 -0.81671
#
# Static dielectric constant tensor:
#      x y z
#    x 2.012450 0.000000 0.025710 
#    y 0.000000 2.033020 0.000000 
#    z 0.025710 0.000000 2.044560 
# 
# From -- ./inp_files/66001.got.cif
#   From: 2010.05.17/outbox.cif.g08.bks.cpg/sg5_34_cif.got.tgz:66001.got - 2010.06.03 18:56:24.
