data_PCOD9120471
_publ_section_title
;
Structure prediction by ZEFSAII (Michael W. Deem and Ramdas Pophale) SiO2 
 PCOD9120471
Probable space group: C 2
;
_chemical_formula_sum "Si O2"
_cell_formula_units_Z 30
_cell_length_a 22.370266
_cell_length_b 5.162863
_cell_length_c 14.308483
_cell_angle_alpha 90.000000
_cell_angle_beta 131.375103
_cell_angle_gamma 90.000000
_cell_volume 1240.072904
_symmetry_space_group_name_H-M "C 2"
_symmetry_group_IT_number 5
_symmetry_cell_setting 'monoclinic'
loop_
_space_group_symop_operation_xyz
x,y,z
-x,y,-z
1/2+x,1/2+y,z
1/2-x,1/2+y,-z
loop_
_atom_site_type_symbol
_atom_site_label
_atom_site_fract_x
_atom_site_fract_y
_atom_site_fract_z
Si Si1 0.308255 0.637480 0.174007
Si Si2 0.219655 0.138224 0.081508
Si Si3 0.750611 0.442145 0.436282
Si Si4 0.439069 0.368249 0.090595
Si Si5 0.000000 0.493364 0.000000
Si Si6 0.092252 0.223878 0.235715
Si Si7 0.921088 0.396245 0.571198
Si Si8 0.527237 0.383254 0.665669
O O1 0.243434 0.424002 0.138034
O O2 0.393856 0.523702 0.294517
O O3 0.288893 0.933114 0.178892
O O4 0.296583 0.646993 0.048305
O O5 0.138344 0.006911 0.028531
O O6 0.739018 0.165020 0.473397
O O7 0.668383 0.540396 0.308046
O O8 0.827803 0.425712 0.449048
O O9 0.464544 0.142293 0.050604
O O10 0.512461 0.561335 0.165110
O O11 0.434890 0.294524 0.194990
O O12 0.077003 0.360625 0.123376
O O13 0.090126 0.402992 0.326410
O O14 0.976734 0.625201 0.588324
O O15 0.962312 0.117021 0.598416
#
# Coordination Sequence:
#
# PCOD9120471 Si02
#       8
#     4   4   4   4   2   4   4   4
#     4   9  17  29  46  72  96 131 166 215 262 323
#     4   9  18  29  47  67  98 134 175 208 259 311
#     4  10  20  34  54  75 102 139 188 227 270 316
#     4  10  21  33  48  69 103 146 187 218 252 312
#     4  12  22  36  50  72 108 156 198 216 252 304
#     4  10  22  34  51  73 105 149 187 223 261 305
#     4  10  18  32  51  76 101 138 174 219 266 321
#     4  10  18  31  52  75 105 133 175 212 274 319
#
# _framework density 24.192125000000001
#
# number of rings (size 3 to 8) (size 9 to 14) (size 15 to 20)
#    0.000    2.133    1.333    3.600    3.733    3.200 
#    0.000    0.000    0.000    0.000    0.000    0.000 
#    0.000    1.067    1.333    0.133    2.400    0.000 
#
# Total GULP energy -83673.875067 kJ/mol
# GULP energy per Si atom -5578.258338 kJ/mol
# Density = 2.413706 g / cm^3
# Si number density = 24.192125 Si / 1000 Ang^3
#
#
#
# Elastic Constant Matrix: (Units=GPa)
#
#
# Indices 1 2 3 4 5 6 
#
# 1 -175.5069 -197.5562 522.6753 0.0117 -17.0730 0.0241
# 2 -197.5562 -113.2848 465.6903 0.0139 -33.8839 0.0270
# 3 522.6753 465.6903-1142.4038 -0.0262 94.8780 -0.0559
# 4 0.0117 0.0139 -0.0262 36.7181 0.0022 21.8663
# 5 -17.0730 -33.8839 94.8780 0.0022 28.9968 0.0045
# 6 0.0241 0.0270 -0.0559 21.8663 0.0045 21.1166
#
#
#
# Elastic Compliance Matrix: (Units=1/GPa)
#
#
# Indices 1 2 3 4 5 6 
#
# 1 0.023312 -0.003710 0.007810 -0.000002 -0.016166 0.000004
# 2 -0.003710 0.013761 0.003984 0.000001 0.000862 -0.000005
# 3 0.007810 0.003984 0.004003 0.000002 -0.003843 -0.000004
# 4 -0.000002 0.000001 0.000002 0.071045 0.000001 -0.073567
# 5 -0.016166 0.000862 -0.003843 0.000001 0.038551 -0.000002
# 6 0.000004 -0.000005 -0.000004 -0.073567 -0.000002 0.123535
#
#
# Mechanical properties :
#
#
# Convention : Reuss Voigt Hill
#
# Bulk Modulus (GPa) = 17.46954 16.71370 17.09162
# Shear Modulus (GPa) = 18.04274 -130.76734 -56.36230
#
# Velocity S-wave (km/s) = 2.73392 -7.36010 -4.83201
# Velocity P-wave (km/s) = 4.14760 8.08111 4.90417
#
# Compressibility (1/GPa) = 0.05724249
#
# Stress axis : x y z
#
# Youngs Moduli (GPa) = 42.89722 72.66818 249.82830
#
# Poissons Ratio (x) = 0.26963 -1.95126
# Poissons Ratio (y) = 0.15917 -0.99520
# Poissons Ratio (z) = -0.33504 -0.28948
#
# Static dielectric constant tensor:
#      x y z
#    x 1.863900 0.000010 0.188350 
#    y 0.000010 2.161840 0.000000 
#    z 0.188350 0.000000 1.582340 
# 
# From -- ./inp_files/63177.got.cif
#   From: 2010.05.17/outbox.cif.g08.bks.cpg/sg5_32_cif.got.tgz:63177.got - 2010.06.03 18:56:24.
