data_PCOD9120521
_publ_section_title
;
Structure prediction by ZEFSAII (Michael W. Deem and Ramdas Pophale) SiO2 
 PCOD9120521
Probable space group: C 2
;
_chemical_formula_sum "Si O2"
_cell_formula_units_Z 24
_cell_length_a 22.949877
_cell_length_b 7.564949
_cell_length_c 8.127090
_cell_angle_alpha 90.000000
_cell_angle_beta 134.451532
_cell_angle_gamma 90.000000
_cell_volume 1007.219694
_symmetry_space_group_name_H-M "C 2"
_symmetry_group_IT_number 5
_symmetry_cell_setting 'monoclinic'
loop_
_space_group_symop_operation_xyz
x,y,z
-x,y,-z
1/2+x,1/2+y,z
1/2-x,1/2+y,-z
loop_
_atom_site_type_symbol
_atom_site_label
_atom_site_fract_x
_atom_site_fract_y
_atom_site_fract_z
Si Si1 0.250121 0.453030 0.383831
Si Si2 0.586010 0.149671 0.651520
Si Si3 0.078062 0.253471 0.761349
Si Si4 0.128107 0.158849 0.200709
Si Si5 0.857440 0.464228 0.550852
Si Si6 0.258792 0.725476 0.119586
O O1 0.209864 0.262290 0.296922
O O2 0.335820 0.483016 0.646272
O O3 0.178993 0.544551 0.355050
O O4 0.255582 0.549645 0.223171
O O5 0.500000 0.247290 0.500000
O O6 0.579220 0.970046 0.750674
O O7 0.594544 0.084405 0.479602
O O8 0.669823 0.245354 0.864759
O O9 0.164436 0.206528 0.848729
O O10 0.000000 0.200738 0.500000
O O11 0.073730 0.166415 0.932495
O O12 0.098362 0.288749 0.289079
O O13 0.783803 0.382776 0.294069
#
# Coordination Sequence:
#
# PCOD9120521 Si02
#       6
#     4   4   4   4   4   4
#     4   9  17  32  54  85 104 150 187 229 284 339
#     4  10  18  32  53  85 113 143 194 235 279 333
#     4  10  20  33  55  86 113 144 191 238 282 332
#     4   9  17  33  55  82 112 143 191 230 280 342
#     4   8  18  31  53  81 108 147 183 230 287 327
#     4  10  18  33  53  81 111 146 183 237 286 332
#
# _framework density 23.827967999999998
#
# number of rings (size 3 to 8) (size 9 to 14) (size 15 to 20)
#    1.000    1.667    1.667    1.000    0.000    0.000 
#    0.000   19.167    0.000    9.000    8.667    0.000 
#    0.000    0.000    0.000    0.000    0.000    0.000 
#
# Total GULP energy -66864.624420 kJ/mol
# GULP energy per Si atom -5572.052035 kJ/mol
# Density = 2.377373 g / cm^3
# Si number density = 23.827968 Si / 1000 Ang^3
#
#
#
# Elastic Constant Matrix: (Units=GPa)
#
#
# Indices 1 2 3 4 5 6 
#
# 1 91.1706 5.0296 68.9890 0.0000 15.6529 0.0000
# 2 5.0296 43.7348 15.7184 0.0000 6.2201 0.0000
# 3 68.9890 15.7184 186.6454 0.0000 10.9264 0.0000
# 4 0.0000 0.0000 0.0000 7.2309 0.0000 2.9054
# 5 15.6529 6.2201 10.9264 0.0000 40.5016 0.0000
# 6 0.0000 0.0000 0.0000 2.9054 0.0000 22.7076
#
#
#
# Elastic Compliance Matrix: (Units=1/GPa)
#
#
# Indices 1 2 3 4 5 6 
#
# 1 0.016088 0.000897 -0.005741 0.000000 -0.004807 0.000000
# 2 0.000897 0.024027 -0.002153 0.000000 -0.003456 0.000000
# 3 -0.005741 -0.002153 0.007632 0.000000 0.000490 0.000000
# 4 0.000000 0.000000 0.000000 0.145790 0.000000 -0.018654
# 5 -0.004807 -0.003456 0.000490 0.000000 0.026947 0.000000
# 6 0.000000 0.000000 0.000000 -0.018654 0.000000 0.046425
#
#
# Mechanical properties :
#
#
# Convention : Reuss Voigt Hill
#
# Bulk Modulus (GPa) = 29.62578 55.66942 42.64760
# Shear Modulus (GPa) = 17.11426 29.54227 23.32826
#
# Velocity S-wave (km/s) = 2.68291 3.52492 3.13234
# Velocity P-wave (km/s) = 4.69655 6.32302 5.56947
#
# Compressibility (1/GPa) = 0.03375438
#
# Stress axis : x y z
#
# Youngs Moduli (GPa) = 62.15696 41.61960 131.02250
#
# Poissons Ratio (x) = -0.03732 0.75217
# Poissons Ratio (y) = -0.05574 0.28204
# Poissons Ratio (z) = 0.35683 0.08959
#
# Static dielectric constant tensor:
#      x y z
#    x 1.927420 0.000000 -0.023570 
#    y 0.000000 1.983790 0.000000 
#    z -0.023570 0.000000 1.962100 
# 
# From -- ./inp_files/28998.got.cif
#   From: 2010.05.17/outbox.cif.g08.bks.cpg/sg5_15_cif.got.tgz:28998.got - 2010.06.03 18:56:24.
