data_PCOD9120164
_publ_section_title
;
Structure prediction by ZEFSAII (Michael W. Deem and Ramdas Pophale) SiO2 
 PCOD9120164
Probable space group: C 2
;
_chemical_formula_sum "Si O2"
_cell_formula_units_Z 26
_cell_length_a 10.269045
_cell_length_b 25.655341
_cell_length_c 5.300890
_cell_angle_alpha 90.000000
_cell_angle_beta 82.755411
_cell_angle_gamma 90.000000
_cell_volume 1385.401634
_symmetry_space_group_name_H-M "C 2"
_symmetry_group_IT_number 5
_symmetry_cell_setting 'monoclinic'
loop_
_space_group_symop_operation_xyz
x,y,z
-x,y,-z
1/2+x,1/2+y,z
1/2-x,1/2+y,-z
loop_
_atom_site_type_symbol
_atom_site_label
_atom_site_fract_x
_atom_site_fract_y
_atom_site_fract_z
Si Si1 0.779828 0.433040 0.487469
Si Si2 0.118803 0.061340 0.134003
Si Si3 0.849018 0.214333 0.251295
Si Si4 0.355213 0.996010 0.963275
Si Si5 0.148733 0.171069 0.253035
Si Si6 0.500000 0.471149 0.500000
Si Si7 0.582659 0.829668 0.730824
O O1 0.848902 0.458171 0.718978
O O2 0.623405 0.438145 0.566630
O O3 0.826647 0.375592 0.399784
O O4 0.813918 0.465889 0.228665
O O5 0.151822 0.109454 0.307520
O O6 0.055572 0.010804 0.278169
O O7 0.246465 0.041139 0.955529
O O8 0.000000 0.084015 0.000000
O O9 0.786164 0.201571 0.534420
O O10 0.850722 0.275795 0.200006
O O11 0.000045 0.193769 0.252842
O O12 0.789580 0.183020 0.033034
O O13 0.500000 0.015416 0.000000
O O14 0.500000 0.814957 0.500000
O O15 0.500000 0.847553 0.000000
#
# Coordination Sequence:
#
# PCOD9120164 Si02
#       7
#     4   4   4   4   4   2   4
#     4  11  23  36  58  76 113 152 190 230 279 330
#     4  11  20  34  59  80 113 146 187 224 288 331
#     4  10  17  30  46  76 110 127 176 231 276 315
#     4  11  23  39  54  83 116 148 186 234 271 341
#     4  10  18  29  50  78 105 133 170 234 274 321
#     4  10  22  38  52  84 110 144 198 230 268 338
#     4  12  20  33  52  79 109 145 179 226 288 328
#
# _framework density 18.767120999999999
#
# number of rings (size 3 to 8) (size 9 to 14) (size 15 to 20)
#    0.000    1.231    6.154    3.692    0.000    0.000 
#    0.000    0.000    0.000    0.000    4.000    0.000 
#    0.000    0.000    0.000    0.000    0.000    0.000 
#
# Total GULP energy -72399.543554 kJ/mol
# GULP energy per Si atom -5569.195658 kJ/mol
# Density = 1.872441 g / cm^3
# Si number density = 18.767121 Si / 1000 Ang^3
#
#
#
# Elastic Constant Matrix: (Units=GPa)
#
#
# Indices 1 2 3 4 5 6 
#
# 1 62.0042 35.4702 19.6490 0.0000 -1.8898 0.0000
# 2 35.4702 99.7018 17.1921 0.0000 -14.8439 0.0000
# 3 19.6490 17.1921 117.5887 0.0000 10.1565 0.0000
# 4 0.0000 0.0000 0.0000 35.6497 0.0000 -0.8288
# 5 -1.8898 -14.8439 10.1565 0.0000 18.9114 0.0000
# 6 0.0000 0.0000 0.0000 -0.8288 0.0000 8.1080
#
#
#
# Elastic Compliance Matrix: (Units=1/GPa)
#
#
# Indices 1 2 3 4 5 6 
#
# 1 0.021029 -0.007490 -0.002194 0.000000 -0.002599 0.000000
# 2 -0.007490 0.014803 -0.001942 0.000000 0.011914 0.000000
# 3 -0.002194 -0.001942 0.009758 0.000000 -0.006984 0.000000
# 4 0.000000 0.000000 0.000000 0.028118 0.000000 0.002874
# 5 -0.002599 0.011914 -0.006984 0.000000 0.065720 0.000000
# 6 0.000000 0.000000 0.000000 0.002874 0.000000 0.123628
#
#
# Mechanical properties :
#
#
# Convention : Reuss Voigt Hill
#
# Bulk Modulus (GPa) = 44.76677 47.10189 45.93433
# Shear Modulus (GPa) = 17.02106 26.33273 21.67690
#
# Velocity S-wave (km/s) = 3.01485 3.74990 3.40228
# Velocity P-wave (km/s) = 6.00206 6.62583 6.32164
#
# Compressibility (1/GPa) = 0.02233800
#
# Stress axis : x y z
#
# Youngs Moduli (GPa) = 47.55395 67.55360 102.47984
#
# Poissons Ratio (x) = 0.50596 0.22488
# Poissons Ratio (y) = 0.35617 0.19899
# Poissons Ratio (z) = 0.10435 0.13117
#
# Static dielectric constant tensor:
#      x y z
#    x 1.668560 0.000000 0.001810 
#    y 0.000000 1.658060 0.000000 
#    z 0.001810 0.000000 1.853330 
# 
# From -- ./inp_files/3606.got.cif
#   From: 2010.05.17/outbox.cif.g08.bks.cpg/sg5_2_cif.got.tgz:3606.got - 2010.06.03 18:56:24.
