data_PCOD9120389
_publ_section_title
;
Structure prediction by ZEFSAII (Michael W. Deem and Ramdas Pophale) SiO2 
 PCOD9120389
Probable space group: C 2
;
_chemical_formula_sum "Si O2"
_cell_formula_units_Z 20
_cell_length_a 16.512186
_cell_length_b 10.081332
_cell_length_c 8.940311
_cell_angle_alpha 90.000000
_cell_angle_beta 33.621707
_cell_angle_gamma 90.000000
_cell_volume 824.053074
_symmetry_space_group_name_H-M "C 2"
_symmetry_group_IT_number 5
_symmetry_cell_setting 'monoclinic'
loop_
_space_group_symop_operation_xyz
x,y,z
-x,y,-z
1/2+x,1/2+y,z
1/2-x,1/2+y,-z
loop_
_atom_site_type_symbol
_atom_site_label
_atom_site_fract_x
_atom_site_fract_y
_atom_site_fract_z
Si Si1 0.435170 0.711000 0.757951
Si Si2 0.500000 0.323760 0.000000
Si Si3 0.012900 0.499953 0.316287
Si Si4 0.500000 0.986005 0.000000
Si Si5 0.810055 0.246108 0.396753
Si Si6 0.305643 0.520483 0.150856
O O1 0.500000 0.677937 0.500000
O O2 0.390116 0.866170 0.824954
O O3 0.563535 0.701756 0.683332
O O4 0.313861 0.603643 0.986213
O O5 0.351668 0.254301 0.284737
O O6 0.438639 0.419754 0.963955
O O7 0.844534 0.446532 0.581836
O O8 0.000000 0.573330 0.500000
O O9 0.031687 0.552279 0.116389
O O10 0.635605 0.885204 0.759402
O O11 0.809560 0.135311 0.269551
#
# Coordination Sequence:
#
# PCOD9120389 Si02
#       6
#     4   2   4   2   4   4
#     4  10  20  39  64  88 127 172 206 261 323 372
#     4  12  23  39  66  96 124 158 219 265 310 384
#     4  10  22  41  66  94 127 168 213 265 313 378
#     4  10  17  41  70  84 122 178 197 257 330 358
#     4  11  21  40  66  94 122 166 217 260 314 386
#     4  12  21  43  65  88 130 164 210 267 316 381
#
# _framework density 24.270281000000001
#
# number of rings (size 3 to 8) (size 9 to 14) (size 15 to 20)
#    0.000    1.200   10.000    0.000    0.000    0.800 
#   10.800    0.000    0.000    0.000    0.000    0.000 
#    0.000    0.000    0.000    0.000    0.000    0.000 
#
# Total GULP energy -55705.320880 kJ/mol
# GULP energy per Si atom -5570.532088 kJ/mol
# Density = 2.421504 g / cm^3
# Si number density = 24.270281 Si / 1000 Ang^3
#
#
#
# Elastic Constant Matrix: (Units=GPa)
#
#
# Indices 1 2 3 4 5 6 
#
# 1 60.1020 -7.7443 27.7523 0.0000 43.9820 0.0000
# 2 -7.7443 51.2839 21.7049 0.0000 8.5376 0.0000
# 3 27.7523 21.7049 148.9414 0.0000 19.1744 0.0000
# 4 0.0000 0.0000 0.0000 42.0991 0.0000 -0.4654
# 5 43.9820 8.5376 19.1744 0.0000 58.2163 0.0000
# 6 0.0000 0.0000 0.0000 -0.4654 0.0000 15.6474
#
#
#
# Elastic Compliance Matrix: (Units=1/GPa)
#
#
# Indices 1 2 3 4 5 6 
#
# 1 0.049295 0.016544 -0.006777 0.000000 -0.037436 0.000000
# 2 0.016544 0.026592 -0.005061 0.000000 -0.014732 0.000000
# 3 -0.006777 -0.005061 0.008312 0.000000 0.003124 0.000000
# 4 0.000000 0.000000 0.000000 0.023761 0.000000 0.000707
# 5 -0.037436 -0.014732 0.003124 0.000000 0.046592 0.000000
# 6 0.000000 0.000000 0.000000 0.000707 0.000000 0.063929
#
#
# Mechanical properties :
#
#
# Convention : Reuss Voigt Hill
#
# Bulk Modulus (GPa) = 10.68244 38.19478 24.43861
# Shear Modulus (GPa) = 20.80970 37.76684 29.28827
#
# Velocity S-wave (km/s) = 2.93134 3.94902 3.47761
# Velocity P-wave (km/s) = 3.98347 6.04685 5.12018
#
# Compressibility (1/GPa) = 0.09361157
#
# Stress axis : x y z
#
# Youngs Moduli (GPa) = 20.28618 37.60486 120.30624
#
# Poissons Ratio (x) = -0.62214 0.81527
# Poissons Ratio (y) = -0.33562 0.60892
# Poissons Ratio (z) = 0.13747 0.19033
#
# Static dielectric constant tensor:
#      x y z
#    x 2.060220 0.000000 0.026140 
#    y 0.000000 1.970170 0.000000 
#    z 0.026140 0.000000 1.890240 
# 
# From -- ./inp_files/14267.got.cif
#   From: 2010.05.17/outbox.cif.g08.bks.cpg/sg5_8_cif.got.tgz:14267.got - 2010.06.03 18:56:24.
