data_PCOD9120008
_publ_section_title
;
Structure prediction by ZEFSAII (Michael W. Deem and Ramdas Pophale) SiO2 
 PCOD9120008
Probable space group: C 2
;
_chemical_formula_sum "Si O2"
_cell_formula_units_Z 30
_cell_length_a 24.511351
_cell_length_b 12.813533
_cell_length_c 9.017120
_cell_angle_alpha 90.000000
_cell_angle_beta 148.715841
_cell_angle_gamma 90.000000
_cell_volume 1470.645412
_symmetry_space_group_name_H-M "C 2"
_symmetry_group_IT_number 5
_symmetry_cell_setting 'monoclinic'
loop_
_space_group_symop_operation_xyz
x,y,z
-x,y,-z
1/2+x,1/2+y,z
1/2-x,1/2+y,-z
loop_
_atom_site_type_symbol
_atom_site_label
_atom_site_fract_x
_atom_site_fract_y
_atom_site_fract_z
Si Si1 0.742237 0.015990 0.817757
Si Si2 0.940888 0.368395 0.493953
Si Si3 0.591871 0.815909 0.112090
Si Si4 0.378495 0.050193 0.734371
Si Si5 0.500000 0.467867 0.000000
Si Si6 0.129919 0.144481 0.651402
Si Si7 0.529466 0.453631 0.735464
Si Si8 0.806383 0.129894 0.532140
O O1 0.683090 0.082235 0.555955
O O2 0.657136 0.932687 0.674702
O O3 0.786583 0.083495 0.055602
O O4 0.845418 0.965513 0.983082
O O5 0.899710 0.255118 0.348573
O O6 0.000000 0.426751 0.500000
O O7 0.031649 0.345805 0.824115
O O8 0.676689 0.725907 0.315339
O O9 0.626881 0.923882 0.267141
O O10 0.500000 0.767819 0.000000
O O11 0.311383 0.090081 0.716358
O O12 0.500000 0.078465 0.000000
O O13 0.498950 0.412687 0.832174
O O14 0.394537 0.540044 0.762968
O O15 0.174459 0.165805 0.591282
O O16 0.029586 0.066901 0.403671
O O17 0.500000 0.408002 0.500000
#
# Coordination Sequence:
#
# PCOD9120008 Si02
#       8
#     4   4   4   4   2   4   4   4
#     4  11  21  37  60  90 132 164 201 271 327 372
#     4  12  24  38  64  95 128 161 219 272 313 385
#     4  11  20  41  63  93 117 162 217 268 312 367
#     4  11  23  38  61  90 128 171 207 256 328 382
#     4  10  16  30  60  94 104 162 212 258 318 368
#     4  10  22  38  62  95 120 165 214 265 329 375
#     4   9  18  33  55  88 125 150 204 262 316 377
#     4  11  20  36  66  89 125 159 215 271 315 384
#
# _framework density 20.399204999999998
#
# number of rings (size 3 to 8) (size 9 to 14) (size 15 to 20)
#    0.000    1.333    6.000    2.000    3.733    0.000 
#    0.000    0.000    1.467   12.000    0.000    0.000 
#    0.000    0.000    0.000    0.000    0.000    0.000 
#
# Total GULP energy -83587.061453 kJ/mol
# GULP energy per Si atom -5572.470764 kJ/mol
# Density = 2.035278 g / cm^3
# Si number density = 20.399205 Si / 1000 Ang^3
#
#
#
# Elastic Constant Matrix: (Units=GPa)
#
#
# Indices 1 2 3 4 5 6 
#
# 1 138.5312 23.5437 62.5741 0.0000 7.7134 0.0000
# 2 23.5437 34.4186 10.0305 0.0000 5.1831 0.0000
# 3 62.5741 10.0305 102.4544 0.0000 1.0223 0.0000
# 4 0.0000 0.0000 0.0000 26.2495 0.0000 1.0430
# 5 7.7134 5.1831 1.0223 0.0000 42.6242 0.0000
# 6 0.0000 0.0000 0.0000 1.0430 0.0000 21.5940
#
#
#
# Elastic Compliance Matrix: (Units=1/GPa)
#
#
# Indices 1 2 3 4 5 6 
#
# 1 0.011017 -0.005561 -0.006172 0.000000 -0.001169 0.000000
# 2 -0.005561 0.033267 0.000170 0.000000 -0.003043 0.000000
# 3 -0.006172 0.000170 0.013506 0.000000 0.000772 0.000000
# 4 0.000000 0.000000 0.000000 0.038169 0.000000 -0.001844
# 5 -0.001169 -0.003043 0.000772 0.000000 0.024024 0.000000
# 6 0.000000 0.000000 0.000000 -0.001844 0.000000 0.046398
#
#
# Mechanical properties :
#
#
# Convention : Reuss Voigt Hill
#
# Bulk Modulus (GPa) = 28.84978 51.96676 40.40827
# Shear Modulus (GPa) = 24.86792 30.04395 27.45593
#
# Velocity S-wave (km/s) = 3.49530 3.84187 3.67267
# Velocity P-wave (km/s) = 5.51931 6.72385 6.15113
#
# Compressibility (1/GPa) = 0.03466231
#
# Stress axis : x y z
#
# Youngs Moduli (GPa) = 90.76957 30.06007 74.04150
#
# Poissons Ratio (x) = 0.16717 0.45702
# Poissons Ratio (y) = 0.50478 -0.01258
# Poissons Ratio (z) = 0.56027 -0.00511
#
# Static dielectric constant tensor:
#      x y z
#    x 1.736510 0.000000 -0.084150 
#    y 0.000000 1.716780 0.000000 
#    z -0.084150 0.000000 1.725050 
# 
# From -- ./inp_files/20391.got.cif
#   From: 2010.05.17/outbox.cif.g08.bks.cpg/sg5_11_cif.got.tgz:20391.got - 2010.06.03 18:56:24.
