data_PCOD9120681
_publ_section_title
;
Structure prediction by ZEFSAII (Michael W. Deem and Ramdas Pophale) SiO2 
 PCOD9120681
Probable space group: C 2
;
_chemical_formula_sum "Si O2"
_cell_formula_units_Z 16
_cell_length_a 26.902644
_cell_length_b 7.016055
_cell_length_c 8.916129
_cell_angle_alpha 90.000000
_cell_angle_beta 20.643046
_cell_angle_gamma 90.000000
_cell_volume 593.305826
_symmetry_space_group_name_H-M "C 2"
_symmetry_group_IT_number 5
_symmetry_cell_setting 'monoclinic'
loop_
_space_group_symop_operation_xyz
x,y,z
-x,y,-z
1/2+x,1/2+y,z
1/2-x,1/2+y,-z
loop_
_atom_site_type_symbol
_atom_site_label
_atom_site_fract_x
_atom_site_fract_y
_atom_site_fract_z
Si Si1 0.020480 0.785200 0.113159
Si Si2 0.989464 0.383461 0.303997
Si Si3 0.222930 0.042274 0.094661
Si Si4 0.642965 0.547677 0.000279
O O1 0.048111 0.558784 0.042195
O O2 0.873966 0.857044 0.601026
O O3 0.136942 0.894926 0.884802
O O4 0.000000 0.846159 0.000000
O O5 0.881210 0.212294 0.557153
O O6 0.116281 0.257763 0.010148
O O7 0.876604 0.497525 0.729311
O O8 0.249221 0.045949 0.838695
O O9 0.500000 0.514299 0.500000
#
# Coordination Sequence:
#
# PCOD9120681 Si02
#       4
#     4   4   4   4
#     4  10  20  35  59  82 115 146 182 238 296 328
#     4  10  18  34  58  84 107 147 190 231 277 340
#     4  10  20  36  61  84 110 146 202 229 275 348
#     4   8  20  35  57  85 109 144 198 229 275 342
#
# _framework density 26.967542000000002
#
# number of rings (size 3 to 8) (size 9 to 14) (size 15 to 20)
#    0.000    3.000    2.500    0.000    0.000   13.000 
#    0.000    0.000   16.500    0.000    0.000    0.000 
#    0.000    0.000    0.000    0.000    0.000    0.000 
#
# Total GULP energy -44544.555245 kJ/mol
# GULP energy per Si atom -5568.069406 kJ/mol
# Density = 2.690616 g / cm^3
# Si number density = 26.967542 Si / 1000 Ang^3
#
#
#
# Elastic Constant Matrix: (Units=GPa)
#
#
# Indices 1 2 3 4 5 6 
#
# 1 150.0203 94.3089 26.0745 0.0000 8.1089 0.0000
# 2 94.3089 213.0050 6.5632 0.0000 3.4827 0.0000
# 3 26.0745 6.5632 50.8614 0.0000 3.2264 0.0000
# 4 0.0000 0.0000 0.0000 21.8860 0.0000 -3.2912
# 5 8.1089 3.4827 3.2264 0.0000 30.3365 0.0000
# 6 0.0000 0.0000 0.0000 -3.2912 0.0000 59.1107
#
#
#
# Elastic Compliance Matrix: (Units=1/GPa)
#
#
# Indices 1 2 3 4 5 6 
#
# 1 0.010332 -0.004403 -0.004616 0.000000 -0.001765 0.000000
# 2 -0.004403 0.006597 0.001389 0.000000 0.000272 0.000000
# 3 -0.004616 0.001389 0.021928 0.000000 -0.001258 0.000000
# 4 0.000000 0.000000 0.000000 0.046077 0.000000 0.002566
# 5 -0.001765 0.000272 -0.001258 0.000000 0.033538 0.000000
# 6 0.000000 0.000000 0.000000 0.002566 0.000000 0.017060
#
#
# Mechanical properties :
#
#
# Convention : Reuss Voigt Hill
#
# Bulk Modulus (GPa) = 42.38101 74.19776 58.28939
# Shear Modulus (GPa) = 31.51407 41.39597 36.45502
#
# Velocity S-wave (km/s) = 3.42218 3.92220 3.68069
# Velocity P-wave (km/s) = 5.60042 6.93433 6.30276
#
# Compressibility (1/GPa) = 0.02359547
#
# Stress axis : x y z
#
# Youngs Moduli (GPa) = 96.79044 151.58301 45.60278
#
# Poissons Ratio (x) = 0.66746 0.21052
# Poissons Ratio (y) = 0.42619 -0.06333
# Poissons Ratio (z) = 0.44682 -0.21052
#
# Static dielectric constant tensor:
#      x y z
#    x 2.199530 0.000000 -0.050390 
#    y 0.000000 2.287910 0.000000 
#    z -0.050390 0.000000 2.240900 
# 
# From -- ./inp_files/31465.got.cif
#   From: 2010.05.17/outbox.cif.g08.bks.cpg/sg5_16_cif.got.tgz:31465.got - 2010.06.03 18:56:24.
