data_PCOD9120756
_publ_section_title
;
Structure prediction by ZEFSAII (Michael W. Deem and Ramdas Pophale) SiO2 
 PCOD9120756
Probable space group: C 2
;
_chemical_formula_sum "Si O2"
_cell_formula_units_Z 28
_cell_length_a 18.219341
_cell_length_b 6.489727
_cell_length_c 12.525267
_cell_angle_alpha 90.000000
_cell_angle_beta 45.021052
_cell_angle_gamma 90.000000
_cell_volume 1047.588204
_symmetry_space_group_name_H-M "C 2"
_symmetry_group_IT_number 5
_symmetry_cell_setting 'monoclinic'
loop_
_space_group_symop_operation_xyz
x,y,z
-x,y,-z
1/2+x,1/2+y,z
1/2-x,1/2+y,-z
loop_
_atom_site_type_symbol
_atom_site_label
_atom_site_fract_x
_atom_site_fract_y
_atom_site_fract_z
Si Si1 0.381494 0.191460 0.110079
Si Si2 0.108199 0.869850 0.679058
Si Si3 0.946315 0.377553 0.298903
Si Si4 0.161995 0.480063 0.142502
Si Si5 0.385523 0.400258 0.873661
Si Si6 0.615858 0.982629 0.413141
Si Si7 0.732291 0.837839 0.663986
O O1 0.368366 0.356882 0.219181
O O2 0.301570 0.008895 0.215905
O O3 0.500000 0.109388 0.000000
O O4 0.378886 0.298808 0.998676
O O5 0.081844 0.624339 0.686346
O O6 0.202013 0.923541 0.504573
O O7 0.002314 0.983640 0.751003
O O8 0.904634 0.341956 0.462120
O O9 0.875876 0.271298 0.281408
O O10 0.071886 0.377048 0.164206
O O11 0.122681 0.713198 0.200397
O O12 0.158983 0.375774 0.261743
O O13 0.275902 0.513377 0.977505
O O14 0.500000 0.054067 0.500000
O O15 0.695494 0.163148 0.360797
#
# Coordination Sequence:
#
# PCOD9120756 Si02
#       7
#     4   4   4   4   4   4   4
#     4   9  19  36  60  86 112 158 199 237 298 363
#     4   8  17  35  58  83 109 153 191 234 295 356
#     4   8  17  35  58  83 109 153 191 234 295 356
#     4  10  21  37  59  81 118 159 197 239 294 358
#     4  10  21  37  59  81 118 159 197 239 294 358
#     4   9  19  36  60  86 112 158 199 237 298 363
#     4  10  18  34  66  84 112 146 206 244 280 362
#
# _framework density 26.728061
#
# number of rings (size 3 to 8) (size 9 to 14) (size 15 to 20)
#    0.000    2.857    0.000    1.714    4.000    0.000 
#    0.000    4.286    0.000    0.000    0.000    0.000 
#    0.000    0.000    0.000    0.000    0.000    0.000 
#
# Total GULP energy -78292.821361 kJ/mol
# GULP energy per Si atom -5592.344383 kJ/mol
# Density = 2.666723 g / cm^3
# Si number density = 26.728061 Si / 1000 Ang^3
#
#
#
# Elastic Constant Matrix: (Units=GPa)
#
#
# Indices 1 2 3 4 5 6 
#
# 1 148.3423 34.0093 48.6886 -0.0027 -23.7557 0.0004
# 2 34.0093 48.8581 28.1016 -0.0148 -21.9780 0.0093
# 3 48.6886 28.1016 159.7289 -0.0081 -26.1057 0.0046
# 4 -0.0027 -0.0148 -0.0081 47.0933 0.0028 -11.7935
# 5 -23.7557 -21.9780 -26.1057 0.0028 67.1856 -0.0004
# 6 0.0004 0.0093 0.0046 -11.7935 -0.0004 41.2115
#
#
#
# Elastic Compliance Matrix: (Units=1/GPa)
#
#
# Indices 1 2 3 4 5 6 
#
# 1 0.008462 -0.004561 -0.001636 -0.000001 0.000865 0.000001
# 2 -0.004561 0.028027 -0.002462 0.000007 0.006599 -0.000004
# 3 -0.001636 -0.002462 0.007439 0.000000 0.001507 0.000000
# 4 -0.000001 0.000007 0.000000 0.022874 0.000001 0.006546
# 5 0.000865 0.006599 0.001507 0.000001 0.017934 -0.000001
# 6 0.000001 -0.000004 0.000000 0.006546 -0.000001 0.026138
#
#
# Mechanical properties :
#
#
# Convention : Reuss Voigt Hill
#
# Bulk Modulus (GPa) = 37.57937 64.28092 50.93014
# Shear Modulus (GPa) = 36.48036 47.50674 41.99355
#
# Velocity S-wave (km/s) = 3.69842 4.22051 3.96806
# Velocity P-wave (km/s) = 5.68579 6.91755 6.33169
#
# Compressibility (1/GPa) = 0.02661035
#
# Stress axis : x y z
#
# Youngs Moduli (GPa) = 118.17445 35.68046 134.43357
#
# Poissons Ratio (x) = 0.16272 0.21990
# Poissons Ratio (y) = 0.53894 0.33099
# Poissons Ratio (z) = 0.19330 0.08785
#
# Static dielectric constant tensor:
#      x y z
#    x 2.135870 0.000000 -0.018620 
#    y 0.000000 2.352510 0.000010 
#    z -0.018620 0.000010 2.060210 
# 
# From -- ./inp_files/55719.got.cif
#   From: 2010.05.17/outbox.cif.g08.bks.cpg/sg5_28_cif.got.tgz:55719.got - 2010.06.03 18:56:24.
