data_PCOD9120114
_publ_section_title
;
Structure prediction by ZEFSAII (Michael W. Deem and Ramdas Pophale) SiO2 
 PCOD9120114
Probable space group: C 2
;
_chemical_formula_sum "Si O2"
_cell_formula_units_Z 26
_cell_length_a 14.555977
_cell_length_b 11.790757
_cell_length_c 21.325402
_cell_angle_alpha 90.000000
_cell_angle_beta 160.277826
_cell_angle_gamma 90.000000
_cell_volume 1235.099802
_symmetry_space_group_name_H-M "C 2"
_symmetry_group_IT_number 5
_symmetry_cell_setting 'monoclinic'
loop_
_space_group_symop_operation_xyz
x,y,z
-x,y,-z
1/2+x,1/2+y,z
1/2-x,1/2+y,-z
loop_
_atom_site_type_symbol
_atom_site_label
_atom_site_fract_x
_atom_site_fract_y
_atom_site_fract_z
Si Si1 0.086207 0.527190 0.918425
Si Si2 0.202320 0.079282 0.319717
Si Si3 0.755013 0.685333 0.617383
Si Si4 0.405954 0.345894 0.241302
Si Si5 0.368983 0.798185 0.813055
Si Si6 0.500000 0.137722 0.000000
Si Si7 0.447752 0.604740 0.640668
O O1 0.988894 0.622823 0.807450
O O2 0.906473 0.413186 0.796213
O O3 0.017548 0.573881 0.944018
O O4 0.415080 0.511455 0.125523
O O5 0.500000 0.024820 0.500000
O O6 0.163390 0.188972 0.250616
O O7 0.210738 0.120444 0.397086
O O8 0.500000 0.697387 0.500000
O O9 0.691331 0.609401 0.515490
O O10 0.848198 0.800427 0.642952
O O11 0.364963 0.296109 0.284392
O O12 0.433278 0.478134 0.273690
O O13 0.143413 0.309825 0.031667
O O14 0.202664 0.192614 0.804524
#
# Coordination Sequence:
#
# PCOD9120114 Si02
#       7
#     4   4   4   4   4   2   4
#     4  11  21  40  68  93 128 171 221 269 320 390
#     4  11  24  40  64 101 130 174 217 270 329 385
#     4  12  24  38  63 102 128 165 221 279 321 388
#     4  11  21  39  65  94 125 175 214 265 326 390
#     4  11  20  41  67  92 124 171 222 263 314 395
#     4  10  16  38  64  82 112 166 204 254 318 372
#     4  11  22  41  63  89 133 168 215 266 335 384
#
# _framework density 21.050930000000001
#
# number of rings (size 3 to 8) (size 9 to 14) (size 15 to 20)
#    0.000    0.923    7.692    0.923    0.000    3.692 
#    0.000    0.000    0.000    0.000    4.000    0.000 
#    0.000    0.000    0.000    0.000    0.000    0.000 
#
# Total GULP energy -72371.809595 kJ/mol
# GULP energy per Si atom -5567.062277 kJ/mol
# Density = 2.100302 g / cm^3
# Si number density = 21.050930 Si / 1000 Ang^3
#
#
#
# Elastic Constant Matrix: (Units=GPa)
#
#
# Indices 1 2 3 4 5 6 
#
# 1 147.8201 27.9446 44.8602 -0.0698 -3.4802 0.0762
# 2 27.9446 33.7165 10.5234 0.0552 -15.2380 -0.0194
# 3 44.8602 10.5234 95.2395 0.0412 3.7460 0.0025
# 4 -0.0698 0.0552 0.0412 23.4677 -0.0422 -1.0244
# 5 -3.4802 -15.2380 3.7460 -0.0422 41.8898 0.0283
# 6 0.0762 -0.0194 0.0025 -1.0244 0.0283 25.4330
#
#
#
# Elastic Compliance Matrix: (Units=1/GPa)
#
#
# Indices 1 2 3 4 5 6 
#
# 1 0.009135 -0.007196 -0.003447 0.000046 -0.001550 -0.000029
# 2 -0.007196 0.043143 -0.001978 -0.000090 0.015273 0.000034
# 3 -0.003447 -0.001978 0.012425 -0.000031 -0.002117 0.000009
# 4 0.000046 -0.000090 -0.000031 0.042687 0.000016 0.001719
# 5 -0.001550 0.015273 -0.002117 0.000016 0.029488 -0.000016
# 6 -0.000029 0.000034 0.000009 0.001719 -0.000016 0.039388
#
#
# Mechanical properties :
#
#
# Convention : Reuss Voigt Hill
#
# Bulk Modulus (GPa) = 25.34121 49.27029 37.30575
# Shear Modulus (GPa) = 23.29226 31.05461 27.17343
#
# Velocity S-wave (km/s) = 3.32998 3.84502 3.59673
# Velocity P-wave (km/s) = 5.18162 6.57026 5.91682
#
# Compressibility (1/GPa) = 0.03946141
#
# Stress axis : x y z
#
# Youngs Moduli (GPa) = 109.47033 23.17850 80.48169
#
# Poissons Ratio (x) = 0.16680 0.27739
# Poissons Ratio (y) = 0.78777 0.15921
# Poissons Ratio (z) = 0.37731 0.04585
#
# Static dielectric constant tensor:
#      x y z
#    x 1.767670 0.000020 0.043860 
#    y 0.000020 1.798280 -0.000170 
#    z 0.043860 -0.000170 1.857530 
# 
# From -- ./inp_files/20249.got.cif
#   From: 2010.05.17/outbox.cif.g08.bks.cpg/sg5_11_cif.got.tgz:20249.got - 2010.06.03 18:56:24.
