data_PCOD9120072
_publ_section_title
;
Structure prediction by ZEFSAII (Michael W. Deem and Ramdas Pophale) SiO2 
 PCOD9120072
Probable space group: C 2
;
_chemical_formula_sum "Si O2"
_cell_formula_units_Z 28
_cell_length_a 8.971692
_cell_length_b 18.572323
_cell_length_c 13.933856
_cell_angle_alpha 90.000000
_cell_angle_beta 142.244857
_cell_angle_gamma 90.000000
_cell_volume 1421.568620
_symmetry_space_group_name_H-M "C 2"
_symmetry_group_IT_number 5
_symmetry_cell_setting 'monoclinic'
loop_
_space_group_symop_operation_xyz
x,y,z
-x,y,-z
1/2+x,1/2+y,z
1/2-x,1/2+y,-z
loop_
_atom_site_type_symbol
_atom_site_label
_atom_site_fract_x
_atom_site_fract_y
_atom_site_fract_z
Si Si1 0.109273 0.699420 0.950848
Si Si2 0.000000 0.475066 0.000000
Si Si3 0.969015 0.302618 0.868867
Si Si4 0.710886 0.909621 0.845871
Si Si5 0.021899 0.554812 0.814080
Si Si6 0.782024 0.312895 0.328866
Si Si7 0.500000 0.502673 0.500000
Si Si8 0.044002 0.889375 0.684602
O O1 0.113583 0.635726 0.874270
O O2 0.919512 0.758853 0.814941
O O3 0.376311 0.736025 0.094994
O O4 0.000000 0.678414 0.000000
O O5 0.061107 0.523096 0.940000
O O6 0.763219 0.429679 0.851149
O O7 0.682667 0.320085 0.708417
O O8 0.093527 0.371308 0.879283
O O9 0.000000 0.296230 0.000000
O O10 0.626591 0.862513 0.712273
O O11 0.644697 0.994085 0.809416
O O12 0.000000 0.902337 0.000000
O O13 0.735462 0.549677 0.644392
O O14 0.649051 0.364011 0.337237
O O15 0.000000 0.276962 0.500000
O O16 0.446935 0.447091 0.559532
#
# Coordination Sequence:
#
# PCOD9120072 Si02
#       8
#     4   2   4   4   4   4   2   4
#     4  12  24  41  62  90 130 171 210 267 326 384
#     4  10  16  34  62  84 108 152 206 256 296 360
#     4  12  19  38  66  90 121 161 224 271 308 375
#     4  12  21  40  65  94 125 161 224 272 309 372
#     4  11  23  37  59  92 124 166 208 256 322 381
#     4  12  24  38  62  96 128 164 208 265 324 388
#     4  10  22  38  66  90 124 164 204 260 320 400
#     4  11  20  38  66  93 117 156 213 271 313 367
#
# _framework density 19.696552000000001
#
# number of rings (size 3 to 8) (size 9 to 14) (size 15 to 20)
#    0.000    0.571    8.571    1.714    1.000    0.571 
#    0.000    0.000    0.000    0.000    5.571    0.000 
#    0.000    0.000    0.000    0.000    0.000    0.000 
#
# Total GULP energy -78075.422215 kJ/mol
# GULP energy per Si atom -5576.815872 kJ/mol
# Density = 1.965172 g / cm^3
# Si number density = 19.696552 Si / 1000 Ang^3
#
#
#
# Elastic Constant Matrix: (Units=GPa)
#
#
# Indices 1 2 3 4 5 6 
#
# 1 75.3680 1.8582 4.9562 0.0003 -6.1966 0.0002
# 2 1.8582 86.8576 14.8082 -0.0001 -8.4388 0.0001
# 3 4.9562 14.8082 57.7686 0.0014 -8.5840 -0.0002
# 4 0.0003 -0.0001 0.0014 12.8270 0.0004 5.2971
# 5 -6.1966 -8.4388 -8.5840 0.0004 16.2347 0.0000
# 6 0.0002 0.0001 -0.0002 5.2971 0.0000 21.0065
#
#
#
# Elastic Compliance Matrix: (Units=1/GPa)
#
#
# Indices 1 2 3 4 5 6 
#
# 1 0.013715 0.000288 -0.000489 0.000000 0.005126 0.000000
# 2 0.000288 0.012435 -0.002426 0.000000 0.005291 0.000000
# 3 -0.000489 -0.002426 0.019273 -0.000003 0.008743 0.000001
# 4 0.000000 0.000000 -0.000003 0.087023 -0.000004 -0.021944
# 5 0.005126 0.005291 0.008743 -0.000004 0.070926 0.000001
# 6 0.000000 0.000000 0.000001 -0.021944 0.000001 0.053138
#
#
# Mechanical properties :
#
#
# Convention : Reuss Voigt Hill
#
# Bulk Modulus (GPa) = 24.89481 29.24882 27.07182
# Shear Modulus (GPa) = 18.17177 23.23843 20.70510
#
# Velocity S-wave (km/s) = 3.04071 3.43858 3.24575
# Velocity P-wave (km/s) = 4.99945 5.53598 5.27454
#
# Compressibility (1/GPa) = 0.04016902
#
# Stress axis : x y z
#
# Youngs Moduli (GPa) = 72.91438 80.42108 51.88503
#
# Poissons Ratio (x) = -0.02316 0.02536
# Poissons Ratio (y) = -0.02100 0.12587
# Poissons Ratio (z) = 0.03564 0.19510
#
# Static dielectric constant tensor:
#      x y z
#    x 1.711340 0.000000 -0.005990 
#    y 0.000000 1.735980 0.000000 
#    z -0.005990 0.000000 1.715970 
# 
# From -- ./inp_files/51420.got.cif
#   From: 2010.05.17/outbox.cif.g08.bks.cpg/sg5_26_cif.got.tgz:51420.got - 2010.06.03 18:56:24.
