data_PCOD9120507
_publ_section_title
;
Structure prediction by ZEFSAII (Michael W. Deem and Ramdas Pophale) SiO2 
 PCOD9120507
Probable space group: C 2
;
_chemical_formula_sum "Si O2"
_cell_formula_units_Z 32
_cell_length_a 21.726835
_cell_length_b 8.043500
_cell_length_c 11.752220
_cell_angle_alpha 90.000000
_cell_angle_beta 125.415721
_cell_angle_gamma 90.000000
_cell_volume 1673.795664
_symmetry_space_group_name_H-M "C 2"
_symmetry_group_IT_number 5
_symmetry_cell_setting 'monoclinic'
loop_
_space_group_symop_operation_xyz
x,y,z
-x,y,-z
1/2+x,1/2+y,z
1/2-x,1/2+y,-z
loop_
_atom_site_type_symbol
_atom_site_label
_atom_site_fract_x
_atom_site_fract_y
_atom_site_fract_z
Si Si1 0.416857 0.923070 0.447557
Si Si2 0.655286 0.367107 0.909193
Si Si3 0.090630 0.094443 0.124088
Si Si4 0.445691 0.580533 0.352512
Si Si5 0.608104 0.896164 0.983680
Si Si6 0.695310 0.018591 0.856687
Si Si7 0.955938 0.289268 0.718856
Si Si8 0.915900 0.741502 0.953928
O O1 0.500000 0.990680 0.500000
O O2 0.416183 0.736991 0.393460
O O3 0.415506 0.903742 0.581651
O O4 0.349393 0.009791 0.309389
O O5 0.621463 0.480378 0.774991
O O6 0.692388 0.205960 0.895192
O O7 0.720330 0.452305 0.052353
O O8 0.588175 0.309738 0.920840
O O9 0.095854 0.187557 0.250184
O O10 0.116415 0.902083 0.148930
O O11 0.123118 0.223903 0.065585
O O12 0.000000 0.084848 0.000000
O O13 0.500000 0.485494 0.500000
O O14 0.495100 0.657767 0.302924
O O15 0.518713 0.891669 0.856765
O O16 0.650697 0.917211 0.908987
O O17 0.623329 0.060466 0.076885
O O18 0.000000 0.713854 0.000000
#
# Coordination Sequence:
#
# PCOD9120507 Si02
#       8
#     4   4   4   4   4   4   4   4
#     4   9  17  32  56  76 113 151 187 228 279 355
#     4  11  23  34  54  84 115 151 184 242 293 335
#     4   9  17  28  52  77 107 140 179 233 282 324
#     4   9  17  32  52  76 112 142 187 229 280 350
#     4  10  18  32  51  81 114 145 181 232 283 335
#     4  11  22  34  53  82 115 152 186 235 288 348
#     4   9  16  31  57  80 107 152 183 230 291 333
#     4  10  20  32  51  84 110 139 188 238 279 335
#
# _framework density 19.118223
#
# number of rings (size 3 to 8) (size 9 to 14) (size 15 to 20)
#    0.000    2.500    2.500    4.125    1.750    0.500 
#    0.000    0.000    2.750    0.000   19.500    0.000 
#    0.000    0.000    0.000    0.000    0.000    0.000 
#
# Total GULP energy -89127.975776 kJ/mol
# GULP energy per Si atom -5570.498486 kJ/mol
# Density = 1.907471 g / cm^3
# Si number density = 19.118223 Si / 1000 Ang^3
#
#
#
# Elastic Constant Matrix: (Units=GPa)
#
#
# Indices 1 2 3 4 5 6 
#
# 1 40.9300 19.9060 15.9753 0.0000 -7.2429 0.0000
# 2 19.9060 75.7914 30.4620 0.0000 -2.1621 0.0000
# 3 15.9753 30.4620 99.2258 0.0000 1.8040 0.0000
# 4 0.0000 0.0000 0.0000 27.8299 0.0000 -5.2233
# 5 -7.2429 -2.1621 1.8040 0.0000 22.2046 0.0000
# 6 0.0000 0.0000 0.0000 -5.2233 0.0000 18.7841
#
#
#
# Elastic Compliance Matrix: (Units=1/GPa)
#
#
# Indices 1 2 3 4 5 6 
#
# 1 0.030488 -0.006493 -0.003089 0.000000 0.009564 0.000000
# 2 -0.006493 0.016510 -0.004020 0.000000 -0.000184 0.000000
# 3 -0.003089 -0.004020 0.011852 0.000000 -0.002362 0.000000
# 4 0.000000 0.000000 0.000000 0.037911 0.000000 0.010542
# 5 0.009564 -0.000184 -0.002362 0.000000 0.048329 0.000000
# 6 0.000000 0.000000 0.000000 0.010542 0.000000 0.056168
#
#
# Mechanical properties :
#
#
# Convention : Reuss Voigt Hill
#
# Bulk Modulus (GPa) = 31.59924 38.73710 35.16817
# Shear Modulus (GPa) = 20.91957 23.73731 22.32844
#
# Velocity S-wave (km/s) = 3.31149 3.52747 3.42118
# Velocity P-wave (km/s) = 5.58440 6.07425 5.83447
#
# Compressibility (1/GPa) = 0.03164633
#
# Stress axis : x y z
#
# Youngs Moduli (GPa) = 32.79997 60.57000 84.37141
#
# Poissons Ratio (x) = 0.39328 0.26063
# Poissons Ratio (y) = 0.21297 0.33915
# Poissons Ratio (z) = 0.10132 0.24348
#
# Static dielectric constant tensor:
#      x y z
#    x 1.698760 0.000000 -0.005550 
#    y 0.000000 1.712380 0.000000 
#    z -0.005550 0.000000 1.683680 
# 
# From -- ./inp_files/46143.got.cif
#   From: 2010.05.17/outbox.cif.g08.bks.cpg/sg5_24_cif.got.tgz:46143.got - 2010.06.03 18:56:24.
