data_PCOD9120510
_publ_section_title
;
Structure prediction by ZEFSAII (Michael W. Deem and Ramdas Pophale) SiO2 
 PCOD9120510
Probable space group: C 2
;
_chemical_formula_sum "Si O2"
_cell_formula_units_Z 28
_cell_length_a 5.533465
_cell_length_b 24.766685
_cell_length_c 9.137881
_cell_angle_alpha 90.000000
_cell_angle_beta 78.631505
_cell_angle_gamma 90.000000
_cell_volume 1227.735634
_symmetry_space_group_name_H-M "C 2"
_symmetry_group_IT_number 5
_symmetry_cell_setting 'monoclinic'
loop_
_space_group_symop_operation_xyz
x,y,z
-x,y,-z
1/2+x,1/2+y,z
1/2-x,1/2+y,-z
loop_
_atom_site_type_symbol
_atom_site_label
_atom_site_fract_x
_atom_site_fract_y
_atom_site_fract_z
Si Si1 0.087412 0.632360 0.817918
Si Si2 0.781173 0.803540 0.819198
Si Si3 0.751150 0.431165 0.495482
Si Si4 0.811854 0.510746 0.212614
Si Si5 0.086072 0.183535 0.820771
Si Si6 0.276949 0.843749 0.842215
Si Si7 0.822382 0.968358 0.172484
O O1 0.199723 0.574441 0.762360
O O2 0.324680 0.672202 0.771254
O O3 0.829126 0.646176 0.767059
O O4 0.000000 0.632017 0.000000
O O5 0.696334 0.743476 0.790850
O O6 0.568336 0.840693 0.773535
O O7 0.068413 0.817940 0.762381
O O8 0.750572 0.813616 0.998250
O O9 0.500000 0.399336 0.500000
O O10 0.781272 0.472084 0.357520
O O11 0.715658 0.466293 0.646311
O O12 0.000000 0.399620 0.500000
O O13 0.596660 0.491254 0.129731
O O14 0.094858 0.501232 0.137279
O O15 0.000000 0.177298 0.000000
O O16 0.206412 0.906131 0.869291
#
# Coordination Sequence:
#
# PCOD9120510 Si02
#       7
#     4   4   4   4   4   4   4
#     4  10  21  32  48  73 100 141 175 203 251 306
#     4  10  19  32  48  71  98 141 168 213 254 294
#     4   8  16  30  52  70  94 128 165 212 249 288
#     4  10  19  35  49  72 108 135 172 208 256 300
#     4  10  18  32  52  67  96 135 177 215 245 296
#     4  10  19  30  48  73  98 134 179 201 249 305
#     4  10  19  33  51  74 104 134 172 212 252 302
#
# _framework density 22.806211000000001
#
# number of rings (size 3 to 8) (size 9 to 14) (size 15 to 20)
#    0.000    2.286    1.429    2.571    4.000    0.000 
#    7.714    0.000    0.000    0.000    0.000    0.000 
#    0.000  205.714    0.000    0.000    0.000    0.000 
#
# Total GULP energy -78021.644119 kJ/mol
# GULP energy per Si atom -5572.974580 kJ/mol
# Density = 2.275430 g / cm^3
# Si number density = 22.806211 Si / 1000 Ang^3
#
#
#
# Elastic Constant Matrix: (Units=GPa)
#
#
# Indices 1 2 3 4 5 6 
#
# 1 244.3549 38.0509 13.4891 0.0000 27.2345 0.0000
# 2 38.0509 104.4146 -9.7667 0.0000 11.9938 0.0000
# 3 13.4891 -9.7667 40.3406 0.0000 7.2571 0.0000
# 4 0.0000 0.0000 0.0000 -10.9921 0.0000 16.8253
# 5 27.2345 11.9938 7.2571 0.0000 19.9660 0.0000
# 6 0.0000 0.0000 0.0000 16.8253 0.0000 33.9033
#
#
#
# Elastic Compliance Matrix: (Units=1/GPa)
#
#
# Indices 1 2 3 4 5 6 
#
# 1 0.004973 -0.001246 -0.000940 0.000000 -0.005693 0.000000
# 2 -0.001246 0.011192 0.004312 0.000000 -0.006590 0.000000
# 3 -0.000940 0.004312 0.028228 0.000000 -0.011568 0.000000
# 4 0.000000 0.000000 0.000000 -0.051701 0.000000 0.025658
# 5 -0.005693 -0.006590 -0.011568 0.000000 0.066014 0.000000
# 6 0.000000 0.000000 0.000000 0.025658 0.000000 0.016762
#
#
# Mechanical properties :
#
#
# Convention : Reuss Voigt Hill
#
# Bulk Modulus (GPa) = 20.55790 52.51743 36.53766
# Shear Modulus (GPa) = 57.18707 31.73122 44.45915
#
# Velocity S-wave (km/s) = 5.01295 3.73412 4.42003
# Velocity P-wave (km/s) = 6.52227 6.45517 6.48880
#
# Compressibility (1/GPa) = 0.04864311
#
# Stress axis : x y z
#
# Youngs Moduli (GPa) = 201.09088 89.35188 35.42545
#
# Poissons Ratio (x) = 0.11136 0.03332
# Poissons Ratio (y) = 0.25062 -0.15275
# Poissons Ratio (z) = 0.18912 -0.38527
#
# Static dielectric constant tensor:
#      x y z
#    x 1.975890 0.000000 -0.083950 
#    y 0.000000 1.805470 0.000000 
#    z -0.083950 0.000000 2.037200 
# 
# From -- ./inp_files/33781.got.cif
#   From: 2010.05.17/outbox.cif.g08.bks.cpg/sg5_17_cif.got.tgz:33781.got - 2010.06.03 18:56:24.
