data_PCOD9120508
_publ_section_title
;
Structure prediction by ZEFSAII (Michael W. Deem and Ramdas Pophale) SiO2 
 PCOD9120508
Probable space group: C 2
;
_chemical_formula_sum "Si O2"
_cell_formula_units_Z 32
_cell_length_a 7.112415
_cell_length_b 19.931644
_cell_length_c 11.253076
_cell_angle_alpha 90.000000
_cell_angle_beta 59.431140
_cell_angle_gamma 90.000000
_cell_volume 1373.548430
_symmetry_space_group_name_H-M "C 2"
_symmetry_group_IT_number 5
_symmetry_cell_setting 'monoclinic'
loop_
_space_group_symop_operation_xyz
x,y,z
-x,y,-z
1/2+x,1/2+y,z
1/2-x,1/2+y,-z
loop_
_atom_site_type_symbol
_atom_site_label
_atom_site_fract_x
_atom_site_fract_y
_atom_site_fract_z
Si Si1 0.064185 0.980310 0.346045
Si Si2 0.055686 0.842912 0.627776
Si Si3 0.004075 0.126329 0.729145
Si Si4 0.250768 0.350313 0.959972
Si Si5 0.951616 0.474029 0.880500
Si Si6 0.705539 0.201531 0.528189
Si Si7 0.721174 0.707972 0.009602
Si Si8 0.421928 0.114241 0.763865
O O1 0.311370 0.951003 0.249397
O O2 0.000000 0.996383 0.500000
O O3 0.893102 0.921697 0.364007
O O4 0.056429 0.050782 0.283021
O O5 0.202595 0.775918 0.585935
O O6 0.000000 0.846374 0.500000
O O7 0.886422 0.835157 0.794723
O O8 0.074369 0.180043 0.607369
O O9 0.223654 0.120649 0.736341
O O10 0.823246 0.159893 0.867545
O O11 0.273990 0.283400 0.029178
O O12 0.000000 0.353742 0.000000
O O13 0.243432 0.418767 0.041716
O O14 0.902265 0.540516 0.823012
O O15 0.000000 0.495360 0.000000
O O16 0.500000 0.205950 0.500000
O O17 0.641214 0.136777 0.627689
O O18 0.500000 0.710852 0.000000
O O19 0.891397 0.671707 0.871035
#
# Coordination Sequence:
#
# PCOD9120508 Si02
#       8
#     4   4   4   4   4   4   4   4
#     4  11  22  36  55  85 115 148 182 229 285 337
#     4  10  19  32  54  81 112 141 188 236 282 314
#     4  10  21  36  55  83 113 145 186 230 278 334
#     4  10  18  32  51  83 113 140 185 240 272 324
#     4  11  21  34  56  81 115 148 181 228 281 333
#     4   9  18  32  54  81 107 138 187 239 271 316
#     4   9  18  29  52  79 110 139 183 234 271 312
#     4  10  19  35  55  81 107 149 185 226 280 326
#
# _framework density 23.297324
#
# number of rings (size 3 to 8) (size 9 to 14) (size 15 to 20)
#    0.000    2.000    3.750    1.500    5.250    0.000 
#    0.000    0.000    0.000    4.500    0.000    0.000 
#    0.000    0.000    0.000    0.000    0.000    0.000 
#
# Total GULP energy -89083.976217 kJ/mol
# GULP energy per Si atom -5567.748514 kJ/mol
# Density = 2.324430 g / cm^3
# Si number density = 23.297324 Si / 1000 Ang^3
#
#
#
# Elastic Constant Matrix: (Units=GPa)
#
#
# Indices 1 2 3 4 5 6 
#
# 1 57.1082 13.8600 3.2973 0.0000 -8.5429 0.0000
# 2 13.8600 210.4823 34.1341 0.0000 17.6116 0.0000
# 3 3.2973 34.1341 106.6246 0.0000 6.0757 0.0000
# 4 0.0000 0.0000 0.0000 45.5113 0.0000 5.6154
# 5 -8.5429 17.6116 6.0757 0.0000 9.9300 0.0000
# 6 0.0000 0.0000 0.0000 5.6154 0.0000 12.1545
#
#
#
# Elastic Compliance Matrix: (Units=1/GPa)
#
#
# Indices 1 2 3 4 5 6 
#
# 1 0.022303 -0.003472 -0.001059 0.000000 0.025993 0.000000
# 2 -0.003472 0.006289 -0.001140 0.000000 -0.013444 0.000000
# 3 -0.001059 -0.001140 0.010064 0.000000 -0.005047 0.000000
# 4 0.000000 0.000000 0.000000 0.023301 0.000000 -0.010765
# 5 0.025993 -0.013444 -0.005047 0.000000 0.149999 0.000000
# 6 0.000000 0.000000 0.000000 -0.010765 0.000000 0.087248
#
#
# Mechanical properties :
#
#
# Convention : Reuss Voigt Hill
#
# Bulk Modulus (GPa) = 36.61151 52.97754 44.79453
# Shear Modulus (GPa) = 15.64208 35.04741 25.34475
#
# Velocity S-wave (km/s) = 2.59397 3.88281 3.30188
# Velocity P-wave (km/s) = 4.97198 6.54910 5.81426
#
# Compressibility (1/GPa) = 0.02731381
#
# Stress axis : x y z
#
# Youngs Moduli (GPa) = 44.83766 158.99878 99.36385
#
# Poissons Ratio (x) = 0.55199 0.10527
# Poissons Ratio (y) = 0.15566 0.11328
# Poissons Ratio (z) = 0.04750 0.18126
#
# Static dielectric constant tensor:
#      x y z
#    x 1.983780 0.000000 0.047660 
#    y 0.000000 1.916540 0.000000 
#    z 0.047660 0.000000 1.898200 
# 
# From -- ./inp_files/37351.got.cif
#   From: 2010.05.17/outbox.cif.g08.bks.cpg/sg5_19_cif.got.tgz:37351.got - 2010.06.03 18:56:24.
