data_PCOD9120917
_publ_section_title
;
Structure prediction by ZEFSAII (Michael W. Deem and Ramdas Pophale) SiO2 
 PCOD9120917
Probable space group: C 2
;
_chemical_formula_sum "Si O2"
_cell_formula_units_Z 32
_cell_length_a 26.075932
_cell_length_b 10.592171
_cell_length_c 10.692375
_cell_angle_alpha 90.000000
_cell_angle_beta 32.368580
_cell_angle_gamma 90.000000
_cell_volume 1581.058450
_symmetry_space_group_name_H-M "C 2"
_symmetry_group_IT_number 5
_symmetry_cell_setting 'monoclinic'
loop_
_space_group_symop_operation_xyz
x,y,z
-x,y,-z
1/2+x,1/2+y,z
1/2-x,1/2+y,-z
loop_
_atom_site_type_symbol
_atom_site_label
_atom_site_fract_x
_atom_site_fract_y
_atom_site_fract_z
Si Si1 0.987962 0.987710 0.876004
Si Si2 0.700904 0.810469 0.243371
Si Si3 0.114806 0.807443 0.288336
Si Si4 0.376695 0.074862 0.550100
Si Si5 0.777987 0.040066 0.347156
Si Si6 0.917784 0.076861 0.563374
Si Si7 0.249553 0.763884 0.583584
Si Si8 0.030401 0.695324 0.077225
O O1 0.009800 0.837810 0.816042
O O2 0.043581 0.068185 0.658542
O O3 0.000000 0.015111 0.000000
O O4 0.876615 0.009912 0.074151
O O5 0.649760 0.695950 0.279851
O O6 0.694184 0.784006 0.404627
O O7 0.646695 0.942871 0.334227
O O8 0.813185 0.810281 0.976931
O O9 0.142109 0.690653 0.319066
O O10 0.000000 0.798651 0.500000
O O11 0.132940 0.942563 0.313735
O O12 0.305140 0.074779 0.578696
O O13 0.482599 0.101110 0.275015
O O14 0.792833 0.158306 0.406121
O O15 0.757304 0.905927 0.458487
O O16 0.000000 0.081887 0.500000
O O17 0.144150 0.711934 0.836567
O O18 0.000000 0.656954 0.000000
#
# Coordination Sequence:
#
# PCOD9120917 Si02
#       8
#     4   4   4   4   4   4   4   4
#     4  10  21  39  66  92 125 165 217 256 305 381
#     4  11  25  41  61  94 134 161 202 273 319 374
#     4  11  24  42  70  89 118 169 221 252 308 385
#     4  11  22  39  63  93 126 159 209 258 320 365
#     4  10  22  36  64  94 126 164 207 263 313 375
#     4  11  25  43  67  94 127 169 215 258 321 377
#     4  10  21  39  61  92 129 162 213 257 318 370
#     4  10  18  36  63  94 121 163 210 256 305 378
#
# _framework density 20.239605999999998
#
# number of rings (size 3 to 8) (size 9 to 14) (size 15 to 20)
#    0.000    1.500    2.500    2.250   10.500    1.500 
#    2.250    1.875    0.000    0.000    0.000    0.000 
#    0.000    0.000    0.000    0.000    0.000    0.000 
#
# Total GULP energy -89269.983329 kJ/mol
# GULP energy per Si atom -5579.373958 kJ/mol
# Density = 2.019354 g / cm^3
# Si number density = 20.239606 Si / 1000 Ang^3
#
#
#
# Elastic Constant Matrix: (Units=GPa)
#
#
# Indices 1 2 3 4 5 6 
#
# 1 40.9365 35.0130 6.6611 0.0000 5.1646 0.0000
# 2 35.0130 158.3977 44.8456 0.0000 2.8478 0.0000
# 3 6.6611 44.8456 66.4548 0.0000 9.1818 0.0000
# 4 0.0000 0.0000 0.0000 14.6736 0.0000 0.4823
# 5 5.1646 2.8478 9.1818 0.0000 24.6561 0.0000
# 6 0.0000 0.0000 0.0000 0.4823 0.0000 35.0846
#
#
#
# Elastic Compliance Matrix: (Units=1/GPa)
#
#
# Indices 1 2 3 4 5 6 
#
# 1 0.031339 -0.007641 0.002952 0.000000 -0.006781 0.000000
# 2 -0.007641 0.009697 -0.006161 0.000000 0.002775 0.000000
# 3 0.002952 -0.006161 0.019922 0.000000 -0.007326 0.000000
# 4 0.000000 0.000000 0.000000 0.068180 0.000000 -0.000937
# 5 -0.006781 0.002775 -0.007326 0.000000 0.044386 0.000000
# 6 0.000000 0.000000 0.000000 -0.000937 0.000000 0.028515
#
#
# Mechanical properties :
#
#
# Convention : Reuss Voigt Hill
#
# Bulk Modulus (GPa) = 25.47320 48.75871 37.11595
# Shear Modulus (GPa) = 21.11267 26.83415 23.97341
#
# Velocity S-wave (km/s) = 3.23327 3.64514 3.44536
# Velocity P-wave (km/s) = 5.15285 6.46986 5.84854
#
# Compressibility (1/GPa) = 0.03925694
#
# Stress axis : x y z
#
# Youngs Moduli (GPa) = 31.90945 103.12780 50.19639
#
# Poissons Ratio (x) = 0.78802 -0.14819
# Poissons Ratio (y) = 0.24383 0.30927
# Poissons Ratio (z) = -0.09420 0.63538
#
# Static dielectric constant tensor:
#      x y z
#    x 1.741100 0.000000 0.008390 
#    y 0.000000 1.727870 0.000000 
#    z 0.008390 0.000000 1.742920 
# 
# From -- ./inp_files/48387.got.cif
#   From: 2010.05.17/outbox.cif.g08.bks.cpg/sg5_25_cif.got.tgz:48387.got - 2010.06.03 18:56:24.
