data_PCOD9120409
_publ_section_title
;
Structure prediction by ZEFSAII (Michael W. Deem and Ramdas Pophale) SiO2 
 PCOD9120409
Probable space group: C 2
;
_chemical_formula_sum "Si O2"
_cell_formula_units_Z 28
_cell_length_a 10.352347
_cell_length_b 28.209308
_cell_length_c 5.104617
_cell_angle_alpha 90.000000
_cell_angle_beta 60.068389
_cell_angle_gamma 90.000000
_cell_volume 1291.885197
_symmetry_space_group_name_H-M "C 2"
_symmetry_group_IT_number 5
_symmetry_cell_setting 'monoclinic'
loop_
_space_group_symop_operation_xyz
x,y,z
-x,y,-z
1/2+x,1/2+y,z
1/2-x,1/2+y,-z
loop_
_atom_site_type_symbol
_atom_site_label
_atom_site_fract_x
_atom_site_fract_y
_atom_site_fract_z
Si Si1 0.180249 0.180330 0.865705
Si Si2 0.108693 0.033195 0.639334
Si Si3 0.329111 0.784950 0.091933
Si Si4 0.180062 0.130943 0.366408
Si Si5 0.105923 0.384269 0.148050
Si Si6 0.104067 0.834110 0.653931
Si Si7 0.830853 0.933827 0.571457
O O1 0.216004 0.232212 0.944260
O O2 0.236683 0.169545 0.517306
O O3 0.235818 0.141683 0.018837
O O4 0.000000 0.176611 0.000000
O O5 0.203148 0.080180 0.481209
O O6 0.000000 0.031058 0.500000
O O7 0.197294 0.983449 0.545255
O O8 0.000000 0.037943 0.000000
O O9 0.233745 0.798660 0.442784
O O10 0.500000 0.780215 0.000000
O O11 0.322102 0.831215 0.911345
O O12 0.000000 0.134987 0.500000
O O13 0.000000 0.394808 0.500000
O O14 0.227364 0.422206 0.925850
O O15 0.000000 0.381352 0.000000
O O16 0.172965 0.887127 0.607875
O O17 0.000000 0.834993 0.500000
O O18 0.000000 0.822081 0.000000
O O19 0.000000 0.935767 0.500000
#
# Coordination Sequence:
#
# PCOD9120409 Si02
#       7
#     4   4   4   4   4   4   4
#     4   9  17  28  44  68  98 130 161 202 251 297
#     4  10  18  29  47  73 102 131 163 206 257 303
#     4   9  20  34  54  78 104 137 175 212 253 303
#     4   9  16  27  42  67 102 128 155 202 257 298
#     4  10  22  37  52  75 107 139 171 210 255 305
#     4  10  21  36  52  75 107 139 171 210 256 306
#     4   9  20  35  55  78 104 136 173 212 255 304
#
# _framework density 21.673752
#
# number of rings (size 3 to 8) (size 9 to 14) (size 15 to 20)
#    0.000    2.571    0.000    2.571    0.000   17.714 
#    0.000    0.000    0.000    0.000    0.000    6.000 
#    0.000    0.000    0.000    0.000    0.000    0.000 
#
# Total GULP energy -78041.171630 kJ/mol
# GULP energy per Si atom -5574.369402 kJ/mol
# Density = 2.162442 g / cm^3
# Si number density = 21.673752 Si / 1000 Ang^3
#
#
#
# Elastic Constant Matrix: (Units=GPa)
#
#
# Indices 1 2 3 4 5 6 
#
# 1 30.7256 17.0327 35.1757 0.0000 4.9439 0.0000
# 2 17.0327 133.8736 53.9402 0.0000 4.5232 0.0000
# 3 35.1757 53.9402 168.9972 0.0000 12.1032 0.0000
# 4 0.0000 0.0000 0.0000 46.9812 0.0000 -14.7173
# 5 4.9439 4.5232 12.1032 0.0000 33.8580 0.0000
# 6 0.0000 0.0000 0.0000 -14.7173 0.0000 27.6542
#
#
#
# Elastic Compliance Matrix: (Units=1/GPa)
#
#
# Indices 1 2 3 4 5 6 
#
# 1 0.043589 -0.002151 -0.008160 0.000000 -0.003160 0.000000
# 2 -0.002151 0.008679 -0.002321 0.000000 -0.000016 0.000000
# 3 -0.008160 -0.002321 0.008466 0.000000 -0.001525 0.000000
# 4 0.000000 0.000000 0.000000 0.025544 0.000000 0.013594
# 5 -0.003160 -0.000016 -0.001525 0.000000 0.030544 0.000000
# 6 0.000000 0.000000 0.000000 0.013594 0.000000 0.043396
#
#
# Mechanical properties :
#
#
# Convention : Reuss Voigt Hill
#
# Bulk Modulus (GPa) = 28.19361 60.65484 44.42423
# Shear Modulus (GPa) = 25.34157 36.86187 31.10172
#
# Velocity S-wave (km/s) = 3.42311 4.12850 3.79224
# Velocity P-wave (km/s) = 5.35350 7.12546 6.30207
#
# Compressibility (1/GPa) = 0.03546902
#
# Stress axis : x y z
#
# Youngs Moduli (GPa) = 22.94174 115.21693 118.12283
#
# Poissons Ratio (x) = 0.24787 0.96385
# Poissons Ratio (y) = 0.04935 0.27420
# Poissons Ratio (z) = 0.18720 0.26746
#
# Static dielectric constant tensor:
#      x y z
#    x 1.775930 0.000000 -0.002880 
#    y 0.000000 1.907630 0.000000 
#    z -0.002880 0.000000 1.770350 
# 
# From -- ./inp_files/7739.got.cif
#   From: 2010.05.17/outbox.cif.g08.bks.cpg/sg5_4_cif.got.tgz:7739.got - 2010.06.03 18:56:24.
