data_PCOD9120566
_publ_section_title
;
Structure prediction by ZEFSAII (Michael W. Deem and Ramdas Pophale) SiO2 
 PCOD9120566
Probable space group: C 2
;
_chemical_formula_sum "Si O2"
_cell_formula_units_Z 30
_cell_length_a 11.373824
_cell_length_b 15.421110
_cell_length_c 8.793982
_cell_angle_alpha 90.000000
_cell_angle_beta 104.557766
_cell_angle_gamma 90.000000
_cell_volume 1492.917569
_symmetry_space_group_name_H-M "C 2"
_symmetry_group_IT_number 5
_symmetry_cell_setting 'monoclinic'
loop_
_space_group_symop_operation_xyz
x,y,z
-x,y,-z
1/2+x,1/2+y,z
1/2-x,1/2+y,-z
loop_
_atom_site_type_symbol
_atom_site_label
_atom_site_fract_x
_atom_site_fract_y
_atom_site_fract_z
Si Si1 0.131128 0.361370 0.605864
Si Si2 0.233970 0.002250 0.525494
Si Si3 0.419681 0.013863 0.179696
Si Si4 0.000000 0.086668 0.500000
Si Si5 0.401538 0.711680 0.202458
Si Si6 0.318854 0.957244 0.862615
Si Si7 0.165760 0.252105 0.149653
Si Si8 0.374500 0.156138 0.393464
O O1 0.219060 0.407565 0.513838
O O2 0.101784 0.443033 0.700110
O O3 0.173720 0.284629 0.728783
O O4 0.000000 0.332123 0.500000
O O5 0.098377 0.029594 0.440919
O O6 0.319473 0.080691 0.488377
O O7 0.232109 0.993299 0.706456
O O8 0.416987 0.106047 0.255773
O O9 0.549395 0.986940 0.156508
O O10 0.313518 0.002112 0.023195
O O11 0.067641 0.142970 0.653584
O O12 0.534764 0.744478 0.189253
O O13 0.338528 0.700855 0.014789
O O14 0.314903 0.853882 0.878480
O O15 0.266626 0.217819 0.301075
O O16 0.500000 0.194723 0.500000
#
# Coordination Sequence:
#
# PCOD9120566 Si02
#       8
#     4   4   4   2   4   4   4   4
#     4  11  17  35  63  92 114 160 212 259 299 368
#     4  11  23  38  60  90 126 165 210 254 315 373
#     4  10  18  32  61  92 118 153 215 262 299 354
#     4  12  26  40  58 100 130 166 202 262 322 388
#     4  11  21  38  63  94 128 161 211 255 320 366
#     4  11  19  36  61  92 121 159 213 264 300 369
#     4  11  22  39  63  97 130 165 207 268 310 378
#     4  11  22  41  61  94 129 170 205 259 323 378
#
# _framework density 20.09488
#
# number of rings (size 3 to 8) (size 9 to 14) (size 15 to 20)
#    0.000    1.067    7.333    1.600    1.867    0.000 
#    1.200    0.000    0.000    0.000    0.000    0.000 
#    0.000    0.000    0.000    0.000    0.000    0.000 
#
# Total GULP energy -83521.089338 kJ/mol
# GULP energy per Si atom -5568.072623 kJ/mol
# Density = 2.004914 g / cm^3
# Si number density = 20.094880 Si / 1000 Ang^3
#
#
#
# Elastic Constant Matrix: (Units=GPa)
#
#
# Indices 1 2 3 4 5 6 
#
# 1 48.0696 18.7619 2.4768 0.0000 15.6933 0.0000
# 2 18.7619 56.0048 17.8940 0.0000 9.7561 0.0000
# 3 2.4768 17.8940 76.0734 0.0000 5.3359 0.0000
# 4 0.0000 0.0000 0.0000 -109.5637 0.0000 48.9614
# 5 15.6933 9.7561 5.3359 0.0000 21.2612 0.0000
# 6 0.0000 0.0000 0.0000 48.9614 0.0000 -1.4219
#
#
#
# Elastic Compliance Matrix: (Units=1/GPa)
#
#
# Indices 1 2 3 4 5 6 
#
# 1 0.029810 -0.007316 0.002095 0.000000 -0.019172 0.000000
# 2 -0.007316 0.022484 -0.004790 0.000000 -0.003715 0.000000
# 3 0.002095 -0.004790 0.014412 0.000000 -0.002965 0.000000
# 4 0.000000 0.000000 0.000000 0.000634 0.000000 0.021844
# 5 -0.019172 -0.003715 -0.002965 0.000000 0.063634 0.000000
# 6 0.000000 0.000000 0.000000 0.021844 0.000000 0.048881
#
#
# Mechanical properties :
#
#
# Convention : Reuss Voigt Hill
#
# Bulk Modulus (GPa) = 21.42082 28.71259 25.06671
# Shear Modulus (GPa) = 23.20852 -8.54388 7.33232
#
# Velocity S-wave (km/s) = 3.40214 -2.06422 1.91227
# Velocity P-wave (km/s) = 5.11035 2.93908 4.16857
#
# Compressibility (1/GPa) = 0.04668354
#
# Stress axis : x y z
#
# Youngs Moduli (GPa) = 33.54612 44.47579 69.38815
#
# Poissons Ratio (x) = 0.32539 -0.14537
# Poissons Ratio (y) = 0.24543 0.33237
# Poissons Ratio (z) = -0.07028 0.21304
#
# Static dielectric constant tensor:
#      x y z
#    x 3.112490 0.000000 0.006140 
#    y 0.000000 1.741710 0.000000 
#    z 0.006140 0.000000 1.878540 
# 
# From -- ./inp_files/20681.got.cif
#   From: 2010.05.17/outbox.cif.g08.bks.cpg/sg5_11_cif.got.tgz:20681.got - 2010.06.03 18:56:24.
