data_PCOD9120392
_publ_section_title
;
Structure prediction by ZEFSAII (Michael W. Deem and Ramdas Pophale) SiO2 
 PCOD9120392
Probable space group: C 2
;
_chemical_formula_sum "Si O2"
_cell_formula_units_Z 32
_cell_length_a 18.234039
_cell_length_b 5.453447
_cell_length_c 14.701314
_cell_angle_alpha 90.000000
_cell_angle_beta 90.780773
_cell_angle_gamma 90.000000
_cell_volume 1461.738901
_symmetry_space_group_name_H-M "C 2"
_symmetry_group_IT_number 5
_symmetry_cell_setting 'monoclinic'
loop_
_space_group_symop_operation_xyz
x,y,z
-x,y,-z
1/2+x,1/2+y,z
1/2-x,1/2+y,-z
loop_
_atom_site_type_symbol
_atom_site_label
_atom_site_fract_x
_atom_site_fract_y
_atom_site_fract_z
Si Si1 0.058249 0.215150 0.418639
Si Si2 0.107809 0.836109 0.757461
Si Si3 0.504601 0.214987 0.390707
Si Si4 0.785536 0.341949 0.766163
Si Si5 0.258732 0.340843 0.718322
Si Si6 0.294701 0.819754 0.978493
Si Si7 0.790960 0.276328 0.476602
Si Si8 0.877707 0.336800 0.153110
O O1 0.031777 0.447791 0.359681
O O2 0.133354 0.279384 0.469573
O O3 0.000000 0.187054 0.500000
O O4 0.056224 0.948073 0.373265
O O5 0.196271 0.845273 0.755269
O O6 0.088966 0.597091 0.817483
O O7 0.071359 0.788561 0.659259
O O8 0.086227 0.095770 0.801944
O O9 0.500000 0.189476 0.500000
O O10 0.807807 0.598942 0.723699
O O11 0.808226 0.327085 0.871152
O O12 0.804010 0.090825 0.716780
O O13 0.205154 0.323009 0.631157
O O14 0.205870 0.343376 0.805969
O O15 0.248963 0.571388 0.998870
O O16 0.364932 0.812874 0.045597
O O17 0.743340 0.506141 0.511223
#
# Coordination Sequence:
#
# PCOD9120392 Si02
#       8
#     4   4   4   4   4   4   4   4
#     4  10  23  38  58  83 105 148 192 251 294 342
#     4  10  18  28  42  69 102 139 184 212 285 322
#     4  10  21  31  50  76 106 138 184 245 277 330
#     4  10  19  28  50  72 108 152 180 236 274 371
#     4  10  20  32  51  72 100 147 199 224 277 348
#     4  12  16  30  40  74 108 150 188 216 296 346
#     4  12  26  43  61  82 117 158 205 257 297 345
#     4  10  19  28  48  70 106 152 178 232 270 371
#
# _framework density 21.891735000000001
#
# number of rings (size 3 to 8) (size 9 to 14) (size 15 to 20)
#    0.000    1.500    5.000    2.250   14.000    0.000 
#    0.000    0.000    0.000    0.000    0.000    0.000 
#    0.000    0.000    0.000  130.500    0.000    0.000 
#
# Total GULP energy -89334.735343 kJ/mol
# GULP energy per Si atom -5583.420959 kJ/mol
# Density = 2.184191 g / cm^3
# Si number density = 21.891735 Si / 1000 Ang^3
#
#
#
# Elastic Constant Matrix: (Units=GPa)
#
#
# Indices 1 2 3 4 5 6 
#
# 1 25.2003 -5.2962 5.5051 0.0000 3.1913 0.0000
# 2 -5.2962 208.5271 10.0283 0.0000 6.0519 0.0000
# 3 5.5051 10.0283 118.8750 0.0000 23.4358 0.0000
# 4 0.0000 0.0000 0.0000 38.5665 0.0000 7.9402
# 5 3.1913 6.0519 23.4358 0.0000 14.7963 0.0000
# 6 0.0000 0.0000 0.0000 7.9402 0.0000 17.3680
#
#
#
# Elastic Compliance Matrix: (Units=1/GPa)
#
#
# Indices 1 2 3 4 5 6 
#
# 1 0.041156 0.001319 -0.000234 0.000000 -0.009046 0.000000
# 2 0.001319 0.004895 -0.000034 0.000000 -0.002233 0.000000
# 3 -0.000234 -0.000034 0.012233 0.000000 -0.019312 0.000000
# 4 0.000000 0.000000 0.000000 0.028623 0.000000 -0.013086
# 5 -0.009046 -0.002233 -0.019312 0.000000 0.101036 0.000000
# 6 0.000000 0.000000 0.000000 -0.013086 0.000000 0.063560
#
#
# Mechanical properties :
#
#
# Convention : Reuss Voigt Hill
#
# Bulk Modulus (GPa) = 16.55975 41.45299 29.00637
# Shear Modulus (GPa) = 18.55079 36.97050 27.76064
#
# Velocity S-wave (km/s) = 2.91415 4.11394 3.56489
# Velocity P-wave (km/s) = 4.34785 6.44536 5.49757
#
# Compressibility (1/GPa) = 0.06038738
#
# Stress axis : x y z
#
# Youngs Moduli (GPa) = 24.29780 204.26992 81.74543
#
# Poissons Ratio (x) = -0.26945 0.01912
# Poissons Ratio (y) = -0.03205 0.00276
# Poissons Ratio (z) = 0.00568 0.00690
#
# Static dielectric constant tensor:
#      x y z
#    x 1.789040 0.000000 -0.004150 
#    y 0.000000 1.969630 0.000000 
#    z -0.004150 0.000000 1.807350 
# 
# From -- ./inp_files/56552.got.cif
#   From: 2010.05.17/outbox.cif.g08.bks.cpg/sg5_29_cif.got.tgz:56552.got - 2010.06.03 18:56:24.
