data_PCOD9120250
_publ_section_title
;
Structure prediction by ZEFSAII (Michael W. Deem and Ramdas Pophale) SiO2 
 PCOD9120250
Probable space group: C 2
;
_chemical_formula_sum "Si O2"
_cell_formula_units_Z 32
_cell_length_a 27.786761
_cell_length_b 7.325902
_cell_length_c 20.572578
_cell_angle_alpha 90.000000
_cell_angle_beta 162.619454
_cell_angle_gamma 90.000000
_cell_volume 1250.971343
_symmetry_space_group_name_H-M "C 2"
_symmetry_group_IT_number 5
_symmetry_cell_setting 'monoclinic'
loop_
_space_group_symop_operation_xyz
x,y,z
-x,y,-z
1/2+x,1/2+y,z
1/2-x,1/2+y,-z
loop_
_atom_site_type_symbol
_atom_site_label
_atom_site_fract_x
_atom_site_fract_y
_atom_site_fract_z
Si Si1 0.136714 0.615740 0.519886
Si Si2 0.768319 0.909171 0.256529
Si Si3 0.727280 0.349769 0.879618
Si Si4 0.581679 0.724526 0.336870
Si Si5 0.403401 0.360910 0.148417
Si Si6 0.326738 0.168009 0.758302
Si Si7 0.910790 0.437901 0.316960
Si Si8 0.404974 0.780584 0.790825
O O1 0.129216 0.770537 0.567931
O O2 0.316910 0.635565 0.723968
O O3 0.020630 0.693769 0.314489
O O4 0.052941 0.446251 0.447127
O O5 0.820133 0.941486 0.249582
O O6 0.750746 0.094658 0.274642
O O7 0.597658 0.798617 0.034188
O O8 0.661428 0.420604 0.863520
O O9 0.674475 0.137871 0.799720
O O10 0.920439 0.343701 0.133820
O O11 0.513591 0.520134 0.260822
O O12 0.714814 0.768144 0.562304
O O13 0.652279 0.748114 0.356155
O O14 0.243870 0.315788 0.901161
O O15 0.360469 0.976342 0.763865
O O16 0.500000 0.250606 0.000000
O O17 0.000000 0.411170 0.500000
#
# Coordination Sequence:
#
# PCOD9120250 Si02
#       8
#     4   4   4   4   4   4   4   4
#     4  10  17  33  52  79 112 131 176 231 260 321
#     4   9  15  30  54  81 105 127 169 232 275 304
#     4   9  19  32  55  79 106 136 180 220 274 311
#     4  10  18  34  55  77 112 142 173 221 275 320
#     4  10  20  33  51  77 110 141 176 219 270 316
#     4   9  17  32  54  80 108 133 175 223 269 319
#     4  10  19  32  53  76 101 143 179 219 269 311
#     4   9  18  30  52  83 107 135 170 224 279 311
#
# _framework density 25.580121999999999
#
# number of rings (size 3 to 8) (size 9 to 14) (size 15 to 20)
#    0.000    2.500    3.750    1.125    0.000    0.000 
#    6.750    0.000    2.750    0.000    0.000    0.000 
#    0.000    0.000    0.000    0.000    0.000    0.000 
#
# Total GULP energy -89435.448416 kJ/mol
# GULP energy per Si atom -5589.715526 kJ/mol
# Density = 2.552190 g / cm^3
# Si number density = 25.580122 Si / 1000 Ang^3
#
#
#
# Elastic Constant Matrix: (Units=GPa)
#
#
# Indices 1 2 3 4 5 6 
#
# 1 133.0005 22.6443 39.4700 0.0000 -25.1061 0.0000
# 2 22.6443 61.9649 28.0954 0.0000 -9.6554 0.0000
# 3 39.4700 28.0954 200.7768 0.0000 -22.8052 0.0000
# 4 0.0000 0.0000 0.0000 24.8310 0.0000 -8.4718
# 5 -25.1061 -9.6554 -22.8052 0.0000 45.9776 0.0000
# 6 0.0000 0.0000 0.0000 -8.4718 0.0000 9.3311
#
#
#
# Elastic Compliance Matrix: (Units=1/GPa)
#
#
# Indices 1 2 3 4 5 6 
#
# 1 0.008930 -0.002198 -0.001003 0.000000 0.003917 0.000000
# 2 -0.002198 0.018063 -0.001909 0.000000 0.001646 0.000000
# 3 -0.001003 -0.001909 0.005656 0.000000 0.001857 0.000000
# 4 0.000000 0.000000 0.000000 0.058345 0.000000 0.052972
# 5 0.003917 0.001646 0.001857 0.000000 0.025155 0.000000
# 6 0.000000 0.000000 0.000000 0.052972 0.000000 0.155263
#
#
# Mechanical properties :
#
#
# Convention : Reuss Voigt Hill
#
# Bulk Modulus (GPa) = 44.58368 64.01797 54.30082
# Shear Modulus (GPa) = 17.29450 36.39675 26.84563
#
# Velocity S-wave (km/s) = 2.60300 3.77616 3.24307
# Velocity P-wave (km/s) = 5.14791 6.64028 5.94114
#
# Compressibility (1/GPa) = 0.02242973
#
# Stress axis : x y z
#
# Youngs Moduli (GPa) = 111.98052 55.36061 176.80948
#
# Poissons Ratio (x) = 0.12170 0.17734
# Poissons Ratio (y) = 0.24616 0.33745
# Poissons Ratio (z) = 0.11232 0.10566
#
# Static dielectric constant tensor:
#      x y z
#    x 1.999990 0.000000 0.037900 
#    y 0.000000 2.083900 0.000000 
#    z 0.037900 0.000000 2.056150 
# 
# From -- ./inp_files/63633.got.cif
#   From: 2010.05.17/outbox.cif.g08.bks.cpg/sg5_32_cif.got.tgz:63633.got - 2010.06.03 18:56:24.
