data_PCOD9120789
_publ_section_title
;
Structure prediction by ZEFSAII (Michael W. Deem and Ramdas Pophale) SiO2 
 PCOD9120789
Probable space group: C 2
;
_chemical_formula_sum "Si O2"
_cell_formula_units_Z 26
_cell_length_a 8.394217
_cell_length_b 23.148968
_cell_length_c 12.226207
_cell_angle_alpha 90.000000
_cell_angle_beta 140.558069
_cell_angle_gamma 90.000000
_cell_volume 1509.313976
_symmetry_space_group_name_H-M "C 2"
_symmetry_group_IT_number 5
_symmetry_cell_setting 'monoclinic'
loop_
_space_group_symop_operation_xyz
x,y,z
-x,y,-z
1/2+x,1/2+y,z
1/2-x,1/2+y,-z
loop_
_atom_site_type_symbol
_atom_site_label
_atom_site_fract_x
_atom_site_fract_y
_atom_site_fract_z
Si Si1 0.924273 0.924370 0.835366
Si Si2 0.068391 0.361351 0.363689
Si Si3 0.502437 0.221483 0.125866
Si Si4 0.500000 0.439010 0.500000
Si Si5 0.000000 0.265573 0.500000
Si Si6 0.000000 0.610258 0.000000
Si Si7 0.817125 0.324797 0.002254
Si Si8 0.780232 0.998245 0.175971
O O1 0.638222 0.903827 0.691727
O O2 0.016840 0.973815 0.801920
O O3 0.000000 0.939749 0.000000
O O4 0.080669 0.867816 0.881790
O O5 0.312152 0.398124 0.466739
O O6 0.110159 0.307760 0.465590
O O7 0.958394 0.336509 0.191508
O O8 0.770253 0.230770 0.324672
O O9 0.500000 0.246746 0.000000
O O10 0.456216 0.153927 0.077902
O O11 0.290001 0.260059 0.068943
O O12 0.352756 0.477725 0.334673
O O13 0.767961 0.566915 0.858311
O O14 0.000000 0.338623 0.000000
O O15 0.500000 0.974305 0.000000
#
# Coordination Sequence:
#
# PCOD9120789 Si02
#       8
#     4   4   4   2   2   2   4   4
#     4  10  18  35  59  87 123 160 191 241 307 361
#     4  11  22  33  54  97 124 156 193 237 313 372
#     4  10  20  42  58  87 114 161 206 241 293 355
#     4  12  24  35  58  92 126 153 202 244 302 362
#     4  12  20  35  66  86 122 159 192 248 302 364
#     4   8  22  42  64  82 116 160 216 242 292 350
#     4  11  20  35  59  88 130 155 193 246 300 361
#     4  10  21  40  58  85 117 157 205 245 294 344
#
# _framework density 17.226368999999998
#
# number of rings (size 3 to 8) (size 9 to 14) (size 15 to 20)
#    0.923    0.615    3.077    4.615    2.154    0.615 
#    0.000    0.769    0.000    0.000    4.000    0.000 
#    0.000    0.000    0.000    0.000    0.000    0.000 
#
# Total GULP energy -72459.405355 kJ/mol
# GULP energy per Si atom -5573.800412 kJ/mol
# Density = 1.718716 g / cm^3
# Si number density = 17.226369 Si / 1000 Ang^3
#
#
#
# Elastic Constant Matrix: (Units=GPa)
#
#
# Indices 1 2 3 4 5 6 
#
# 1 95.1642 31.4930 23.8397 0.0000 0.6802 0.0000
# 2 31.4930 116.6228 35.7723 0.0000 -0.5225 0.0000
# 3 23.8397 35.7723 108.2626 0.0000 -3.1599 0.0000
# 4 0.0000 0.0000 0.0000 5.0154 0.0000 8.5860
# 5 0.6802 -0.5225 -3.1599 0.0000 24.8900 0.0000
# 6 0.0000 0.0000 0.0000 8.5860 0.0000 12.0460
#
#
#
# Elastic Compliance Matrix: (Units=1/GPa)
#
#
# Indices 1 2 3 4 5 6 
#
# 1 0.011830 -0.002663 -0.001743 0.000000 -0.000600 0.000000
# 2 -0.002663 0.010142 -0.002767 0.000000 -0.000066 0.000000
# 3 -0.001743 -0.002767 0.010574 0.000000 0.001332 0.000000
# 4 0.000000 0.000000 0.000000 -0.905466 0.000000 0.645388
# 5 -0.000600 -0.000066 0.001332 0.000000 0.040361 0.000000
# 6 0.000000 0.000000 0.000000 0.645388 0.000000 -0.376997
#
#
# Mechanical properties :
#
#
# Convention : Reuss Voigt Hill
#
# Bulk Modulus (GPa) = 54.94072 55.80662 55.37367
# Shear Modulus (GPa) = -4.20470 23.65324 9.72427
#
# Velocity S-wave (km/s) = -1.56402 3.70953 2.37850
# Velocity P-wave (km/s) = 5.35734 7.12839 6.30535
#
# Compressibility (1/GPa) = 0.01820144
#
# Stress axis : x y z
#
# Youngs Moduli (GPa) = 84.52929 98.59918 94.57503
#
# Poissons Ratio (x) = 0.26255 0.16482
# Poissons Ratio (y) = 0.22508 0.26166
# Poissons Ratio (z) = 0.14731 0.27280
#
# Static dielectric constant tensor:
#      x y z
#    x 1.577010 0.000000 -0.010330 
#    y 0.000000 1.582720 0.000000 
#    z -0.010330 0.000000 1.638470 
# 
# From -- ./inp_files/37509.got.cif
#   From: 2010.05.17/outbox.cif.g08.bks.cpg/sg5_19_cif.got.tgz:37509.got - 2010.06.03 18:56:24.
