data_PCOD9120260
_publ_section_title
;
Structure prediction by ZEFSAII (Michael W. Deem and Ramdas Pophale) SiO2 
 PCOD9120260
Probable space group: C 2
;
_chemical_formula_sum "Si O2"
_cell_formula_units_Z 24
_cell_length_a 17.956931
_cell_length_b 7.859772
_cell_length_c 7.760399
_cell_angle_alpha 90.000000
_cell_angle_beta 129.111107
_cell_angle_gamma 90.000000
_cell_volume 849.856055
_symmetry_space_group_name_H-M "C 2"
_symmetry_group_IT_number 5
_symmetry_cell_setting 'monoclinic'
loop_
_space_group_symop_operation_xyz
x,y,z
-x,y,-z
1/2+x,1/2+y,z
1/2-x,1/2+y,-z
loop_
_atom_site_type_symbol
_atom_site_label
_atom_site_fract_x
_atom_site_fract_y
_atom_site_fract_z
Si Si1 0.702207 0.982590 0.118492
Si Si2 0.036535 0.157870 0.329326
Si Si3 0.378924 0.302563 0.426327
Si Si4 0.548358 0.198102 0.849350
Si Si5 0.628951 0.545552 0.111832
Si Si6 0.694454 0.850227 0.718675
O O1 0.768348 0.842911 0.305248
O O2 0.755267 0.164745 0.216783
O O3 0.704993 0.921149 0.925902
O O4 0.593496 0.031093 0.998721
O O5 0.091678 0.134292 0.228636
O O6 0.086367 0.314520 0.498931
O O7 0.068783 0.986026 0.475996
O O8 0.922445 0.150827 0.120317
O O9 0.436512 0.190957 0.646438
O O10 0.401535 0.232082 0.267548
O O11 0.577940 0.362924 0.001255
O O12 0.739214 0.486892 0.283681
#
# Coordination Sequence:
#
# PCOD9120260 Si02
#       6
#     4   4   4   4   4   4
#     4  10  17  33  57  83 118 153 195 250 297 348
#     4   9  19  33  59  88 117 160 204 240 307 364
#     4   9  16  31  53  83 115 151 195 244 294 355
#     4   9  17  30  57  82 113 156 196 241 302 352
#     4   9  17  36  56  85 119 157 195 252 295 362
#     4  10  20  35  60  93 120 159 207 249 305 369
#
# _framework density 28.240076999999999
#
# number of rings (size 3 to 8) (size 9 to 14) (size 15 to 20)
#    0.000    2.667    3.333    0.000    0.000    0.000 
#    3.000    0.000    7.333    4.000    0.000    0.000 
#    0.000    0.000    0.000    0.000    0.000    0.000 
#
# Total GULP energy -67124.803249 kJ/mol
# GULP energy per Si atom -5593.733604 kJ/mol
# Density = 2.817580 g / cm^3
# Si number density = 28.240077 Si / 1000 Ang^3
#
#
#
# Elastic Constant Matrix: (Units=GPa)
#
#
# Indices 1 2 3 4 5 6 
#
# 1 85.9918 20.4064 55.2212 0.0000 23.8450 0.0000
# 2 20.4064 157.1212 39.8249 0.0000 18.1682 0.0000
# 3 55.2212 39.8249 139.4639 0.0000 43.3595 0.0000
# 4 0.0000 0.0000 0.0000 31.4322 0.0000 13.3987
# 5 23.8450 18.1682 43.3595 0.0000 52.1105 0.0000
# 6 0.0000 0.0000 0.0000 13.3987 0.0000 29.1452
#
#
#
# Elastic Compliance Matrix: (Units=1/GPa)
#
#
# Indices 1 2 3 4 5 6 
#
# 1 0.015903 -0.000399 -0.005347 0.000000 -0.002689 0.000000
# 2 -0.000399 0.006912 -0.001515 0.000000 -0.000966 0.000000
# 3 -0.005347 -0.001515 0.011864 0.000000 -0.006897 0.000000
# 4 0.000000 0.000000 0.000000 0.039569 0.000000 -0.018191
# 5 -0.002689 -0.000966 -0.006897 0.000000 0.026496 0.000000
# 6 0.000000 0.000000 0.000000 -0.018191 0.000000 0.042674
#
#
# Mechanical properties :
#
#
# Convention : Reuss Voigt Hill
#
# Bulk Modulus (GPa) = 49.61121 68.16466 58.88794
# Shear Modulus (GPa) = 30.36565 40.34586 35.35575
#
# Velocity S-wave (km/s) = 3.28269 3.78388 3.54216
# Velocity P-wave (km/s) = 5.65454 6.57878 6.13409
#
# Compressibility (1/GPa) = 0.02015673
#
# Stress axis : x y z
#
# Youngs Moduli (GPa) = 62.88145 144.67199 84.28554
#
# Poissons Ratio (x) = 0.05776 0.45066
# Poissons Ratio (y) = 0.02511 0.12772
# Poissons Ratio (z) = 0.33622 0.21922
#
# Static dielectric constant tensor:
#      x y z
#    x 2.266920 0.000000 0.081790 
#    y 0.000000 2.178270 0.000000 
#    z 0.081790 0.000000 2.260780 
# 
# From -- ./inp_files/28995.got.cif
#   From: 2010.05.17/outbox.cif.g08.bks.cpg/sg5_15_cif.got.tgz:28995.got - 2010.06.03 18:56:24.
