data_PCOD9120548
_publ_section_title
;
Structure prediction by ZEFSAII (Michael W. Deem and Ramdas Pophale) SiO2 
 PCOD9120548
Probable space group: C 2
;
_chemical_formula_sum "Si O2"
_cell_formula_units_Z 24
_cell_length_a 18.967571
_cell_length_b 8.282879
_cell_length_c 7.472905
_cell_angle_alpha 90.000000
_cell_angle_beta 117.282969
_cell_angle_gamma 90.000000
_cell_volume 1043.431235
_symmetry_space_group_name_H-M "C 2"
_symmetry_group_IT_number 5
_symmetry_cell_setting 'monoclinic'
loop_
_space_group_symop_operation_xyz
x,y,z
-x,y,-z
1/2+x,1/2+y,z
1/2-x,1/2+y,-z
loop_
_atom_site_type_symbol
_atom_site_label
_atom_site_fract_x
_atom_site_fract_y
_atom_site_fract_z
Si Si1 0.088076 0.750000 0.528386
Si Si2 0.104917 0.956520 0.978295
Si Si3 0.061113 0.067015 0.329703
Si Si4 0.738260 0.074847 0.745743
Si Si5 0.588979 0.113472 0.126006
Si Si6 0.327424 0.834591 0.611794
O O1 0.156858 0.656959 0.714369
O O2 0.091854 0.682947 0.331047
O O3 0.000000 0.722407 0.500000
O O4 0.101122 0.941249 0.513099
O O5 0.100712 0.763132 0.003908
O O6 0.086354 0.018075 0.157833
O O7 0.192142 0.024073 0.037855
O O8 0.032865 0.029259 0.778451
O O9 0.094539 0.247050 0.380203
O O10 0.773300 0.203621 0.645229
O O11 0.717614 0.918653 0.603346
O O12 0.648788 0.964786 0.208821
O O13 0.500000 0.049579 0.000000
#
# Coordination Sequence:
#
# PCOD9120548 Si02
#       6
#     4   4   4   4   4   4
#     4  10  20  36  56  74 110 152 182 216 273 331
#     4   9  16  31  53  78 107 132 176 230 269 302
#     4   9  17  32  52  78 105 141 175 223 270 321
#     4  10  19  31  51  82 110 138 178 231 269 312
#     4  10  18  32  57  85 107 141 180 223 272 322
#     4  10  19  29  55  83 111 135 185 228 273 317
#
# _framework density 23.001035999999999
#
# number of rings (size 3 to 8) (size 9 to 14) (size 15 to 20)
#    0.000    2.333    3.333    4.000    4.667    0.000 
#    0.000    3.333    3.667    0.000    0.000    0.000 
#    0.000    0.000    0.000    0.000    0.000    0.000 
#
# Total GULP energy -66961.926470 kJ/mol
# GULP energy per Si atom -5580.160539 kJ/mol
# Density = 2.294868 g / cm^3
# Si number density = 23.001036 Si / 1000 Ang^3
#
#
#
# Elastic Constant Matrix: (Units=GPa)
#
#
# Indices 1 2 3 4 5 6 
#
# 1 90.7242 35.7169 31.4498 0.0000 22.1680 0.0000
# 2 35.7169 102.3331 20.8142 0.0000 22.4681 0.0000
# 3 31.4498 20.8142 36.3619 0.0000 26.2233 0.0000
# 4 0.0000 0.0000 0.0000 22.9923 0.0000 24.5792
# 5 22.1680 22.4681 26.2233 0.0000 45.4210 0.0000
# 6 0.0000 0.0000 0.0000 24.5792 0.0000 25.8835
#
#
#
# Elastic Compliance Matrix: (Units=1/GPa)
#
#
# Indices 1 2 3 4 5 6 
#
# 1 0.016694 -0.003376 -0.013424 0.000000 0.001273 0.000000
# 2 -0.003376 0.012005 -0.001470 0.000000 -0.003442 0.000000
# 3 -0.013424 -0.001470 0.059462 0.000000 -0.027051 0.000000
# 4 0.000000 0.000000 0.000000 -2.871205 0.000000 2.726520
# 5 0.001273 -0.003442 -0.027051 0.000000 0.038715 0.000000
# 6 0.000000 0.000000 0.000000 2.726520 0.000000 -2.550491
#
#
# Mechanical properties :
#
#
# Convention : Reuss Voigt Hill
#
# Bulk Modulus (GPa) = 19.37174 45.04231 32.20702
# Shear Modulus (GPa) = -0.95400 28.28859 13.66729
#
# Velocity S-wave (km/s) = -0.64472 3.51077 2.44027
# Velocity P-wave (km/s) = 2.80823 6.00494 4.68751
#
# Compressibility (1/GPa) = 0.05162159
#
# Stress axis : x y z
#
# Youngs Moduli (GPa) = 59.90193 83.29927 16.81756
#
# Poissons Ratio (x) = 0.28118 0.22576
# Poissons Ratio (y) = 0.20220 0.02472
# Poissons Ratio (z) = 0.80414 0.12242
#
# Static dielectric constant tensor:
#      x y z
#    x 1.901200 0.000000 0.050370 
#    y 0.000000 1.900680 0.000000 
#    z 0.050370 0.000000 1.875470 
# 
# From -- ./inp_files/28782.got.cif
#   From: 2010.05.17/outbox.cif.g08.bks.cpg/sg5_15_cif.got.tgz:28782.got - 2010.06.03 18:56:24.
