data_PCOD9120757
_publ_section_title
;
Structure prediction by ZEFSAII (Michael W. Deem and Ramdas Pophale) SiO2 
 PCOD9120757
Probable space group: C 2
;
_chemical_formula_sum "Si O2"
_cell_formula_units_Z 20
_cell_length_a 20.406500
_cell_length_b 6.553192
_cell_length_c 9.151501
_cell_angle_alpha 90.000000
_cell_angle_beta 140.996597
_cell_angle_gamma 90.000000
_cell_volume 770.224631
_symmetry_space_group_name_H-M "C 2"
_symmetry_group_IT_number 5
_symmetry_cell_setting 'monoclinic'
loop_
_space_group_symop_operation_xyz
x,y,z
-x,y,-z
1/2+x,1/2+y,z
1/2-x,1/2+y,-z
loop_
_atom_site_type_symbol
_atom_site_label
_atom_site_fract_x
_atom_site_fract_y
_atom_site_fract_z
Si Si1 0.753849 0.709210 0.992076
Si Si2 0.906964 0.885578 0.749576
Si Si3 0.891818 0.507336 0.092481
Si Si4 0.214926 0.201028 0.263309
Si Si5 0.942940 0.177047 0.545327
O O1 0.705305 0.940591 0.963688
O O2 0.674368 0.692588 0.713595
O O3 0.870976 0.732417 0.117306
O O4 0.735516 0.642660 0.132492
O O5 0.848879 0.034670 0.760642
O O6 0.949105 0.031984 0.694454
O O7 0.822795 0.740378 0.531069
O O8 0.000000 0.780893 0.000000
O O9 0.996579 0.390086 0.314722
O O10 0.851575 0.413392 0.871265
O O11 0.000000 0.096192 0.500000
#
# Coordination Sequence:
#
# PCOD9120757 Si02
#       5
#     4   4   4   4   4
#     4   9  18  38  60  92 125 157 221 263 309 374
#     4  12  22  44  66  93 139 169 214 263 326 398
#     4   9  18  35  63  94 119 162 217 254 320 372
#     4  10  24  39  66  98 126 179 210 264 331 377
#     4  10  18  34  66  91 116 169 211 258 315 372
#
# _framework density 25.966449999999998
#
# number of rings (size 3 to 8) (size 9 to 14) (size 15 to 20)
#    1.200    0.800    4.000    0.000    0.000    3.200 
#    0.000    3.000    0.000   10.800    0.000    0.000 
#    0.000    0.000    0.000    0.000    0.000    0.000 
#
# Total GULP energy -55683.668065 kJ/mol
# GULP energy per Si atom -5568.366806 kJ/mol
# Density = 2.590735 g / cm^3
# Si number density = 25.966450 Si / 1000 Ang^3
#
#
#
# Elastic Constant Matrix: (Units=GPa)
#
#
# Indices 1 2 3 4 5 6 
#
# 1 95.2509 29.7391 37.4718 0.0000 -15.8551 0.0000
# 2 29.7391 40.7955 48.0530 0.0000 -8.9475 0.0000
# 3 37.4718 48.0530 199.5813 0.0000 11.1049 0.0000
# 4 0.0000 0.0000 0.0000 39.2568 0.0000 33.4952
# 5 -15.8551 -8.9475 11.1049 0.0000 28.5530 0.0000
# 6 0.0000 0.0000 0.0000 33.4952 0.0000 0.6859
#
#
#
# Elastic Compliance Matrix: (Units=1/GPa)
#
#
# Indices 1 2 3 4 5 6 
#
# 1 0.014390 -0.007819 -0.001152 0.000000 0.005988 0.000000
# 2 -0.007819 0.045247 -0.010194 0.000000 0.013802 0.000000
# 3 -0.001152 -0.010194 0.008069 0.000000 -0.006973 0.000000
# 4 0.000000 0.000000 0.000000 -0.000626 0.000000 0.030589
# 5 0.005988 0.013802 -0.006973 0.000000 0.045385 0.000000
# 6 0.000000 0.000000 0.000000 0.030589 0.000000 -0.035851
#
#
# Mechanical properties :
#
#
# Convention : Reuss Voigt Hill
#
# Bulk Modulus (GPa) = 34.04235 62.90615 48.47425
# Shear Modulus (GPa) = 40.08452 28.39007 34.23729
#
# Velocity S-wave (km/s) = 3.93326 3.31015 3.63508
# Velocity P-wave (km/s) = 5.81085 6.23602 6.02719
#
# Compressibility (1/GPa) = 0.02937518
#
# Stress axis : x y z
#
# Youngs Moduli (GPa) = 69.49250 22.10091 123.92827
#
# Poissons Ratio (x) = 0.17281 0.14280
# Poissons Ratio (y) = 0.54338 1.26332
# Poissons Ratio (z) = 0.08008 0.22530
#
# Static dielectric constant tensor:
#      x y z
#    x 2.526420 0.000000 0.628580 
#    y 0.000000 2.788430 0.000000 
#    z 0.628580 0.000000 2.570870 
# 
# From -- ./inp_files/29052.got.cif
#   From: 2010.05.17/outbox.cif.g08.bks.cpg/sg5_15_cif.got.tgz:29052.got - 2010.06.03 18:56:24.
