data_PCOD9120512
_publ_section_title
;
Structure prediction by ZEFSAII (Michael W. Deem and Ramdas Pophale) SiO2 
 PCOD9120512
Probable space group: C 2
;
_chemical_formula_sum "Si O2"
_cell_formula_units_Z 32
_cell_length_a 19.622803
_cell_length_b 11.038912
_cell_length_c 11.720360
_cell_angle_alpha 90.000000
_cell_angle_beta 28.621091
_cell_angle_gamma 90.000000
_cell_volume 1216.122702
_symmetry_space_group_name_H-M "C 2"
_symmetry_group_IT_number 5
_symmetry_cell_setting 'monoclinic'
loop_
_space_group_symop_operation_xyz
x,y,z
-x,y,-z
1/2+x,1/2+y,z
1/2-x,1/2+y,-z
loop_
_atom_site_type_symbol
_atom_site_label
_atom_site_fract_x
_atom_site_fract_y
_atom_site_fract_z
Si Si1 0.857828 0.028160 0.755440
Si Si2 0.553332 0.898364 0.616435
Si Si3 0.076029 0.642913 0.221952
Si Si4 0.857828 0.442475 0.255440
Si Si5 0.741254 0.780391 0.865556
Si Si6 0.923971 0.827722 0.278047
Si Si7 0.258746 0.690244 0.634444
Si Si8 0.946667 0.072271 0.883566
O O1 0.000000 0.088220 0.500000
O O2 0.885240 0.024774 0.851120
O O3 0.830749 0.905247 0.724739
O O4 0.715554 0.101690 0.947285
O O5 0.614759 0.945861 0.648880
O O6 0.664822 0.798712 0.404995
O O7 0.515218 0.024382 0.612682
O O8 0.400869 0.831283 0.859923
O O9 0.145213 0.707074 0.227380
O O10 1.000000 0.735317 0.250000
O O11 0.715554 0.368945 0.447285
O O12 0.830749 0.565388 0.224740
O O13 0.000000 0.382415 0.000000
O O14 0.664822 0.671922 0.904995
O O15 0.854787 0.763562 0.272619
O O16 0.015219 0.946253 0.112682
O O17 0.400869 0.639351 0.359923
#
# Coordination Sequence:
#
# PCOD9120512 Si02
#       8
#     4   4   4   4   4   4   4   4
#     4  10  20  33  55  83 108 133 174 225 269 304
#     4   9  18  33  53  77 104 138 177 216 258 316
#     4  10  18  32  52  77 105 142 178 212 255 318
#     4  10  20  33  55  83 108 133 174 225 269 304
#     4   9  18  32  50  77 104 137 176 218 256 314
#     4  10  18  32  52  77 105 142 178 212 255 318
#     4   9  18  32  50  77 104 137 176 218 256 314
#     4   9  18  33  53  77 104 138 177 216 258 316
#
# _framework density 26.313136
#
# number of rings (size 3 to 8) (size 9 to 14) (size 15 to 20)
#    0.000    2.500    2.500    0.000    0.000    4.000 
#    0.000    0.000    0.000    3.000    0.000    0.000 
#    0.000    0.000    0.000    0.000    0.000    0.000 
#
# Total GULP energy -89262.959188 kJ/mol
# GULP energy per Si atom -5578.934949 kJ/mol
# Density = 2.625325 g / cm^3
# Si number density = 26.313136 Si / 1000 Ang^3
#
#
#
# Elastic Constant Matrix: (Units=GPa)
#
#
# Indices 1 2 3 4 5 6 
#
# 1 95.2124 47.9328 41.8553 0.0000 -37.0434 0.0000
# 2 47.9328 173.0452 58.2417 0.0000 -32.3210 0.0000
# 3 41.8553 58.2417 110.4509 0.0000 -36.6436 0.0000
# 4 0.0000 0.0000 0.0000 33.8219 0.0000 -37.1717
# 5 -37.0434 -32.3210 -36.6436 0.0000 36.9886 0.0000
# 6 0.0000 0.0000 0.0000 -37.1717 0.0000 47.0778
#
#
#
# Elastic Compliance Matrix: (Units=1/GPa)
#
#
# Indices 1 2 3 4 5 6 
#
# 1 0.017742 -0.001799 -0.000598 0.000000 0.015604 0.000000
# 2 -0.001799 0.007561 -0.002549 0.000000 0.002280 0.000000
# 3 -0.000598 -0.002549 0.014429 0.000000 0.011469 0.000000
# 4 0.000000 0.000000 0.000000 0.223623 0.000000 0.176569
# 5 0.015604 0.002280 0.011469 0.000000 0.056017 0.000000
# 6 0.000000 0.000000 0.000000 0.176569 0.000000 0.160656
#
#
# Mechanical properties :
#
#
# Convention : Reuss Voigt Hill
#
# Bulk Modulus (GPa) = 33.51024 74.97422 54.24223
# Shear Modulus (GPa) = 10.00265 38.95623 24.47944
#
# Velocity S-wave (km/s) = 1.95183 3.85188 3.05341
# Velocity P-wave (km/s) = 4.22402 6.95252 5.75239
#
# Compressibility (1/GPa) = 0.02984163
#
# Stress axis : x y z
#
# Youngs Moduli (GPa) = 56.36247 132.26076 69.30361
#
# Poissons Ratio (x) = 0.23790 0.04144
# Poissons Ratio (y) = 0.10138 0.17663
# Poissons Ratio (z) = 0.03370 0.33709
#
# Static dielectric constant tensor:
#      x y z
#    x 2.226400 0.000000 0.127940 
#    y 0.000000 2.741650 0.000000 
#    z 0.127940 0.000000 2.084460 
# 
# From -- ./inp_files/48013.got.cif
#   From: 2010.05.17/outbox.cif.g08.bks.cpg/sg5_25_cif.got.tgz:48013.got - 2010.06.03 18:56:24.
