data_PCOD9120483
_publ_section_title
;
Structure prediction by ZEFSAII (Michael W. Deem and Ramdas Pophale) SiO2 
 PCOD9120483
Probable space group: C 2
;
_chemical_formula_sum "Si O2"
_cell_formula_units_Z 32
_cell_length_a 8.131234
_cell_length_b 13.014069
_cell_length_c 19.050972
_cell_angle_alpha 90.000000
_cell_angle_beta 139.114675
_cell_angle_gamma 90.000000
_cell_volume 1319.555530
_symmetry_space_group_name_H-M "C 2"
_symmetry_group_IT_number 5
_symmetry_cell_setting 'monoclinic'
loop_
_space_group_symop_operation_xyz
x,y,z
-x,y,-z
1/2+x,1/2+y,z
1/2-x,1/2+y,-z
loop_
_atom_site_type_symbol
_atom_site_label
_atom_site_fract_x
_atom_site_fract_y
_atom_site_fract_z
Si Si1 0.125614 0.801990 0.465129
Si Si2 0.384791 0.610165 0.842511
Si Si3 0.585212 0.630020 0.751257
Si Si4 0.738331 0.301813 0.891841
Si Si5 0.122639 0.611092 0.365615
Si Si6 0.199249 0.284151 0.684930
Si Si7 0.100290 0.622801 0.953450
Si Si8 0.765178 0.999094 0.546193
O O1 0.057253 0.699217 0.402049
O O2 0.429117 0.820109 0.569640
O O3 0.059440 0.899051 0.396077
O O4 0.000000 0.801391 0.500000
O O5 0.473938 0.624963 0.792012
O O6 0.319409 0.718306 0.858865
O O7 0.115448 0.557190 0.747915
O O8 0.632510 0.564581 0.959527
O O9 0.638069 0.745342 0.743277
O O10 0.396593 0.585410 0.634364
O O11 0.857859 0.574831 0.837935
O O12 0.465988 0.345508 0.777160
O O13 0.663029 0.228445 0.933175
O O14 0.000000 0.358405 0.000000
O O15 0.250612 0.682128 0.347472
O O16 0.251597 0.531356 0.459851
O O17 0.000000 0.641443 0.000000
O O18 0.500000 0.986062 0.500000
#
# Coordination Sequence:
#
# PCOD9120483 Si02
#       8
#     4   4   4   4   4   4   4   4
#     4  12  26  39  56  85 122 163 206 248 300 360
#     4   9  16  30  53  83 112 148 193 238 290 353
#     4  10  18  31  54  83 115 152 191 241 292 351
#     4   8  15  28  51  87 119 145 197 241 295 357
#     4  11  21  38  61  85 118 157 197 246 304 356
#     4  10  20  35  59  82 123 154 196 247 302 352
#     4   8  15  27  48  82 113 142 194 237 287 346
#     4  12  24  38  58  86 121 159 205 246 300 364
#
# _framework density 24.250589000000002
#
# number of rings (size 3 to 8) (size 9 to 14) (size 15 to 20)
#    0.000    2.000    2.500    2.250    1.750    0.000 
#    0.000    0.000    0.000    0.000   16.250    0.000 
#    0.000    0.000    0.000    0.000    0.000    0.000 
#
# Total GULP energy -89132.546266 kJ/mol
# GULP energy per Si atom -5570.784142 kJ/mol
# Density = 2.419539 g / cm^3
# Si number density = 24.250589 Si / 1000 Ang^3
#
#
#
# Elastic Constant Matrix: (Units=GPa)
#
#
# Indices 1 2 3 4 5 6 
#
# 1 119.5127 10.4153 25.9338 0.0000 6.2552 0.0000
# 2 10.4153 30.3821 -5.0100 0.0000 5.6005 0.0000
# 3 25.9338 -5.0100 115.4475 -0.0001 25.1237 0.0000
# 4 0.0000 0.0000 -0.0001 4.4445 0.0000 2.1278
# 5 6.2552 5.6005 25.1237 0.0000 40.1248 0.0000
# 6 0.0000 0.0000 0.0000 2.1278 0.0000 10.8883
#
#
#
# Elastic Compliance Matrix: (Units=1/GPa)
#
#
# Indices 1 2 3 4 5 6 
#
# 1 0.009161 -0.003624 -0.002332 0.000000 0.000538 0.000000
# 2 -0.003624 0.036068 0.003881 0.000000 -0.006899 0.000000
# 3 -0.002332 0.003881 0.010875 0.000000 -0.006987 0.000000
# 4 0.000000 0.000000 0.000000 0.248216 0.000000 -0.048505
# 5 0.000538 -0.006899 -0.006987 0.000000 0.030176 0.000000
# 6 0.000000 0.000000 0.000000 -0.048505 0.000000 0.101320
#
#
# Mechanical properties :
#
#
# Convention : Reuss Voigt Hill
#
# Bulk Modulus (GPa) = 19.24833 36.44674 27.84754
# Shear Modulus (GPa) = 10.93407 26.69174 18.81291
#
# Velocity S-wave (km/s) = 2.12569 3.32122 2.78829
# Velocity P-wave (km/s) = 3.73888 5.45612 4.67699
#
# Compressibility (1/GPa) = 0.05195256
#
# Stress axis : x y z
#
# Youngs Moduli (GPa) = 109.15713 27.72522 91.95529
#
# Poissons Ratio (x) = 0.10048 0.21447
# Poissons Ratio (y) = 0.39562 -0.35686
# Poissons Ratio (z) = 0.25459 -0.10760
#
# Static dielectric constant tensor:
#      x y z
#    x 1.953730 0.000000 0.066110 
#    y 0.000000 1.917460 0.000000 
#    z 0.066110 0.000000 2.086390 
# 
# From -- ./inp_files/64666.got.cif
#   From: 2010.05.17/outbox.cif.g08.bks.cpg/sg5_33_cif.got.tgz:64666.got - 2010.06.03 18:56:24.
