data_PCOD9120948
_publ_section_title
;
Structure prediction by ZEFSAII (Michael W. Deem and Ramdas Pophale) SiO2 
 PCOD9120948
Probable space group: C 2
;
_chemical_formula_sum "Si O2"
_cell_formula_units_Z 26
_cell_length_a 23.431116
_cell_length_b 8.746430
_cell_length_c 8.917311
_cell_angle_alpha 90.000000
_cell_angle_beta 30.500692
_cell_angle_gamma 90.000000
_cell_volume 927.546073
_symmetry_space_group_name_H-M "C 2"
_symmetry_group_IT_number 5
_symmetry_cell_setting 'monoclinic'
loop_
_space_group_symop_operation_xyz
x,y,z
-x,y,-z
1/2+x,1/2+y,z
1/2-x,1/2+y,-z
loop_
_atom_site_type_symbol
_atom_site_label
_atom_site_fract_x
_atom_site_fract_y
_atom_site_fract_z
Si Si1 0.524865 0.484200 0.120342
Si Si2 0.237847 0.120111 0.580088
Si Si3 0.224676 0.253407 0.923102
Si Si4 0.330898 0.115960 0.944077
Si Si5 0.500000 0.545493 0.500000
Si Si6 0.378026 0.774902 0.426493
Si Si7 0.965875 0.568298 0.917161
O O1 0.488212 0.442630 0.374683
O O2 0.473993 0.653579 0.246450
O O3 0.500000 0.443422 0.000000
O O4 0.659298 0.483234 0.817263
O O5 0.335062 0.047157 0.261358
O O6 0.162392 0.227098 0.646143
O O7 0.264452 0.219913 0.663950
O O8 0.110219 0.155345 0.221783
O O9 0.325122 0.180192 0.790809
O O10 0.201333 0.434574 0.990916
O O11 0.436853 0.125668 0.815653
O O12 0.230158 0.226086 0.233835
O O13 0.441503 0.934618 0.301617
O O14 0.000000 0.646793 0.000000
#
# Coordination Sequence:
#
# PCOD9120948 Si02
#       7
#     4   4   4   4   2   4   4
#     4   9  16  32  60  97 140 185 249 307 380 462
#     4   9  21  38  66 108 150 189 264 331 382 473
#     4  11  23  45  68 119 161 208 269 327 392 491
#     4  11  25  42  75 114 158 209 269 325 399 487
#     4  10  18  36  72  98 150 212 252 312 410 464
#     4  10  19  40  70 110 142 203 265 325 402 472
#     4  11  22  42  76 112 146 200 265 327 402 477
#
# _framework density 28.030954999999999
#
# number of rings (size 3 to 8) (size 9 to 14) (size 15 to 20)
#    0.000    1.846    1.538    4.154    0.000    1.231 
#    8.308    1.538    3.385   11.077    0.000    0.000 
#    0.000    0.000    0.000    0.000    0.000    0.000 
#
# Total GULP energy -72464.732386 kJ/mol
# GULP energy per Si atom -5574.210184 kJ/mol
# Density = 2.796715 g / cm^3
# Si number density = 28.030955 Si / 1000 Ang^3
#
#
#
# Elastic Constant Matrix: (Units=GPa)
#
#
# Indices 1 2 3 4 5 6 
#
# 1 229.2492 48.4332 51.9813 0.0000 39.0804 0.0000
# 2 48.4332 181.4061 48.7607 0.0000 -10.5886 0.0000
# 3 51.9813 48.7607 144.3036 0.0000 -15.5163 0.0000
# 4 0.0000 0.0000 0.0000 27.0187 0.0000 -25.8223
# 5 39.0804 -10.5886 -15.5163 0.0000 58.6909 0.0000
# 6 0.0000 0.0000 0.0000 -25.8223 0.0000 -9.1606
#
#
#
# Elastic Compliance Matrix: (Units=1/GPa)
#
#
# Indices 1 2 3 4 5 6 
#
# 1 0.005950 -0.001269 -0.002229 0.000000 -0.004780 0.000000
# 2 -0.001269 0.006352 -0.001519 0.000000 0.001589 0.000000
# 3 -0.002229 -0.001519 0.008621 0.000000 0.003489 0.000000
# 4 0.000000 0.000000 0.000000 0.010019 0.000000 -0.028243
# 5 -0.004780 0.001589 0.003489 0.000000 0.021431 0.000000
# 6 0.000000 0.000000 0.000000 -0.028243 0.000000 -0.029551
#
#
# Mechanical properties :
#
#
# Convention : Reuss Voigt Hill
#
# Bulk Modulus (GPa) = 91.81372 94.81217 93.31294
# Shear Modulus (GPa) = 137.04431 42.36203 89.70317
#
# Velocity S-wave (km/s) = 6.99975 3.89171 5.66312
# Velocity P-wave (km/s) = 9.90728 7.35468 8.72484
#
# Compressibility (1/GPa) = 0.01089162
#
# Stress axis : x y z
#
# Youngs Moduli (GPa) = 168.05747 157.42735 115.99589
#
# Poissons Ratio (x) = 0.19971 0.25853
# Poissons Ratio (y) = 0.21320 0.17614
# Poissons Ratio (z) = 0.37456 0.23906
#
# Static dielectric constant tensor:
#      x y z
#    x 2.321080 0.000000 0.096330 
#    y 0.000000 2.243570 0.000000 
#    z 0.096330 0.000000 2.301840 
# 
# From -- ./inp_files/30847.got.cif
#   From: 2010.05.17/outbox.cif.g08.bks.cpg/sg5_16_cif.got.tgz:30847.got - 2010.06.03 18:56:24.
