data_PCOD9120284
_publ_section_title
;
Structure prediction by ZEFSAII (Michael W. Deem and Ramdas Pophale) SiO2 
 PCOD9120284
Probable space group: C 2
;
_chemical_formula_sum "Si O2"
_cell_formula_units_Z 30
_cell_length_a 8.154375
_cell_length_b 23.166420
_cell_length_c 12.805259
_cell_angle_alpha 90.000000
_cell_angle_beta 32.956321
_cell_angle_gamma 90.000000
_cell_volume 1315.941221
_symmetry_space_group_name_H-M "C 2"
_symmetry_group_IT_number 5
_symmetry_cell_setting 'monoclinic'
loop_
_space_group_symop_operation_xyz
x,y,z
-x,y,-z
1/2+x,1/2+y,z
1/2-x,1/2+y,-z
loop_
_atom_site_type_symbol
_atom_site_label
_atom_site_fract_x
_atom_site_fract_y
_atom_site_fract_z
Si Si1 0.378628 0.171880 0.393287
Si Si2 0.901679 0.304822 0.171375
Si Si3 0.089923 0.052712 0.119797
Si Si4 0.500000 0.760464 0.500000
Si Si5 0.761570 0.337402 0.463589
Si Si6 0.501539 0.045830 0.715380
Si Si7 0.294284 0.460542 0.418319
Si Si8 0.027741 0.182525 0.798150
O O1 0.327434 0.106273 0.386084
O O2 0.189612 0.185137 0.599072
O O3 0.725077 0.174396 0.241990
O O4 0.278067 0.216458 0.359386
O O5 0.900250 0.347096 0.274042
O O6 0.536110 0.296308 0.369678
O O7 0.078004 0.247009 0.115605
O O8 0.000000 0.319717 0.000000
O O9 0.781627 0.050507 0.214832
O O10 0.140012 0.120818 0.118247
O O11 0.030791 0.004081 0.238038
O O12 0.365176 0.035873 0.900529
O O13 0.507657 0.803420 0.398753
O O14 0.644508 0.395090 0.582384
O O15 0.698754 0.993251 0.573422
O O16 0.000000 0.457997 0.500000
#
# Coordination Sequence:
#
# PCOD9120284 Si02
#       8
#     4   4   4   2   4   4   4   4
#     4  10  18  32  59  84 122 158 194 250 307 359
#     4  11  24  42  65  91 118 166 218 258 301 367
#     4   9  18  30  56  90 115 153 203 255 296 352
#     4  12  20  36  60  92 130 164 200 244 316 384
#     4  11  23  42  63  90 123 168 209 251 308 370
#     4   9  18  32  53  89 118 153 205 246 300 357
#     4  10  19  35  61  87 122 159 197 255 308 355
#     4  10  17  34  58  87 119 154 206 250 297 363
#
# _framework density 22.797370999999998
#
# number of rings (size 3 to 8) (size 9 to 14) (size 15 to 20)
#    0.000    1.867    4.667    0.800    3.733    1.067 
#    0.000    2.000    2.933    0.000    0.000    0.000 
#    0.000    0.000    0.000    0.000    0.000    0.000 
#
# Total GULP energy -83557.154120 kJ/mol
# GULP energy per Si atom -5570.476941 kJ/mol
# Density = 2.274548 g / cm^3
# Si number density = 22.797371 Si / 1000 Ang^3
#
#
#
# Elastic Constant Matrix: (Units=GPa)
#
#
# Indices 1 2 3 4 5 6 
#
# 1 51.4798 24.6065 25.0018 0.0000 13.6073 0.0000
# 2 24.6065 145.1108 45.6994 0.0000 15.9348 0.0000
# 3 25.0018 45.6994 124.4891 0.0000 33.7541 0.0000
# 4 0.0000 0.0000 0.0000 7.8459 0.0000 7.4566
# 5 13.6073 15.9348 33.7541 0.0000 14.8345 0.0000
# 6 0.0000 0.0000 0.0000 7.4566 0.0000 16.3381
#
#
#
# Elastic Compliance Matrix: (Units=1/GPa)
#
#
# Indices 1 2 3 4 5 6 
#
# 1 0.026836 -0.002377 0.003825 0.000000 -0.030765 0.000000
# 2 -0.002377 0.008139 -0.001909 0.000000 -0.002220 0.000000
# 3 0.003825 -0.001909 0.021827 0.000000 -0.051122 0.000000
# 4 0.000000 0.000000 0.000000 0.225086 0.000000 -0.102728
# 5 -0.030765 -0.002220 -0.051122 0.000000 0.214338 0.000000
# 6 0.000000 0.000000 0.000000 -0.102728 0.000000 0.108091
#
#
# Mechanical properties :
#
#
# Convention : Reuss Voigt Hill
#
# Bulk Modulus (GPa) = 17.89546 56.85500 37.37523
# Shear Modulus (GPa) = 8.01456 22.85515 15.43486
#
# Velocity S-wave (km/s) = 1.87702 3.16972 2.60483
# Velocity P-wave (km/s) = 3.54463 6.19593 5.04747
#
# Compressibility (1/GPa) = 0.05588010
#
# Stress axis : x y z
#
# Youngs Moduli (GPa) = 37.26402 122.86305 45.81569
#
# Poissons Ratio (x) = 0.29200 -0.17523
# Poissons Ratio (y) = 0.08856 0.08744
# Poissons Ratio (z) = -0.14252 0.23449
#
# Static dielectric constant tensor:
#      x y z
#    x 1.955320 0.000000 0.006040 
#    y 0.000000 1.886560 0.000000 
#    z 0.006040 0.000000 1.829450 
# 
# From -- ./inp_files/37524.got.cif
#   From: 2010.05.17/outbox.cif.g08.bks.cpg/sg5_19_cif.got.tgz:37524.got - 2010.06.03 18:56:24.
