data_PCOD9120134
_publ_section_title
;
Structure prediction by ZEFSAII (Michael W. Deem and Ramdas Pophale) SiO2 
 PCOD9120134
Probable space group: C 2
;
_chemical_formula_sum "Si O2"
_cell_formula_units_Z 32
_cell_length_a 10.515586
_cell_length_b 22.592875
_cell_length_c 9.716639
_cell_angle_alpha 90.000000
_cell_angle_beta 41.208175
_cell_angle_gamma 90.000000
_cell_volume 1520.801504
_symmetry_space_group_name_H-M "C 2"
_symmetry_group_IT_number 5
_symmetry_cell_setting 'monoclinic'
loop_
_space_group_symop_operation_xyz
x,y,z
-x,y,-z
1/2+x,1/2+y,z
1/2-x,1/2+y,-z
loop_
_atom_site_type_symbol
_atom_site_label
_atom_site_fract_x
_atom_site_fract_y
_atom_site_fract_z
Si Si1 0.224455 0.592060 0.826423
Si Si2 0.764278 0.459685 0.683153
Si Si3 0.448594 0.781271 0.193303
Si Si4 0.235815 0.557151 0.102457
Si Si5 0.268713 0.160440 0.688092
Si Si6 0.712730 0.830601 0.399498
Si Si7 0.184767 0.227261 0.249095
Si Si8 0.233777 0.561117 0.522761
O O1 0.229522 0.662725 0.843203
O O2 0.303931 0.570711 0.617859
O O3 0.311888 0.560869 0.887446
O O4 0.000000 0.575129 0.000000
O O5 0.707425 0.497986 0.863009
O O6 0.693792 0.393192 0.714984
O O7 0.709585 0.501796 0.601282
O O8 0.000000 0.456993 0.500000
O O9 0.330566 0.723193 0.244078
O O10 0.324848 0.819366 0.406924
O O11 0.620071 0.757140 0.156217
O O12 0.500000 0.809010 0.000000
O O13 0.286983 0.617846 0.139811
O O14 0.001833 0.558872 0.290630
O O15 0.500000 0.168270 0.500000
O O16 0.215127 0.120136 0.601891
O O17 0.500000 0.833002 0.500000
O O18 0.803158 0.773707 0.248401
O O19 0.000000 0.215198 0.500000
#
# Coordination Sequence:
#
# PCOD9120134 Si02
#       8
#     4   4   4   4   4   4   4   4
#     4  10  17  27  43  69  95 111 139 184 225 257
#     4   8  13  26  42  59  84 116 146 177 218 260
#     4  10  18  28  42  65  92 115 146 186 218 254
#     4   8  15  24  41  65  88 109 139 184 226 257
#     4   9  16  28  44  63  88 117 145 175 219 273
#     4   8  16  29  43  58  85 123 152 172 212 269
#     4   9  18  30  43  63  92 124 147 172 215 271
#     4   8  14  24  41  64  87 109 139 180 218 257
#
# _framework density 21.041535
#
# number of rings (size 3 to 8) (size 9 to 14) (size 15 to 20)
#    0.000    3.500    0.000    3.750    0.000    0.000 
#    0.000    5.625    0.000    0.000    0.000   13.125 
#    0.000   12.000    0.000    0.000    0.000    0.000 
#
# Total GULP energy -89160.524404 kJ/mol
# GULP energy per Si atom -5572.532775 kJ/mol
# Density = 2.099364 g / cm^3
# Si number density = 21.041535 Si / 1000 Ang^3
#
#
#
# Elastic Constant Matrix: (Units=GPa)
#
#
# Indices 1 2 3 4 5 6 
#
# 1 70.3676 22.7833 47.4539 0.0000 16.5316 0.0000
# 2 22.7833 126.4736 39.0659 0.0000 29.4015 0.0000
# 3 47.4539 39.0659 108.7673 0.0000 54.2219 0.0000
# 4 0.0000 0.0000 0.0000 -10.7077 0.0000 -1.7700
# 5 16.5316 29.4015 54.2219 0.0000 48.9330 0.0000
# 6 0.0000 0.0000 0.0000 -1.7700 0.0000 7.0842
#
#
#
# Elastic Compliance Matrix: (Units=1/GPa)
#
#
# Indices 1 2 3 4 5 6 
#
# 1 0.021459 -0.001783 -0.012604 0.000000 0.007788 0.000000
# 2 -0.001783 0.009412 -0.000187 0.000000 -0.004846 0.000000
# 3 -0.012604 -0.000187 0.028108 0.000000 -0.026776 0.000000
# 4 0.000000 0.000000 0.000000 -0.089687 0.000000 -0.022408
# 5 0.007788 -0.004846 -0.026776 0.000000 0.050386 0.000000
# 6 0.000000 0.000000 0.000000 -0.022408 0.000000 0.135560
#
#
# Mechanical properties :
#
#
# Convention : Reuss Voigt Hill
#
# Bulk Modulus (GPa) = 33.52273 58.24607 45.88440
# Shear Modulus (GPa) = 25.72929 22.14893 23.93911
#
# Velocity S-wave (km/s) = 3.50063 3.24794 3.37665
# Velocity P-wave (km/s) = 5.68379 6.46584 6.08739
#
# Compressibility (1/GPa) = 0.02983051
#
# Stress axis : x y z
#
# Youngs Moduli (GPa) = 46.60120 106.24456 35.57662
#
# Poissons Ratio (x) = 0.18942 0.44842
# Poissons Ratio (y) = 0.08308 0.00665
# Poissons Ratio (z) = 0.58738 0.01987
#
# Static dielectric constant tensor:
#      x y z
#    x 1.856610 0.000000 -0.010100 
#    y 0.000000 1.759020 0.000000 
#    z -0.010100 0.000000 1.850450 
# 
# From -- ./inp_files/22062.got.cif
#   From: 2010.05.17/outbox.cif.g08.bks.cpg/sg5_12_cif.got.tgz:22062.got - 2010.06.03 18:56:24.
