data_PCOD9120642
_publ_section_title
;
Structure prediction by ZEFSAII (Michael W. Deem and Ramdas Pophale) SiO2 
 PCOD9120642
Probable space group: C 2
;
_chemical_formula_sum "Si O2"
_cell_formula_units_Z 26
_cell_length_a 11.233727
_cell_length_b 15.833273
_cell_length_c 15.303627
_cell_angle_alpha 90.000000
_cell_angle_beta 154.418335
_cell_angle_gamma 90.000000
_cell_volume 1175.354011
_symmetry_space_group_name_H-M "C 2"
_symmetry_group_IT_number 5
_symmetry_cell_setting 'monoclinic'
loop_
_space_group_symop_operation_xyz
x,y,z
-x,y,-z
1/2+x,1/2+y,z
1/2-x,1/2+y,-z
loop_
_atom_site_type_symbol
_atom_site_label
_atom_site_fract_x
_atom_site_fract_y
_atom_site_fract_z
Si Si1 0.783106 0.665680 0.280412
Si Si2 0.037939 0.865341 0.808629
Si Si3 0.054046 0.578084 0.194805
Si Si4 0.459984 0.494716 0.063050
Si Si5 0.000000 0.455252 0.000000
Si Si6 0.346527 0.732383 0.116382
Si Si7 0.244666 0.709462 0.452505
O O1 0.631604 0.579281 0.163379
O O2 0.559971 0.726702 0.176263
O O3 0.000000 0.651140 0.500000
O O4 0.954239 0.696532 0.311332
O O5 0.807758 0.799245 0.627219
O O6 0.919817 0.949492 0.772583
O O7 0.193241 0.818903 0.992486
O O8 0.258657 0.897171 0.882341
O O9 0.122731 0.516594 0.158374
O O10 0.258721 0.630088 0.395123
O O11 0.853337 0.520226 0.121715
O O12 0.864243 0.654324 0.031706
O O13 0.500000 0.445194 0.000000
O O14 0.513207 0.719227 0.316437
#
# Coordination Sequence:
#
# PCOD9120642 Si02
#       7
#     4   4   4   4   2   4   4
#     4   9  17  31  59  82  99 134 190 230 251 310
#     4  10  21  35  55  80 114 141 171 227 272 327
#     4   9  19  35  59  78 107 143 184 227 254 325
#     4  10  18  34  53  80 107 136 174 221 274 306
#     4  10  20  38  56  82 112 148 182 218 284 316
#     4   9  19  35  55  83 107 141 183 222 269 320
#     4  10  18  36  58  80 106 142 185 222 268 316
#
# _framework density 22.120994
#
# number of rings (size 3 to 8) (size 9 to 14) (size 15 to 20)
#    0.000    2.462    1.538    0.923    0.000    0.000 
#    8.308    6.923    0.000    0.000    0.000    0.000 
#    0.000    0.000    0.000    0.000    0.000    0.000 
#
# Total GULP energy -72499.000188 kJ/mol
# GULP energy per Si atom -5576.846168 kJ/mol
# Density = 2.207065 g / cm^3
# Si number density = 22.120994 Si / 1000 Ang^3
#
#
#
# Elastic Constant Matrix: (Units=GPa)
#
#
# Indices 1 2 3 4 5 6 
#
# 1 70.5616 34.1579 11.6335 -0.0025 -16.8020 0.0031
# 2 34.1579 67.0948 22.2405 0.0257 -14.1141 0.0273
# 3 11.6335 22.2405 59.2890 0.0446 -18.6692 0.0244
# 4 -0.0025 0.0257 0.0446 -0.3410 0.0074 -30.6499
# 5 -16.8020 -14.1141 -18.6692 0.0074 21.0205 0.0043
# 6 0.0031 0.0273 0.0244 -30.6499 0.0043 11.5687
#
#
#
# Elastic Compliance Matrix: (Units=1/GPa)
#
#
# Indices 1 2 3 4 5 6 
#
# 1 0.021364 -0.009108 0.003715 -0.000001 0.014261 -0.000001
# 2 -0.009108 0.021929 -0.005685 0.000019 0.002395 0.000011
# 3 0.003715 -0.005685 0.024993 0.000032 0.021349 0.000036
# 4 -0.000001 0.000019 0.000032 -0.012263 0.000051 -0.032490
# 5 0.014261 0.002395 0.021349 0.000051 0.079541 0.000050
# 6 -0.000001 0.000011 0.000036 -0.032490 0.000050 0.000362
#
#
# Mechanical properties :
#
#
# Convention : Reuss Voigt Hill
#
# Bulk Modulus (GPa) = 21.67754 37.00103 29.33928
# Shear Modulus (GPa) = 28.82534 15.04387 21.93461
#
# Velocity S-wave (km/s) = 3.61373 2.61065 3.15234
# Velocity P-wave (km/s) = 5.21851 5.08432 5.15185
#
# Compressibility (1/GPa) = 0.04613070
#
# Stress axis : x y z
#
# Youngs Moduli (GPa) = 46.80682 45.60075 40.01184
#
# Poissons Ratio (x) = 0.41534 -0.14865
# Poissons Ratio (y) = 0.42632 0.22746
# Poissons Ratio (z) = -0.17389 0.25923
#
# Static dielectric constant tensor:
#      x y z
#    x 1.883140 0.000000 -0.000580 
#    y 0.000000 1.812900 -0.000010 
#    z -0.000580 -0.000010 1.819360 
# 
# From -- ./inp_files/53229.got.cif
#   From: 2010.05.17/outbox.cif.g08.bks.cpg/sg5_27_cif.got.tgz:53229.got - 2010.06.03 18:56:24.
