data_PCOD9120109
_publ_section_title
;
Structure prediction by ZEFSAII (Michael W. Deem and Ramdas Pophale) SiO2 
 PCOD9120109
Probable space group: C 2
;
_chemical_formula_sum "Si O2"
_cell_formula_units_Z 24
_cell_length_a 21.378943
_cell_length_b 7.868843
_cell_length_c 9.470829
_cell_angle_alpha 90.000000
_cell_angle_beta 46.659988
_cell_angle_gamma 90.000000
_cell_volume 1158.763743
_symmetry_space_group_name_H-M "C 2"
_symmetry_group_IT_number 5
_symmetry_cell_setting 'monoclinic'
loop_
_space_group_symop_operation_xyz
x,y,z
-x,y,-z
1/2+x,1/2+y,z
1/2-x,1/2+y,-z
loop_
_atom_site_type_symbol
_atom_site_label
_atom_site_fract_x
_atom_site_fract_y
_atom_site_fract_z
Si Si1 0.675290 0.163520 0.449480
Si Si2 0.000000 0.093639 0.500000
Si Si3 0.687493 0.282333 0.135734
Si Si4 0.500000 0.454571 0.000000
Si Si5 0.323190 0.535350 0.411192
Si Si6 0.508450 0.280330 0.277239
Si Si7 0.677610 0.662468 0.280255
O O1 0.711549 0.171687 0.234775
O O2 0.678219 0.347415 0.520891
O O3 0.739155 0.053546 0.444483
O O4 0.571318 0.149413 0.596159
O O5 0.916685 0.209730 0.628002
O O6 0.012736 0.960733 0.610368
O O7 0.593986 0.225701 0.225414
O O8 0.686248 0.472173 0.200890
O O9 0.750526 0.270349 0.907156
O O10 0.585974 0.553813 0.813984
O O11 0.472985 0.335015 0.911325
O O12 0.317968 0.655581 0.557594
#
# Coordination Sequence:
#
# PCOD9120109 Si02
#       7
#     4   2   4   2   4   4   4
#     4  10  20  37  58  84 113 147 186 235 273 331
#     4  10  16  38  58  76 114 144 190 236 258 326
#     4  10  21  35  61  83 111 146 193 229 277 326
#     4  10  20  34  58  84 106 154 190 224 274 336
#     4  10  22  36  57  86 116 141 190 230 280 331
#     4  10  18  36  58  82 108 149 193 228 266 333
#     4  10  21  36  58  87 112 144 188 236 272 331
#
# _framework density 20.711728999999998
#
# number of rings (size 3 to 8) (size 9 to 14) (size 15 to 20)
#    0.000    2.000    6.667    0.000    9.333    0.000 
#    0.000    0.000   14.667    0.000    0.000    0.000 
#    0.000    0.000    0.000    0.000    0.000    0.000 
#
# Total GULP energy -66865.557019 kJ/mol
# GULP energy per Si atom -5572.129752 kJ/mol
# Density = 2.066459 g / cm^3
# Si number density = 20.711729 Si / 1000 Ang^3
#
#
#
# Elastic Constant Matrix: (Units=GPa)
#
#
# Indices 1 2 3 4 5 6 
#
# 1 127.7856 27.1540 39.0336 0.0000 0.7432 0.0000
# 2 27.1540 17.6620 21.2269 0.0000 -3.5081 0.0000
# 3 39.0336 21.2269 129.6403 0.0000 8.0117 0.0000
# 4 0.0000 0.0000 0.0000 23.8538 0.0000 3.9997
# 5 0.7432 -3.5081 8.0117 0.0000 44.7082 0.0000
# 6 0.0000 0.0000 0.0000 3.9997 0.0000 23.0703
#
#
#
# Elastic Compliance Matrix: (Units=1/GPa)
#
#
# Indices 1 2 3 4 5 6 
#
# 1 0.011770 -0.017732 -0.000548 0.000000 -0.001489 0.000000
# 2 -0.017732 0.099915 -0.011653 0.000000 0.010223 0.000000
# 3 -0.000548 -0.011653 0.009953 0.000000 -0.002689 0.000000
# 4 0.000000 0.000000 0.000000 0.043177 0.000000 -0.007486
# 5 -0.001489 0.010223 -0.002689 0.000000 0.023676 0.000000
# 6 0.000000 0.000000 0.000000 -0.007486 0.000000 0.044643
#
#
# Mechanical properties :
#
#
# Convention : Reuss Voigt Hill
#
# Bulk Modulus (GPa) = 16.18851 49.99077 33.08964
# Shear Modulus (GPa) = 15.94436 30.83803 23.39119
#
# Velocity S-wave (km/s) = 2.77758 3.86283 3.36426
# Velocity P-wave (km/s) = 4.25672 6.63959 5.57691
#
# Compressibility (1/GPa) = 0.06177222
#
# Stress axis : x y z
#
# Youngs Moduli (GPa) = 84.96404 10.00850 100.47294
#
# Poissons Ratio (x) = 0.17747 0.05510
# Poissons Ratio (y) = 1.50655 1.17079
# Poissons Ratio (z) = 0.04660 0.11663
#
# Static dielectric constant tensor:
#      x y z
#    x 1.761950 0.000000 -0.024280 
#    y 0.000000 1.763900 0.000000 
#    z -0.024280 0.000000 1.789360 
# 
# From -- ./inp_files/22816.got.cif
#   From: 2010.05.17/outbox.cif.g08.bks.cpg/sg5_12_cif.got.tgz:22816.got - 2010.06.03 18:56:24.
