data_PCOD9120403
_publ_section_title
;
Structure prediction by ZEFSAII (Michael W. Deem and Ramdas Pophale) SiO2 
 PCOD9120403
Probable space group: C 2
;
_chemical_formula_sum "Si O2"
_cell_formula_units_Z 26
_cell_length_a 10.936992
_cell_length_b 21.397430
_cell_length_c 6.959294
_cell_angle_alpha 90.000000
_cell_angle_beta 44.132120
_cell_angle_gamma 90.000000
_cell_volume 1134.045843
_symmetry_space_group_name_H-M "C 2"
_symmetry_group_IT_number 5
_symmetry_cell_setting 'monoclinic'
loop_
_space_group_symop_operation_xyz
x,y,z
-x,y,-z
1/2+x,1/2+y,z
1/2-x,1/2+y,-z
loop_
_atom_site_type_symbol
_atom_site_label
_atom_site_fract_x
_atom_site_fract_y
_atom_site_fract_z
Si Si1 0.150748 0.560420 0.604212
Si Si2 0.045615 0.967624 0.724177
Si Si3 0.365383 0.327355 0.478442
Si Si4 0.104695 0.698105 0.661751
Si Si5 0.000000 0.283752 0.000000
Si Si6 0.718578 0.688940 0.963411
Si Si7 0.743331 0.052958 0.041575
O O1 0.287362 0.509293 0.521359
O O2 0.173198 0.631156 0.658814
O O3 0.190749 0.556376 0.327960
O O4 0.942888 0.548546 0.854275
O O5 0.077439 0.895083 0.653338
O O6 0.000000 0.975395 0.000000
O O7 0.869505 0.997342 0.837402
O O8 0.500000 0.310479 0.500000
O O9 0.358019 0.270430 0.333034
O O10 0.167234 0.326779 0.776651
O O11 0.190273 0.692784 0.350696
O O12 0.891455 0.698043 0.899822
O O13 0.938832 0.238203 0.891201
O O14 0.656741 0.619596 0.087323
#
# Coordination Sequence:
#
# PCOD9120403 Si02
#       7
#     4   4   4   4   2   4   4
#     4   8  15  28  47  74  99 128 168 219 258 289
#     4  10  21  33  50  77 106 141 170 203 263 318
#     4  11  21  34  49  79 110 141 168 210 263 310
#     4   8  13  28  46  72 103 122 164 221 261 282
#     4  10  18  28  50  78 104 132 170 216 262 302
#     4   8  13  23  45  75  97 119 160 221 264 276
#     4   8  15  26  46  71 102 123 158 219 261 290
#
# _framework density 22.926765
#
# number of rings (size 3 to 8) (size 9 to 14) (size 15 to 20)
#    0.000    3.077    3.077    1.846    7.538    1.231 
#    0.000    0.000    0.000    0.000   10.000    0.000 
#    0.000    0.000    0.000    0.000    0.000    0.000 
#
# Total GULP energy -72370.241798 kJ/mol
# GULP energy per Si atom -5566.941677 kJ/mol
# Density = 2.287458 g / cm^3
# Si number density = 22.926765 Si / 1000 Ang^3
#
#
#
# Elastic Constant Matrix: (Units=GPa)
#
#
# Indices 1 2 3 4 5 6 
#
# 1 63.8411 25.8607 33.5605 0.0000 1.3884 0.0000
# 2 25.8607 197.6409 72.4129 0.0000 -20.6617 0.0000
# 3 33.5605 72.4129 107.0581 0.0000 -26.1188 0.0000
# 4 0.0000 0.0000 0.0000 42.0677 0.0000 -3.0361
# 5 1.3884 -20.6617 -26.1188 0.0000 28.0831 0.0000
# 6 0.0000 0.0000 0.0000 -3.0361 0.0000 17.0307
#
#
#
# Elastic Compliance Matrix: (Units=1/GPa)
#
#
# Indices 1 2 3 4 5 6 
#
# 1 0.020424 -0.000617 -0.008204 0.000000 -0.009094 0.000000
# 2 -0.000617 0.006764 -0.004087 0.000000 0.001206 0.000000
# 3 -0.008204 -0.004087 0.018164 0.000000 0.014292 0.000000
# 4 0.000000 0.000000 0.000000 0.024081 0.000000 0.004293
# 5 -0.009094 0.001206 0.014292 0.000000 0.050237 0.000000
# 6 0.000000 0.000000 0.000000 0.004293 0.000000 0.059483
#
#
# Mechanical properties :
#
#
# Convention : Reuss Voigt Hill
#
# Bulk Modulus (GPa) = 51.18969 70.24538 60.71754
# Shear Modulus (GPa) = 23.64269 33.21670 28.42969
#
# Velocity S-wave (km/s) = 3.21476 3.81046 3.52521
# Velocity P-wave (km/s) = 6.01294 7.07567 6.56584
#
# Compressibility (1/GPa) = 0.01953518
#
# Stress axis : x y z
#
# Youngs Moduli (GPa) = 48.96127 147.83930 55.05445
#
# Poissons Ratio (x) = 0.09129 0.45164
# Poissons Ratio (y) = 0.03023 0.22503
# Poissons Ratio (z) = 0.40166 0.60429
#
# Static dielectric constant tensor:
#      x y z
#    x 1.999750 0.000000 0.062570 
#    y 0.000000 1.869750 0.000000 
#    z 0.062570 0.000000 1.864160 
# 
# From -- ./inp_files/25346.got.cif
#   From: 2010.05.17/outbox.cif.g08.bks.cpg/sg5_13_cif.got.tgz:25346.got - 2010.06.03 18:56:24.
