data_PCOD9120535
_publ_section_title
;
Structure prediction by ZEFSAII (Michael W. Deem and Ramdas Pophale) SiO2 
 PCOD9120535
Probable space group: C 2
;
_chemical_formula_sum "Si O2"
_cell_formula_units_Z 28
_cell_length_a 13.164067
_cell_length_b 16.108423
_cell_length_c 9.163175
_cell_angle_alpha 90.000000
_cell_angle_beta 135.340371
_cell_angle_gamma 90.000000
_cell_volume 1365.773675
_symmetry_space_group_name_H-M "C 2"
_symmetry_group_IT_number 5
_symmetry_cell_setting 'monoclinic'
loop_
_space_group_symop_operation_xyz
x,y,z
-x,y,-z
1/2+x,1/2+y,z
1/2-x,1/2+y,-z
loop_
_atom_site_type_symbol
_atom_site_label
_atom_site_fract_x
_atom_site_fract_y
_atom_site_fract_z
Si Si1 0.334683 0.493870 0.825091
Si Si2 0.341548 0.914563 0.612766
Si Si3 0.846997 0.587528 0.793514
Si Si4 0.854032 0.011310 0.174426
Si Si5 0.062215 0.286138 0.900471
Si Si6 0.843453 0.835215 0.320440
Si Si7 0.891784 0.124726 0.653549
O O1 0.235939 0.440362 0.616353
O O2 0.347148 0.585246 0.763021
O O3 0.500000 0.460818 0.000000
O O4 0.290450 0.501904 0.947085
O O5 0.490319 0.864081 0.744643
O O6 0.234678 0.858706 0.605697
O O7 0.370669 0.999293 0.733383
O O8 0.749214 0.567307 0.833149
O O9 0.750175 0.641613 0.585345
O O10 0.000000 0.621748 0.000000
O O11 0.012987 0.051811 0.322965
O O12 0.867166 0.922718 0.263471
O O13 0.996063 0.202413 0.770956
O O14 0.232359 0.287014 0.101997
O O15 0.000000 0.295496 0.000000
O O16 0.000000 0.795062 0.500000
#
# Coordination Sequence:
#
# PCOD9120535 Si02
#       7
#     4   4   4   4   4   4   4
#     4   9  17  31  55  82 108 145 188 228 268 321
#     4   9  18  33  55  80 110 145 181 224 272 324
#     4  10  19  35  56  80 107 144 190 228 267 325
#     4  10  18  33  57  81 109 145 185 225 270 330
#     4  10  20  36  57  81 112 146 181 225 280 331
#     4  10  18  32  56  81 105 141 186 226 268 328
#     4  10  20  36  58  81 110 148 186 224 275 331
#
# _framework density 20.501200000000001
#
# number of rings (size 3 to 8) (size 9 to 14) (size 15 to 20)
#    0.000    2.286    0.000    7.286    0.000    0.000 
#    0.000   12.857    0.000    3.429    0.000    0.000 
#    0.000    0.000    0.000    0.000    0.000    0.000 
#
# Total GULP energy -78156.521412 kJ/mol
# GULP energy per Si atom -5582.608672 kJ/mol
# Density = 2.045454 g / cm^3
# Si number density = 20.501200 Si / 1000 Ang^3
#
#
#
# Elastic Constant Matrix: (Units=GPa)
#
#
# Indices 1 2 3 4 5 6 
#
# 1 33.7445 -3.6310 46.4207 0.0000 -1.0403 0.0000
# 2 -3.6310 44.3703 40.2498 0.0000 11.9807 0.0000
# 3 46.4207 40.2498 194.0421 0.0000 22.5461 0.0000
# 4 0.0000 0.0000 0.0000 20.6485 0.0000 5.8893
# 5 -1.0403 11.9807 22.5461 0.0000 43.0303 0.0000
# 6 0.0000 0.0000 0.0000 5.8893 0.0000 10.9106
#
#
#
# Elastic Compliance Matrix: (Units=1/GPa)
#
#
# Indices 1 2 3 4 5 6 
#
# 1 0.057479 0.020037 -0.018549 0.000000 0.005530 0.000000
# 2 0.020037 0.035803 -0.011839 0.000000 -0.003281 0.000000
# 3 -0.018549 -0.011839 0.012475 0.000000 -0.003689 0.000000
# 4 0.000000 0.000000 0.000000 0.057242 0.000000 -0.030898
# 5 0.005530 -0.003281 -0.003689 0.000000 0.026219 0.000000
# 6 0.000000 0.000000 0.000000 -0.030898 0.000000 0.108332
#
#
# Mechanical properties :
#
#
# Convention : Reuss Voigt Hill
#
# Bulk Modulus (GPa) = 11.75712 48.69287 30.22500
# Shear Modulus (GPa) = 14.42571 27.52571 20.97571
#
# Velocity S-wave (km/s) = 2.65552 3.66818 3.20213
# Velocity P-wave (km/s) = 3.89226 6.46092 5.33354
#
# Compressibility (1/GPa) = 0.08505483
#
# Stress axis : x y z
#
# Youngs Moduli (GPa) = 17.39779 27.93094 80.15777
#
# Poissons Ratio (x) = -0.55966 1.48688
# Poissons Ratio (y) = -0.34861 0.94897
# Poissons Ratio (z) = 0.32272 0.33067
#
# Static dielectric constant tensor:
#      x y z
#    x 1.755540 0.000000 0.024720 
#    y 0.000000 1.751570 0.000000 
#    z 0.024720 0.000000 1.776360 
# 
# From -- ./inp_files/25218.got.cif
#   From: 2010.05.17/outbox.cif.g08.bks.cpg/sg5_13_cif.got.tgz:25218.got - 2010.06.03 18:56:24.
