data_PCOD9120569
_publ_section_title
;
Structure prediction by ZEFSAII (Michael W. Deem and Ramdas Pophale) SiO2 
 PCOD9120569
Probable space group: C 2
;
_chemical_formula_sum "Si O2"
_cell_formula_units_Z 32
_cell_length_a 10.873393
_cell_length_b 21.645020
_cell_length_c 9.494932
_cell_angle_alpha 90.000000
_cell_angle_beta 48.830384
_cell_angle_gamma 90.000000
_cell_volume 1682.185318
_symmetry_space_group_name_H-M "C 2"
_symmetry_group_IT_number 5
_symmetry_cell_setting 'monoclinic'
loop_
_space_group_symop_operation_xyz
x,y,z
-x,y,-z
1/2+x,1/2+y,z
1/2-x,1/2+y,-z
loop_
_atom_site_type_symbol
_atom_site_label
_atom_site_fract_x
_atom_site_fract_y
_atom_site_fract_z
Si Si1 0.775547 0.844630 0.396181
Si Si2 0.856749 0.305140 0.998409
Si Si3 0.905530 0.647329 0.206977
Si Si4 0.659539 0.745780 0.284514
Si Si5 0.513935 0.250661 0.335593
Si Si6 0.616026 0.041421 0.549724
Si Si7 0.147353 0.961285 0.786090
Si Si8 0.546554 0.915864 0.255287
O O1 0.762719 0.804660 0.262875
O O2 0.891577 0.903412 0.284984
O O3 0.598544 0.871025 0.575995
O O4 0.859088 0.796551 0.438198
O O5 0.876720 0.259758 0.849230
O O6 0.878850 0.375790 0.927398
O O7 0.678859 0.289797 0.193307
O O8 0.000000 0.292878 0.000000
O O9 0.754380 0.683879 0.252332
O O10 0.867016 0.596835 0.354053
O O11 0.004410 0.700578 0.217727
O O12 0.000000 0.621410 0.000000
O O13 0.500000 0.746380 0.500000
O O14 0.500000 0.220737 0.500000
O O15 0.500000 0.054146 0.500000
O O16 0.785594 0.018189 0.354268
O O17 0.542030 0.982202 0.690299
O O18 0.304361 0.934167 0.753520
O O19 0.000000 0.976025 0.000000
#
# Coordination Sequence:
#
# PCOD9120569 Si02
#       8
#     4   4   4   4   4   4   4   4
#     4  10  18  32  62  90 127 160 202 254 315 386
#     4  12  23  36  59  97 132 159 206 264 331 384
#     4  11  23  42  66  84 119 165 222 266 309 383
#     4  11  21  38  62  91 123 166 204 256 327 386
#     4  11  24  38  58  92 127 164 210 265 320 374
#     4   9  21  40  63  89 121 170 214 260 311 379
#     4  10  18  32  62  95 124 162 210 256 311 392
#     4  10  19  37  61  93 129 165 204 254 321 383
#
# _framework density 19.022874000000002
#
# number of rings (size 3 to 8) (size 9 to 14) (size 15 to 20)
#    0.000    1.500    3.750    3.000    1.750    0.500 
#    0.000    2.500    0.000    6.000    0.000    0.000 
#    0.000    0.000    0.000    0.000    0.000    0.000 
#
# Total GULP energy -89185.673897 kJ/mol
# GULP energy per Si atom -5574.104619 kJ/mol
# Density = 1.897958 g / cm^3
# Si number density = 19.022874 Si / 1000 Ang^3
#
#
#
# Elastic Constant Matrix: (Units=GPa)
#
#
# Indices 1 2 3 4 5 6 
#
# 1 84.1754 36.0478 33.2207 0.0000 14.8963 0.0000
# 2 36.0478 105.7000 43.0327 0.0000 3.1373 0.0000
# 3 33.2207 43.0327 108.4903 0.0000 3.9497 0.0000
# 4 0.0000 0.0000 0.0000 34.1171 0.0000 10.9951
# 5 14.8963 3.1373 3.9497 0.0000 32.3906 0.0000
# 6 0.0000 0.0000 0.0000 10.9951 0.0000 18.4601
#
#
#
# Elastic Compliance Matrix: (Units=1/GPa)
#
#
# Indices 1 2 3 4 5 6 
#
# 1 0.015968 -0.004004 -0.003062 0.000000 -0.006582 0.000000
# 2 -0.004004 0.012296 -0.003691 0.000000 0.001100 0.000000
# 3 -0.003062 -0.003691 0.011606 0.000000 0.000350 0.000000
# 4 0.000000 0.000000 0.000000 0.036274 0.000000 -0.021605
# 5 -0.006582 0.001100 0.000350 0.000000 0.033751 0.000000
# 6 0.000000 0.000000 0.000000 -0.021605 0.000000 0.067039
#
#
# Mechanical properties :
#
#
# Convention : Reuss Voigt Hill
#
# Bulk Modulus (GPa) = 54.47613 58.10758 56.29185
# Shear Modulus (GPa) = 24.44184 29.39786 26.91985
#
# Velocity S-wave (km/s) = 3.58839 3.93542 3.76590
# Velocity P-wave (km/s) = 6.77260 7.15978 6.96888
#
# Compressibility (1/GPa) = 0.01835666
#
# Stress axis : x y z
#
# Youngs Moduli (GPa) = 62.62626 81.32481 86.15936
#
# Poissons Ratio (x) = 0.32560 0.26380
# Poissons Ratio (y) = 0.25074 0.31805
# Poissons Ratio (z) = 0.19175 0.30021
#
# Static dielectric constant tensor:
#      x y z
#    x 1.694510 0.000000 0.003380 
#    y 0.000000 1.673590 0.000000 
#    z 0.003380 0.000000 1.680710 
# 
# From -- ./inp_files/21937.got.cif
#   From: 2010.05.17/outbox.cif.g08.bks.cpg/sg5_11_cif.got.tgz:21937.got - 2010.06.03 18:56:24.
