data_PCOD9120513
_publ_section_title
;
Structure prediction by ZEFSAII (Michael W. Deem and Ramdas Pophale) SiO2 
 PCOD9120513
Probable space group: C 2
;
_chemical_formula_sum "Si O2"
_cell_formula_units_Z 24
_cell_length_a 10.219371
_cell_length_b 9.845988
_cell_length_c 11.754662
_cell_angle_alpha 90.000000
_cell_angle_beta 66.875122
_cell_angle_gamma 90.000000
_cell_volume 1087.718933
_symmetry_space_group_name_H-M "C 2"
_symmetry_group_IT_number 5
_symmetry_cell_setting 'monoclinic'
loop_
_space_group_symop_operation_xyz
x,y,z
-x,y,-z
1/2+x,1/2+y,z
1/2-x,1/2+y,-z
loop_
_atom_site_type_symbol
_atom_site_label
_atom_site_fract_x
_atom_site_fract_y
_atom_site_fract_z
Si Si1 0.700674 0.479210 0.765250
Si Si2 0.153931 0.153317 0.446582
Si Si3 0.219375 0.408971 0.514803
Si Si4 0.985465 0.484399 0.782655
Si Si5 0.184360 0.681115 0.843211
Si Si6 0.546753 0.678559 0.114642
O O1 0.777084 0.441012 0.620459
O O2 0.646729 0.340985 0.846829
O O3 0.567660 0.577506 0.788707
O O4 0.830852 0.535547 0.796108
O O5 0.237863 0.246731 0.508415
O O6 0.212890 0.161780 0.300747
O O7 0.000000 0.218288 0.500000
O O8 0.151879 0.998223 0.482845
O O9 0.090420 0.465073 0.637051
O O10 0.055100 0.583280 0.852922
O O11 0.971462 0.332492 0.836045
O O12 0.288303 0.645201 0.912350
O O13 0.500000 0.671015 0.000000
#
# Coordination Sequence:
#
# PCOD9120513 Si02
#       6
#     4   4   4   4   4   4
#     4  10  20  37  59  87 119 152 190 234 288 344
#     4  10  18  32  52  79 117 152 183 227 281 340
#     4  10  18  33  59  86 117 151 184 231 289 346
#     4  10  21  38  60  88 117 150 192 238 290 343
#     4   9  21  37  55  83 114 147 192 239 285 335
#     4  11  24  41  60  83 115 156 199 239 282 338
#
# _framework density 22.064523999999999
#
# number of rings (size 3 to 8) (size 9 to 14) (size 15 to 20)
#    0.000    2.000    0.000    5.500    0.000    4.000 
#    0.000   11.667    0.000    0.000    0.000    0.000 
#    0.000    0.000    0.000    0.000    0.000    0.000 
#
# Total GULP energy -66893.960748 kJ/mol
# GULP energy per Si atom -5574.496729 kJ/mol
# Density = 2.201430 g / cm^3
# Si number density = 22.064524 Si / 1000 Ang^3
#
#
#
# Elastic Constant Matrix: (Units=GPa)
#
#
# Indices 1 2 3 4 5 6 
#
# 1 95.9757 32.3147 -10.1269 0.0000 5.3735 0.0000
# 2 32.3147 54.3756 -10.7947 0.0000 -1.8364 0.0000
# 3 -10.1269 -10.7947 51.7239 0.0000 5.4689 0.0000
# 4 0.0000 0.0000 0.0000 4.7894 0.0000 10.2557
# 5 5.3735 -1.8364 5.4689 0.0000 21.7747 0.0000
# 6 0.0000 0.0000 0.0000 10.2557 0.0000 31.5778
#
#
#
# Elastic Compliance Matrix: (Units=1/GPa)
#
#
# Indices 1 2 3 4 5 6 
#
# 1 0.013462 -0.007858 0.001456 0.000000 -0.004351 0.000000
# 2 -0.007858 0.023781 0.003089 0.000000 0.003169 0.000000
# 3 0.001456 0.003089 0.020827 0.000000 -0.005329 0.000000
# 4 0.000000 0.000000 0.000000 0.685594 0.000000 -0.222664
# 5 -0.004351 0.003169 -0.005329 0.000000 0.048604 0.000000
# 6 0.000000 0.000000 0.000000 -0.222664 0.000000 0.103984
#
#
# Mechanical properties :
#
#
# Convention : Reuss Voigt Hill
#
# Bulk Modulus (GPa) = 19.43877 24.98460 22.21169
# Shear Modulus (GPa) = 5.43462 24.34052 14.88757
#
# Velocity S-wave (km/s) = 1.57112 3.32498 2.60037
# Velocity P-wave (km/s) = 3.48142 5.10770 4.37087
#
# Compressibility (1/GPa) = 0.05144359
#
# Stress axis : x y z
#
# Youngs Moduli (GPa) = 74.28084 42.05008 48.01533
#
# Poissons Ratio (x) = 0.33045 -0.06990
# Poissons Ratio (y) = 0.58374 -0.14834
# Poissons Ratio (z) = -0.10813 -0.12991
#
# Static dielectric constant tensor:
#      x y z
#    x 1.814480 0.000000 -0.011540 
#    y 0.000000 1.827660 0.000000 
#    z -0.011540 0.000000 1.844170 
# 
# From -- ./inp_files/35338.got.cif
#   From: 2010.05.17/outbox.cif.g08.bks.cpg/sg5_18_cif.got.tgz:35338.got - 2010.06.03 18:56:24.
