data_PCOD9120145
_publ_section_title
;
Structure prediction by ZEFSAII (Michael W. Deem and Ramdas Pophale) SiO2 
 PCOD9120145
Probable space group: C 2
;
_chemical_formula_sum "Si O2"
_cell_formula_units_Z 32
_cell_length_a 7.896497
_cell_length_b 21.705890
_cell_length_c 8.191952
_cell_angle_alpha 90.000000
_cell_angle_beta 117.738817
_cell_angle_gamma 90.000000
_cell_volume 1242.742819
_symmetry_space_group_name_H-M "C 2"
_symmetry_group_IT_number 5
_symmetry_cell_setting 'monoclinic'
loop_
_space_group_symop_operation_xyz
x,y,z
-x,y,-z
1/2+x,1/2+y,z
1/2-x,1/2+y,-z
loop_
_atom_site_type_symbol
_atom_site_label
_atom_site_fract_x
_atom_site_fract_y
_atom_site_fract_z
Si Si1 0.789218 0.730970 0.490235
Si Si2 0.626925 0.102457 0.385642
Si Si3 0.444058 0.559112 0.743124
Si Si4 0.906032 0.243951 0.124979
Si Si5 0.583874 0.422030 0.867759
Si Si6 0.728186 0.117633 0.963572
Si Si7 0.222834 0.872524 0.459001
Si Si8 0.094677 0.382648 0.794066
O O1 0.805936 0.672709 0.614085
O O2 0.591617 0.717672 0.304089
O O3 0.759689 0.798997 0.541952
O O4 0.000000 0.733236 0.500000
O O5 0.500000 0.102332 0.500000
O O6 0.808618 0.062835 0.524486
O O7 0.479779 0.091557 0.173096
O O8 0.499427 0.490056 0.813517
O O9 0.337294 0.594930 0.845048
O O10 0.651328 0.590604 0.832553
O O11 0.849364 0.309917 0.171273
O O12 0.752858 0.191296 0.005462
O O13 0.000000 0.265355 0.000000
O O14 0.499758 0.387029 0.673299
O O15 0.500000 0.393969 0.000000
O O16 0.806082 0.417741 0.012563
O O17 0.367080 0.890305 0.669015
O O18 0.317756 0.903278 0.340507
#
# Coordination Sequence:
#
# PCOD9120145 Si02
#       8
#     4   4   4   4   4   4   4   4
#     4  10  19  30  52  78 108 141 173 225 269 318
#     4   9  17  27  43  72 104 131 160 211 274 306
#     4  10  17  30  44  74 104 130 169 212 271 310
#     4  11  18  31  53  78 114 133 175 223 268 323
#     4  10  19  32  51  70 104 143 176 210 257 323
#     4  10  17  28  45  73 106 132 162 217 268 308
#     4   9  20  37  48  73 110 143 183 211 259 330
#     4   9  21  35  50  74 108 148 172 215 266 314
#
# _framework density 25.749495
#
# number of rings (size 3 to 8) (size 9 to 14) (size 15 to 20)
#    0.000    2.250    3.750    1.500    3.500    1.000 
#    6.750    0.000    0.000    0.000    0.000    1.750 
#    3.750    0.000    0.000    0.000    0.000    0.000 
#
# Total GULP energy -89186.126198 kJ/mol
# GULP energy per Si atom -5574.132887 kJ/mol
# Density = 2.569089 g / cm^3
# Si number density = 25.749495 Si / 1000 Ang^3
#
#
#
# Elastic Constant Matrix: (Units=GPa)
#
#
# Indices 1 2 3 4 5 6 
#
# 1 80.7019 7.2631 54.2614 0.0000 23.0978 0.0000
# 2 7.2631 89.6786 68.0069 0.0000 19.8332 0.0000
# 3 54.2614 68.0069 268.1865 0.0000 47.3894 0.0000
# 4 0.0000 0.0000 0.0000 35.4163 0.0000 -0.1760
# 5 23.0978 19.8332 47.3894 0.0000 47.5971 0.0000
# 6 0.0000 0.0000 0.0000 -0.1760 0.0000 5.3920
#
#
#
# Elastic Compliance Matrix: (Units=1/GPa)
#
#
# Indices 1 2 3 4 5 6 
#
# 1 0.015655 0.002030 -0.002658 0.000000 -0.005796 0.000000
# 2 0.002030 0.014372 -0.003426 0.000000 -0.003563 0.000000
# 3 -0.002658 -0.003426 0.005649 0.000000 -0.002907 0.000000
# 4 0.000000 0.000000 0.000000 0.028240 0.000000 0.000922
# 5 -0.005796 -0.003563 -0.002907 0.000000 0.028202 0.000000
# 6 0.000000 0.000000 0.000000 0.000922 0.000000 0.185490
#
#
# Mechanical properties :
#
#
# Convention : Reuss Voigt Hill
#
# Bulk Modulus (GPa) = 36.27379 77.51444 56.89412
# Shear Modulus (GPa) = 16.95463 38.28344 27.61904
#
# Velocity S-wave (km/s) = 2.56880 3.86004 3.27862
# Velocity P-wave (km/s) = 4.78708 7.07356 6.03951
#
# Compressibility (1/GPa) = 0.02756811
#
# Stress axis : x y z
#
# Youngs Moduli (GPa) = 63.87900 69.57827 177.02794
#
# Poissons Ratio (x) = -0.14121 0.47050
# Poissons Ratio (y) = -0.12964 0.60642
# Poissons Ratio (z) = 0.16978 0.23834
#
# Static dielectric constant tensor:
#      x y z
#    x 2.169580 0.000000 0.021140 
#    y 0.000000 1.985210 0.000000 
#    z 0.021140 0.000000 2.124340 
# 
# From -- ./inp_files/40652.got.cif
#   From: 2010.05.17/outbox.cif.g08.bks.cpg/sg5_21_cif.got.tgz:40652.got - 2010.06.03 18:56:24.
