data_PCOD9120233
_publ_section_title
;
Structure prediction by ZEFSAII (Michael W. Deem and Ramdas Pophale) SiO2 
 PCOD9120233
Probable space group: C 2
;
_chemical_formula_sum "Si O2"
_cell_formula_units_Z 30
_cell_length_a 25.158793
_cell_length_b 7.958589
_cell_length_c 7.305921
_cell_angle_alpha 90.000000
_cell_angle_beta 120.069721
_cell_angle_gamma 90.000000
_cell_volume 1265.977357
_symmetry_space_group_name_H-M "C 2"
_symmetry_group_IT_number 5
_symmetry_cell_setting 'monoclinic'
loop_
_space_group_symop_operation_xyz
x,y,z
-x,y,-z
1/2+x,1/2+y,z
1/2-x,1/2+y,-z
loop_
_atom_site_type_symbol
_atom_site_label
_atom_site_fract_x
_atom_site_fract_y
_atom_site_fract_z
Si Si1 0.121556 0.289520 0.611799
Si Si2 0.931840 0.370043 0.881684
Si Si3 0.000000 0.157159 0.500000
Si Si4 0.683081 0.442346 0.607828
Si Si5 0.812889 0.551021 0.762189
Si Si6 0.038827 0.001906 0.909239
Si Si7 0.328069 0.423289 0.851361
Si Si8 0.205750 0.585425 0.709691
O O1 0.093033 0.345271 0.366736
O O2 0.061363 0.264701 0.630876
O O3 0.169406 0.434523 0.744194
O O4 0.154378 0.109338 0.643873
O O5 0.880154 0.474155 0.898704
O O6 0.940344 0.182628 0.974071
O O7 0.000000 0.447443 0.000000
O O8 0.993728 0.040425 0.665154
O O9 0.757083 0.442580 0.738373
O O10 0.666311 0.448591 0.361164
O O11 0.671969 0.263089 0.684110
O O12 0.803447 0.735061 0.827742
O O13 0.801886 0.564230 0.524128
O O14 0.000000 0.911340 0.000000
O O15 0.102682 0.924509 0.957109
O O16 0.279097 0.551635 0.854895
#
# Coordination Sequence:
#
# PCOD9120233 Si02
#       8
#     4   4   2   4   4   4   4   4
#     4  11  20  38  61  89 124 164 212 253 314 373
#     4  10  18  35  57  86 121 163 211 248 302 376
#     4  12  24  40  68  90 124 176 206 260 318 368
#     4  10  17  32  58  94 128 160 208 262 312 370
#     4   9  18  28  56  95 125 161 209 258 313 371
#     4  11  21  38  63  90 123 167 214 255 311 377
#     4  10  17  32  56  92 127 160 210 259 309 376
#     4   9  19  31  58  94 127 164 205 261 315 369
#
# _framework density 23.697106999999999
#
# number of rings (size 3 to 8) (size 9 to 14) (size 15 to 20)
#    0.000    1.867    5.333    0.800    3.733    0.533 
#    0.000    2.000    8.800    0.000    0.000    0.000 
#    0.000    0.000    0.000    0.000    0.000    0.000 
#
# Total GULP energy -83806.336883 kJ/mol
# GULP energy per Si atom -5587.089126 kJ/mol
# Density = 2.364317 g / cm^3
# Si number density = 23.697107 Si / 1000 Ang^3
#
#
#
# Elastic Constant Matrix: (Units=GPa)
#
#
# Indices 1 2 3 4 5 6 
#
# 1 105.7383 27.9269 13.4737 0.0000 27.1508 0.0000
# 2 27.9269 90.8822 -8.2118 0.0000 12.0730 0.0000
# 3 13.4737 -8.2118 73.0790 0.0000 5.7278 0.0000
# 4 0.0000 0.0000 0.0000 6.6386 0.0000 13.5630
# 5 27.1508 12.0730 5.7278 0.0000 41.3491 0.0000
# 6 0.0000 0.0000 0.0000 13.5630 0.0000 23.2475
#
#
#
# Elastic Compliance Matrix: (Units=1/GPa)
#
#
# Indices 1 2 3 4 5 6 
#
# 1 0.012298 -0.003050 -0.002069 0.000000 -0.006898 0.000000
# 2 -0.003050 0.012383 0.002103 0.000000 -0.001905 0.000000
# 3 -0.002069 0.002103 0.014400 0.000000 -0.001250 0.000000
# 4 0.000000 0.000000 0.000000 -0.784783 0.000000 0.457855
# 5 -0.006898 -0.001905 -0.001250 0.000000 0.029443 0.000000
# 6 0.000000 0.000000 0.000000 0.457855 0.000000 -0.224104
#
#
# Mechanical properties :
#
#
# Convention : Reuss Voigt Hill
#
# Bulk Modulus (GPa) = 30.25824 37.34190 33.80007
# Shear Modulus (GPa) = -5.41526 30.01443 12.29958
#
# Velocity S-wave (km/s) = -1.51333 3.56277 2.28070
# Velocity P-wave (km/s) = 3.12136 5.71985 4.60758
#
# Compressibility (1/GPa) = 0.03304885
#
# Stress axis : x y z
#
# Youngs Moduli (GPa) = 81.31668 80.75351 69.44619
#
# Poissons Ratio (x) = 0.24626 0.14371
# Poissons Ratio (y) = 0.24798 -0.14605
# Poissons Ratio (z) = 0.16827 -0.16983
#
# Static dielectric constant tensor:
#      x y z
#    x 1.949460 0.000000 -0.022800 
#    y 0.000000 1.895850 0.000000 
#    z -0.022800 0.000000 1.941710 
# 
# From -- ./inp_files/30679.got.cif
#   From: 2010.05.17/outbox.cif.g08.bks.cpg/sg5_16_cif.got.tgz:30679.got - 2010.06.03 18:56:24.
