data_PCOD9120444
_publ_section_title
;
Structure prediction by ZEFSAII (Michael W. Deem and Ramdas Pophale) SiO2 
 PCOD9120444
Probable space group: C 2
;
_chemical_formula_sum "Si O2"
_cell_formula_units_Z 32
_cell_length_a 13.108898
_cell_length_b 12.695890
_cell_length_c 13.605368
_cell_angle_alpha 90.000000
_cell_angle_beta 42.293834
_cell_angle_gamma 90.000000
_cell_volume 1523.741859
_symmetry_space_group_name_H-M "C 2"
_symmetry_group_IT_number 5
_symmetry_cell_setting 'monoclinic'
loop_
_space_group_symop_operation_xyz
x,y,z
-x,y,-z
1/2+x,1/2+y,z
1/2-x,1/2+y,-z
loop_
_atom_site_type_symbol
_atom_site_label
_atom_site_fract_x
_atom_site_fract_y
_atom_site_fract_z
Si Si1 0.502295 0.441110 0.162501
Si Si2 0.922699 0.699138 0.856694
Si Si3 0.264093 0.439398 0.162537
Si Si4 0.683261 0.701326 0.179935
Si Si5 0.287040 0.476068 0.477114
Si Si6 0.002942 0.595985 0.611249
Si Si7 0.716059 0.090560 0.708448
Si Si8 0.397091 0.781179 0.479726
O O1 0.517280 0.314979 0.160317
O O2 0.368393 0.467758 0.180994
O O3 0.447919 0.482909 0.306967
O O4 0.654757 0.474153 0.996688
O O5 0.936174 0.683341 0.731063
O O6 0.037235 0.612536 0.821986
O O7 0.756617 0.687459 0.021365
O O8 0.256015 0.312659 0.165460
O O9 0.102856 0.494339 0.290715
O O10 0.735682 0.606830 0.213623
O O11 0.507821 0.727766 0.320978
O O12 0.276630 0.491642 0.602105
O O13 0.207380 0.369529 0.494346
O O14 0.173481 0.566644 0.519093
O O15 0.000000 0.623008 0.500000
O O16 0.797972 0.189432 0.597757
O O17 0.500000 0.819787 0.500000
#
# Coordination Sequence:
#
# PCOD9120444 Si02
#       8
#     4   4   4   4   4   4   4   4
#     4  10  18  32  53  77 106 139 177 219 268 311
#     4  10  20  32  53  79 108 141 174 217 269 316
#     4  10  18  30  53  78 104 134 174 232 266 295
#     4  10  18  33  53  77 107 136 175 220 266 310
#     4  11  19  31  52  82 110 137 174 220 266 318
#     4  11  21  33  52  83 109 137 177 223 266 317
#     4  10  20  30  51  84 108 139 175 221 266 307
#     4  10  18  32  55  80 108 137 179 227 263 303
#
# _framework density 21.000931999999999
#
# number of rings (size 3 to 8) (size 9 to 14) (size 15 to 20)
#    0.000    1.750    5.000    1.500    0.000    1.000 
#    0.000    0.000    0.000    5.250    3.250    0.000 
#    0.000    0.000    0.000    0.000    0.000    0.000 
#
# Total GULP energy -89269.083212 kJ/mol
# GULP energy per Si atom -5579.317701 kJ/mol
# Density = 2.095313 g / cm^3
# Si number density = 21.000932 Si / 1000 Ang^3
#
#
#
# Elastic Constant Matrix: (Units=GPa)
#
#
# Indices 1 2 3 4 5 6 
#
# 1 39.1801 13.7216 20.3580 0.0000 8.7554 0.0000
# 2 13.7216 42.9395 18.8528 0.0000 9.5397 0.0000
# 3 20.3580 18.8528 173.4476 0.0000 11.8625 0.0000
# 4 0.0000 0.0000 0.0000 33.3452 0.0000 12.1657
# 5 8.7554 9.5397 11.8625 0.0000 16.1323 0.0000
# 6 0.0000 0.0000 0.0000 12.1657 0.0000 24.9289
#
#
#
# Elastic Compliance Matrix: (Units=1/GPa)
#
#
# Indices 1 2 3 4 5 6 
#
# 1 0.031555 -0.006531 -0.002197 0.000000 -0.011648 0.000000
# 2 -0.006531 0.028789 -0.001517 0.000000 -0.012364 0.000000
# 3 -0.002197 -0.001517 0.006365 0.000000 -0.002591 0.000000
# 4 0.000000 0.000000 0.000000 0.036486 0.000000 -0.017806
# 5 -0.011648 -0.012364 -0.002591 0.000000 0.077526 0.000000
# 6 0.000000 0.000000 0.000000 -0.017806 0.000000 0.048804
#
#
# Mechanical properties :
#
#
# Convention : Reuss Voigt Hill
#
# Bulk Modulus (GPa) = 21.63642 40.15912 30.89777
# Shear Modulus (GPa) = 18.83803 28.39026 23.61414
#
# Velocity S-wave (km/s) = 2.99826 3.68075 3.35689
# Velocity P-wave (km/s) = 4.72346 6.10147 5.45614
#
# Compressibility (1/GPa) = 0.04621837
#
# Stress axis : x y z
#
# Youngs Moduli (GPa) = 31.69065 34.73601 157.09881
#
# Poissons Ratio (x) = 0.22687 0.34517
# Poissons Ratio (y) = 0.20698 0.23832
# Poissons Ratio (z) = 0.06963 0.05269
#
# Static dielectric constant tensor:
#      x y z
#    x 1.773870 0.000000 0.011010 
#    y 0.000000 1.786530 0.000000 
#    z 0.011010 0.000000 1.820030 
# 
# From -- ./inp_files/54558.got.cif
#   From: 2010.05.17/outbox.cif.g08.bks.cpg/sg5_28_cif.got.tgz:54558.got - 2010.06.03 18:56:24.
