data_PCOD9120244
_publ_section_title
;
Structure prediction by ZEFSAII (Michael W. Deem and Ramdas Pophale) SiO2 
 PCOD9120244
Probable space group: C 2
;
_chemical_formula_sum "Si O2"
_cell_formula_units_Z 32
_cell_length_a 16.515101
_cell_length_b 9.889021
_cell_length_c 20.018431
_cell_angle_alpha 90.000000
_cell_angle_beta 26.671038
_cell_angle_gamma 90.000000
_cell_volume 1467.515148
_symmetry_space_group_name_H-M "C 2"
_symmetry_group_IT_number 5
_symmetry_cell_setting 'monoclinic'
loop_
_space_group_symop_operation_xyz
x,y,z
-x,y,-z
1/2+x,1/2+y,z
1/2-x,1/2+y,-z
loop_
_atom_site_type_symbol
_atom_site_label
_atom_site_fract_x
_atom_site_fract_y
_atom_site_fract_z
Si Si1 0.248991 0.005660 0.586890
Si Si2 0.329140 0.745980 0.677057
Si Si3 0.766486 0.564281 0.941535
Si Si4 0.962375 0.304852 0.835774
Si Si5 0.056448 0.171526 0.629270
Si Si6 0.300384 0.246328 0.655265
Si Si7 0.124822 0.725662 0.708273
Si Si8 0.172255 0.521167 0.254802
O O1 0.116896 0.037645 0.623094
O O2 0.281063 0.131035 0.612515
O O3 0.456179 0.986380 0.410067
O O4 0.147979 0.886169 0.699565
O O5 0.500000 0.770774 0.500000
O O6 0.397940 0.667332 0.691833
O O7 0.188052 0.671554 0.733634
O O8 0.259675 0.889486 0.755947
O O9 0.814976 0.424056 0.942765
O O10 0.743839 0.534099 0.880003
O O11 0.943113 0.658102 0.819622
O O12 0.612980 0.660643 0.083638
O O13 0.018534 0.277317 0.717152
O O14 0.131616 0.338889 0.759092
O O15 0.231200 0.204707 0.456699
O O16 0.500000 0.309473 0.500000
O O17 0.296603 0.159380 0.726435
#
# Coordination Sequence:
#
# PCOD9120244 Si02
#       8
#     4   4   4   4   4   4   4   4
#     4  10  17  32  61 100 129 161 220 282 341 389
#     4  10  17  33  62  98 131 163 224 283 336 394
#     4  12  27  43  68  95 143 183 233 273 345 414
#     4  11  26  46  65 100 140 187 224 280 341 419
#     4  10  20  36  64  91 133 169 224 283 338 388
#     4   9  20  38  71  98 130 167 224 290 334 393
#     4  11  21  37  66 100 128 171 225 294 334 402
#     4  11  17  37  64  99 125 175 225 282 327 408
#
# _framework density 21.805568000000001
#
# number of rings (size 3 to 8) (size 9 to 14) (size 15 to 20)
#    0.000    1.500    6.250    0.375    3.500    0.500 
#    0.000    3.750    2.750    0.000    0.000    0.000 
#    0.000    0.000    0.000    0.000    0.000    0.000 
#
# Total GULP energy -89224.208773 kJ/mol
# GULP energy per Si atom -5576.513048 kJ/mol
# Density = 2.175594 g / cm^3
# Si number density = 21.805568 Si / 1000 Ang^3
#
#
#
# Elastic Constant Matrix: (Units=GPa)
#
#
# Indices 1 2 3 4 5 6 
#
# 1 140.3863 34.4433 36.2241 -0.0002 13.1178 0.0000
# 2 34.4433 53.0890 20.0500 0.0000 4.8348 -0.0001
# 3 36.2241 20.0500 56.9771 -0.0008 -0.3931 -0.0001
# 4 -0.0002 0.0000 -0.0008 26.3551 -0.0008 -2.3116
# 5 13.1178 4.8348 -0.3931 -0.0008 17.2016 0.0004
# 6 0.0000 -0.0001 -0.0001 -2.3116 0.0004 32.3784
#
#
#
# Elastic Compliance Matrix: (Units=1/GPa)
#
#
# Indices 1 2 3 4 5 6 
#
# 1 0.010016 -0.004005 -0.005004 0.000000 -0.006627 0.000000
# 2 -0.004005 0.024025 -0.005935 0.000000 -0.003834 0.000000
# 3 -0.005004 -0.005935 0.022862 0.000001 0.006007 0.000000
# 4 0.000000 0.000000 0.000001 0.038182 0.000002 0.002726
# 5 -0.006627 -0.003834 0.006007 0.000002 0.064403 -0.000001
# 6 0.000000 0.000000 0.000000 0.002726 -0.000001 0.031079
#
#
# Mechanical properties :
#
#
# Convention : Reuss Voigt Hill
#
# Bulk Modulus (GPa) = 37.01523 47.98747 42.50135
# Shear Modulus (GPa) = 21.79013 25.83601 23.81307
#
# Velocity S-wave (km/s) = 3.16459 3.44588 3.30822
# Velocity P-wave (km/s) = 5.51043 6.15523 5.84173
#
# Compressibility (1/GPa) = 0.02701591
#
# Stress axis : x y z
#
# Youngs Moduli (GPa) = 99.83695 41.62313 43.73999
#
# Poissons Ratio (x) = 0.16670 0.21890
# Poissons Ratio (y) = 0.39984 0.25958
# Poissons Ratio (z) = 0.49963 0.24702
#
# Static dielectric constant tensor:
#      x y z
#    x 1.828180 0.000000 -0.040790 
#    y 0.000000 1.876480 0.000000 
#    z -0.040790 0.000000 1.843800 
# 
# From -- ./inp_files/61686.got.cif
#   From: 2010.05.17/outbox.cif.g08.bks.cpg/sg5_31_cif.got.tgz:61686.got - 2010.06.03 18:56:24.
