data_PCOD9120972
_publ_section_title
;
Structure prediction by ZEFSAII (Michael W. Deem and Ramdas Pophale) SiO2 
 PCOD9120972
Probable space group: C 2
;
_chemical_formula_sum "Si O2"
_cell_formula_units_Z 22
_cell_length_a 8.668322
_cell_length_b 10.135018
_cell_length_c 15.451762
_cell_angle_alpha 90.000000
_cell_angle_beta 40.644973
_cell_angle_gamma 90.000000
_cell_volume 884.230142
_symmetry_space_group_name_H-M "C 2"
_symmetry_group_IT_number 5
_symmetry_cell_setting 'monoclinic'
loop_
_space_group_symop_operation_xyz
x,y,z
-x,y,-z
1/2+x,1/2+y,z
1/2-x,1/2+y,-z
loop_
_atom_site_type_symbol
_atom_site_label
_atom_site_fract_x
_atom_site_fract_y
_atom_site_fract_z
Si Si1 0.000000 0.315331 0.500000
Si Si2 0.309695 0.862074 0.811046
Si Si3 0.973356 0.383559 0.112906
Si Si4 0.824451 0.646045 0.241160
Si Si5 0.652472 0.141548 0.265773
Si Si6 0.685512 0.329875 0.486271
O O1 0.116163 0.215191 0.382672
O O2 0.201698 0.387906 0.471809
O O3 0.308145 0.897802 0.913089
O O4 0.146909 0.742381 0.851853
O O5 0.583123 0.819087 0.673312
O O6 0.275732 0.988443 0.762304
O O7 0.794781 0.498029 0.221203
O O8 0.872623 0.238279 0.170003
O O9 0.000000 0.404097 0.000000
O O10 0.033023 0.651529 0.221997
O O11 0.461445 0.201700 0.415583
O O12 0.500000 0.400138 0.500000
#
# Coordination Sequence:
#
# PCOD9120972 Si02
#       6
#     2   4   4   4   4   4
#     4   8  18  36  62  98 130 154 206 252 310 396
#     4  10  22  41  62  93 126 158 207 254 311 379
#     4  11  24  41  62  87 119 166 216 258 310 367
#     4   9  21  41  63  90 125 159 199 256 316 374
#     4  10  22  40  60  93 126 157 207 256 308 381
#     4  10  18  37  62  93 129 169 192 253 320 379
#
# _framework density 24.880403000000001
#
# number of rings (size 3 to 8) (size 9 to 14) (size 15 to 20)
#    0.000    2.182    1.818    0.000    0.000   10.182 
#   11.455    0.909    0.000    0.000    0.000    0.000 
#    0.000    0.000    0.000    0.000    0.000    0.000 
#
# Total GULP energy -61295.730640 kJ/mol
# GULP energy per Si atom -5572.339149 kJ/mol
# Density = 2.482377 g / cm^3
# Si number density = 24.880403 Si / 1000 Ang^3
#
#
#
# Elastic Constant Matrix: (Units=GPa)
#
#
# Indices 1 2 3 4 5 6 
#
# 1 95.0107 14.5573 24.6251 -0.0001 37.1848 0.0001
# 2 14.5573 117.2116 13.7664 -0.0001 8.6191 0.0000
# 3 24.6251 13.7664 91.6091 -0.0001 33.4676 0.0001
# 4 -0.0001 -0.0001 -0.0001 22.0579 0.0001 3.6767
# 5 37.1848 8.6191 33.4676 0.0001 43.7435 -0.0001
# 6 0.0001 0.0000 0.0001 3.6767 -0.0001 27.0790
#
#
#
# Elastic Compliance Matrix: (Units=1/GPa)
#
#
# Indices 1 2 3 4 5 6 
#
# 1 0.015957 -0.001063 0.001040 0.000000 -0.014150 0.000000
# 2 -0.001063 0.008787 -0.001016 0.000000 -0.000050 0.000000
# 3 0.001040 -0.001016 0.015321 0.000000 -0.012406 0.000000
# 4 0.000000 0.000000 0.000000 0.046385 0.000000 -0.006298
# 5 -0.014150 -0.000050 -0.012406 0.000000 0.044391 0.000000
# 6 0.000000 0.000000 0.000000 -0.006298 0.000000 0.037784
#
#
# Mechanical properties :
#
#
# Convention : Reuss Voigt Hill
#
# Bulk Modulus (GPa) = 26.32588 45.52546 35.92567
# Shear Modulus (GPa) = 27.26788 35.30157 31.28473
#
# Velocity S-wave (km/s) = 3.31412 3.77085 3.54984
# Velocity P-wave (km/s) = 5.02478 6.10709 5.59218
#
# Compressibility (1/GPa) = 0.03798544
#
# Stress axis : x y z
#
# Youngs Moduli (GPa) = 62.66999 113.80865 65.26807
#
# Poissons Ratio (x) = 0.12102 -0.06789
# Poissons Ratio (y) = 0.06664 0.06634
# Poissons Ratio (z) = -0.06519 0.11567
#
# Static dielectric constant tensor:
#      x y z
#    x 2.080940 0.000000 0.002890 
#    y 0.000000 1.942510 0.000000 
#    z 0.002890 0.000000 2.053260 
# 
# From -- ./inp_files/50047.got.cif
#   From: 2010.05.17/outbox.cif.g08.bks.cpg/sg5_26_cif.got.tgz:50047.got - 2010.06.03 18:56:24.
