data_PCOD9120844
_publ_section_title
;
Structure prediction by ZEFSAII (Michael W. Deem and Ramdas Pophale) SiO2 
 PCOD9120844
Probable space group: C 2
;
_chemical_formula_sum "Si O2"
_cell_formula_units_Z 26
_cell_length_a 18.165336
_cell_length_b 16.670065
_cell_length_c 6.542274
_cell_angle_alpha 90.000000
_cell_angle_beta 45.902736
_cell_angle_gamma 90.000000
_cell_volume 1422.755865
_symmetry_space_group_name_H-M "C 2"
_symmetry_group_IT_number 5
_symmetry_cell_setting 'monoclinic'
loop_
_space_group_symop_operation_xyz
x,y,z
-x,y,-z
1/2+x,1/2+y,z
1/2-x,1/2+y,-z
loop_
_atom_site_type_symbol
_atom_site_label
_atom_site_fract_x
_atom_site_fract_y
_atom_site_fract_z
Si Si1 0.401323 0.889550 0.333193
Si Si2 0.000000 0.072132 0.000000
Si Si3 0.697890 0.920334 0.871004
Si Si4 0.618711 0.772538 0.277801
Si Si5 0.607791 0.039966 0.355561
Si Si6 0.321778 0.612170 0.032020
Si Si7 0.091444 0.976398 0.442371
O O1 0.315090 0.918750 0.344655
O O2 0.366768 0.812193 0.527990
O O3 0.421953 0.962572 0.448437
O O4 0.500000 0.874670 0.000000
O O5 0.095888 0.116101 0.936140
O O6 0.945771 0.017940 0.277573
O O7 0.815819 0.917137 0.700356
O O8 0.639612 0.845217 0.081925
O O9 0.654908 0.001079 0.057976
O O10 0.500000 0.748438 0.500000
O O11 0.680241 0.696094 0.084228
O O12 0.500000 0.081160 0.500000
O O13 0.702207 0.085137 0.286863
O O14 0.371091 0.546391 0.784254
O O15 0.000000 0.934369 0.500000
#
# Coordination Sequence:
#
# PCOD9120844 Si02
#       7
#     4   2   4   4   4   4   4
#     4  11  18  33  57  84 106 139 179 225 274 321
#     4  10  18  36  56  76 106 148 186 220 272 324
#     4  10  19  33  55  80 106 140 184 229 273 317
#     4  11  21  34  51  80 113 143 175 221 281 325
#     4  10  19  35  57  81 109 143 184 227 273 319
#     4  10  22  35  53  82 113 146 181 222 273 331
#     4   9  19  35  54  79 106 142 187 228 266 319
#
# _framework density 18.274394000000001
#
# number of rings (size 3 to 8) (size 9 to 14) (size 15 to 20)
#    0.000    1.846    3.077    3.231    0.000    3.692 
#    1.385    0.769    0.000    0.000    0.000    0.000 
#    0.000    0.000    0.000    0.000    0.000    0.000 
#
# Total GULP energy -72377.857349 kJ/mol
# GULP energy per Si atom -5567.527488 kJ/mol
# Density = 1.823280 g / cm^3
# Si number density = 18.274394 Si / 1000 Ang^3
#
#
#
# Elastic Constant Matrix: (Units=GPa)
#
#
# Indices 1 2 3 4 5 6 
#
# 1 142.1223 24.5285 39.5122 0.0000 -5.8324 0.0000
# 2 24.5285 45.4253 9.7608 0.0000 -3.0606 0.0000
# 3 39.5122 9.7608 58.7097 0.0000 0.7022 0.0000
# 4 0.0000 0.0000 0.0000 21.2505 0.0000 -3.0192
# 5 -5.8324 -3.0606 0.7022 0.0000 37.7674 0.0000
# 6 0.0000 0.0000 0.0000 -3.0192 0.0000 10.9251
#
#
#
# Elastic Compliance Matrix: (Units=1/GPa)
#
#
# Indices 1 2 3 4 5 6 
#
# 1 0.009302 -0.003724 -0.005656 0.000000 0.001240 0.000000
# 2 -0.003724 0.024461 -0.001578 0.000000 0.001436 0.000000
# 3 -0.005656 -0.001578 0.021119 0.000000 -0.001394 0.000000
# 4 0.000000 0.000000 0.000000 0.048981 0.000000 0.013536
# 5 0.001240 0.001436 -0.001394 0.000000 0.026812 0.000000
# 6 0.000000 0.000000 0.000000 0.013536 0.000000 0.095273
#
#
# Mechanical properties :
#
#
# Convention : Reuss Voigt Hill
#
# Bulk Modulus (GPa) = 30.33429 43.76224 37.04827
# Shear Modulus (GPa) = 19.31606 25.48566 22.40086
#
# Velocity S-wave (km/s) = 3.25468 3.73850 3.50495
# Velocity P-wave (km/s) = 5.54611 6.52951 6.05780
#
# Compressibility (1/GPa) = 0.03296599
#
# Stress axis : x y z
#
# Youngs Moduli (GPa) = 107.50000 40.88163 47.35155
#
# Poissons Ratio (x) = 0.15225 0.26783
# Poissons Ratio (y) = 0.40034 0.07470
# Poissons Ratio (z) = 0.60805 0.06449
#
# Static dielectric constant tensor:
#      x y z
#    x 1.709310 0.000000 -0.004160 
#    y 0.000000 1.599520 0.000000 
#    z -0.004160 0.000000 1.637440 
# 
# From -- ./inp_files/7155.got.cif
#   From: 2010.05.17/outbox.cif.g08.bks.cpg/sg5_4_cif.got.tgz:7155.got - 2010.06.03 18:56:24.
