data_PCOD9120476
_publ_section_title
;
Structure prediction by ZEFSAII (Michael W. Deem and Ramdas Pophale) SiO2 
 PCOD9120476
Probable space group: C 2
;
_chemical_formula_sum "Si O2"
_cell_formula_units_Z 26
_cell_length_a 16.259827
_cell_length_b 6.907323
_cell_length_c 9.133752
_cell_angle_alpha 90.000000
_cell_angle_beta 74.625473
_cell_angle_gamma 90.000000
_cell_volume 989.117876
_symmetry_space_group_name_H-M "C 2"
_symmetry_group_IT_number 5
_symmetry_cell_setting 'monoclinic'
loop_
_space_group_symop_operation_xyz
x,y,z
-x,y,-z
1/2+x,1/2+y,z
1/2-x,1/2+y,-z
loop_
_atom_site_type_symbol
_atom_site_label
_atom_site_fract_x
_atom_site_fract_y
_atom_site_fract_z
Si Si1 0.000000 0.701370 0.500000
Si Si2 0.753806 0.870810 0.832233
Si Si3 0.916525 0.313521 0.617888
Si Si4 0.917387 0.272567 0.950613
Si Si5 0.633002 0.192719 0.987886
Si Si6 0.275243 0.938251 0.476802
Si Si7 0.380169 0.314034 0.316980
O O1 0.936605 0.546146 0.609191
O O2 0.957125 0.825132 0.393121
O O3 0.764798 0.854686 0.654335
O O4 0.719443 0.085023 0.888280
O O5 0.671102 0.743124 0.920736
O O6 0.834624 0.815752 0.891357
O O7 0.910063 0.227103 0.782436
O O8 0.835269 0.304015 0.550704
O O9 0.000000 0.232390 0.500000
O O10 0.923712 0.508825 0.944334
O O11 0.000000 0.201382 0.000000
O O12 0.597332 0.302485 0.863715
O O13 0.193403 0.968925 0.618227
O O14 0.335929 0.108620 0.387419
#
# Coordination Sequence:
#
# PCOD9120476 Si02
#       7
#     2   4   4   4   4   4   4
#     4   8  18  30  52  76 104 128 178 214 254 306
#     4   9  20  32  50  79 107 133 178 210 260 307
#     4   9  17  30  51  76 102 133 175 213 257 298
#     4  10  18  31  53  76 105 133 174 219 257 302
#     4   9  20  33  50  78 105 136 171 214 255 312
#     4  10  20  32  53  80 103 139 176 216 256 315
#     4  10  19  35  53  79 106 135 177 218 259 310
#
# _framework density 26.286048000000001
#
# number of rings (size 3 to 8) (size 9 to 14) (size 15 to 20)
#    1.385    1.231    0.000    2.769    4.308    0.000 
#    0.000    0.000    1.692    0.923    0.000    0.000 
#    0.000    0.000    0.000    0.000    0.000    0.000 
#
# Total GULP energy -72606.787477 kJ/mol
# GULP energy per Si atom -5585.137498 kJ/mol
# Density = 2.622622 g / cm^3
# Si number density = 26.286048 Si / 1000 Ang^3
#
#
#
# Elastic Constant Matrix: (Units=GPa)
#
#
# Indices 1 2 3 4 5 6 
#
# 1 77.7350 16.4375 45.3225 0.0000 30.8747 0.0000
# 2 16.4375 75.1576 30.4636 0.0000 12.7892 0.0000
# 3 45.3225 30.4636 194.8420 0.0000 28.3779 0.0000
# 4 0.0000 0.0000 0.0000 24.9826 0.0000 -0.8486
# 5 30.8747 12.7892 28.3779 0.0000 55.8463 0.0000
# 6 0.0000 0.0000 0.0000 -0.8486 0.0000 33.0369
#
#
#
# Elastic Compliance Matrix: (Units=1/GPa)
#
#
# Indices 1 2 3 4 5 6 
#
# 1 0.018060 -0.001421 -0.002778 0.000000 -0.008248 0.000000
# 2 -0.001421 0.014595 -0.001705 0.000000 -0.001690 0.000000
# 3 -0.002778 -0.001705 0.006225 0.000000 -0.001237 0.000000
# 4 0.000000 0.000000 0.000000 0.040063 0.000000 0.001029
# 5 -0.008248 -0.001690 -0.001237 0.000000 0.023482 0.000000
# 6 0.000000 0.000000 0.000000 0.001029 0.000000 0.030296
#
#
# Mechanical properties :
#
#
# Convention : Reuss Voigt Hill
#
# Bulk Modulus (GPa) = 36.93683 59.13132 48.03408
# Shear Modulus (GPa) = 32.56237 39.80722 36.18479
#
# Velocity S-wave (km/s) = 3.52343 3.89573 3.71425
# Velocity P-wave (km/s) = 5.53490 6.54063 6.05867
#
# Compressibility (1/GPa) = 0.02707325
#
# Stress axis : x y z
#
# Youngs Moduli (GPa) = 55.37152 68.51699 160.63533
#
# Poissons Ratio (x) = 0.09733 0.44618
# Poissons Ratio (y) = 0.07866 0.27393
# Poissons Ratio (z) = 0.15380 0.11684
#
# Static dielectric constant tensor:
#      x y z
#    x 2.024890 0.000000 0.001670 
#    y 0.000000 2.169780 0.000000 
#    z 0.001670 0.000000 1.964390 
# 
# From -- ./inp_files/26777.got.cif
#   From: 2010.05.17/outbox.cif.g08.bks.cpg/sg5_14_cif.got.tgz:26777.got - 2010.06.03 18:56:24.
