data_PCOD9120328
_publ_section_title
;
Structure prediction by ZEFSAII (Michael W. Deem and Ramdas Pophale) SiO2 
 PCOD9120328
Probable space group: C 2
;
_chemical_formula_sum "Si O2"
_cell_formula_units_Z 32
_cell_length_a 12.289064
_cell_length_b 18.939336
_cell_length_c 9.091805
_cell_angle_alpha 90.000000
_cell_angle_beta 51.905677
_cell_angle_gamma 90.000000
_cell_volume 1665.352902
_symmetry_space_group_name_H-M "C 2"
_symmetry_group_IT_number 5
_symmetry_cell_setting 'monoclinic'
loop_
_space_group_symop_operation_xyz
x,y,z
-x,y,-z
1/2+x,1/2+y,z
1/2-x,1/2+y,-z
loop_
_atom_site_type_symbol
_atom_site_label
_atom_site_fract_x
_atom_site_fract_y
_atom_site_fract_z
Si Si1 0.900589 0.036050 0.724264
Si Si2 0.861640 0.185854 0.704836
Si Si3 0.834155 0.338278 0.793210
Si Si4 0.587938 0.145886 0.777573
Si Si5 0.938700 0.905758 0.888683
Si Si6 0.422109 0.279884 0.410512
Si Si7 0.624984 0.989525 0.791446
Si Si8 0.846299 0.357964 0.432468
O O1 0.891243 0.117825 0.780395
O O2 0.751216 0.010749 0.792261
O O3 0.000000 0.036126 0.500000
O O4 0.955070 0.980339 0.795428
O O5 0.801378 0.255066 0.830965
O O6 0.747623 0.159900 0.684484
O O7 0.000000 0.206439 0.500000
O O8 0.824537 0.358061 0.627389
O O9 0.990028 0.344991 0.719873
O O10 0.722553 0.384934 0.969100
O O11 0.552083 0.204312 0.687197
O O12 0.574974 0.062524 0.755248
O O13 0.500000 0.158072 0.000000
O O14 0.014867 0.843198 0.739137
O O15 0.000000 0.908090 0.000000
O O16 0.500000 0.282133 0.500000
O O17 0.258504 0.300110 0.548140
O O18 0.676321 0.931863 0.632196
O O19 0.500000 0.963887 0.000000
#
# Coordination Sequence:
#
# PCOD9120328 Si02
#       8
#     4   4   4   4   4   4   4   4
#     4  10  22  36  61  87 115 155 194 251 295 352
#     4  10  17  36  61  83 107 151 203 234 285 354
#     4  11  21  36  63  85 116 155 202 244 286 361
#     4  10  20  38  62  84 115 158 200 242 292 360
#     4  12  22  37  60  90 121 156 203 248 302 357
#     4  12  23  38  61  91 124 155 201 254 304 351
#     4  10  21  38  60  84 119 157 200 238 299 363
#     4  11  21  37  59  89 115 154 200 245 293 351
#
# _framework density 19.215147000000002
#
# number of rings (size 3 to 8) (size 9 to 14) (size 15 to 20)
#    0.000    1.250    3.750    3.750    0.000    0.000 
#    2.250    0.000    0.000    2.250    0.000    0.000 
#    0.000    0.000    0.000    0.000    0.000    0.000 
#
# Total GULP energy -89308.617362 kJ/mol
# GULP energy per Si atom -5581.788585 kJ/mol
# Density = 1.917141 g / cm^3
# Si number density = 19.215147 Si / 1000 Ang^3
#
#
#
# Elastic Constant Matrix: (Units=GPa)
#
#
# Indices 1 2 3 4 5 6 
#
# 1 71.5706 8.7435 22.3717 0.0000 4.3970 0.0000
# 2 8.7435 127.0099 28.5290 0.0000 33.8828 0.0000
# 3 22.3717 28.5290 52.9268 0.0000 -6.2419 0.0000
# 4 0.0000 0.0000 0.0000 15.9676 0.0000 2.5008
# 5 4.3970 33.8828 -6.2419 0.0000 35.2157 0.0000
# 6 0.0000 0.0000 0.0000 2.5008 0.0000 30.2392
#
#
#
# Elastic Compliance Matrix: (Units=1/GPa)
#
#
# Indices 1 2 3 4 5 6 
#
# 1 0.016946 0.002591 -0.009298 0.000000 -0.006257 0.000000
# 2 0.002591 0.014403 -0.010756 0.000000 -0.016088 0.000000
# 3 -0.009298 -0.010756 0.030619 0.000000 0.016937 0.000000
# 4 0.000000 0.000000 0.000000 0.063449 0.000000 -0.005247
# 5 -0.006257 -0.016088 0.016937 0.000000 0.047658 0.000000
# 6 0.000000 0.000000 0.000000 -0.005247 0.000000 0.033504
#
#
# Mechanical properties :
#
#
# Convention : Reuss Voigt Hill
#
# Bulk Modulus (GPa) = 36.97785 41.19954 39.08869
# Shear Modulus (GPa) = 19.95860 29.07538 24.51699
#
# Velocity S-wave (km/s) = 3.22637 3.89414 3.57588
# Velocity P-wave (km/s) = 5.75892 6.45808 6.11850
#
# Compressibility (1/GPa) = 0.02704322
#
# Stress axis : x y z
#
# Youngs Moduli (GPa) = 59.00981 69.43092 32.65919
#
# Poissons Ratio (x) = -0.17989 0.30365
# Poissons Ratio (y) = -0.15289 0.35128
# Poissons Ratio (z) = 0.54865 0.74680
#
# Static dielectric constant tensor:
#      x y z
#    x 1.686590 0.000000 -0.055040 
#    y 0.000000 1.709070 0.000000 
#    z -0.055040 0.000000 1.700970 
# 
# From -- ./inp_files/21960.got.cif
#   From: 2010.05.17/outbox.cif.g08.bks.cpg/sg5_11_cif.got.tgz:21960.got - 2010.06.03 18:56:24.
