data_PCOD9120075
_publ_section_title
;
Structure prediction by ZEFSAII (Michael W. Deem and Ramdas Pophale) SiO2 
 PCOD9120075
Probable space group: C 2
;
_chemical_formula_sum "Si O2"
_cell_formula_units_Z 32
_cell_length_a 16.408924
_cell_length_b 21.456985
_cell_length_c 8.918766
_cell_angle_alpha 90.000000
_cell_angle_beta 149.780608
_cell_angle_gamma 90.000000
_cell_volume 1580.488104
_symmetry_space_group_name_H-M "C 2"
_symmetry_group_IT_number 5
_symmetry_cell_setting 'monoclinic'
loop_
_space_group_symop_operation_xyz
x,y,z
-x,y,-z
1/2+x,1/2+y,z
1/2-x,1/2+y,-z
loop_
_atom_site_type_symbol
_atom_site_label
_atom_site_fract_x
_atom_site_fract_y
_atom_site_fract_z
Si Si1 0.829616 0.517840 0.551487
Si Si2 0.390071 0.077924 0.173540
Si Si3 0.004346 0.899559 0.191691
Si Si4 0.322483 0.688882 0.283145
Si Si5 0.840536 0.375221 0.663208
Si Si6 0.328728 0.833966 0.303831
Si Si7 0.592075 0.624242 0.294616
Si Si8 0.125454 0.020051 0.926036
O O1 0.843383 0.450880 0.650379
O O2 0.721903 0.571238 0.456817
O O3 0.999974 0.548617 0.780741
O O4 0.738695 0.504508 0.249054
O O5 0.500000 0.084206 0.500000
O O6 0.310564 0.143233 0.999940
O O7 0.243824 0.030170 0.976138
O O8 0.170510 0.862016 0.475642
O O9 0.007078 0.966203 0.278180
O O10 0.839816 0.869739 0.993927
O O11 0.000000 0.907171 0.000000
O O12 0.500000 0.673871 0.500000
O O13 0.298777 0.761839 0.218044
O O14 0.330941 0.674759 0.474294
O O15 0.846250 0.344792 0.509028
O O16 0.000000 0.354492 0.000000
O O17 0.500000 0.854191 0.500000
O O18 0.457551 0.585671 0.172300
O O19 0.500000 0.648057 0.000000
#
# Coordination Sequence:
#
# PCOD9120075 Si02
#       8
#     4   4   4   4   4   4   4   4
#     4  10  20  34  57  95 129 157 198 263 319 385
#     4  10  23  36  60  96 129 166 205 261 323 378
#     4  10  18  38  63  88 124 169 208 253 315 383
#     4  11  23  44  63  91 128 169 217 262 310 385
#     4  11  23  39  62  95 130 160 208 273 321 371
#     4  10  24  43  67  86 118 178 223 254 311 382
#     4  10  20  36  62  92 124 169 201 254 324 383
#     4  10  16  34  63  88 122 164 204 243 326 385
#
# _framework density 20.24691
#
# number of rings (size 3 to 8) (size 9 to 14) (size 15 to 20)
#    0.000    1.750    5.000    0.375    3.500    0.500 
#    6.750    3.125    0.000    0.000    0.000    0.000 
#    0.000    0.000    0.000    0.000    0.000    0.000 
#
# Total GULP energy -89241.329484 kJ/mol
# GULP energy per Si atom -5577.583093 kJ/mol
# Density = 2.020083 g / cm^3
# Si number density = 20.246910 Si / 1000 Ang^3
#
#
#
# Elastic Constant Matrix: (Units=GPa)
#
#
# Indices 1 2 3 4 5 6 
#
# 1 74.9169 19.3038 28.3938 0.0000 33.4791 0.0000
# 2 19.3038 40.2851 9.6030 0.0000 8.0473 0.0000
# 3 28.3938 9.6030 66.2119 0.0000 24.0163 0.0000
# 4 0.0000 0.0000 0.0000 25.3146 0.0000 5.3852
# 5 33.4791 8.0473 24.0163 0.0000 37.0163 0.0000
# 6 0.0000 0.0000 0.0000 5.3852 0.0000 21.2063
#
#
#
# Elastic Compliance Matrix: (Units=1/GPa)
#
#
# Indices 1 2 3 4 5 6 
#
# 1 0.024800 -0.007441 -0.002624 0.000000 -0.019110 0.000000
# 2 -0.007441 0.028440 -0.001481 0.000000 0.001507 0.000000
# 3 -0.002624 -0.001481 0.020225 0.000000 -0.010427 0.000000
# 4 0.000000 0.000000 0.000000 0.041759 0.000000 -0.010604
# 5 -0.019110 0.001507 -0.010427 0.000000 0.050736 0.000000
# 6 0.000000 0.000000 0.000000 -0.010604 0.000000 0.049849
#
#
# Mechanical properties :
#
#
# Convention : Reuss Voigt Hill
#
# Bulk Modulus (GPa) = 19.85168 32.89056 26.37112
# Shear Modulus (GPa) = 19.55483 24.98167 22.26825
#
# Velocity S-wave (km/s) = 3.11113 3.51643 3.31997
# Velocity P-wave (km/s) = 4.76777 5.72425 5.26776
#
# Compressibility (1/GPa) = 0.05037357
#
# Stress axis : x y z
#
# Youngs Moduli (GPa) = 40.32302 35.16134 49.44339
#
# Poissons Ratio (x) = 0.26162 0.12976
# Poissons Ratio (y) = 0.30003 0.07322
# Poissons Ratio (z) = 0.10582 0.05207
#
# Static dielectric constant tensor:
#      x y z
#    x 1.725430 0.000000 -0.000010 
#    y 0.000000 1.702160 0.000000 
#    z -0.000010 0.000000 1.776780 
# 
# From -- ./inp_files/25681.got.cif
#   From: 2010.05.17/outbox.cif.g08.bks.cpg/sg5_13_cif.got.tgz:25681.got - 2010.06.03 18:56:24.
