data_PCOD9120550
_publ_section_title
;
Structure prediction by ZEFSAII (Michael W. Deem and Ramdas Pophale) SiO2 
 PCOD9120550
Probable space group: C 2
;
_chemical_formula_sum "Si O2"
_cell_formula_units_Z 32
_cell_length_a 11.440823
_cell_length_b 22.488542
_cell_length_c 16.970949
_cell_angle_alpha 90.000000
_cell_angle_beta 157.250437
_cell_angle_gamma 90.000000
_cell_volume 1688.508605
_symmetry_space_group_name_H-M "C 2"
_symmetry_group_IT_number 5
_symmetry_cell_setting 'monoclinic'
loop_
_space_group_symop_operation_xyz
x,y,z
-x,y,-z
1/2+x,1/2+y,z
1/2-x,1/2+y,-z
loop_
_atom_site_type_symbol
_atom_site_label
_atom_site_fract_x
_atom_site_fract_y
_atom_site_fract_z
Si Si1 0.014540 0.229540 0.679558
Si Si2 0.820352 0.030596 0.317196
Si Si3 0.282067 0.321186 0.618297
Si Si4 0.088018 0.725691 0.923101
Si Si5 0.221268 0.597192 0.934034
Si Si6 0.329584 0.522625 0.698696
Si Si7 0.675721 0.431989 0.817096
Si Si8 0.705750 0.107822 0.473163
O O1 0.284863 0.212716 0.786206
O O2 0.850006 0.283980 0.536325
O O3 0.778944 0.175517 0.538848
O O4 0.166130 0.243123 0.857872
O O5 0.514219 0.059568 0.158185
O O6 0.000000 0.000700 0.500000
O O7 0.026470 0.085173 0.417347
O O8 0.818177 0.982157 0.247528
O O9 0.497805 0.277246 0.804814
O O10 0.445007 0.378192 0.683394
O O11 0.000000 0.336703 0.500000
O O12 0.201538 0.665202 0.952012
O O13 0.092043 0.597834 0.764890
O O14 0.534667 0.563431 0.147243
O O15 0.578918 0.473378 0.830979
O O16 0.256936 0.568361 0.582267
O O17 0.000000 0.492483 0.500000
O O18 0.000000 0.403367 0.000000
#
# Coordination Sequence:
#
# PCOD9120550 Si02
#       8
#     4   4   4   4   4   4   4   4
#     4  10  18  32  57  90 120 155 202 245 295 358
#     4   9  19  33  59  96 118 147 196 261 303 347
#     4  10  22  39  58  87 122 162 202 252 301 348
#     4  10  19  31  60  92 120 155 201 251 297 358
#     4  11  18  33  61  93 123 150 195 253 304 363
#     4  11  24  39  58  89 124 157 193 254 316 358
#     4  11  22  42  64  83 113 163 213 246 299 369
#     4  10  19  31  59  93 123 150 192 243 309 363
#
# _framework density 18.951635
#
# number of rings (size 3 to 8) (size 9 to 14) (size 15 to 20)
#    0.000    1.750    5.000    0.375    0.000    0.500 
#    2.250    1.250    0.000    3.000    0.000    0.000 
#    0.000    0.000    0.000    0.000    0.000    0.000 
#
# Total GULP energy -89068.100193 kJ/mol
# GULP energy per Si atom -5566.756262 kJ/mol
# Density = 1.890850 g / cm^3
# Si number density = 18.951635 Si / 1000 Ang^3
#
#
#
# Elastic Constant Matrix: (Units=GPa)
#
#
# Indices 1 2 3 4 5 6 
#
# 1 55.1595 29.1892 34.0980 -0.0071 -4.3383 0.0012
# 2 29.1892 95.8936 40.6181 0.0112 -1.3812 -0.0058
# 3 34.0980 40.6181 104.0984 0.0689 -14.3868 -0.0555
# 4 -0.0071 0.0112 0.0689 16.9443 0.0009 11.0090
# 5 -4.3383 -1.3812 -14.3868 0.0009 32.2637 -0.0165
# 6 0.0012 -0.0058 -0.0555 11.0090 -0.0165 -1.6456
#
#
#
# Elastic Compliance Matrix: (Units=1/GPa)
#
#
# Indices 1 2 3 4 5 6 
#
# 1 0.024491 -0.004880 -0.006065 -0.000021 0.000380 0.000092
# 2 -0.004880 0.013558 -0.003945 -0.000011 -0.001835 0.000025
# 3 -0.006065 -0.003945 0.013850 0.000051 0.005191 -0.000166
# 4 -0.000021 -0.000011 0.000051 0.011039 0.000057 0.073845
# 5 0.000380 -0.001835 0.005191 0.000057 0.033282 -0.000121
# 6 0.000092 0.000025 -0.000166 0.073845 -0.000121 -0.113656
#
#
# Mechanical properties :
#
#
# Convention : Reuss Voigt Hill
#
# Bulk Modulus (GPa) = 45.21363 51.44022 48.32692
# Shear Modulus (GPa) = 253.56927 19.59556 136.58241
#
# Velocity S-wave (km/s) = 11.57966 3.21904 8.49855
# Velocity P-wave (km/s) = 14.23706 6.40454 11.03884
#
# Compressibility (1/GPa) = 0.02211722
#
# Stress axis : x y z
#
# Youngs Moduli (GPa) = 40.83120 73.75454 72.20289
#
# Poissons Ratio (x) = 0.35994 0.43794
# Poissons Ratio (y) = 0.19927 0.28487
# Poissons Ratio (z) = 0.24766 0.29099
#
# Static dielectric constant tensor:
#      x y z
#    x 1.688490 -0.000010 0.012420 
#    y -0.000010 1.631060 0.000000 
#    z 0.012420 0.000000 1.733020 
# 
# From -- ./inp_files/60878.got.cif
#   From: 2010.05.17/outbox.cif.g08.bks.cpg/sg5_31_cif.got.tgz:60878.got - 2010.06.03 18:56:24.
