data_PCOD9120419
_publ_section_title
;
Structure prediction by ZEFSAII (Michael W. Deem and Ramdas Pophale) SiO2 
 PCOD9120419
Probable space group: C 2
;
_chemical_formula_sum "Si O2"
_cell_formula_units_Z 26
_cell_length_a 19.622470
_cell_length_b 7.551348
_cell_length_c 8.025986
_cell_angle_alpha 90.000000
_cell_angle_beta 60.955735
_cell_angle_gamma 90.000000
_cell_volume 1039.703875
_symmetry_space_group_name_H-M "C 2"
_symmetry_group_IT_number 5
_symmetry_cell_setting 'monoclinic'
loop_
_space_group_symop_operation_xyz
x,y,z
-x,y,-z
1/2+x,1/2+y,z
1/2-x,1/2+y,-z
loop_
_atom_site_type_symbol
_atom_site_label
_atom_site_fract_x
_atom_site_fract_y
_atom_site_fract_z
Si Si1 0.150885 0.335120 0.489340
Si Si2 0.500000 0.493598 0.500000
Si Si3 0.702205 0.202817 0.554764
Si Si4 0.494960 0.963117 0.705777
Si Si5 0.451799 0.324851 0.206073
Si Si6 0.329265 0.009643 0.892515
Si Si7 0.330448 0.395462 0.759008
O O1 0.211532 0.191966 0.476281
O O2 0.172607 0.503670 0.576956
O O3 0.173154 0.409982 0.282323
O O4 0.058648 0.306436 0.623616
O O5 0.473295 0.407648 0.357178
O O6 0.405820 0.526236 0.664844
O O7 0.639286 0.314726 0.734053
O O8 0.692855 0.297607 0.386768
O O9 0.500000 0.019905 0.500000
O O10 0.408453 0.922944 0.869279
O O11 0.523109 0.122397 0.786453
O O12 0.500000 0.405826 0.000000
O O13 0.348923 0.218244 0.846369
O O14 0.247640 0.986103 0.079709
#
# Coordination Sequence:
#
# PCOD9120419 Si02
#       7
#     4   2   4   4   4   4   4
#     4   9  19  34  57  80 117 150 189 243 295 341
#     4  10  18  38  54  80 124 148 186 254 278 342
#     4   9  20  35  51  84 116 147 184 245 297 337
#     4   9  16  34  54  78 114 150 190 243 285 333
#     4  10  18  29  56  82 105 146 198 232 280 344
#     4  10  20  34  61  85 109 156 198 239 290 357
#     4  10  21  36  61  83 119 149 193 247 298 340
#
# _framework density 25.007121999999999
#
# number of rings (size 3 to 8) (size 9 to 14) (size 15 to 20)
#    0.000    2.462    2.308    1.846    2.154    3.692 
#    0.000    0.000   11.846    0.000    0.000    0.000 
#    0.000    0.000    0.000    0.000    0.000    0.000 
#
# Total GULP energy -72426.767364 kJ/mol
# GULP energy per Si atom -5571.289797 kJ/mol
# Density = 2.495020 g / cm^3
# Si number density = 25.007122 Si / 1000 Ang^3
#
#
#
# Elastic Constant Matrix: (Units=GPa)
#
#
# Indices 1 2 3 4 5 6 
#
# 1 110.3071 2.8594 38.7771 0.0000 -44.8889 0.0000
# 2 2.8594 71.4785 12.5319 0.0000 -10.4651 0.0000
# 3 38.7771 12.5319 111.5780 0.0000 -46.2174 0.0000
# 4 0.0000 0.0000 0.0000 24.3935 0.0000 -6.7313
# 5 -44.8889 -10.4651 -46.2174 0.0000 57.1729 0.0000
# 6 0.0000 0.0000 0.0000 -6.7313 0.0000 4.4550
#
#
#
# Elastic Compliance Matrix: (Units=1/GPa)
#
#
# Indices 1 2 3 4 5 6 
#
# 1 0.013415 0.001063 -0.000508 0.000000 0.010316 0.000000
# 2 0.001063 0.014506 -0.000832 0.000000 0.002818 0.000000
# 3 -0.000508 -0.000832 0.013537 0.000000 0.010391 0.000000
# 4 0.000000 0.000000 0.000000 0.070310 0.000000 0.106237
# 5 0.010316 0.002818 0.010391 0.000000 0.034506 0.000000
# 6 0.000000 0.000000 0.000000 0.106237 0.000000 0.384991
#
#
# Mechanical properties :
#
#
# Convention : Reuss Voigt Hill
#
# Bulk Modulus (GPa) = 24.44777 44.63336 34.54057
# Shear Modulus (GPa) = 9.16668 33.15063 21.15865
#
# Velocity S-wave (km/s) = 1.91666 3.64489 2.91194
# Velocity P-wave (km/s) = 3.83349 5.96663 5.01479
#
# Compressibility (1/GPa) = 0.04090352
#
# Stress axis : x y z
#
# Youngs Moduli (GPa) = 74.54415 68.93694 73.87314
#
# Poissons Ratio (x) = -0.07327 0.03755
# Poissons Ratio (y) = -0.07923 0.06143
# Poissons Ratio (z) = 0.03790 0.05733
#
# Static dielectric constant tensor:
#      x y z
#    x 2.075480 0.000000 -0.062050 
#    y 0.000000 2.044650 0.000000 
#    z -0.062050 0.000000 2.011840 
# 
# From -- ./inp_files/26992.got.cif
#   From: 2010.05.17/outbox.cif.g08.bks.cpg/sg5_14_cif.got.tgz:26992.got - 2010.06.03 18:56:24.
