data_PCOD9120616
_publ_section_title
;
Structure prediction by ZEFSAII (Michael W. Deem and Ramdas Pophale) SiO2 
 PCOD9120616
Probable space group: C 2
;
_chemical_formula_sum "Si O2"
_cell_formula_units_Z 30
_cell_length_a 12.342162
_cell_length_b 7.575367
_cell_length_c 13.776008
_cell_angle_alpha 90.000000
_cell_angle_beta 90.036831
_cell_angle_gamma 90.000000
_cell_volume 1288.006981
_symmetry_space_group_name_H-M "C 2"
_symmetry_group_IT_number 5
_symmetry_cell_setting 'monoclinic'
loop_
_space_group_symop_operation_xyz
x,y,z
-x,y,-z
1/2+x,1/2+y,z
1/2-x,1/2+y,-z
loop_
_atom_site_type_symbol
_atom_site_label
_atom_site_fract_x
_atom_site_fract_y
_atom_site_fract_z
Si Si1 0.500000 0.262290 0.500000
Si Si2 0.728722 0.133105 0.867003
Si Si3 0.532073 0.599921 0.105392
Si Si4 0.289486 0.295366 0.780491
Si Si5 0.099345 0.697122 0.054269
Si Si6 0.880796 0.039543 0.622655
Si Si7 0.903653 0.121155 0.300182
Si Si8 0.657145 0.224828 0.656779
O O1 0.408060 0.393831 0.542367
O O2 0.558212 0.160502 0.588372
O O3 0.854903 0.187226 0.860711
O O4 0.660224 0.177387 0.771159
O O5 0.732969 0.920406 0.860813
O O6 0.683882 0.204922 0.966830
O O7 0.554933 0.390690 0.085835
O O8 0.441979 0.615587 0.187804
O O9 0.500000 0.671041 0.000000
O O10 0.345559 0.141394 0.843658
O O11 0.371116 0.418153 0.719777
O O12 0.199242 0.246657 0.701922
O O13 0.000000 0.600883 0.000000
O O14 0.770940 0.150755 0.615537
O O15 0.988132 0.158020 0.638202
O O16 0.859440 0.934322 0.337157
#
# Coordination Sequence:
#
# PCOD9120616 Si02
#       8
#     2   4   4   4   4   4   4   4
#     4  10  24  38  74  90 126 164 206 270 330 386
#     4  10  20  37  59  90 135 164 215 263 302 376
#     4  10  18  33  58  87 124 171 213 246 302 367
#     4  10  22  40  61  94 130 167 219 258 306 384
#     4  10  19  33  56  88 128 175 205 253 301 362
#     4  10  22  46  63  98 126 161 214 266 319 383
#     4  11  20  40  66  88 123 176 199 262 320 362
#     4  10  21  41  67  93 123 166 208 259 326 380
#
# _framework density 23.291799000000001
#
# number of rings (size 3 to 8) (size 9 to 14) (size 15 to 20)
#    0.000    1.867    4.000    2.400    1.867    3.200 
#    2.400    6.000    0.000    1.600    0.000    0.000 
#    0.000    0.000    0.000    0.000    0.000    0.000 
#
# Total GULP energy -83567.701534 kJ/mol
# GULP energy per Si atom -5571.180102 kJ/mol
# Density = 2.323879 g / cm^3
# Si number density = 23.291799 Si / 1000 Ang^3
#
#
#
# Elastic Constant Matrix: (Units=GPa)
#
#
# Indices 1 2 3 4 5 6 
#
# 1 97.9812 15.2974 32.3421 0.0000 22.0072 0.0000
# 2 15.2974 27.5441 1.3112 0.0000 1.7427 0.0000
# 3 32.3421 1.3112 112.3317 0.0000 20.1439 0.0000
# 4 0.0000 0.0000 0.0000 17.0437 0.0000 -1.3882
# 5 22.0072 1.7427 20.1439 0.0000 54.3704 0.0000
# 6 0.0000 0.0000 0.0000 -1.3882 0.0000 24.1786
#
#
#
# Elastic Compliance Matrix: (Units=1/GPa)
#
#
# Indices 1 2 3 4 5 6 
#
# 1 0.013174 -0.006921 -0.002995 0.000000 -0.004001 0.000000
# 2 -0.006921 0.040020 0.001342 0.000000 0.001021 0.000000
# 3 -0.002995 0.001342 0.010218 0.000000 -0.002617 0.000000
# 4 0.000000 0.000000 0.000000 0.058948 0.000000 0.003385
# 5 -0.004001 0.001021 -0.002617 0.000000 0.020948 0.000000
# 6 0.000000 0.000000 0.000000 0.003385 0.000000 0.041553
#
#
# Mechanical properties :
#
#
# Convention : Reuss Voigt Hill
#
# Bulk Modulus (GPa) = 21.61413 37.30650 29.46032
# Shear Modulus (GPa) = 22.99590 31.71231 27.35410
#
# Velocity S-wave (km/s) = 3.14554 3.69388 3.43068
# Velocity P-wave (km/s) = 4.74261 5.85191 5.32622
#
# Compressibility (1/GPa) = 0.04626602
#
# Stress axis : x y z
#
# Youngs Moduli (GPa) = 75.90916 24.98722 97.86687
#
# Poissons Ratio (x) = 0.17293 0.29308
# Poissons Ratio (y) = 0.52534 -0.13136
# Poissons Ratio (z) = 0.22732 -0.03354
#
# Static dielectric constant tensor:
#      x y z
#    x 1.995240 0.000000 0.086660 
#    y 0.000000 1.918590 0.000000 
#    z 0.086660 0.000000 1.969580 
# 
# From -- ./inp_files/52279.got.cif
#   From: 2010.05.17/outbox.cif.g08.bks.cpg/sg5_27_cif.got.tgz:52279.got - 2010.06.03 18:56:24.
