data_PCOD9120100
_publ_section_title
;
Structure prediction by ZEFSAII (Michael W. Deem and Ramdas Pophale) SiO2 
 PCOD9120100
Probable space group: C 2
;
_chemical_formula_sum "Si O2"
_cell_formula_units_Z 30
_cell_length_a 23.006561
_cell_length_b 8.919551
_cell_length_c 7.133286
_cell_angle_alpha 90.000000
_cell_angle_beta 49.637168
_cell_angle_gamma 90.000000
_cell_volume 1115.361636
_symmetry_space_group_name_H-M "C 2"
_symmetry_group_IT_number 5
_symmetry_cell_setting 'monoclinic'
loop_
_space_group_symop_operation_xyz
x,y,z
-x,y,-z
1/2+x,1/2+y,z
1/2-x,1/2+y,-z
loop_
_atom_site_type_symbol
_atom_site_label
_atom_site_fract_x
_atom_site_fract_y
_atom_site_fract_z
Si Si1 0.628030 0.954620 0.782832
Si Si2 0.139088 0.685760 0.443860
Si Si3 0.840605 0.012559 0.481248
Si Si4 0.588055 0.718405 0.381668
Si Si5 0.400229 0.505961 0.974699
Si Si6 0.500000 0.736284 0.000000
Si Si7 0.524204 0.183655 0.171419
Si Si8 0.782960 0.353704 0.083771
O O1 0.563067 0.861490 0.814071
O O2 0.679524 0.835201 0.786996
O O3 0.660516 0.070059 0.563726
O O4 0.587311 0.053194 0.030912
O O5 0.120347 0.851949 0.564516
O O6 0.216569 0.732873 0.175142
O O7 0.053788 0.645613 0.552972
O O8 0.763346 0.003757 0.763003
O O9 0.892155 0.140127 0.462873
O O10 0.040100 0.122656 0.058823
O O11 0.500000 0.750711 0.500000
O O12 0.616907 0.583934 0.183875
O O13 0.649566 0.848298 0.207214
O O14 0.334667 0.505978 0.269126
O O15 0.436877 0.343023 0.864675
O O16 0.500000 0.189659 0.000000
#
# Coordination Sequence:
#
# PCOD9120100 Si02
#       8
#     4   4   4   4   4   2   4   4
#     4  11  20  37  65 111 143 184 243 314 365 451
#     4   9  19  39  66  94 145 187 234 299 366 435
#     4  10  24  47  70 100 149 189 245 315 361 447
#     4  12  26  45  72 103 149 190 260 302 359 460
#     4  12  22  42  76 108 130 200 255 293 374 445
#     4  12  20  32  68 114 142 176 256 304 368 428
#     4  10  16  36  66  98 135 177 235 293 350 439
#     4  10  25  43  65 107 150 189 246 309 385 438
#
# _framework density 26.897105
#
# number of rings (size 3 to 8) (size 9 to 14) (size 15 to 20)
#    0.800    0.533    6.667    1.600    1.867    0.000 
#    2.400    4.000    0.000    0.800    0.000    0.000 
#    0.000    0.000    0.000    0.000    0.000    0.000 
#
# Total GULP energy -83599.315382 kJ/mol
# GULP energy per Si atom -5573.287692 kJ/mol
# Density = 2.683589 g / cm^3
# Si number density = 26.897105 Si / 1000 Ang^3
#
#
#
# Elastic Constant Matrix: (Units=GPa)
#
#
# Indices 1 2 3 4 5 6 
#
# 1 50.3554 5.7938 25.5480 0.0000 -13.6607 0.0000
# 2 5.7938 108.6309 44.2559 0.0000 -4.7502 0.0000
# 3 25.5480 44.2559 163.9396 0.0000 -25.3934 0.0000
# 4 0.0000 0.0000 0.0000 44.2573 0.0000 -2.1860
# 5 -13.6607 -4.7502 -25.3934 0.0000 44.8493 0.0000
# 6 0.0000 0.0000 0.0000 -2.1860 0.0000 3.1535
#
#
#
# Elastic Compliance Matrix: (Units=1/GPa)
#
#
# Indices 1 2 3 4 5 6 
#
# 1 0.022692 0.000142 -0.002742 0.000000 0.005374 0.000000
# 2 0.000142 0.010355 -0.002895 0.000000 -0.000499 0.000000
# 3 -0.002742 -0.002895 0.007817 0.000000 0.003284 0.000000
# 4 0.000000 0.000000 0.000000 0.023396 0.000000 0.016218
# 5 0.005374 -0.000499 0.003284 0.000000 0.025740 0.000000
# 6 0.000000 0.000000 0.000000 0.016218 0.000000 0.328348
#
#
# Mechanical properties :
#
#
# Convention : Reuss Voigt Hill
#
# Bulk Modulus (GPa) = 33.47368 52.68014 43.07691
# Shear Modulus (GPa) = 11.38182 34.94059 23.16120
#
# Velocity S-wave (km/s) = 2.05932 3.60814 2.93764
# Velocity P-wave (km/s) = 4.25752 6.08166 5.24943
#
# Compressibility (1/GPa) = 0.02987421
#
# Stress axis : x y z
#
# Youngs Moduli (GPa) = 44.06910 96.56740 127.92088
#
# Poissons Ratio (x) = -0.01370 0.35077
# Poissons Ratio (y) = -0.00625 0.37032
# Poissons Ratio (z) = 0.12084 0.27955
#
# Static dielectric constant tensor:
#      x y z
#    x 2.168400 0.000000 -0.006180 
#    y 0.000000 2.072800 0.000000 
#    z -0.006180 0.000000 2.416390 
# 
# From -- ./inp_files/48272.got.cif
#   From: 2010.05.17/outbox.cif.g08.bks.cpg/sg5_25_cif.got.tgz:48272.got - 2010.06.03 18:56:24.
