data_PCOD9120211
_publ_section_title
;
Structure prediction by ZEFSAII (Michael W. Deem and Ramdas Pophale) SiO2 
 PCOD9120211
Probable space group: C 2
;
_chemical_formula_sum "Si O2"
_cell_formula_units_Z 28
_cell_length_a 19.888335
_cell_length_b 11.676207
_cell_length_c 12.385366
_cell_angle_alpha 90.000000
_cell_angle_beta 156.165581
_cell_angle_gamma 90.000000
_cell_volume 1162.230816
_symmetry_space_group_name_H-M "C 2"
_symmetry_group_IT_number 5
_symmetry_cell_setting 'monoclinic'
loop_
_space_group_symop_operation_xyz
x,y,z
-x,y,-z
1/2+x,1/2+y,z
1/2-x,1/2+y,-z
loop_
_atom_site_type_symbol
_atom_site_label
_atom_site_fract_x
_atom_site_fract_y
_atom_site_fract_z
Si Si1 0.125061 0.609450 0.103833
Si Si2 0.129613 0.286270 0.431160
Si Si3 0.248030 0.951031 0.205681
Si Si4 0.075398 0.828348 0.279567
Si Si5 0.737906 0.701100 0.114540
Si Si6 0.902253 0.870510 0.225923
Si Si7 0.157347 0.102708 0.773267
O O1 0.274229 0.672175 0.386471
O O2 0.211757 0.562149 0.124007
O O3 0.000000 0.542368 0.000000
O O4 0.011057 0.714744 0.894377
O O5 0.146176 0.380799 0.551381
O O6 0.241260 0.335415 0.497504
O O7 0.946830 0.245029 0.132896
O O8 0.245275 0.889383 0.083143
O O9 0.050619 0.929920 0.942765
O O10 0.285046 0.086185 0.248734
O O11 0.051849 0.821472 0.373302
O O12 0.752297 0.663168 0.009179
O O13 0.844234 0.814090 0.251633
O O14 0.938116 0.001258 0.306427
O O15 0.000000 0.175738 0.500000
#
# Coordination Sequence:
#
# PCOD9120211 Si02
#       7
#     4   4   4   4   4   4   4
#     4   9  16  28  52  81 101 133 182 223 277 328
#     4  10  17  31  58  84 105 144 187 227 275 345
#     4   8  18  32  53  82 116 139 179 236 282 329
#     4   8  16  31  51  79 114 141 172 232 287 322
#     4  11  19  33  58  84 106 144 191 229 276 337
#     4   9  20  32  51  80 116 141 178 235 286 326
#     4  11  19  33  55  79 104 145 188 225 275 347
#
# _framework density 24.0916
#
# number of rings (size 3 to 8) (size 9 to 14) (size 15 to 20)
#    0.857    1.714    2.857    1.286    0.000    0.000 
#    0.000    4.286    6.286    3.429    0.000    0.000 
#    0.000    0.000    0.000    0.000    0.000    0.000 
#
# Total GULP energy -77964.144430 kJ/mol
# GULP energy per Si atom -5568.867459 kJ/mol
# Density = 2.403677 g / cm^3
# Si number density = 24.091600 Si / 1000 Ang^3
#
#
#
# Elastic Constant Matrix: (Units=GPa)
#
#
# Indices 1 2 3 4 5 6 
#
# 1 80.5074 6.5580 18.7584 0.0000 30.6355 0.0000
# 2 6.5580 77.4081 16.7658 0.0000 13.0442 0.0000
# 3 18.7584 16.7658 70.5280 0.0000 26.3181 0.0000
# 4 0.0000 0.0000 0.0000 10.0160 0.0000 1.8726
# 5 30.6355 13.0442 26.3181 0.0000 37.7017 0.0000
# 6 0.0000 0.0000 0.0000 1.8726 0.0000 19.4582
#
#
#
# Elastic Compliance Matrix: (Units=1/GPa)
#
#
# Indices 1 2 3 4 5 6 
#
# 1 0.018085 0.000921 0.000776 0.000000 -0.015555 0.000000
# 2 0.000921 0.013980 -0.002007 0.000000 -0.004185 0.000000
# 3 0.000776 -0.002007 0.019507 0.000000 -0.013553 0.000000
# 4 0.000000 0.000000 0.000000 0.101669 0.000000 -0.009784
# 5 -0.015555 -0.004185 -0.013553 0.000000 0.050072 0.000000
# 6 0.000000 0.000000 0.000000 -0.009784 0.000000 0.052334
#
#
# Mechanical properties :
#
#
# Convention : Reuss Voigt Hill
#
# Bulk Modulus (GPa) = 19.62640 34.73422 27.18031
# Shear Modulus (GPa) = 18.29815 25.85927 22.07871
#
# Velocity S-wave (km/s) = 2.75894 3.27979 3.03057
# Velocity P-wave (km/s) = 4.27940 5.36578 4.85308
#
# Compressibility (1/GPa) = 0.05095177
#
# Stress axis : x y z
#
# Youngs Moduli (GPa) = 55.29517 71.52914 51.26378
#
# Poissons Ratio (x) = -0.06589 -0.03976
# Poissons Ratio (y) = -0.05093 0.10288
# Poissons Ratio (z) = -0.04289 0.14355
#
# Static dielectric constant tensor:
#      x y z
#    x 2.070350 0.000000 -0.104100 
#    y 0.000000 1.930350 0.000000 
#    z -0.104100 0.000000 2.132080 
# 
# From -- ./inp_files/63381.got.cif
#   From: 2010.05.17/outbox.cif.g08.bks.cpg/sg5_32_cif.got.tgz:63381.got - 2010.06.03 18:56:24.
