data_PCOD9120546
_publ_section_title
;
Structure prediction by ZEFSAII (Michael W. Deem and Ramdas Pophale) SiO2 
 PCOD9120546
Probable space group: C 2
;
_chemical_formula_sum "Si O2"
_cell_formula_units_Z 24
_cell_length_a 16.353444
_cell_length_b 8.237649
_cell_length_c 7.777181
_cell_angle_alpha 90.000000
_cell_angle_beta 107.853209
_cell_angle_gamma 90.000000
_cell_volume 997.242990
_symmetry_space_group_name_H-M "C 2"
_symmetry_group_IT_number 5
_symmetry_cell_setting 'monoclinic'
loop_
_space_group_symop_operation_xyz
x,y,z
-x,y,-z
1/2+x,1/2+y,z
1/2-x,1/2+y,-z
loop_
_atom_site_type_symbol
_atom_site_label
_atom_site_fract_x
_atom_site_fract_y
_atom_site_fract_z
Si Si1 0.192922 0.346400 0.520222
Si Si2 0.793852 0.477683 0.980932
Si Si3 0.119066 0.073125 0.674978
Si Si4 0.949703 0.955161 0.727519
Si Si5 0.183195 0.148595 0.158328
Si Si6 0.638018 0.162092 0.278964
O O1 0.129362 0.256483 0.611738
O O2 0.194388 0.244059 0.343067
O O3 0.286511 0.298243 0.655959
O O4 0.162068 0.521583 0.431954
O O5 0.704190 0.499637 0.816498
O O6 0.823913 0.292256 0.987267
O O7 0.857406 0.585899 0.908125
O O8 0.766047 0.546920 0.147395
O O9 0.101172 0.979452 0.485399
O O10 0.039469 0.039604 0.746180
O O11 0.948991 0.761933 0.752186
O O12 0.899410 0.039591 0.852310
#
# Coordination Sequence:
#
# PCOD9120546 Si02
#       6
#     4   4   4   4   4   4
#     4   9  18  33  55  81 107 140 181 223 264 315
#     4  10  20  34  54  79 104 141 182 222 264 316
#     4   9  20  36  54  77 107 140 177 217 270 321
#     4  10  19  35  55  77 106 139 175 222 269 319
#     4  10  19  32  53  76 104 137 180 221 261 311
#     4  10  18  32  57  82 106 139 181 223 266 316
#
# _framework density 24.066351999999998
#
# number of rings (size 3 to 8) (size 9 to 14) (size 15 to 20)
#    0.000    2.333    0.000    5.000    0.000    2.000 
#    0.000   10.000    0.000    6.000    0.000    0.000 
#    0.000    0.000    0.000    0.000    0.000    0.000 
#
# Total GULP energy -66997.391142 kJ/mol
# GULP energy per Si atom -5583.115928 kJ/mol
# Density = 2.401158 g / cm^3
# Si number density = 24.066352 Si / 1000 Ang^3
#
#
#
# Elastic Constant Matrix: (Units=GPa)
#
#
# Indices 1 2 3 4 5 6 
#
# 1 77.6930 79.7376 17.5742 0.0000 -35.0561 0.0000
# 2 79.7376 161.4438 48.6029 0.0000 -41.3176 0.0000
# 3 17.5742 48.6029 105.4933 0.0000 -21.9870 0.0000
# 4 0.0000 0.0000 0.0000 34.1187 0.0000 -15.5924
# 5 -35.0561 -41.3176 -21.9870 0.0000 40.1649 0.0000
# 6 0.0000 0.0000 0.0000 -15.5924 0.0000 34.9004
#
#
#
# Elastic Compliance Matrix: (Units=1/GPa)
#
#
# Indices 1 2 3 4 5 6 
#
# 1 0.033739 -0.013326 0.004289 0.000000 0.018086 0.000000
# 2 -0.013326 0.014215 -0.004183 0.000000 0.000702 0.000000
# 3 0.004289 -0.004183 0.011937 0.000000 0.005975 0.000000
# 4 0.000000 0.000000 0.000000 0.036829 0.000000 0.016454
# 5 0.018086 0.000702 0.005975 0.000000 0.044676 0.000000
# 6 0.000000 0.000000 0.000000 0.016454 0.000000 0.036004
#
#
# Mechanical properties :
#
#
# Convention : Reuss Voigt Hill
#
# Bulk Modulus (GPa) = 29.89496 70.71770 50.30633
# Shear Modulus (GPa) = 23.25691 35.08450 29.17071
#
# Velocity S-wave (km/s) = 3.11202 3.82229 3.48529
# Velocity P-wave (km/s) = 5.03604 6.99486 6.09466
#
# Compressibility (1/GPa) = 0.03345046
#
# Stress axis : x y z
#
# Youngs Moduli (GPa) = 29.63971 70.34982 83.77165
#
# Poissons Ratio (x) = 0.93747 -0.35926
# Poissons Ratio (y) = 0.39497 0.35039
# Poissons Ratio (z) = -0.12711 0.29425
#
# Static dielectric constant tensor:
#      x y z
#    x 1.981190 0.000000 0.008340 
#    y 0.000000 1.971140 0.000000 
#    z 0.008340 0.000000 2.033180 
# 
# From -- ./inp_files/26485.got.cif
#   From: 2010.05.17/outbox.cif.g08.bks.cpg/sg5_14_cif.got.tgz:26485.got - 2010.06.03 18:56:24.
