data_PCOD9120724
_publ_section_title
;
Structure prediction by ZEFSAII (Michael W. Deem and Ramdas Pophale) SiO2 
 PCOD9120724
Probable space group: C 2
;
_chemical_formula_sum "Si O2"
_cell_formula_units_Z 32
_cell_length_a 11.268610
_cell_length_b 7.526987
_cell_length_c 16.754141
_cell_angle_alpha 90.000000
_cell_angle_beta 99.959490
_cell_angle_gamma 90.000000
_cell_volume 1399.649104
_symmetry_space_group_name_H-M "C 2"
_symmetry_group_IT_number 5
_symmetry_cell_setting 'monoclinic'
loop_
_space_group_symop_operation_xyz
x,y,z
-x,y,-z
1/2+x,1/2+y,z
1/2-x,1/2+y,-z
loop_
_atom_site_type_symbol
_atom_site_label
_atom_site_fract_x
_atom_site_fract_y
_atom_site_fract_z
Si Si1 0.161978 0.943820 0.037116
Si Si2 0.127847 0.770439 0.486221
Si Si3 0.968624 0.103880 0.117345
Si Si4 0.582255 0.079439 0.940713
Si Si5 0.596900 0.286412 0.789465
Si Si6 0.742166 0.515398 0.622533
Si Si7 0.483424 0.507880 0.651971
Si Si8 0.361731 0.782213 0.758200
O O1 0.084815 0.983265 0.106433
O O2 0.302093 0.961923 0.064247
O O3 0.113995 0.095244 0.970199
O O4 0.127955 0.757860 0.993164
O O5 0.198124 0.645796 0.433716
O O6 0.204988 0.835231 0.570608
O O7 0.000000 0.690103 0.500000
O O8 0.090178 0.948979 0.433868
O O9 0.895283 0.986009 0.172102
O O10 0.032177 0.275986 0.162533
O O11 0.542793 0.159034 0.850841
O O12 0.500000 0.994372 0.000000
O O13 0.516194 0.325011 0.703053
O O14 0.732587 0.232389 0.782101
O O15 0.614152 0.584572 0.641957
O O16 0.830767 0.458407 0.704492
O O17 0.409270 0.636135 0.700807
#
# Coordination Sequence:
#
# PCOD9120724 Si02
#       8
#     4   4   4   4   4   4   4   4
#     4  10  19  35  58  78 110 148 195 244 293 340
#     4  10  21  39  60  87 117 149 187 231 277 341
#     4   9  17  34  57  78 109 156 188 237 296 339
#     4  11  20  37  56  82 110 150 197 246 293 344
#     4   9  17  33  57  79 109 151 192 232 291 344
#     4  10  21  36  59  86 116 151 189 231 280 341
#     4   9  20  36  56  82 114 148 188 231 286 337
#     4  10  18  34  61  82 113 156 189 236 289 343
#
# _framework density 22.862874000000001
#
# number of rings (size 3 to 8) (size 9 to 14) (size 15 to 20)
#    0.000    2.250    3.750    0.750    0.000    1.000 
#    2.250    7.500    0.000    0.000    0.000    0.000 
#    0.000    0.000    0.000    0.000    0.000    0.000 
#
# Total GULP energy -89262.005775 kJ/mol
# GULP energy per Si atom -5578.875361 kJ/mol
# Density = 2.281084 g / cm^3
# Si number density = 22.862874 Si / 1000 Ang^3
#
#
#
# Elastic Constant Matrix: (Units=GPa)
#
#
# Indices 1 2 3 4 5 6 
#
# 1 124.2787 28.4251 35.5974 0.0000 -26.7482 0.0000
# 2 28.4251 47.5786 -2.3944 0.0000 -17.8650 0.0000
# 3 35.5974 -2.3944 76.2368 0.0000 -21.1606 0.0000
# 4 0.0000 0.0000 0.0000 17.8652 0.0000 -5.4285
# 5 -26.7482 -17.8650 -21.1606 0.0000 50.2931 0.0000
# 6 0.0000 0.0000 0.0000 -5.4285 0.0000 30.2751
#
#
#
# Elastic Compliance Matrix: (Units=1/GPa)
#
#
# Indices 1 2 3 4 5 6 
#
# 1 0.011297 -0.006393 -0.005025 0.000000 0.001623 0.000000
# 2 -0.006393 0.028760 0.006544 0.000000 0.009569 0.000000
# 3 -0.005025 0.006544 0.017632 0.000000 0.007070 0.000000
# 4 0.000000 0.000000 0.000000 0.059200 0.000000 0.010615
# 5 0.001623 0.009569 0.007070 0.000000 0.027121 0.000000
# 6 0.000000 0.000000 0.000000 0.010615 0.000000 0.034934
#
#
# Mechanical properties :
#
#
# Convention : Reuss Voigt Hill
#
# Bulk Modulus (GPa) = 20.85893 41.26115 31.06004
# Shear Modulus (GPa) = 24.42939 32.11775 28.27357
#
# Velocity S-wave (km/s) = 3.27237 3.75213 3.52043
# Velocity P-wave (km/s) = 4.83954 6.07106 5.48994
#
# Compressibility (1/GPa) = 0.04794110
#
# Stress axis : x y z
#
# Youngs Moduli (GPa) = 88.51595 34.77086 56.71654
#
# Poissons Ratio (x) = 0.22229 0.28502
# Poissons Ratio (y) = 0.56587 -0.37118
# Poissons Ratio (z) = 0.44482 -0.22756
#
# Static dielectric constant tensor:
#      x y z
#    x 1.848940 0.000000 0.007600 
#    y 0.000000 1.865160 0.000000 
#    z 0.007600 0.000000 1.900160 
# 
# From -- ./inp_files/60212.got.cif
#   From: 2010.05.17/outbox.cif.g08.bks.cpg/sg5_31_cif.got.tgz:60212.got - 2010.06.03 18:56:24.
