data_PCOD9120710
_publ_section_title
;
Structure prediction by ZEFSAII (Michael W. Deem and Ramdas Pophale) SiO2 
 PCOD9120710
Probable space group: C 2
;
_chemical_formula_sum "Si O2"
_cell_formula_units_Z 30
_cell_length_a 7.379828
_cell_length_b 15.837835
_cell_length_c 12.232586
_cell_angle_alpha 90.000000
_cell_angle_beta 107.156275
_cell_angle_gamma 90.000000
_cell_volume 1366.132202
_symmetry_space_group_name_H-M "C 2"
_symmetry_group_IT_number 5
_symmetry_cell_setting 'monoclinic'
loop_
_space_group_symop_operation_xyz
x,y,z
-x,y,-z
1/2+x,1/2+y,z
1/2-x,1/2+y,-z
loop_
_atom_site_type_symbol
_atom_site_label
_atom_site_fract_x
_atom_site_fract_y
_atom_site_fract_z
Si Si1 0.280367 0.360030 0.697381
Si Si2 0.271448 0.519529 0.099536
Si Si3 0.765056 0.012895 0.846353
Si Si4 0.271663 0.304916 0.464918
Si Si5 0.637845 0.688384 0.129151
Si Si6 0.673400 0.669898 0.747785
Si Si7 0.000000 0.160640 0.500000
Si Si8 0.730636 0.359884 0.775381
O O1 0.201022 0.435068 0.759473
O O2 0.221925 0.363209 0.560025
O O3 0.251231 0.262691 0.731149
O O4 0.505441 0.370668 0.733834
O O5 0.504123 0.517096 0.133075
O O6 0.217390 0.607110 0.149867
O O7 0.193514 0.445132 0.160258
O O8 0.218642 0.501565 0.965387
O O9 0.715929 0.112065 0.821915
O O10 0.500000 0.291412 0.500000
O O11 0.209693 0.342248 0.338211
O O12 0.159083 0.219344 0.471108
O O13 0.508920 0.691035 0.212626
O O14 0.728328 0.780242 0.139505
O O15 0.500000 0.673082 0.000000
O O16 0.609154 0.621560 0.624327
#
# Coordination Sequence:
#
# PCOD9120710 Si02
#       8
#     4   4   4   4   4   4   2   4
#     4   9  20  35  58  79 109 148 184 230 283 335
#     4   9  18  33  53  78 111 139 186 232 266 345
#     4   9  17  34  53  78 108 143 186 228 272 337
#     4   9  18  35  56  88 116 145 195 242 280 352
#     4  11  20  35  57  81 110 145 188 233 280 339
#     4  10  19  36  56  82 110 143 191 231 282 338
#     4  10  18  34  60  86 114 150 192 242 296 336
#     4  10  20  36  56  81 110 148 183 230 291 329
#
# _framework density 21.959807000000001
#
# number of rings (size 3 to 8) (size 9 to 14) (size 15 to 20)
#    0.000    2.400    4.000    0.000    1.867    0.000 
#    8.400    1.333    0.000    0.000    3.467    0.000 
#    0.000    0.000    0.000    0.000    0.000    0.000 
#
# Total GULP energy -83537.816496 kJ/mol
# GULP energy per Si atom -5569.187766 kJ/mol
# Density = 2.190983 g / cm^3
# Si number density = 21.959807 Si / 1000 Ang^3
#
#
#
# Elastic Constant Matrix: (Units=GPa)
#
#
# Indices 1 2 3 4 5 6 
#
# 1 52.7838 8.5943 22.2397 0.0000 -2.6472 0.0000
# 2 8.5943 128.7785 60.3675 0.0000 -3.6377 0.0000
# 3 22.2397 60.3675 146.2144 0.0000 -24.1097 0.0000
# 4 0.0000 0.0000 0.0000 -6.4512 0.0000 1.4064
# 5 -2.6472 -3.6377 -24.1097 0.0000 25.3363 0.0000
# 6 0.0000 0.0000 0.0000 1.4064 0.0000 17.4862
#
#
#
# Elastic Compliance Matrix: (Units=1/GPa)
#
#
# Indices 1 2 3 4 5 6 
#
# 1 0.020266 0.000177 -0.003324 0.000000 -0.001020 0.000000
# 2 0.000177 0.009807 -0.004555 0.000000 -0.002908 0.000000
# 3 -0.003324 -0.004555 0.010747 0.000000 0.009225 0.000000
# 4 0.000000 0.000000 0.000000 -0.152338 0.000000 0.012252
# 5 -0.001020 -0.002908 0.009225 0.000000 0.047723 0.000000
# 6 0.000000 0.000000 0.000000 0.012252 0.000000 0.056202
#
#
# Mechanical properties :
#
#
# Convention : Reuss Voigt Hill
#
# Bulk Modulus (GPa) = 39.34742 56.68664 48.01703
# Shear Modulus (GPa) = 307.07263 23.04593 165.05928
#
# Velocity S-wave (km/s) = 11.83797 3.24305 8.67914
# Velocity P-wave (km/s) = 14.31107 6.31609 11.06119
#
# Compressibility (1/GPa) = 0.02541463
#
# Stress axis : x y z
#
# Youngs Moduli (GPa) = 49.34460 101.97073 93.05155
#
# Poissons Ratio (x) = -0.01802 0.30927
# Poissons Ratio (y) = -0.00872 0.42388
# Poissons Ratio (z) = 0.16400 0.46451
#
# Static dielectric constant tensor:
#      x y z
#    x 1.852430 0.000000 0.036240 
#    y 0.000000 1.857710 0.000000 
#    z 0.036240 0.000000 1.830200 
# 
# From -- ./inp_files/36140.got.cif
#   From: 2010.05.17/outbox.cif.g08.bks.cpg/sg5_19_cif.got.tgz:36140.got - 2010.06.03 18:56:24.
