data_PCOD9120451
_publ_section_title
;
Structure prediction by ZEFSAII (Michael W. Deem and Ramdas Pophale) SiO2 
 PCOD9120451
Probable space group: C 2
;
_chemical_formula_sum "Si O2"
_cell_formula_units_Z 30
_cell_length_a 21.474848
_cell_length_b 9.150604
_cell_length_c 7.824428
_cell_angle_alpha 90.000000
_cell_angle_beta 61.887811
_cell_angle_gamma 90.000000
_cell_volume 1356.170093
_symmetry_space_group_name_H-M "C 2"
_symmetry_group_IT_number 5
_symmetry_cell_setting 'monoclinic'
loop_
_space_group_symop_operation_xyz
x,y,z
-x,y,-z
1/2+x,1/2+y,z
1/2-x,1/2+y,-z
loop_
_atom_site_type_symbol
_atom_site_label
_atom_site_fract_x
_atom_site_fract_y
_atom_site_fract_z
Si Si1 0.458829 0.161400 0.713655
Si Si2 0.360297 0.850144 0.089631
Si Si3 0.288230 0.902131 0.636102
Si Si4 0.669023 0.331687 0.202314
Si Si5 0.921552 0.330685 0.655483
Si Si6 0.758083 0.567762 0.028018
Si Si7 0.500000 0.014662 0.000000
Si Si8 0.229194 0.707369 0.454342
O O1 0.500000 0.224169 0.500000
O O2 0.397224 0.277143 0.817075
O O3 0.498052 0.115044 0.833978
O O4 0.429487 0.006266 0.680101
O O5 0.306391 0.749623 0.269055
O O6 0.392106 0.775037 0.875965
O O7 0.314642 0.988546 0.077760
O O8 0.429607 0.914835 0.092488
O O9 0.362130 0.824768 0.585902
O O10 0.267506 0.993337 0.830314
O O11 0.233664 0.786837 0.630055
O O12 0.288546 0.037266 0.502510
O O13 0.673200 0.273976 0.391544
O O14 0.730508 0.236422 0.026489
O O15 0.684441 0.502253 0.185791
O O16 0.000000 0.279634 0.500000
#
# Coordination Sequence:
#
# PCOD9120451 Si02
#       8
#     4   4   4   4   4   4   2   4
#     4  10  19  33  54  82 120 140 183 247 285 326
#     4   9  18  30  50  81 109 142 174 232 281 335
#     4  10  20  36  50  86 110 151 182 230 282 332
#     4  10  18  37  52  84 109 150 176 233 288 325
#     4   9  17  33  54  80 115 138 180 240 292 318
#     4   9  18  34  53  75 116 140 186 220 284 332
#     4  10  18  30  54  90 106 146 190 230 296 328
#     4  10  21  33  53  78 120 143 187 227 281 334
#
# _framework density 22.121120000000001
#
# number of rings (size 3 to 8) (size 9 to 14) (size 15 to 20)
#    0.000    2.400    5.333    0.000    5.600    2.133 
#    2.400    0.000    0.000    0.000   10.400    3.733 
#    0.000    0.000    0.000    0.000    0.000    0.000 
#
# Total GULP energy -83603.271743 kJ/mol
# GULP energy per Si atom -5573.551450 kJ/mol
# Density = 2.207077 g / cm^3
# Si number density = 22.121120 Si / 1000 Ang^3
#
#
#
# Elastic Constant Matrix: (Units=GPa)
#
#
# Indices 1 2 3 4 5 6 
#
# 1 117.2936 31.2583 25.3569 0.0000 26.8338 0.0000
# 2 31.2583 65.1323 8.7885 0.0000 5.2121 0.0000
# 3 25.3569 8.7885 79.0634 0.0000 4.5954 0.0000
# 4 0.0000 0.0000 0.0000 23.3193 0.0000 6.9104
# 5 26.8338 5.2121 4.5954 0.0000 35.8602 0.0000
# 6 0.0000 0.0000 0.0000 6.9104 0.0000 26.0066
#
#
#
# Elastic Compliance Matrix: (Units=1/GPa)
#
#
# Indices 1 2 3 4 5 6 
#
# 1 0.012318 -0.004864 -0.002937 0.000000 -0.008134 0.000000
# 2 -0.004864 0.017660 -0.000469 0.000000 0.001133 0.000000
# 3 -0.002937 -0.000469 0.013612 0.000000 0.000522 0.000000
# 4 0.000000 0.000000 0.000000 0.046548 0.000000 -0.012369
# 5 -0.008134 0.001133 0.000522 0.000000 0.033741 0.000000
# 6 0.000000 0.000000 0.000000 -0.012369 0.000000 0.041738
#
#
# Mechanical properties :
#
#
# Convention : Reuss Voigt Hill
#
# Bulk Modulus (GPa) = 36.96923 43.58853 40.27888
# Shear Modulus (GPa) = 26.15413 30.10960 28.13187
#
# Velocity S-wave (km/s) = 3.44221 3.69334 3.56999
# Velocity P-wave (km/s) = 5.70499 6.15914 5.93641
#
# Compressibility (1/GPa) = 0.02704952
#
# Stress axis : x y z
#
# Youngs Moduli (GPa) = 81.18421 56.62368 73.46556
#
# Poissons Ratio (x) = 0.27544 0.21577
# Poissons Ratio (y) = 0.39491 0.03445
# Poissons Ratio (z) = 0.23844 0.02655
#
# Static dielectric constant tensor:
#      x y z
#    x 1.899800 0.000000 -0.062430 
#    y 0.000000 1.802930 0.000000 
#    z -0.062430 0.000000 1.975090 
# 
# From -- ./inp_files/29286.got.cif
#   From: 2010.05.17/outbox.cif.g08.bks.cpg/sg5_15_cif.got.tgz:29286.got - 2010.06.03 18:56:24.
