data_PCOD9120839
_publ_section_title
;
Structure prediction by ZEFSAII (Michael W. Deem and Ramdas Pophale) SiO2 
 PCOD9120839
Probable space group: C 2
;
_chemical_formula_sum "Si O2"
_cell_formula_units_Z 26
_cell_length_a 8.481382
_cell_length_b 16.875691
_cell_length_c 8.165956
_cell_angle_alpha 90.000000
_cell_angle_beta 64.080593
_cell_angle_gamma 90.000000
_cell_volume 1051.218095
_symmetry_space_group_name_H-M "C 2"
_symmetry_group_IT_number 5
_symmetry_cell_setting 'monoclinic'
loop_
_space_group_symop_operation_xyz
x,y,z
-x,y,-z
1/2+x,1/2+y,z
1/2-x,1/2+y,-z
loop_
_atom_site_type_symbol
_atom_site_label
_atom_site_fract_x
_atom_site_fract_y
_atom_site_fract_z
Si Si1 0.500000 0.093370 0.000000
Si Si2 0.607403 0.542009 0.783067
Si Si3 0.842577 0.209361 0.294490
Si Si4 0.790689 0.982667 0.737038
Si Si5 0.371184 0.867571 0.406036
Si Si6 0.238797 0.227321 0.035863
Si Si7 0.772065 0.395232 0.897650
O O1 0.365109 0.152613 0.977248
O O2 0.378912 0.039904 0.171592
O O3 0.719874 0.618401 0.675570
O O4 0.467724 0.528347 0.702190
O O5 0.709316 0.463103 0.798587
O O6 0.500000 0.565132 0.000000
O O7 0.795080 0.278570 0.442840
O O8 0.054410 0.204549 0.202728
O O9 0.794226 0.244715 0.139586
O O10 0.772808 0.931047 0.581403
O O11 0.781408 0.926282 0.901081
O O12 0.500000 0.879999 0.500000
O O13 0.519948 0.879484 0.198642
O O14 0.303430 0.307283 0.094997
#
# Coordination Sequence:
#
# PCOD9120839 Si02
#       7
#     2   4   4   4   4   4   4
#     4  12  20  30  56  92 114 140 180 234 286 328
#     4  10  19  33  59  91 113 137 184 236 285 334
#     4  10  18  36  52  77 115 145 182 223 276 328
#     4  11  20  36  56  85 114 145 183 234 283 329
#     4  11  23  38  57  78 111 156 194 228 276 332
#     4  10  19  30  53  86 114 140 175 228 279 331
#     4  10  20  36  59  85 111 145 183 231 282 335
#
# _framework density 24.733212999999999
#
# number of rings (size 3 to 8) (size 9 to 14) (size 15 to 20)
#    0.000    1.538    6.154    0.923    3.231    0.000 
#    0.000    2.308    0.000    0.000    0.000    0.000 
#    0.000    0.000    0.000    0.000    0.000    0.000 
#
# Total GULP energy -72579.040418 kJ/mol
# GULP energy per Si atom -5583.003109 kJ/mol
# Density = 2.467692 g / cm^3
# Si number density = 24.733213 Si / 1000 Ang^3
#
#
#
# Elastic Constant Matrix: (Units=GPa)
#
#
# Indices 1 2 3 4 5 6 
#
# 1 66.5518 55.3764 7.2750 0.0000 21.6628 0.0000
# 2 55.3764 218.2766 31.7590 0.0000 28.1527 0.0000
# 3 7.2750 31.7590 64.8658 0.0000 29.4424 0.0000
# 4 0.0000 0.0000 0.0000 6.7597 0.0000 18.1506
# 5 21.6628 28.1527 29.4424 0.0000 38.0102 0.0000
# 6 0.0000 0.0000 0.0000 18.1506 0.0000 45.6585
#
#
#
# Elastic Compliance Matrix: (Units=1/GPa)
#
#
# Indices 1 2 3 4 5 6 
#
# 1 0.023151 -0.004935 0.006399 0.000000 -0.014496 0.000000
# 2 -0.004935 0.006178 -0.002577 0.000000 0.000233 0.000000
# 3 0.006399 -0.002577 0.025832 0.000000 -0.021747 0.000000
# 4 0.000000 0.000000 0.000000 -2.194561 0.000000 0.872400
# 5 -0.014496 0.000233 -0.021747 0.000000 0.051243 0.000000
# 6 0.000000 0.000000 0.000000 0.872400 0.000000 -0.324902
#
#
# Mechanical properties :
#
#
# Convention : Reuss Voigt Hill
#
# Bulk Modulus (GPa) = 18.89078 59.83497 39.36287
# Shear Modulus (GPa) = -2.08926 35.10460 16.50767
#
# Velocity S-wave (km/s) = -0.92008 3.77149 2.58627
# Velocity P-wave (km/s) = 2.55454 6.57344 4.98677
#
# Compressibility (1/GPa) = 0.05293589
#
# Stress axis : x y z
#
# Youngs Moduli (GPa) = 43.19460 161.85803 38.71236
#
# Poissons Ratio (x) = 0.79874 -0.24774
# Poissons Ratio (y) = 0.21316 0.09976
# Poissons Ratio (z) = -0.27642 0.41712
#
# Static dielectric constant tensor:
#      x y z
#    x 1.962200 0.000000 -0.012940 
#    y 0.000000 2.048630 0.000000 
#    z -0.012940 0.000000 2.033430 
# 
# From -- ./inp_files/16123.got.cif
#   From: 2010.05.17/outbox.cif.g08.bks.cpg/sg5_9_cif.got.tgz:16123.got - 2010.06.03 18:56:24.
