data_PCOD9120434
_publ_section_title
;
Structure prediction by ZEFSAII (Michael W. Deem and Ramdas Pophale) SiO2 
 PCOD9120434
Probable space group: C 2
;
_chemical_formula_sum "Si O2"
_cell_formula_units_Z 26
_cell_length_a 7.081212
_cell_length_b 20.482588
_cell_length_c 11.351863
_cell_angle_alpha 90.000000
_cell_angle_beta 137.279669
_cell_angle_gamma 90.000000
_cell_volume 1117.013624
_symmetry_space_group_name_H-M "C 2"
_symmetry_group_IT_number 5
_symmetry_cell_setting 'monoclinic'
loop_
_space_group_symop_operation_xyz
x,y,z
-x,y,-z
1/2+x,1/2+y,z
1/2-x,1/2+y,-z
loop_
_atom_site_type_symbol
_atom_site_label
_atom_site_fract_x
_atom_site_fract_y
_atom_site_fract_z
Si Si1 0.910668 0.042800 0.748246
Si Si2 0.785992 0.815051 0.051872
Si Si3 0.159758 0.678037 0.832615
Si Si4 0.886858 0.900915 0.633748
Si Si5 0.927771 0.395377 0.730284
Si Si6 0.500000 0.152285 0.500000
Si Si7 0.900332 0.541190 0.140430
O O1 0.766486 0.102965 0.615030
O O2 0.756243 0.037598 0.803732
O O3 0.882356 0.977439 0.661136
O O4 0.222883 0.046478 0.939149
O O5 0.884022 0.740831 0.106615
O O6 0.024823 0.861137 0.212086
O O7 0.500000 0.816216 0.000000
O O8 0.671319 0.847709 0.881866
O O9 0.068843 0.689897 0.653922
O O10 0.984669 0.614731 0.793704
O O11 0.500000 0.663791 0.000000
O O12 0.620104 0.890407 0.430480
O O13 0.143164 0.879324 0.667286
O O14 0.966115 0.469936 0.793745
#
# Coordination Sequence:
#
# PCOD9120434 Si02
#       7
#     4   4   4   4   4   2   4
#     4  10  18  31  53  79 103 128 173 209 261 292
#     4   9  19  31  47  71 105 135 165 206 252 300
#     4  10  18  31  48  75 105 134 165 213 256 300
#     4  10  19  33  51  78 101 137 166 211 252 306
#     4  10  20  33  52  77 106 132 175 204 257 300
#     4  10  18  30  50  78 102 130 168 216 256 300
#     4  10  18  33  53  80 101 136 167 219 252 301
#
# _framework density 23.276350999999998
#
# number of rings (size 3 to 8) (size 9 to 14) (size 15 to 20)
#    0.000    2.154    4.615    1.846    0.000    3.692 
#    0.000    0.000    0.000    0.000    8.000    4.308 
#    0.000    0.000    0.000    0.000    0.000    0.000 
#
# Total GULP energy -72415.104711 kJ/mol
# GULP energy per Si atom -5570.392670 kJ/mol
# Density = 2.322337 g / cm^3
# Si number density = 23.276351 Si / 1000 Ang^3
#
#
#
# Elastic Constant Matrix: (Units=GPa)
#
#
# Indices 1 2 3 4 5 6 
#
# 1 42.3569 -3.2029 21.5716 0.0000 -2.3529 0.0000
# 2 -3.2029 95.0334 66.4190 0.0000 -13.4095 0.0000
# 3 21.5716 66.4190 203.2902 0.0000 -24.2644 0.0000
# 4 0.0000 0.0000 0.0000 -6.3484 0.0000 -5.6802
# 5 -2.3529 -13.4095 -24.2644 0.0000 24.8919 0.0000
# 6 0.0000 0.0000 0.0000 -5.6802 0.0000 13.1507
#
#
#
# Elastic Compliance Matrix: (Units=1/GPa)
#
#
# Indices 1 2 3 4 5 6 
#
# 1 0.025892 0.003668 -0.003868 0.000000 0.000653 0.000000
# 2 0.003668 0.014415 -0.004675 0.000000 0.003556 0.000000
# 3 -0.003868 -0.004675 0.007370 0.000000 0.004300 0.000000
# 4 0.000000 0.000000 0.000000 -0.113612 0.000000 -0.049072
# 5 0.000653 0.003556 0.004300 0.000000 0.046343 0.000000
# 6 0.000000 0.000000 0.000000 -0.049072 0.000000 0.054846
#
#
# Mechanical properties :
#
#
# Convention : Reuss Voigt Hill
#
# Bulk Modulus (GPa) = 26.36521 56.69511 41.53016
# Shear Modulus (GPa) = 86.73661 23.39836 55.06748
#
# Velocity S-wave (km/s) = 6.11103 3.17399 4.86924
# Velocity P-wave (km/s) = 7.81950 6.15163 7.03517
#
# Compressibility (1/GPa) = 0.03792878
#
# Stress axis : x y z
#
# Youngs Moduli (GPa) = 38.62123 69.37238 135.68384
#
# Poissons Ratio (x) = -0.25447 0.52483
# Poissons Ratio (y) = -0.14167 0.63426
# Poissons Ratio (z) = 0.14939 0.32428
#
# Static dielectric constant tensor:
#      x y z
#    x 2.017910 0.000000 0.062970 
#    y 0.000000 1.904510 0.000000 
#    z 0.062970 0.000000 1.992850 
# 
# From -- ./inp_files/37287.got.cif
#   From: 2010.05.17/outbox.cif.g08.bks.cpg/sg5_19_cif.got.tgz:37287.got - 2010.06.03 18:56:24.
