data_PCOD9120332
_publ_section_title
;
Structure prediction by ZEFSAII (Michael W. Deem and Ramdas Pophale) SiO2 
 PCOD9120332
Probable space group: C 2
;
_chemical_formula_sum "Si O2"
_cell_formula_units_Z 24
_cell_length_a 16.225638
_cell_length_b 7.805586
_cell_length_c 9.578102
_cell_angle_alpha 90.000000
_cell_angle_beta 106.472421
_cell_angle_gamma 90.000000
_cell_volume 1163.283545
_symmetry_space_group_name_H-M "C 2"
_symmetry_group_IT_number 5
_symmetry_cell_setting 'monoclinic'
loop_
_space_group_symop_operation_xyz
x,y,z
-x,y,-z
1/2+x,1/2+y,z
1/2-x,1/2+y,-z
loop_
_atom_site_type_symbol
_atom_site_label
_atom_site_fract_x
_atom_site_fract_y
_atom_site_fract_z
Si Si1 0.775645 0.143670 0.045119
Si Si2 0.778839 0.814968 0.696867
Si Si3 0.581236 0.741034 0.112474
Si Si4 0.726757 0.717149 0.374372
Si Si5 0.970864 0.854213 0.832473
Si Si6 0.351036 0.295812 0.204136
O O1 0.760737 0.254601 0.176524
O O2 0.806673 0.959338 0.110269
O O3 0.850508 0.207283 0.978063
O O4 0.688894 0.144435 0.910648
O O5 0.732565 0.732652 0.541997
O O6 0.880159 0.773261 0.749218
O O7 0.775652 0.018978 0.672433
O O8 0.642800 0.808691 0.266178
O O9 0.543962 0.559955 0.155021
O O10 0.500000 0.831954 0.000000
O O11 0.812293 0.787664 0.340069
O O12 0.047716 0.814182 0.763880
O O13 0.000000 0.794610 0.000000
#
# Coordination Sequence:
#
# PCOD9120332 Si02
#       6
#     4   4   4   4   4   4
#     4  11  19  33  63  89 116 153 194 245 289 347
#     4  11  22  40  62  82 124 155 199 243 296 348
#     4   9  17  35  61  87 109 145 206 237 270 352
#     4  10  23  38  61  87 117 157 199 243 297 350
#     4  10  17  36  62  88 112 153 202 236 273 369
#     4  11  20  35  63  88 117 152 203 238 295 344
#
# _framework density 20.631256
#
# number of rings (size 3 to 8) (size 9 to 14) (size 15 to 20)
#    0.000    1.667    5.000    3.000    0.000    0.667 
#    0.000    0.833   36.667    0.000    0.000    0.000 
#    0.000    0.000    0.000    0.000    0.000    0.000 
#
# Total GULP energy -66964.283702 kJ/mol
# GULP energy per Si atom -5580.356975 kJ/mol
# Density = 2.058430 g / cm^3
# Si number density = 20.631256 Si / 1000 Ang^3
#
#
#
# Elastic Constant Matrix: (Units=GPa)
#
#
# Indices 1 2 3 4 5 6 
#
# 1 135.6561 13.0055 35.6426 0.0000 4.4485 0.0000
# 2 13.0055 30.5924 6.0457 0.0000 5.0043 0.0000
# 3 35.6426 6.0457 115.2918 0.0000 0.0128 0.0000
# 4 0.0000 0.0000 0.0000 28.3591 0.0000 -2.8773
# 5 4.4485 5.0043 0.0128 0.0000 27.8051 0.0000
# 6 0.0000 0.0000 0.0000 -2.8773 0.0000 18.2507
#
#
#
# Elastic Compliance Matrix: (Units=1/GPa)
#
#
# Indices 1 2 3 4 5 6 
#
# 1 0.008313 -0.002925 -0.002417 0.000000 -0.000802 0.000000
# 2 -0.002925 0.035072 -0.000934 0.000000 -0.005844 0.000000
# 3 -0.002417 -0.000934 0.009470 0.000000 0.000550 0.000000
# 4 0.000000 0.000000 0.000000 0.035835 0.000000 0.005650
# 5 -0.000802 -0.005844 0.000550 0.000000 0.037144 0.000000
# 6 0.000000 0.000000 0.000000 0.005650 0.000000 0.055683
#
#
# Mechanical properties :
#
#
# Convention : Reuss Voigt Hill
#
# Bulk Modulus (GPa) = 24.81212 43.43645 34.12428
# Shear Modulus (GPa) = 24.09594 30.00610 27.05102
#
# Velocity S-wave (km/s) = 3.42121 3.81780 3.62493
# Velocity P-wave (km/s) = 5.25917 6.36659 5.83919
#
# Compressibility (1/GPa) = 0.04030289
#
# Stress axis : x y z
#
# Youngs Moduli (GPa) = 120.28934 28.51282 105.60055
#
# Poissons Ratio (x) = 0.08341 0.25519
# Poissons Ratio (y) = 0.35189 0.09864
# Poissons Ratio (z) = 0.29069 0.02663
#
# Static dielectric constant tensor:
#      x y z
#    x 1.743580 0.000000 0.039950 
#    y 0.000000 1.823770 0.000000 
#    z 0.039950 0.000000 1.736070 
# 
# From -- ./inp_files/22849.got.cif
#   From: 2010.05.17/outbox.cif.g08.bks.cpg/sg5_12_cif.got.tgz:22849.got - 2010.06.03 18:56:24.
