data_PCOD9120673
_publ_section_title
;
Structure prediction by ZEFSAII (Michael W. Deem and Ramdas Pophale) SiO2 
 PCOD9120673
Probable space group: C 2
;
_chemical_formula_sum "Si O2"
_cell_formula_units_Z 32
_cell_length_a 22.428361
_cell_length_b 8.689076
_cell_length_c 20.053124
_cell_angle_alpha 90.000000
_cell_angle_beta 157.092660
_cell_angle_gamma 90.000000
_cell_volume 1521.152728
_symmetry_space_group_name_H-M "C 2"
_symmetry_group_IT_number 5
_symmetry_cell_setting 'monoclinic'
loop_
_space_group_symop_operation_xyz
x,y,z
-x,y,-z
1/2+x,1/2+y,z
1/2-x,1/2+y,-z
loop_
_atom_site_type_symbol
_atom_site_label
_atom_site_fract_x
_atom_site_fract_y
_atom_site_fract_z
Si Si1 0.478138 0.263050 0.145671
Si Si2 0.736613 0.513675 0.061197
Si Si3 0.136646 0.244994 0.597749
Si Si4 0.010282 0.695960 0.329132
Si Si5 0.412666 0.759740 0.176463
Si Si6 0.620963 0.059143 0.071239
Si Si7 0.577143 0.511922 0.695605
Si Si8 0.296847 0.919046 0.468945
O O1 0.449624 0.197991 0.190356
O O2 0.629605 0.362557 0.314099
O O3 0.354629 0.386937 0.992258
O O4 0.480101 0.130275 0.093021
O O5 0.799031 0.404968 0.065000
O O6 0.890297 0.589677 0.246520
O O7 0.626113 0.650801 0.924879
O O8 0.285296 0.191389 0.791661
O O9 0.176213 0.353750 0.577241
O O10 0.000000 0.318688 0.500000
O O11 0.053491 0.090452 0.484183
O O12 0.167094 0.600146 0.490698
O O13 0.996456 0.865228 0.344105
O O14 0.387772 0.647083 0.214578
O O15 0.580468 0.832067 0.357206
O O16 0.765883 0.975555 0.183501
O O17 0.500000 0.987609 0.000000
#
# Coordination Sequence:
#
# PCOD9120673 Si02
#       8
#     4   4   4   4   4   4   4   4
#     4  12  23  37  62  94 134 163 206 272 320 383
#     4  11  19  35  58  89 123 170 205 250 319 385
#     4   9  20  39  66  90 118 169 217 256 307 386
#     4  11  24  39  64  96 129 166 209 267 336 381
#     4  10  18  34  57  86 125 159 212 250 313 385
#     4  11  21  40  67  93 124 169 220 261 306 379
#     4  10  19  39  63  90 122 163 211 269 310 384
#     4  10  24  38  58  97 124 168 208 265 329 375
#
# _framework density 21.036677000000001
#
# number of rings (size 3 to 8) (size 9 to 14) (size 15 to 20)
#    0.000    1.500    5.000    0.000    3.500    0.000 
#    0.000    3.125    0.000    0.750    0.000    0.000 
#    0.000    0.000    0.000    0.000    0.000    0.000 
#
# Total GULP energy -89158.576810 kJ/mol
# GULP energy per Si atom -5572.411051 kJ/mol
# Density = 2.098880 g / cm^3
# Si number density = 21.036677 Si / 1000 Ang^3
#
#
#
# Elastic Constant Matrix: (Units=GPa)
#
#
# Indices 1 2 3 4 5 6 
#
# 1 52.6644 24.9906 3.7667 0.0000 2.6119 0.0000
# 2 24.9906 105.3204 20.0956 0.0001 1.3316 0.0000
# 3 3.7667 20.0956 75.4600 0.0001 4.4810 0.0000
# 4 0.0000 0.0001 0.0001 26.8939 0.0000 8.1848
# 5 2.6119 1.3316 4.4810 0.0000 32.1649 0.0000
# 6 0.0000 0.0000 0.0000 8.1848 0.0000 19.0020
#
#
#
# Elastic Compliance Matrix: (Units=1/GPa)
#
#
# Indices 1 2 3 4 5 6 
#
# 1 0.021484 -0.005153 0.000394 0.000000 -0.001586 0.000000
# 2 -0.005153 0.011239 -0.002756 0.000000 0.000337 0.000000
# 3 0.000394 -0.002756 0.014078 0.000000 -0.001879 0.000000
# 4 0.000000 0.000000 0.000000 0.042793 0.000000 -0.018432
# 5 -0.001586 0.000337 -0.001879 0.000000 0.031466 0.000000
# 6 0.000000 0.000000 0.000000 -0.018432 0.000000 0.060566
#
#
# Mechanical properties :
#
#
# Convention : Reuss Voigt Hill
#
# Bulk Modulus (GPa) = 31.47485 36.79453 34.13469
# Shear Modulus (GPa) = 24.12599 27.91829 26.02214
#
# Velocity S-wave (km/s) = 3.39020 3.64692 3.52090
# Velocity P-wave (km/s) = 5.50626 5.93818 5.72630
#
# Compressibility (1/GPa) = 0.03177140
#
# Stress axis : x y z
#
# Youngs Moduli (GPa) = 46.54674 88.97526 71.03339
#
# Poissons Ratio (x) = 0.45848 -0.02799
# Poissons Ratio (y) = 0.23985 0.19576
# Poissons Ratio (z) = -0.01834 0.24520
#
# Static dielectric constant tensor:
#      x y z
#    x 1.815500 0.000000 0.043030 
#    y 0.000000 1.738480 0.000000 
#    z 0.043030 0.000000 1.822230 
# 
# From -- ./inp_files/69932.got.cif
#   From: 2010.05.17/outbox.cif.g08.bks.cpg/sg5_35_cif.got.tgz:69932.got - 2010.06.03 18:56:24.
