data_PCOD9120502
_publ_section_title
;
Structure prediction by ZEFSAII (Michael W. Deem and Ramdas Pophale) SiO2 
 PCOD9120502
Probable space group: C 2
;
_chemical_formula_sum "Si O2"
_cell_formula_units_Z 28
_cell_length_a 7.682282
_cell_length_b 15.907247
_cell_length_c 12.777634
_cell_angle_alpha 90.000000
_cell_angle_beta 55.889756
_cell_angle_gamma 90.000000
_cell_volume 1292.840992
_symmetry_space_group_name_H-M "C 2"
_symmetry_group_IT_number 5
_symmetry_cell_setting 'monoclinic'
loop_
_space_group_symop_operation_xyz
x,y,z
-x,y,-z
1/2+x,1/2+y,z
1/2-x,1/2+y,-z
loop_
_atom_site_type_symbol
_atom_site_label
_atom_site_fract_x
_atom_site_fract_y
_atom_site_fract_z
Si Si1 0.374929 0.613270 0.849036
Si Si2 0.847308 0.926662 0.870858
Si Si3 0.877891 0.265995 0.338391
Si Si4 0.000000 0.174658 0.500000
Si Si5 0.391583 0.102622 0.254404
Si Si6 0.460027 0.924739 0.834383
Si Si7 0.000000 0.203389 0.000000
Si Si8 0.111610 0.771472 0.246939
O O1 0.452810 0.517658 0.827923
O O2 0.529786 0.680558 0.744715
O O3 0.166435 0.613443 0.848715
O O4 0.359295 0.646294 0.971948
O O5 0.660213 0.928422 0.846739
O O6 0.986681 0.849015 0.783449
O O7 0.741684 0.916567 0.020967
O O8 0.888086 0.238422 0.455287
O O9 0.014165 0.347095 0.254810
O O10 0.657501 0.283060 0.353820
O O11 0.833546 0.112738 0.612083
O O12 0.507567 0.183579 0.258639
O O13 0.517241 0.016134 0.227420
O O14 0.842289 0.261502 0.116323
#
# Coordination Sequence:
#
# PCOD9120502 Si02
#       8
#     4   4   4   2   4   4   2   4
#     4   9  18  33  53  79 114 148 180 219 272 333
#     4   9  16  30  54  85 116 143 172 216 277 343
#     4   9  19  37  56  77 109 147 187 232 278 324
#     4  10  22  42  56  72 110 152 192 246 278 300
#     4  10  21  37  58  82 109 147 193 234 272 320
#     4   9  17  32  56  82 110 144 180 221 277 339
#     4  10  18  32  50  76 116 152 172 218 276 332
#     4  10  19  33  56  84 113 144 182 224 277 338
#
# _framework density 21.657730999999998
#
# number of rings (size 3 to 8) (size 9 to 14) (size 15 to 20)
#    0.000    2.571    0.000    3.429    0.000    2.286 
#    0.000   17.143    0.000    0.000    0.000    0.000 
#    0.000    0.000    0.000    0.000    0.000    0.000 
#
# Total GULP energy -78001.138566 kJ/mol
# GULP energy per Si atom -5571.509898 kJ/mol
# Density = 2.160844 g / cm^3
# Si number density = 21.657731 Si / 1000 Ang^3
#
#
#
# Elastic Constant Matrix: (Units=GPa)
#
#
# Indices 1 2 3 4 5 6 
#
# 1 40.5605 18.0570 22.8301 0.0000 14.4433 0.0000
# 2 18.0570 182.7046 40.7240 0.0000 14.6803 0.0000
# 3 22.8301 40.7240 87.0034 0.0000 17.5229 0.0000
# 4 0.0000 0.0000 0.0000 17.4030 0.0000 3.1129
# 5 14.4433 14.6803 17.5229 0.0000 30.9010 0.0000
# 6 0.0000 0.0000 0.0000 3.1129 0.0000 23.3527
#
#
#
# Elastic Compliance Matrix: (Units=1/GPa)
#
#
# Indices 1 2 3 4 5 6 
#
# 1 0.032392 -0.001007 -0.005730 0.000000 -0.011412 0.000000
# 2 -0.001007 0.006200 -0.002415 0.000000 -0.001105 0.000000
# 3 -0.005730 -0.002415 0.015080 0.000000 -0.004726 0.000000
# 4 0.000000 0.000000 0.000000 0.058865 0.000000 -0.007847
# 5 -0.011412 -0.001105 -0.004726 0.000000 0.040900 0.000000
# 6 0.000000 0.000000 0.000000 -0.007847 0.000000 0.043868
#
#
# Mechanical properties :
#
#
# Convention : Reuss Voigt Hill
#
# Bulk Modulus (GPa) = 28.27490 52.61010 40.44250
# Shear Modulus (GPa) = 21.98793 29.57519 25.78156
#
# Velocity S-wave (km/s) = 3.18975 3.69937 3.45397
# Velocity P-wave (km/s) = 5.16233 6.52622 5.88393
#
# Compressibility (1/GPa) = 0.03536706
#
# Stress axis : x y z
#
# Youngs Moduli (GPa) = 30.87186 161.29067 66.31490
#
# Poissons Ratio (x) = 0.16245 0.37997
# Poissons Ratio (y) = 0.03109 0.16016
# Poissons Ratio (z) = 0.17689 0.38955
#
# Static dielectric constant tensor:
#      x y z
#    x 1.877180 0.000000 0.020160 
#    y 0.000000 1.842150 0.000000 
#    z 0.020160 0.000000 1.853080 
# 
# From -- ./inp_files/36323.got.cif
#   From: 2010.05.17/outbox.cif.g08.bks.cpg/sg5_19_cif.got.tgz:36323.got - 2010.06.03 18:56:24.
