data_PCOD9120549
_publ_section_title
;
Structure prediction by ZEFSAII (Michael W. Deem and Ramdas Pophale) SiO2 
 PCOD9120549
Probable space group: C 2
;
_chemical_formula_sum "Si O2"
_cell_formula_units_Z 30
_cell_length_a 14.349562
_cell_length_b 9.574954
_cell_length_c 12.342209
_cell_angle_alpha 90.000000
_cell_angle_beta 69.543740
_cell_angle_gamma 90.000000
_cell_volume 1588.838219
_symmetry_space_group_name_H-M "C 2"
_symmetry_group_IT_number 5
_symmetry_cell_setting 'monoclinic'
loop_
_space_group_symop_operation_xyz
x,y,z
-x,y,-z
1/2+x,1/2+y,z
1/2-x,1/2+y,-z
loop_
_atom_site_type_symbol
_atom_site_label
_atom_site_fract_x
_atom_site_fract_y
_atom_site_fract_z
Si Si1 0.481979 0.330850 0.129619
Si Si2 0.254579 0.398268 0.234011
Si Si3 0.031289 0.515292 0.820361
Si Si4 0.713297 0.625569 0.956317
Si Si5 0.500000 0.767005 0.000000
Si Si6 0.863551 0.830122 0.768282
Si Si7 0.433162 0.057265 0.631902
Si Si8 0.754112 0.089598 0.800123
O O1 0.370893 0.369549 0.212773
O O2 0.512583 0.165360 0.122464
O O3 0.558673 0.397088 0.180147
O O4 0.500000 0.374361 0.000000
O O5 0.261286 0.482882 0.118166
O O6 0.176375 0.488501 0.334315
O O7 0.211787 0.242999 0.246489
O O8 0.145727 0.552209 0.797956
O O9 0.990994 0.499185 0.714790
O O10 0.007701 0.376083 0.896657
O O11 0.780963 0.745581 0.871903
O O12 0.599782 0.675914 0.979742
O O13 0.742216 0.599397 0.069672
O O14 0.914479 0.719324 0.668884
O O15 0.817517 0.962453 0.729788
O O16 0.500000 0.038915 0.500000
#
# Coordination Sequence:
#
# PCOD9120549 Si02
#       8
#     4   4   4   4   2   4   4   4
#     4  10  18  32  57  87 126 157 192 239 309 374
#     4  10  23  36  56  87 122 162 204 243 310 366
#     4  10  21  35  60  89 117 166 202 247 310 374
#     4  11  22  33  53  89 132 168 192 246 296 383
#     4  12  22  34  56  94 132 168 206 244 310 380
#     4  10  21  36  60  85 119 159 207 251 298 362
#     4  10  23  46  64  81 115 164 215 268 311 358
#     4  11  20  37  56  90 127 157 199 248 310 378
#
# _framework density 18.881720000000001
#
# number of rings (size 3 to 8) (size 9 to 14) (size 15 to 20)
#    0.000    1.600    2.000    4.000    6.533    0.000 
#    0.000    4.667    0.000    0.000    0.000    0.000 
#    0.000    0.000    0.000    0.000    0.000    0.000 
#
# Total GULP energy -83592.474057 kJ/mol
# GULP energy per Si atom -5572.831604 kJ/mol
# Density = 1.883874 g / cm^3
# Si number density = 18.881720 Si / 1000 Ang^3
#
#
#
# Elastic Constant Matrix: (Units=GPa)
#
#
# Indices 1 2 3 4 5 6 
#
# 1 103.0659 24.7768 34.6467 0.0000 -8.2342 0.0000
# 2 24.7768 85.7275 21.5609 0.0000 -1.6217 0.0000
# 3 34.6467 21.5609 74.9995 0.0000 -10.7848 0.0000
# 4 0.0000 0.0000 0.0000 5.1047 0.0000 -3.6085
# 5 -8.2342 -1.6217 -10.7848 0.0000 18.7118 0.0000
# 6 0.0000 0.0000 0.0000 -3.6085 0.0000 31.7729
#
#
#
# Elastic Compliance Matrix: (Units=1/GPa)
#
#
# Indices 1 2 3 4 5 6 
#
# 1 0.011965 -0.002275 -0.004519 0.000000 0.002464 0.000000
# 2 -0.002275 0.013027 -0.002917 0.000000 -0.001554 0.000000
# 3 -0.004519 -0.002917 0.017378 0.000000 0.007774 0.000000
# 4 0.000000 0.000000 0.000000 0.212997 0.000000 0.024190
# 5 0.002464 -0.001554 0.007774 0.000000 0.058872 0.000000
# 6 0.000000 0.000000 0.000000 0.024190 0.000000 0.034221
#
#
# Mechanical properties :
#
#
# Convention : Reuss Voigt Hill
#
# Bulk Modulus (GPa) = 43.57940 47.30686 45.44313
# Shear Modulus (GPa) = 13.31443 23.30513 18.30978
#
# Velocity S-wave (km/s) = 2.65835 3.51703 3.11739
# Velocity P-wave (km/s) = 5.70550 6.44991 6.08909
#
# Compressibility (1/GPa) = 0.02294662
#
# Stress axis : x y z
#
# Youngs Moduli (GPa) = 83.57393 76.76523 57.54479
#
# Poissons Ratio (x) = 0.17464 0.26006
# Poissons Ratio (y) = 0.19013 0.16788
# Poissons Ratio (z) = 0.37769 0.22395
#
# Static dielectric constant tensor:
#      x y z
#    x 1.728730 0.000000 -0.006490 
#    y 0.000000 1.686400 0.000000 
#    z -0.006490 0.000000 1.626620 
# 
# From -- ./inp_files/41945.got.cif
#   From: 2010.05.17/outbox.cif.g08.bks.cpg/sg5_21_cif.got.tgz:41945.got - 2010.06.03 18:56:24.
