data_PCOD9120893
_publ_section_title
;
Structure prediction by ZEFSAII (Michael W. Deem and Ramdas Pophale) SiO2 
 PCOD9120893
Probable space group: C 2
;
_chemical_formula_sum "Si O2"
_cell_formula_units_Z 32
_cell_length_a 21.653006
_cell_length_b 7.197626
_cell_length_c 11.619250
_cell_angle_alpha 90.000000
_cell_angle_beta 41.971140
_cell_angle_gamma 90.000000
_cell_volume 1211.025781
_symmetry_space_group_name_H-M "C 2"
_symmetry_group_IT_number 5
_symmetry_cell_setting 'monoclinic'
loop_
_space_group_symop_operation_xyz
x,y,z
-x,y,-z
1/2+x,1/2+y,z
1/2-x,1/2+y,-z
loop_
_atom_site_type_symbol
_atom_site_label
_atom_site_fract_x
_atom_site_fract_y
_atom_site_fract_z
Si Si1 0.092930 0.814840 0.434918
Si Si2 0.798413 0.855737 0.928904
Si Si3 0.445294 0.174855 0.282165
Si Si4 0.866259 0.673238 0.070875
Si Si5 0.749638 0.136350 0.570889
Si Si6 0.582496 0.504259 0.820405
Si Si7 0.898609 0.231550 0.507722
Si Si8 0.394301 0.756646 0.782123
O O1 0.063612 0.663908 0.569146
O O2 0.000000 0.870511 0.500000
O O3 0.119580 0.007523 0.459459
O O4 0.162759 0.755308 0.239282
O O5 0.818847 0.752648 0.021026
O O6 0.689583 0.881094 0.057552
O O7 0.853510 0.049439 0.855940
O O8 0.342274 0.152884 0.378199
O O9 0.465525 0.388412 0.216585
O O10 0.535006 0.083005 0.100367
O O11 0.801728 0.547629 0.243239
O O12 0.885654 0.849398 0.129824
O O13 0.812611 0.292730 0.549380
O O14 0.827487 0.082772 0.367535
O O15 0.500000 0.614334 0.000000
O O16 0.897423 0.293766 0.640874
O O17 0.001227 0.266444 0.318197
#
# Coordination Sequence:
#
# PCOD9120893 Si02
#       8
#     4   4   4   4   4   4   4   4
#     4  11  18  34  62  88 116 156 212 262 294 365
#     4  11  21  36  65  93 125 160 207 264 315 368
#     4  10  20  36  56  88 116 154 204 253 308 370
#     4  10  20  37  61  87 115 159 208 254 315 373
#     4  11  20  34  61  86 117 160 203 256 311 365
#     4   9  20  34  57  81 111 149 203 257 294 370
#     4  10  18  36  62  83 111 164 217 247 308 380
#     4  10  21  36  61  91 120 160 209 263 309 375
#
# _framework density 26.42388
#
# number of rings (size 3 to 8) (size 9 to 14) (size 15 to 20)
#    0.000    1.750    6.250    1.125    1.750    1.000 
#    0.000    0.000    8.250    6.000    0.000    0.000 
#    0.000    0.000    0.000    0.000    0.000    0.000 
#
# Total GULP energy -89153.806030 kJ/mol
# GULP energy per Si atom -5572.112877 kJ/mol
# Density = 2.636374 g / cm^3
# Si number density = 26.423880 Si / 1000 Ang^3
#
#
#
# Elastic Constant Matrix: (Units=GPa)
#
#
# Indices 1 2 3 4 5 6 
#
# 1 55.4417 17.7096 41.7046 0.0000 -5.9500 0.0000
# 2 17.7096 49.5387 34.3891 0.0002 8.7311 -0.0001
# 3 41.7046 34.3891 272.6564 0.0000 -9.4228 0.0000
# 4 0.0000 0.0002 0.0000 29.9270 0.0000 0.4888
# 5 -5.9500 8.7311 -9.4228 0.0000 71.4120 0.0000
# 6 0.0000 -0.0001 0.0000 0.4888 0.0000 14.0544
#
#
#
# Elastic Compliance Matrix: (Units=1/GPa)
#
#
# Indices 1 2 3 4 5 6 
#
# 1 0.022285 -0.006652 -0.002489 0.000000 0.002342 0.000000
# 2 -0.006652 0.024808 -0.002246 0.000000 -0.003884 0.000000
# 3 -0.002489 -0.002246 0.004354 0.000000 0.000642 0.000000
# 4 0.000000 0.000000 0.000000 0.033434 0.000000 -0.001163
# 5 0.002342 -0.003884 0.000642 0.000000 0.014758 0.000000
# 6 0.000000 0.000000 0.000000 -0.001163 0.000000 0.071193
#
#
# Mechanical properties :
#
#
# Convention : Reuss Voigt Hill
#
# Bulk Modulus (GPa) = 34.87476 62.80483 48.83979
# Shear Modulus (GPa) = 24.61105 42.00093 33.30599
#
# Velocity S-wave (km/s) = 3.05519 3.99119 3.55413
# Velocity P-wave (km/s) = 5.06679 6.71262 5.94692
#
# Compressibility (1/GPa) = 0.02867403
#
# Stress axis : x y z
#
# Youngs Moduli (GPa) = 44.87297 40.31028 229.68927
#
# Poissons Ratio (x) = 0.26813 0.57164
# Poissons Ratio (y) = 0.29848 0.51581
# Poissons Ratio (z) = 0.11168 0.09052
#
# Static dielectric constant tensor:
#      x y z
#    x 2.053970 0.000000 -0.026280 
#    y 0.000000 2.241090 0.000000 
#    z -0.026280 0.000000 2.164050 
# 
# From -- ./inp_files/47490.got.cif
#   From: 2010.05.17/outbox.cif.g08.bks.cpg/sg5_24_cif.got.tgz:47490.got - 2010.06.03 18:56:24.
