data_PCOD9120785
_publ_section_title
;
Structure prediction by ZEFSAII (Michael W. Deem and Ramdas Pophale) SiO2 
 PCOD9120785
Probable space group: C 2
;
_chemical_formula_sum "Si O2"
_cell_formula_units_Z 24
_cell_length_a 15.983589
_cell_length_b 16.775505
_cell_length_c 8.613443
_cell_angle_alpha 90.000000
_cell_angle_beta 34.710088
_cell_angle_gamma 90.000000
_cell_volume 1315.111765
_symmetry_space_group_name_H-M "C 2"
_symmetry_group_IT_number 5
_symmetry_cell_setting 'monoclinic'
loop_
_space_group_symop_operation_xyz
x,y,z
-x,y,-z
1/2+x,1/2+y,z
1/2-x,1/2+y,-z
loop_
_atom_site_type_symbol
_atom_site_label
_atom_site_fract_x
_atom_site_fract_y
_atom_site_fract_z
Si Si1 0.500000 0.657810 0.500000
Si Si2 0.060767 0.313882 0.244162
Si Si3 0.334850 0.385266 0.700498
Si Si4 0.822141 0.735124 0.532400
Si Si5 0.500000 0.151549 0.000000
Si Si6 0.297374 0.057519 0.073176
Si Si7 0.000000 0.282375 0.000000
Si Si8 0.000000 0.623593 0.500000
O O1 0.525092 0.720310 0.321318
O O2 0.645149 0.605811 0.294073
O O3 0.999386 0.332393 0.164234
O O4 0.000000 0.350007 0.500000
O O5 0.234334 0.332004 0.970239
O O6 0.500000 0.401773 0.500000
O O7 0.346420 0.328287 0.533787
O O8 0.245849 0.466997 0.824614
O O9 0.897600 0.681203 0.550739
O O10 0.646851 0.729886 0.786914
O O11 0.899396 0.706852 0.259653
O O12 0.604038 0.096504 0.944531
O O13 0.393730 0.070758 0.770552
#
# Coordination Sequence:
#
# PCOD9120785 Si02
#       8
#     2   4   4   4   2   4   2   2
#     4  10  20  38  60  90 122 164 210 250 304 390
#     4   9  22  36  62  90 119 168 215 249 308 383
#     4  11  22  38  62  91 126 161 206 262 310 370
#     4  10  21  39  65  90 121 161 214 253 308 378
#     4  10  24  39  64  87 126 160 206 256 312 381
#     4  11  22  39  60  92 124 162 200 259 321 365
#     4  10  18  35  58  93 116 152 202 274 292 353
#     4  10  22  38  62  90 122 166 208 250 308 384
#
# _framework density 18.249400000000001
#
# number of rings (size 3 to 8) (size 9 to 14) (size 15 to 20)
#    0.500    1.333    1.667    3.000    3.500    2.667 
#    0.000    0.000    7.333    1.000    0.000    0.000 
#    0.000    0.000    0.000    0.000    0.000    0.000 
#
# Total GULP energy -66818.305618 kJ/mol
# GULP energy per Si atom -5568.192135 kJ/mol
# Density = 1.820786 g / cm^3
# Si number density = 18.249400 Si / 1000 Ang^3
#
#
#
# Elastic Constant Matrix: (Units=GPa)
#
#
# Indices 1 2 3 4 5 6 
#
# 1 101.9780 29.6242 75.4374 0.0000 0.2252 -0.0001
# 2 29.6242 110.8990 60.1513 0.0000 0.4098 0.0000
# 3 75.4374 60.1513 153.1805 0.0001 -5.6107 -0.0001
# 4 0.0000 0.0000 0.0001 51.7432 0.0000 -14.4533
# 5 0.2252 0.4098 -5.6107 0.0000 41.5109 0.0001
# 6 -0.0001 0.0000 -0.0001 -14.4533 0.0001 13.6262
#
#
#
# Elastic Compliance Matrix: (Units=1/GPa)
#
#
# Indices 1 2 3 4 5 6 
#
# 1 0.015477 0.000033 -0.007676 0.000000 -0.001122 0.000000
# 2 0.000033 0.011479 -0.004551 0.000000 -0.000729 0.000000
# 3 -0.007676 -0.004551 0.012159 0.000000 0.001730 0.000000
# 4 0.000000 0.000000 0.000000 0.027463 0.000000 0.029130
# 5 -0.001122 -0.000729 0.001730 0.000000 0.024337 0.000000
# 6 0.000000 0.000000 0.000000 0.029130 0.000000 0.104286
#
#
# Mechanical properties :
#
#
# Convention : Reuss Voigt Hill
#
# Bulk Modulus (GPa) = 67.89771 77.38702 72.64237
# Shear Modulus (GPa) = 22.27175 34.76571 28.51873
#
# Velocity S-wave (km/s) = 3.49723 4.36940 3.95742
# Velocity P-wave (km/s) = 7.32077 8.24335 7.79572
#
# Compressibility (1/GPa) = 0.01472804
#
# Stress axis : x y z
#
# Youngs Moduli (GPa) = 64.61041 87.11288 82.24308
#
# Poissons Ratio (x) = -0.00291 0.63133
# Poissons Ratio (y) = -0.00216 0.37428
# Poissons Ratio (z) = 0.49598 0.39644
#
# Static dielectric constant tensor:
#      x y z
#    x 1.654110 0.000000 0.019430 
#    y 0.000000 1.619790 0.000000 
#    z 0.019430 0.000000 1.628080 
# 
# From -- ./inp_files/15865.got.cif
#   From: 2010.05.17/outbox.cif.g08.bks.cpg/sg5_8_cif.got.tgz:15865.got - 2010.06.03 18:56:24.
