data_PCOD9120299
_publ_section_title
;
Structure prediction by ZEFSAII (Michael W. Deem and Ramdas Pophale) SiO2 
 PCOD9120299
Probable space group: C 2
;
_chemical_formula_sum "Si O2"
_cell_formula_units_Z 18
_cell_length_a 6.143052
_cell_length_b 18.249598
_cell_length_c 9.061019
_cell_angle_alpha 90.000000
_cell_angle_beta 126.656542
_cell_angle_gamma 90.000000
_cell_volume 814.915788
_symmetry_space_group_name_H-M "C 2"
_symmetry_group_IT_number 5
_symmetry_cell_setting 'monoclinic'
loop_
_space_group_symop_operation_xyz
x,y,z
-x,y,-z
1/2+x,1/2+y,z
1/2-x,1/2+y,-z
loop_
_atom_site_type_symbol
_atom_site_label
_atom_site_fract_x
_atom_site_fract_y
_atom_site_fract_z
Si Si1 0.295386 0.816820 0.687861
Si Si2 0.500000 0.567848 0.500000
Si Si3 0.199527 0.152697 0.305537
Si Si4 0.000000 0.409582 0.500000
Si Si5 0.000000 0.427071 0.000000
Si Si6 0.884621 0.516720 0.226067
O O1 0.390141 0.735048 0.766796
O O2 0.448224 0.855580 0.615115
O O3 0.000000 0.810646 0.500000
O O4 0.310454 0.872464 0.829808
O O5 0.516422 0.617655 0.359826
O O6 0.784133 0.524083 0.627217
O O7 0.500000 0.156496 0.500000
O O8 0.249899 0.095482 0.194091
O O9 0.197302 0.467039 0.666036
O O10 0.841029 0.477313 0.053122
#
# Coordination Sequence:
#
# PCOD9120299 Si02
#       6
#     4   2   4   2   2   4
#     4  10  22  41  64  83 127 159 189 253 308 341
#     4  10  17  34  66  87 110 162 196 240 307 332
#     4   9  18  36  63  91 115 155 204 241 296 361
#     4  10  19  34  62  91 116 152 204 240 287 370
#     4  10  24  38  58  94 124 152 206 244 286 368
#     4  10  20  37  59  91 121 150 207 245 283 363
#
# _framework density 22.088173999999999
#
# number of rings (size 3 to 8) (size 9 to 14) (size 15 to 20)
#    0.000    2.222    3.333    0.667    6.222    0.000 
#    4.000    8.889    0.000    0.000    0.000    0.000 
#    0.000    0.000    0.000    0.000    0.000    0.000 
#
# Total GULP energy -50170.225998 kJ/mol
# GULP energy per Si atom -5574.469555 kJ/mol
# Density = 2.203790 g / cm^3
# Si number density = 22.088174 Si / 1000 Ang^3
#
#
#
# Elastic Constant Matrix: (Units=GPa)
#
#
# Indices 1 2 3 4 5 6 
#
# 1 61.2755 48.2374 36.3554 0.0000 -19.7941 0.0000
# 2 48.2374 197.3379 65.1529 0.0000 -32.5896 0.0000
# 3 36.3554 65.1529 105.4862 0.0000 -27.9216 0.0000
# 4 0.0000 0.0000 0.0000 40.4091 0.0000 -16.8637
# 5 -19.7941 -32.5896 -27.9216 0.0000 42.4895 0.0000
# 6 0.0000 0.0000 0.0000 -16.8637 0.0000 34.2359
#
#
#
# Elastic Compliance Matrix: (Units=1/GPa)
#
#
# Indices 1 2 3 4 5 6 
#
# 1 0.023380 -0.003317 -0.004600 0.000000 0.005325 0.000000
# 2 -0.003317 0.007120 -0.002685 0.000000 0.002151 0.000000
# 3 -0.004600 -0.002685 0.014056 0.000000 0.005035 0.000000
# 4 0.000000 0.000000 0.000000 0.031150 0.000000 0.015344
# 5 0.005325 0.002151 0.005035 0.000000 0.030975 0.000000
# 6 0.000000 0.000000 0.000000 0.015344 0.000000 0.036767
#
#
# Mechanical properties :
#
#
# Convention : Reuss Voigt Hill
#
# Bulk Modulus (GPa) = 42.82086 73.73234 58.27660
# Shear Modulus (GPa) = 28.99629 37.71718 33.35674
#
# Velocity S-wave (km/s) = 3.62712 4.13676 3.89030
# Velocity P-wave (km/s) = 6.08028 7.50136 6.82789
#
# Compressibility (1/GPa) = 0.02335310
#
# Stress axis : x y z
#
# Youngs Moduli (GPa) = 42.77129 140.44866 71.14316
#
# Poissons Ratio (x) = 0.46588 0.32723
# Poissons Ratio (y) = 0.14187 0.19102
# Poissons Ratio (z) = 0.19673 0.37710
#
# Static dielectric constant tensor:
#      x y z
#    x 1.853760 0.000000 0.006430 
#    y 0.000000 1.853400 0.000000 
#    z 0.006430 0.000000 1.810520 
# 
# From -- ./inp_files/11899.got.cif
#   From: 2010.05.17/outbox.cif.g08.bks.cpg/sg5_6_cif.got.tgz:11899.got - 2010.06.03 18:56:24.
