data_PCOD9120481
_publ_section_title
;
Structure prediction by ZEFSAII (Michael W. Deem and Ramdas Pophale) SiO2 
 PCOD9120481
Probable space group: C 2
;
_chemical_formula_sum "Si O2"
_cell_formula_units_Z 30
_cell_length_a 21.032823
_cell_length_b 13.947809
_cell_length_c 7.512063
_cell_angle_alpha 90.000000
_cell_angle_beta 41.123194
_cell_angle_gamma 90.000000
_cell_volume 1449.364354
_symmetry_space_group_name_H-M "C 2"
_symmetry_group_IT_number 5
_symmetry_cell_setting 'monoclinic'
loop_
_space_group_symop_operation_xyz
x,y,z
-x,y,-z
1/2+x,1/2+y,z
1/2-x,1/2+y,-z
loop_
_atom_site_type_symbol
_atom_site_label
_atom_site_fract_x
_atom_site_fract_y
_atom_site_fract_z
Si Si1 0.547785 0.621230 0.221391
Si Si2 0.692478 0.714285 0.677648
Si Si3 0.860352 0.621219 0.568183
Si Si4 0.154059 0.853935 0.648117
Si Si5 0.000000 0.704993 0.000000
Si Si6 0.853785 0.048277 0.469140
Si Si7 0.109553 0.807746 0.325795
Si Si8 0.218175 0.984639 0.007856
O O1 0.500000 0.663714 0.500000
O O2 0.462994 0.562497 0.304988
O O3 0.632043 0.549021 0.106057
O O4 0.594695 0.700478 0.995025
O O5 0.775621 0.664264 0.621954
O O6 0.736798 0.818473 0.554417
O O7 0.681063 0.650014 0.528328
O O8 0.869245 0.694541 0.715649
O O9 0.819854 0.518926 0.713593
O O10 0.955420 0.638569 0.248596
O O11 0.082289 0.779598 0.897415
O O12 0.122102 0.837530 0.507994
O O13 0.146397 0.967503 0.684733
O O14 0.787665 0.012690 0.770922
O O15 0.185000 0.874623 0.062464
O O16 0.000000 0.827756 0.500000
#
# Coordination Sequence:
#
# PCOD9120481 Si02
#       8
#     4   4   4   4   2   4   4   4
#     4   9  17  29  51  79 108 133 171 219 265 309
#     4   9  18  32  48  78 109 143 170 212 271 313
#     4   9  19  35  49  79 113 143 170 225 267 316
#     4   9  19  32  51  79 112 138 169 227 265 311
#     4   8  16  32  50  68 108 144 172 204 276 304
#     4  10  18  31  53  84 106 136 180 219 266 317
#     4   9  16  32  54  83 108 132 179 223 266 317
#     4   9  17  32  51  79 115 137 167 223 275 313
#
# _framework density 20.698727000000002
#
# number of rings (size 3 to 8) (size 9 to 14) (size 15 to 20)
#    0.000    3.200    0.000    2.400    1.867    0.000 
#   12.000    0.000    0.000    0.000   48.533    7.467 
#    0.000    0.000    0.000    0.000    0.000    0.000 
#
# Total GULP energy -83573.156915 kJ/mol
# GULP energy per Si atom -5571.543794 kJ/mol
# Density = 2.065162 g / cm^3
# Si number density = 20.698727 Si / 1000 Ang^3
#
#
#
# Elastic Constant Matrix: (Units=GPa)
#
#
# Indices 1 2 3 4 5 6 
#
# 1 32.3871 24.9074 7.2380 0.0000 4.7968 0.0000
# 2 24.9074 71.2264 47.9449 0.0000 -6.3288 0.0000
# 3 7.2380 47.9449 103.1977 0.0000 -1.9037 0.0000
# 4 0.0000 0.0000 0.0000 28.0027 0.0000 -3.1112
# 5 4.7968 -6.3288 -1.9037 0.0000 11.5843 0.0000
# 6 0.0000 0.0000 0.0000 -3.1112 0.0000 16.1966
#
#
#
# Elastic Compliance Matrix: (Units=1/GPa)
#
#
# Indices 1 2 3 4 5 6 
#
# 1 0.057169 -0.029418 0.008952 0.000000 -0.038273 0.000000
# 2 -0.029418 0.036697 -0.014435 0.000000 0.029858 0.000000
# 3 0.008952 -0.014435 0.015602 0.000000 -0.009029 0.000000
# 4 0.000000 0.000000 0.000000 0.036490 0.000000 0.007009
# 5 -0.038273 0.029858 -0.009029 0.000000 0.117000 0.000000
# 6 0.000000 0.000000 0.000000 0.007009 0.000000 0.063088
#
#
# Mechanical properties :
#
#
# Convention : Reuss Voigt Hill
#
# Bulk Modulus (GPa) = 25.21115 40.77687 32.99401
# Shear Modulus (GPa) = 12.22288 19.60479 15.91383
#
# Velocity S-wave (km/s) = 2.43268 3.08092 2.77579
# Velocity P-wave (km/s) = 4.48298 5.69201 5.12329
#
# Compressibility (1/GPa) = 0.03966500
#
# Stress axis : x y z
#
# Youngs Moduli (GPa) = 17.49209 27.25047 64.09412
#
# Poissons Ratio (x) = 0.80165 -0.57375
# Poissons Ratio (y) = 0.51458 0.92519
# Poissons Ratio (z) = -0.15658 0.39336
#
# Static dielectric constant tensor:
#      x y z
#    x 1.766470 0.000000 0.050780 
#    y 0.000000 1.797580 0.000000 
#    z 0.050780 0.000000 1.821770 
# 
# From -- ./inp_files/30930.got.cif
#   From: 2010.05.17/outbox.cif.g08.bks.cpg/sg5_16_cif.got.tgz:30930.got - 2010.06.03 18:56:24.
