data_PCOD9120822
_publ_section_title
;
Structure prediction by ZEFSAII (Michael W. Deem and Ramdas Pophale) SiO2 
 PCOD9120822
Probable space group: C 2
;
_chemical_formula_sum "Si O2"
_cell_formula_units_Z 32
_cell_length_a 13.676294
_cell_length_b 12.184810
_cell_length_c 15.505994
_cell_angle_alpha 90.000000
_cell_angle_beta 33.617829
_cell_angle_gamma 90.000000
_cell_volume 1430.614623
_symmetry_space_group_name_H-M "C 2"
_symmetry_group_IT_number 5
_symmetry_cell_setting 'monoclinic'
loop_
_space_group_symop_operation_xyz
x,y,z
-x,y,-z
1/2+x,1/2+y,z
1/2-x,1/2+y,-z
loop_
_atom_site_type_symbol
_atom_site_label
_atom_site_fract_x
_atom_site_fract_y
_atom_site_fract_z
Si Si1 0.885899 0.952130 0.515142
Si Si2 0.421970 0.234751 0.139178
Si Si3 0.258627 0.660919 0.560984
Si Si4 0.382097 0.429465 0.918747
Si Si5 0.096252 0.170780 0.021588
Si Si6 0.037641 0.785314 0.294788
Si Si7 0.498081 0.871726 0.792451
Si Si8 0.048879 0.345488 0.373832
O O1 0.692010 0.907577 0.679048
O O2 0.000000 0.020051 0.500000
O O3 0.024047 0.856851 0.390108
O O4 0.836578 0.044120 0.481468
O O5 0.369168 0.161928 0.260425
O O6 0.567890 0.327436 0.055435
O O7 0.245508 0.300560 0.243054
O O8 0.500000 0.171126 0.000000
O O9 0.413256 0.744507 0.469108
O O10 0.135750 0.711038 0.578332
O O11 0.422858 0.545639 0.931947
O O12 0.483032 0.382000 0.761424
O O13 0.175522 0.433199 0.044718
O O14 0.029164 0.249380 0.148604
O O15 0.295225 0.212519 0.853432
O O16 0.000000 0.184558 0.000000
O O17 0.476609 0.891468 0.704478
O O18 0.000000 0.407876 0.500000
#
# Coordination Sequence:
#
# PCOD9120822 Si02
#       8
#     4   4   4   4   4   4   4   4
#     4  12  24  42  65  89 127 175 220 259 319 382
#     4  10  18  35  63  94 128 155 202 260 327 370
#     4  10  22  41  61  94 125 167 208 267 314 384
#     4  10  22  40  66  94 123 169 209 263 325 387
#     4  11  24  43  63  91 130 171 218 264 317 381
#     4  10  23  42  64  90 128 165 215 266 320 380
#     4  11  23  41  64  93 129 168 211 269 318 377
#     4  10  20  37  62  93 132 157 201 268 325 366
#
# _framework density 22.368009000000001
#
# number of rings (size 3 to 8) (size 9 to 14) (size 15 to 20)
#    0.000    1.500    2.500    3.000    1.750    0.000 
#    0.000    1.875    0.000    0.000    0.000    0.000 
#    0.000    0.000    0.000    0.000    0.000    0.000 
#
# Total GULP energy -89087.570353 kJ/mol
# GULP energy per Si atom -5567.973147 kJ/mol
# Density = 2.231710 g / cm^3
# Si number density = 22.368009 Si / 1000 Ang^3
#
#
#
# Elastic Constant Matrix: (Units=GPa)
#
#
# Indices 1 2 3 4 5 6 
#
# 1 80.3411 7.0606 3.1222 -0.0001 -13.4867 0.0001
# 2 7.0606 65.2619 -1.0770 -0.0004 -4.9954 0.0002
# 3 3.1222 -1.0770 31.1942 -0.0006 -11.6859 0.0003
# 4 -0.0001 -0.0004 -0.0006 25.5840 0.0004 -1.3252
# 5 -13.4867 -4.9954 -11.6859 0.0004 41.6642 -0.0002
# 6 0.0001 0.0002 0.0003 -1.3252 -0.0002 18.5548
#
#
#
# Elastic Compliance Matrix: (Units=1/GPa)
#
#
# Indices 1 2 3 4 5 6 
#
# 1 0.013243 -0.001107 0.000215 0.000000 0.004215 0.000000
# 2 -0.001107 0.015610 0.001360 0.000000 0.001895 0.000000
# 3 0.000215 0.001360 0.035947 0.000001 0.010315 -0.000001
# 4 0.000000 0.000000 0.000001 0.039232 0.000000 0.002802
# 5 0.004215 0.001895 0.010315 0.000000 0.028486 0.000000
# 6 0.000000 0.000000 -0.000001 0.002802 0.000000 0.054095
#
#
# Mechanical properties :
#
#
# Convention : Reuss Voigt Hill
#
# Bulk Modulus (GPa) = 15.21235 21.66764 18.44000
# Shear Modulus (GPa) = 24.08609 28.34003 26.21306
#
# Velocity S-wave (km/s) = 3.28504 3.56334 3.42702
# Velocity P-wave (km/s) = 4.60482 5.16118 4.89092
#
# Compressibility (1/GPa) = 0.06573607
#
# Stress axis : x y z
#
# Youngs Moduli (GPa) = 75.50989 64.06124 27.81892
#
# Poissons Ratio (x) = 0.07089 -0.00598
# Poissons Ratio (y) = 0.08356 -0.03782
# Poissons Ratio (z) = -0.01624 -0.08709
#
# Static dielectric constant tensor:
#      x y z
#    x 1.899290 0.000000 0.073130 
#    y 0.000000 1.829570 0.000000 
#    z 0.073130 0.000000 1.878620 
# 
# From -- ./inp_files/61700.got.cif
#   From: 2010.05.17/outbox.cif.g08.bks.cpg/sg5_31_cif.got.tgz:61700.got - 2010.06.03 18:56:24.
