data_PCOD9120605
_publ_section_title
;
Structure prediction by ZEFSAII (Michael W. Deem and Ramdas Pophale) SiO2 
 PCOD9120605
Probable space group: C 2
;
_chemical_formula_sum "Si O2"
_cell_formula_units_Z 16
_cell_length_a 8.522505
_cell_length_b 17.407208
_cell_length_c 4.962873
_cell_angle_alpha 90.000000
_cell_angle_beta 124.445357
_cell_angle_gamma 90.000000
_cell_volume 607.166263
_symmetry_space_group_name_H-M "C 2"
_symmetry_group_IT_number 5
_symmetry_cell_setting 'monoclinic'
loop_
_space_group_symop_operation_xyz
x,y,z
-x,y,-z
1/2+x,1/2+y,z
1/2-x,1/2+y,-z
loop_
_atom_site_type_symbol
_atom_site_label
_atom_site_fract_x
_atom_site_fract_y
_atom_site_fract_z
Si Si1 0.769332 0.545890 0.809778
Si Si2 0.770091 0.458227 0.307934
Si Si3 0.197642 0.689171 0.817153
Si Si4 0.282198 0.787548 0.383089
O O1 0.705390 0.525365 0.447997
O O2 0.708738 0.621626 0.914441
O O3 0.000000 0.551522 0.000000
O O4 0.710819 0.475954 0.946802
O O5 0.719033 0.374918 0.371417
O O6 0.000000 0.461102 0.500000
O O7 0.284351 0.732095 0.643986
O O8 0.000000 0.658620 0.500000
O O9 0.170261 0.753548 0.018595
O O10 0.500000 0.792071 0.500000
#
# Coordination Sequence:
#
# PCOD9120605 Si02
#       4
#     4   4   4   4
#     4  10  18  33  57  88 116 149 203 256 291 335
#     4   9  18  33  57  85 114 152 204 254 288 337
#     4  12  23  38  62  94 127 159 199 251 309 365
#     4  11  23  40  62  91 125 162 202 249 306 365
#
# _framework density 26.351928000000001
#
# number of rings (size 3 to 8) (size 9 to 14) (size 15 to 20)
#    0.000    1.500    0.000    8.250    0.000    4.000 
#    0.000    0.000    0.000   22.500    0.000    3.500 
#    0.000    0.000    0.000    0.000    0.000    0.000 
#
# Total GULP energy -44744.295005 kJ/mol
# GULP energy per Si atom -5593.036876 kJ/mol
# Density = 2.629195 g / cm^3
# Si number density = 26.351928 Si / 1000 Ang^3
#
#
#
# Elastic Constant Matrix: (Units=GPa)
#
#
# Indices 1 2 3 4 5 6 
#
# 1 94.6867 56.2848 52.6523 0.0000 -28.4430 0.0000
# 2 56.2848 160.7008 24.4838 0.0000 -43.3245 0.0000
# 3 52.6523 24.4838 97.3629 0.0000 -41.7295 0.0000
# 4 0.0000 0.0000 0.0000 35.3299 0.0000 -17.7373
# 5 -28.4430 -43.3245 -41.7295 0.0000 67.6108 0.0000
# 6 0.0000 0.0000 0.0000 -17.7373 0.0000 41.0959
#
#
#
# Elastic Compliance Matrix: (Units=1/GPa)
#
#
# Indices 1 2 3 4 5 6 
#
# 1 0.018527 -0.005461 -0.009253 0.000000 -0.001416 0.000000
# 2 -0.005461 0.009136 0.002965 0.000000 0.005387 0.000000
# 3 -0.009253 0.002965 0.018594 0.000000 0.009483 0.000000
# 4 0.000000 0.000000 0.000000 0.036135 0.000000 0.015596
# 5 -0.001416 0.005387 0.009483 0.000000 0.023499 0.000000
# 6 0.000000 0.000000 0.000000 0.015596 0.000000 0.031065
#
#
# Mechanical properties :
#
#
# Convention : Reuss Voigt Hill
#
# Bulk Modulus (GPa) = 43.94080 68.84357 56.39218
# Shear Modulus (GPa) = 29.75471 43.42930 36.59200
#
# Velocity S-wave (km/s) = 3.36390 4.06402 3.73042
# Velocity P-wave (km/s) = 5.63902 6.94285 6.32462
#
# Compressibility (1/GPa) = 0.02275789
#
# Stress axis : x y z
#
# Youngs Moduli (GPa) = 53.97452 109.45665 53.78184
#
# Poissons Ratio (x) = 0.59776 0.49764
# Poissons Ratio (y) = 0.29476 -0.15944
# Poissons Ratio (z) = 0.49942 -0.32449
#
# Static dielectric constant tensor:
#      x y z
#    x 2.116270 0.000000 0.120470 
#    y 0.000000 2.053880 0.000000 
#    z 0.120470 0.000000 2.014560 
# 
# From -- ./inp_files/2052.got.cif
#   From: 2010.05.17/outbox.cif.g08.bks.cpg/sg5_2_cif.got.tgz:2052.got - 2010.06.03 18:56:24.
