data_PCOD9120201
_publ_section_title
;
Structure prediction by ZEFSAII (Michael W. Deem and Ramdas Pophale) SiO2 
 PCOD9120201
Probable space group: C 2
;
_chemical_formula_sum "Si O2"
_cell_formula_units_Z 32
_cell_length_a 11.562356
_cell_length_b 20.889359
_cell_length_c 9.968232
_cell_angle_alpha 90.000000
_cell_angle_beta 143.339387
_cell_angle_gamma 90.000000
_cell_volume 1437.532363
_symmetry_space_group_name_H-M "C 2"
_symmetry_group_IT_number 5
_symmetry_cell_setting 'monoclinic'
loop_
_space_group_symop_operation_xyz
x,y,z
-x,y,-z
1/2+x,1/2+y,z
1/2-x,1/2+y,-z
loop_
_atom_site_type_symbol
_atom_site_label
_atom_site_fract_x
_atom_site_fract_y
_atom_site_fract_z
Si Si1 0.765123 0.472070 0.879153
Si Si2 0.232525 0.207665 0.679104
Si Si3 0.678546 0.599115 0.430594
Si Si4 0.721058 0.851179 0.646213
Si Si5 0.298478 0.454299 0.484629
Si Si6 0.781954 0.595368 0.241815
Si Si7 0.760387 0.615870 0.927004
Si Si8 0.825453 0.454902 0.226449
O O1 0.534298 0.460460 0.694012
O O2 0.783607 0.447642 0.743609
O O3 0.834000 0.546488 0.948099
O O4 0.867559 0.444435 0.108646
O O5 0.279167 0.155766 0.606311
O O6 0.295692 0.279331 0.701704
O O7 0.315577 0.175704 0.889840
O O8 0.000000 0.210299 0.500000
O O9 0.759031 0.526473 0.516616
O O10 0.661142 0.615964 0.257897
O O11 0.468052 0.600917 0.299575
O O12 0.500000 0.842137 0.500000
O O13 0.746763 0.895938 0.537674
O O14 0.799210 0.895869 0.838218
O O15 0.723399 0.523368 0.143885
O O16 0.000000 0.595260 0.500000
O O17 0.788964 0.631428 0.108866
O O18 0.000000 0.461054 0.500000
#
# Coordination Sequence:
#
# PCOD9120201 Si02
#       8
#     4   4   4   4   4   4   4   4
#     4   9  18  32  56  86 110 144 187 236 292 323
#     4   9  18  34  57  80 108 143 186 232 269 326
#     4  10  17  31  56  83 106 139 186 232 279 321
#     4  10  20  35  55  81 114 151 186 225 282 341
#     4  10  18  32  57  86 114 140 185 245 282 334
#     4  10  19  31  52  78 115 145 177 231 279 326
#     4   9  17  32  55  83 107 137 187 236 272 324
#     4   9  18  33  52  79 114 145 188 229 277 335
#
# _framework density 22.260368
#
# number of rings (size 3 to 8) (size 9 to 14) (size 15 to 20)
#    0.000    2.500    2.500    0.375    0.000    0.500 
#    0.000    4.375    8.250    6.000    0.000    0.000 
#    0.000    0.000    0.000    0.000    0.000    0.000 
#
# Total GULP energy -89120.226122 kJ/mol
# GULP energy per Si atom -5570.014133 kJ/mol
# Density = 2.220970 g / cm^3
# Si number density = 22.260368 Si / 1000 Ang^3
#
#
#
# Elastic Constant Matrix: (Units=GPa)
#
#
# Indices 1 2 3 4 5 6 
#
# 1 124.4110 60.2323 52.0686 0.0000 -35.6594 0.0000
# 2 60.2323 168.9502 61.7244 0.0000 -45.2133 0.0000
# 3 52.0686 61.7244 126.4518 0.0000 -47.1122 0.0000
# 4 0.0000 0.0000 0.0000 12.9899 0.0000 -10.9192
# 5 -35.6594 -45.2133 -47.1122 0.0000 63.6379 0.0000
# 6 0.0000 0.0000 0.0000 -10.9192 0.0000 13.9085
#
#
#
# Elastic Compliance Matrix: (Units=1/GPa)
#
#
# Indices 1 2 3 4 5 6 
#
# 1 0.010923 -0.002300 -0.002352 0.000000 0.002745 0.000000
# 2 -0.002300 0.008290 -0.001913 0.000000 0.003185 0.000000
# 3 -0.002352 -0.001913 0.012170 0.000000 0.006332 0.000000
# 4 0.000000 0.000000 0.000000 0.226366 0.000000 0.177713
# 5 0.002745 0.003185 0.006332 0.000000 0.024203 0.000000
# 6 0.000000 0.000000 0.000000 0.177713 0.000000 0.211415
#
#
# Mechanical properties :
#
#
# Convention : Reuss Voigt Hill
#
# Bulk Modulus (GPa) = 54.78810 85.31817 70.05314
# Shear Modulus (GPa) = 9.75456 34.49311 22.12384
#
# Velocity S-wave (km/s) = 2.09560 3.94068 3.15599
# Velocity P-wave (km/s) = 5.52460 7.68868 6.69466
#
# Compressibility (1/GPa) = 0.01825214
#
# Stress axis : x y z
#
# Youngs Moduli (GPa) = 91.55289 120.62580 82.17157
#
# Poissons Ratio (x) = 0.27745 0.19328
# Poissons Ratio (y) = 0.21058 0.15719
# Poissons Ratio (z) = 0.21535 0.23074
#
# Static dielectric constant tensor:
#      x y z
#    x 1.990070 0.000000 0.129730 
#    y 0.000000 1.826740 0.000000 
#    z 0.129730 0.000000 1.961630 
# 
# From -- ./inp_files/22109.got.cif
#   From: 2010.05.17/outbox.cif.g08.bks.cpg/sg5_12_cif.got.tgz:22109.got - 2010.06.03 18:56:24.
