data_PCOD9120172
_publ_section_title
;
Structure prediction by ZEFSAII (Michael W. Deem and Ramdas Pophale) SiO2 
 PCOD9120172
Probable space group: C 2
;
_chemical_formula_sum "Si O2"
_cell_formula_units_Z 32
_cell_length_a 17.750681
_cell_length_b 20.827685
_cell_length_c 9.130816
_cell_angle_alpha 90.000000
_cell_angle_beta 155.142237
_cell_angle_gamma 90.000000
_cell_volume 1419.038823
_symmetry_space_group_name_H-M "C 2"
_symmetry_group_IT_number 5
_symmetry_cell_setting 'monoclinic'
loop_
_space_group_symop_operation_xyz
x,y,z
-x,y,-z
1/2+x,1/2+y,z
1/2-x,1/2+y,-z
loop_
_atom_site_type_symbol
_atom_site_label
_atom_site_fract_x
_atom_site_fract_y
_atom_site_fract_z
Si Si1 0.283631 0.152420 0.602778
Si Si2 0.799413 0.129490 0.207598
Si Si3 0.214776 0.513398 0.409926
Si Si4 0.309786 0.486551 0.247149
Si Si5 0.328185 0.279965 0.522686
Si Si6 0.340404 0.883258 0.592554
Si Si7 0.357820 0.261155 0.125899
Si Si8 0.631938 0.847479 0.904165
O O1 0.204246 0.148565 0.626591
O O2 0.242662 0.214528 0.434279
O O3 0.230404 0.083742 0.440249
O O4 0.500000 0.154331 0.000000
O O5 0.000000 0.129998 0.500000
O O6 0.726990 0.056712 0.060371
O O7 0.691673 0.186769 0.942607
O O8 0.310204 0.492807 0.425746
O O9 0.235484 0.454656 0.556360
O O10 0.000000 0.518834 0.000000
O O11 0.500000 0.483492 0.500000
O O12 0.210871 0.420009 0.035873
O O13 0.302633 0.334429 0.597643
O O14 0.531912 0.269338 0.829429
O O15 0.219170 0.306882 0.191814
O O16 0.500000 0.886675 0.000000
O O17 0.432292 0.858809 0.608857
O O18 0.500000 0.280461 0.500000
O O19 0.189969 0.305797 0.867353
#
# Coordination Sequence:
#
# PCOD9120172 Si02
#       8
#     4   4   4   4   4   4   4   4
#     4  10  19  31  52  74 104 138 173 221 272 321
#     4  10  22  36  53  81 111 142 182 221 271 319
#     4   9  15  28  46  71  98 121 169 225 265 305
#     4  10  17  30  51  76 101 131 176 228 266 303
#     4  10  18  30  48  77 102 134 175 216 268 312
#     4   9  16  28  46  72 101 124 167 223 261 305
#     4  10  21  35  52  77 111 145 176 220 269 325
#     4  10  19  31  51  77 106 137 176 223 269 313
#
# _framework density 22.550476
#
# number of rings (size 3 to 8) (size 9 to 14) (size 15 to 20)
#    0.000    2.250    5.000    1.125    1.750    0.000 
#    0.000    0.000    0.000    0.750    6.500    2.625 
#    0.000    0.000    0.000    0.000    0.000    0.000 
#
# Total GULP energy -89236.465170 kJ/mol
# GULP energy per Si atom -5577.279073 kJ/mol
# Density = 2.249915 g / cm^3
# Si number density = 22.550476 Si / 1000 Ang^3
#
#
#
# Elastic Constant Matrix: (Units=GPa)
#
#
# Indices 1 2 3 4 5 6 
#
# 1 109.7759 60.4803 33.8810 0.0000 34.5982 0.0000
# 2 60.4803 175.6890 14.1218 0.0000 13.2986 0.0000
# 3 33.8810 14.1218 33.3301 0.0000 13.8191 0.0000
# 4 0.0000 0.0000 0.0000 8.6549 0.0000 11.2171
# 5 34.5982 13.2986 13.8191 0.0000 36.0901 0.0000
# 6 0.0000 0.0000 0.0000 11.2171 0.0000 71.6898
#
#
#
# Elastic Compliance Matrix: (Units=1/GPa)
#
#
# Indices 1 2 3 4 5 6 
#
# 1 0.019467 -0.004764 -0.012791 0.000000 -0.012009 0.000000
# 2 -0.004764 0.007123 0.001212 0.000000 0.001479 0.000000
# 3 -0.012791 0.001212 0.044687 0.000000 -0.005295 0.000000
# 4 0.000000 0.000000 0.000000 0.144933 0.000000 -0.022677
# 5 -0.012009 0.001479 -0.005295 0.000000 0.040704 0.000000
# 6 0.000000 0.000000 0.000000 -0.022677 0.000000 0.017497
#
#
# Mechanical properties :
#
#
# Convention : Reuss Voigt Hill
#
# Bulk Modulus (GPa) = 25.91311 59.52903 42.72107
# Shear Modulus (GPa) = 15.62691 37.30776 26.46733
#
# Velocity S-wave (km/s) = 2.63530 4.07186 3.42964
# Velocity P-wave (km/s) = 4.55805 6.96865 5.88804
#
# Compressibility (1/GPa) = 0.03859051
#
# Stress axis : x y z
#
# Youngs Moduli (GPa) = 51.36885 140.39793 22.37765
#
# Poissons Ratio (x) = 0.66890 0.28624
# Poissons Ratio (y) = 0.24474 -0.02713
# Poissons Ratio (z) = 0.65707 -0.17019
#
# Static dielectric constant tensor:
#      x y z
#    x 1.794910 0.000000 0.057820 
#    y 0.000000 1.861910 0.000000 
#    z 0.057820 0.000000 1.801410 
# 
# From -- ./inp_files/40350.got.cif
#   From: 2010.05.17/outbox.cif.g08.bks.cpg/sg5_21_cif.got.tgz:40350.got - 2010.06.03 18:56:24.
