data_PCOD9120519
_publ_section_title
;
Structure prediction by ZEFSAII (Michael W. Deem and Ramdas Pophale) SiO2 
 PCOD9120519
Probable space group: C 2
;
_chemical_formula_sum "Si O2"
_cell_formula_units_Z 26
_cell_length_a 10.765053
_cell_length_b 11.389276
_cell_length_c 17.244171
_cell_angle_alpha 90.000000
_cell_angle_beta 140.634387
_cell_angle_gamma 90.000000
_cell_volume 1340.992885
_symmetry_space_group_name_H-M "C 2"
_symmetry_group_IT_number 5
_symmetry_cell_setting 'monoclinic'
loop_
_space_group_symop_operation_xyz
x,y,z
-x,y,-z
1/2+x,1/2+y,z
1/2-x,1/2+y,-z
loop_
_atom_site_type_symbol
_atom_site_label
_atom_site_fract_x
_atom_site_fract_y
_atom_site_fract_z
Si Si1 0.245336 0.736740 0.308438
Si Si2 0.000000 0.055667 0.500000
Si Si3 0.138863 0.620195 0.642300
Si Si4 0.916018 0.408154 0.593968
Si Si5 0.727629 0.874498 0.301356
Si Si6 0.146764 0.537659 0.141378
Si Si7 0.926192 0.947126 0.698466
O O1 0.320120 0.647758 0.412375
O O2 0.430525 0.816447 0.370048
O O3 0.178817 0.657242 0.204729
O O4 0.081940 0.824362 0.259988
O O5 0.913374 0.963383 0.397081
O O6 0.202871 0.749796 0.696781
O O7 0.323977 0.547044 0.701292
O O8 0.000000 0.635951 0.500000
O O9 0.024660 0.534733 0.645923
O O10 0.852155 0.368182 0.648940
O O11 0.730348 0.424982 0.447258
O O12 0.580734 0.939744 0.172582
O O13 0.356938 0.490430 0.213763
O O14 0.000000 0.551052 0.000000
#
# Coordination Sequence:
#
# PCOD9120519 Si02
#       7
#     4   2   4   4   4   4   4
#     4  10  19  39  65  90 121 161 200 259 319 374
#     4  10  18  32  52  92 122 148 202 234 324 382
#     4   9  19  35  57  94 126 148 188 250 326 381
#     4  10  19  35  65  98 125 147 194 264 336 378
#     4  11  21  33  57  88 122 166 197 251 312 371
#     4  11  26  44  56  85 126 173 221 248 293 368
#     4  10  20  39  65  91 125 160 197 265 321 373
#
# _framework density 19.388618000000001
#
# number of rings (size 3 to 8) (size 9 to 14) (size 15 to 20)
#    0.000    1.846    2.308    3.692    0.000    3.692 
#    5.538    0.000    0.000    0.000    0.000    0.000 
#    0.000    0.000    0.000    0.000    0.000    0.000 
#
# Total GULP energy -72427.692026 kJ/mol
# GULP energy per Si atom -5571.360925 kJ/mol
# Density = 1.934449 g / cm^3
# Si number density = 19.388618 Si / 1000 Ang^3
#
#
#
# Elastic Constant Matrix: (Units=GPa)
#
#
# Indices 1 2 3 4 5 6 
#
# 1 87.9438 34.1868 28.8621 0.0000 5.7368 0.0000
# 2 34.1868 140.6717 20.4779 0.0000 -5.3826 0.0000
# 3 28.8621 20.4779 59.1936 0.0000 -9.5543 0.0000
# 4 0.0000 0.0000 0.0000 16.7031 0.0000 -8.5301
# 5 5.7368 -5.3826 -9.5543 0.0000 14.7067 0.0000
# 6 0.0000 0.0000 0.0000 -8.5301 0.0000 7.2862
#
#
#
# Elastic Compliance Matrix: (Units=1/GPa)
#
#
# Indices 1 2 3 4 5 6 
#
# 1 0.016488 -0.003197 -0.009116 0.000000 -0.013524 0.000000
# 2 -0.003197 0.008124 -0.000637 0.000000 0.003807 0.000000
# 3 -0.009116 -0.000637 0.024684 0.000000 0.019359 0.000000
# 4 0.000000 0.000000 0.000000 0.148879 0.000000 0.174293
# 5 -0.013524 0.003807 0.019359 0.000000 0.087242 0.000001
# 6 0.000000 0.000000 0.000000 0.174293 0.000001 0.341292
#
#
# Mechanical properties :
#
#
# Convention : Reuss Voigt Hill
#
# Bulk Modulus (GPa) = 42.74489 50.54030 46.64260
# Shear Modulus (GPa) = 7.57109 21.35802 14.46456
#
# Velocity S-wave (km/s) = 1.97823 3.32260 2.73432
# Velocity P-wave (km/s) = 5.22610 6.39086 5.83760
#
# Compressibility (1/GPa) = 0.02339461
#
# Stress axis : x y z
#
# Youngs Moduli (GPa) = 60.65081 123.08901 40.51267
#
# Poissons Ratio (x) = 0.39356 0.36931
# Poissons Ratio (y) = 0.19392 0.02581
# Poissons Ratio (z) = 0.55289 0.07842
#
# Static dielectric constant tensor:
#      x y z
#    x 1.762800 0.000000 -0.035720 
#    y 0.000000 1.709260 0.000000 
#    z -0.035720 0.000000 1.668800 
# 
# From -- ./inp_files/60428.got.cif
#   From: 2010.05.17/outbox.cif.g08.bks.cpg/sg5_31_cif.got.tgz:60428.got - 2010.06.03 18:56:24.
