data_PCOD9120258
_publ_section_title
;
Structure prediction by ZEFSAII (Michael W. Deem and Ramdas Pophale) SiO2 
 PCOD9120258
Probable space group: C 2
;
_chemical_formula_sum "Si O2"
_cell_formula_units_Z 32
_cell_length_a 20.688336
_cell_length_b 18.930051
_cell_length_c 11.010659
_cell_angle_alpha 90.000000
_cell_angle_beta 154.422421
_cell_angle_gamma 90.000000
_cell_volume 1861.682913
_symmetry_space_group_name_H-M "C 2"
_symmetry_group_IT_number 5
_symmetry_cell_setting 'monoclinic'
loop_
_space_group_symop_operation_xyz
x,y,z
-x,y,-z
1/2+x,1/2+y,z
1/2-x,1/2+y,-z
loop_
_atom_site_type_symbol
_atom_site_label
_atom_site_fract_x
_atom_site_fract_y
_atom_site_fract_z
Si Si1 0.781443 0.247320 0.187782
Si Si2 0.158257 0.836581 0.337530
Si Si3 0.869733 0.622874 0.680084
Si Si4 0.432577 0.243553 0.597110
Si Si5 0.612367 0.955654 0.304786
Si Si6 0.159208 0.254139 0.972610
Si Si7 0.478301 0.883162 0.596994
Si Si8 0.641397 0.709728 0.428961
O O1 0.856629 0.321269 0.359318
O O2 0.805282 0.196733 0.342675
O O3 0.606173 0.256128 0.868571
O O4 0.854271 0.222657 0.185383
O O5 0.127354 0.806151 0.418028
O O6 0.236906 0.912077 0.467569
O O7 0.274105 0.780735 0.473331
O O8 0.000000 0.835043 0.000000
O O9 0.910120 0.670869 0.633408
O O10 0.868588 0.539664 0.657510
O O11 0.709908 0.649544 0.460639
O O12 0.000000 0.639215 0.000000
O O13 0.324015 0.242241 0.299437
O O14 0.562672 0.929430 0.355362
O O15 0.500000 0.940032 0.000000
O O16 0.119789 0.336258 0.881220
O O17 0.035444 0.224234 0.857078
O O18 0.500000 0.917989 0.500000
#
# Coordination Sequence:
#
# PCOD9120258 Si02
#       8
#     4   4   4   4   4   4   4   4
#     4  10  17  33  57  77 108 138 178 213 271 333
#     4  11  19  32  55  77 103 141 172 223 274 321
#     4  10  21  35  54  74 109 146 179 222 276 322
#     4  11  19  33  52  81 111 133 176 232 274 308
#     4  11  21  35  55  82 106 145 190 226 264 330
#     4  10  20  29  54  87 105 133 178 228 265 315
#     4   9  18  35  55  82 111 142 177 222 277 328
#     4  10  17  35  54  76 103 140 176 219 271 319
#
# _framework density 17.188749000000001
#
# number of rings (size 3 to 8) (size 9 to 14) (size 15 to 20)
#    0.000    1.750    5.000    3.000    0.000    1.500 
#    2.250    1.250    0.000    0.000    0.000    1.750 
#    0.000    0.000    0.000    0.000    0.000    0.000 
#
# Total GULP energy -89115.413914 kJ/mol
# GULP energy per Si atom -5569.713370 kJ/mol
# Density = 1.714963 g / cm^3
# Si number density = 17.188749 Si / 1000 Ang^3
#
#
#
# Elastic Constant Matrix: (Units=GPa)
#
#
# Indices 1 2 3 4 5 6 
#
# 1 80.0322 22.2141 12.8298 0.0000 -5.0176 0.0000
# 2 22.2141 67.2600 20.6644 0.0000 -7.8914 0.0000
# 3 12.8298 20.6644 80.4671 0.0000 -6.7643 0.0000
# 4 0.0000 0.0000 0.0000 12.6886 0.0000 -2.8487
# 5 -5.0176 -7.8914 -6.7643 0.0000 29.3863 0.0000
# 6 0.0000 0.0000 0.0000 -2.8487 0.0000 15.6823
#
#
#
# Elastic Compliance Matrix: (Units=1/GPa)
#
#
# Indices 1 2 3 4 5 6 
#
# 1 0.013878 -0.004137 -0.001065 0.000000 0.001013 0.000000
# 2 -0.004137 0.017724 -0.003621 0.000000 0.003220 0.000000
# 3 -0.001065 -0.003621 0.013695 0.000000 0.001998 0.000000
# 4 0.000000 0.000000 0.000000 0.082161 0.000000 0.014924
# 5 0.001013 0.003220 0.001998 0.000000 0.035527 0.000000
# 6 0.000000 0.000000 0.000000 0.014924 0.000000 0.066477
#
#
# Mechanical properties :
#
#
# Convention : Reuss Voigt Hill
#
# Bulk Modulus (GPa) = 36.16656 37.68622 36.92639
# Shear Modulus (GPa) = 19.50636 23.02152 21.26394
#
# Velocity S-wave (km/s) = 3.37238 3.66367 3.52104
# Velocity P-wave (km/s) = 6.02084 6.31420 6.16926
#
# Compressibility (1/GPa) = 0.02764985
#
# Stress axis : x y z
#
# Youngs Moduli (GPa) = 72.05861 56.41909 73.01822
#
# Poissons Ratio (x) = 0.23342 0.07776
# Poissons Ratio (y) = 0.29813 0.26443
# Poissons Ratio (z) = 0.07674 0.20432
#
# Static dielectric constant tensor:
#      x y z
#    x 1.642270 0.000000 -0.004840 
#    y 0.000000 1.557700 0.000000 
#    z -0.004840 0.000000 1.627260 
# 
# From -- ./inp_files/47574.got.cif
#   From: 2010.05.17/outbox.cif.g08.bks.cpg/sg5_24_cif.got.tgz:47574.got - 2010.06.03 18:56:24.
