data_PCOD9120760
_publ_section_title
;
Structure prediction by ZEFSAII (Michael W. Deem and Ramdas Pophale) SiO2 
 PCOD9120760
Probable space group: C 2
;
_chemical_formula_sum "Si O2"
_cell_formula_units_Z 18
_cell_length_a 10.513248
_cell_length_b 14.073710
_cell_length_c 6.342220
_cell_angle_alpha 90.000000
_cell_angle_beta 63.821818
_cell_angle_gamma 90.000000
_cell_volume 842.142654
_symmetry_space_group_name_H-M "C 2"
_symmetry_group_IT_number 5
_symmetry_cell_setting 'monoclinic'
loop_
_space_group_symop_operation_xyz
x,y,z
-x,y,-z
1/2+x,1/2+y,z
1/2-x,1/2+y,-z
loop_
_atom_site_type_symbol
_atom_site_label
_atom_site_fract_x
_atom_site_fract_y
_atom_site_fract_z
Si Si1 0.279099 0.772180 0.991387
Si Si2 0.500000 0.824614 0.500000
Si Si3 0.094097 0.976590 0.622113
Si Si4 0.500000 0.319002 0.000000
Si Si5 0.130625 0.447372 0.784665
Si Si6 0.500000 0.632988 0.000000
O O1 0.302014 0.872949 0.095820
O O2 0.359357 0.696183 0.078787
O O3 0.374139 0.769191 0.708978
O O4 0.114374 0.761927 0.054483
O O5 0.565728 0.887171 0.639322
O O6 0.000000 0.940392 0.500000
O O7 0.096309 0.890693 0.788323
O O8 0.244222 0.005455 0.413927
O O9 0.018885 0.064619 0.787451
O O10 0.000000 0.496650 0.000000
#
# Coordination Sequence:
#
# PCOD9120760 Si02
#       6
#     4   2   4   2   4   2
#     4  11  21  39  65 103 124 173 226 267 319 389
#     4  10  18  34  68  90 126 162 226 268 304 370
#     4  11  23  41  65  96 134 171 214 274 330 385
#     4  11  22  38  72  97 128 172 234 261 314 392
#     4  10  20  36  68  96 122 170 232 262 312 390
#     4  11  26  38  66 103 136 172 210 269 350 382
#
# _framework density 21.374053
#
# number of rings (size 3 to 8) (size 9 to 14) (size 15 to 20)
#    0.000    1.333    7.778    0.000    1.556    0.000 
#    0.000    0.000    7.333    4.000    0.000    0.000 
#    0.000    0.000    0.000    0.000    0.000    0.000 
#
# Total GULP energy -50208.580615 kJ/mol
# GULP energy per Si atom -5578.731179 kJ/mol
# Density = 2.132540 g / cm^3
# Si number density = 21.374053 Si / 1000 Ang^3
#
#
#
# Elastic Constant Matrix: (Units=GPa)
#
#
# Indices 1 2 3 4 5 6 
#
# 1 115.5791 6.4595 4.6912 0.0000 -6.5850 0.0000
# 2 6.4595 30.4053 -1.3539 0.0000 -4.4067 0.0000
# 3 4.6912 -1.3539 98.0144 0.0000 -11.5787 0.0000
# 4 0.0000 0.0000 0.0000 11.1110 0.0000 -3.4829
# 5 -6.5850 -4.4067 -11.5787 0.0000 39.9133 0.0000
# 6 0.0000 0.0000 0.0000 -3.4829 0.0000 9.0264
#
#
#
# Elastic Compliance Matrix: (Units=1/GPa)
#
#
# Indices 1 2 3 4 5 6 
#
# 1 0.008828 -0.001718 -0.000307 0.000000 0.001178 0.000000
# 2 -0.001718 0.033840 0.000992 0.000000 0.003740 0.000000
# 3 -0.000307 0.000992 0.010601 0.000000 0.003134 0.000000
# 4 0.000000 0.000000 0.000000 0.102384 0.000000 0.039506
# 5 0.001178 0.003740 0.003134 0.000000 0.026571 0.000000
# 6 0.000000 0.000000 0.000000 0.039506 0.000000 0.126030
#
#
# Mechanical properties :
#
#
# Convention : Reuss Voigt Hill
#
# Bulk Modulus (GPa) = 19.53079 29.28806 24.40943
# Shear Modulus (GPa) = 15.27233 27.62360 21.44797
#
# Velocity S-wave (km/s) = 2.67596 3.59888 3.17118
# Velocity P-wave (km/s) = 4.32495 5.56791 4.98532
#
# Compressibility (1/GPa) = 0.05120120
#
# Stress axis : x y z
#
# Youngs Moduli (GPa) = 113.28002 29.55053 94.32873
#
# Poissons Ratio (x) = 0.05078 0.02897
# Poissons Ratio (y) = 0.19466 -0.09353
# Poissons Ratio (z) = 0.03479 -0.02930
#
# Static dielectric constant tensor:
#      x y z
#    x 1.815050 0.000000 -0.032910 
#    y 0.000000 1.739830 0.000000 
#    z -0.032910 0.000000 1.786120 
# 
# From -- ./inp_files/2320.got.cif
#   From: 2010.05.17/outbox.cif.g08.bks.cpg/sg5_2_cif.got.tgz:2320.got - 2010.06.03 18:56:24.
