data_PCOD9120199
_publ_section_title
;
Structure prediction by ZEFSAII (Michael W. Deem and Ramdas Pophale) SiO2 
 PCOD9120199
Probable space group: C 2
;
_chemical_formula_sum "Si O2"
_cell_formula_units_Z 32
_cell_length_a 7.564450
_cell_length_b 21.149790
_cell_length_c 8.759568
_cell_angle_alpha 90.000000
_cell_angle_beta 102.139789
_cell_angle_gamma 90.000000
_cell_volume 1370.073688
_symmetry_space_group_name_H-M "C 2"
_symmetry_group_IT_number 5
_symmetry_cell_setting 'monoclinic'
loop_
_space_group_symop_operation_xyz
x,y,z
-x,y,-z
1/2+x,1/2+y,z
1/2-x,1/2+y,-z
loop_
_atom_site_type_symbol
_atom_site_label
_atom_site_fract_x
_atom_site_fract_y
_atom_site_fract_z
Si Si1 0.699691 0.752400 0.728223
Si Si2 0.297305 0.574728 0.393136
Si Si3 0.740062 0.390009 0.204649
Si Si4 0.650280 0.636980 0.906389
Si Si5 0.221111 0.933442 0.543620
Si Si6 0.630565 0.224769 0.851504
Si Si7 0.802870 0.871616 0.136924
Si Si8 0.805463 0.700758 0.464474
O O1 0.664401 0.822223 0.771061
O O2 0.592996 0.698072 0.794909
O O3 0.683382 0.744290 0.544859
O O4 0.915457 0.737778 0.798883
O O5 0.500000 0.579554 0.500000
O O6 0.305227 0.585620 0.213080
O O7 0.224673 0.505814 0.415117
O O8 0.191927 0.633120 0.451293
O O9 0.785813 0.419131 0.380835
O O10 0.520801 0.383165 0.175637
O O11 0.769707 0.407934 0.029652
O O12 0.500000 0.616704 0.000000
O O13 0.815903 0.668451 0.025764
O O14 0.267212 0.893312 0.707277
O O15 0.000000 0.930517 0.500000
O O16 0.713734 0.295185 0.890752
O O17 0.718915 0.196706 0.716022
O O18 0.000000 0.734072 0.500000
#
# Coordination Sequence:
#
# PCOD9120199 Si02
#       8
#     4   4   4   4   4   4   4   4
#     4   9  17  31  53  79 109 130 166 216 270 323
#     4  10  21  38  49  70 109 142 185 218 251 313
#     4   9  15  28  49  76 103 128 161 213 271 311
#     4  11  21  32  49  75 108 146 174 212 260 312
#     4   9  18  32  49  74 104 136 173 221 261 309
#     4  10  17  31  53  82 106 132 167 225 272 323
#     4   9  16  27  49  79 102 126 164 215 270 317
#     4   9  18  31  53  77 101 139 174 211 267 318
#
# _framework density 23.356408999999999
#
# number of rings (size 3 to 8) (size 9 to 14) (size 15 to 20)
#    0.000    2.500    1.250    1.875    0.000    3.000 
#    9.000    0.000    0.000    1.500    0.000    0.000 
#    0.000    0.000    0.000    0.000    0.000    0.000 
#
# Total GULP energy -89078.134900 kJ/mol
# GULP energy per Si atom -5567.383431 kJ/mol
# Density = 2.330325 g / cm^3
# Si number density = 23.356409 Si / 1000 Ang^3
#
#
#
# Elastic Constant Matrix: (Units=GPa)
#
#
# Indices 1 2 3 4 5 6 
#
# 1 64.9413 -4.5944 19.1507 0.0000 1.7209 0.0000
# 2 -4.5944 71.8300 53.5182 0.0000 0.8808 0.0000
# 3 19.1507 53.5182 213.5185 0.0000 -26.0933 0.0000
# 4 0.0000 0.0000 0.0000 -93.7054 0.0000 123.5354
# 5 1.7209 0.8808 -26.0933 0.0000 3.3787 0.0000
# 6 0.0000 0.0000 0.0000 123.5354 0.0000 -116.7542
#
#
#
# Elastic Compliance Matrix: (Units=1/GPa)
#
#
# Indices 1 2 3 4 5 6 
#
# 1 0.010164 -0.007378 0.009607 0.000000 0.070942 0.000000
# 2 -0.007378 0.001036 0.014731 0.000000 0.117253 0.000000
# 3 0.009607 0.014731 -0.016683 0.000000 -0.137571 0.000000
# 4 0.000000 0.000000 0.000000 0.027023 0.000000 0.028593
# 5 0.070942 0.117253 -0.137571 0.000000 -0.833168 0.000000
# 6 0.000000 0.000000 0.000000 0.028593 0.000000 0.021689
#
#
# Mechanical properties :
#
#
# Convention : Reuss Voigt Hill
#
# Bulk Modulus (GPa) = 35.16388 54.04877 44.60632
# Shear Modulus (GPa) = -6.13964 -22.60183 -14.37074
#
# Velocity S-wave (km/s) = -1.62308 -3.11415 -2.48318
# Velocity P-wave (km/s) = 3.40228 3.20321 3.30424
#
# Compressibility (1/GPa) = 0.02843827
#
# Stress axis : x y z
#
# Youngs Moduli (GPa) = 98.39111 964.78562 -59.94297
#
# Poissons Ratio (x) = 7.11807 0.57589
# Poissons Ratio (y) = 0.72592 0.88302
# Poissons Ratio (z) = -0.94527 -14.21225
#
# Static dielectric constant tensor:
#      x y z
#    x 1.963970 0.000000 0.007520 
#    y 0.000000 1.823580 0.000000 
#    z 0.007520 0.000000 3.463300 
# 
# From -- ./inp_files/17204.got.cif
#   From: 2010.05.17/outbox.cif.g08.bks.cpg/sg5_9_cif.got.tgz:17204.got - 2010.06.03 18:56:24.
