data_PCOD9120214
_publ_section_title
;
Structure prediction by ZEFSAII (Michael W. Deem and Ramdas Pophale) SiO2 
 PCOD9120214
Probable space group: C 2
;
_chemical_formula_sum "Si O2"
_cell_formula_units_Z 26
_cell_length_a 8.871447
_cell_length_b 26.934904
_cell_length_c 5.124213
_cell_angle_alpha 90.000000
_cell_angle_beta 121.027594
_cell_angle_gamma 90.000000
_cell_volume 1049.245027
_symmetry_space_group_name_H-M "C 2"
_symmetry_group_IT_number 5
_symmetry_cell_setting 'monoclinic'
loop_
_space_group_symop_operation_xyz
x,y,z
-x,y,-z
1/2+x,1/2+y,z
1/2-x,1/2+y,-z
loop_
_atom_site_type_symbol
_atom_site_label
_atom_site_fract_x
_atom_site_fract_y
_atom_site_fract_z
Si Si1 0.500000 0.659480 0.000000
Si Si2 0.706642 0.148377 0.144864
Si Si3 0.689434 0.547714 0.563318
Si Si4 0.714241 0.832799 0.217689
Si Si5 0.813748 0.496749 0.179716
Si Si6 0.170933 0.242343 0.517054
Si Si7 0.712936 0.886308 0.717689
O O1 0.332930 0.636650 0.008161
O O2 0.587603 0.697370 0.281799
O O3 0.784644 0.106817 0.409669
O O4 0.718450 0.208489 0.186841
O O5 0.500000 0.137813 0.000000
O O6 0.500000 0.535054 0.500000
O O7 0.703442 0.528743 0.284191
O O8 0.811803 0.520687 0.890992
O O9 0.758501 0.781117 0.399591
O O10 0.773676 0.874429 0.479329
O O11 0.777163 0.845317 0.983662
O O12 0.500000 0.833398 0.000000
O O13 0.747177 0.440108 0.128826
O O14 0.000000 0.496492 0.500000
O O15 0.000000 0.267326 0.500000
O O16 0.500000 0.884477 0.500000
#
# Coordination Sequence:
#
# PCOD9120214 Si02
#       7
#     2   4   4   4   4   4   4
#     4  10  22  40  68  94 140 178 234 286 354 414
#     4  11  26  44  66 101 141 187 238 296 359 429
#     4  12  26  45  69 100 135 187 240 290 361 439
#     4  10  17  31  58  95 132 173 224 283 347 410
#     4  11  23  43  68 101 138 177 233 301 358 421
#     4  10  20  36  60  97 135 178 232 285 342 420
#     4   9  19  32  58  96 131 166 226 290 342 415
#
# _framework density 24.779720999999999
#
# number of rings (size 3 to 8) (size 9 to 14) (size 15 to 20)
#    0.000    1.538    0.769    5.538    6.462    3.077 
#    0.000    0.000    0.000    3.692    0.000    0.000 
#    0.000    0.000    0.000    0.000    0.000    0.000 
#
# Total GULP energy -72511.790543 kJ/mol
# GULP energy per Si atom -5577.830042 kJ/mol
# Density = 2.472332 g / cm^3
# Si number density = 24.779721 Si / 1000 Ang^3
#
#
#
# Elastic Constant Matrix: (Units=GPa)
#
#
# Indices 1 2 3 4 5 6 
#
# 1 115.0369 11.5416 31.1810 0.0000 -2.8686 0.0000
# 2 11.5416 136.4451 38.4182 0.0000 -22.0462 0.0000
# 3 31.1810 38.4182 81.1274 0.0000 -29.7551 0.0000
# 4 0.0000 0.0000 0.0000 34.5163 0.0000 -11.5087
# 5 -2.8686 -22.0462 -29.7551 0.0000 38.5813 0.0000
# 6 0.0000 0.0000 0.0000 -11.5087 0.0000 12.6742
#
#
#
# Elastic Compliance Matrix: (Units=1/GPa)
#
#
# Indices 1 2 3 4 5 6 
#
# 1 0.009961 0.000065 -0.004984 0.000000 -0.003066 0.000000
# 2 0.000065 0.008624 -0.003207 0.000000 0.002459 0.000000
# 3 -0.004984 -0.003207 0.020850 0.000000 0.013877 0.000000
# 4 0.000000 0.000000 0.000000 0.041553 0.000000 0.037732
# 5 -0.003066 0.002459 0.013877 0.000000 0.037799 0.000000
# 6 0.000000 0.000000 0.000000 0.037732 0.000000 0.113163
#
#
# Mechanical properties :
#
#
# Convention : Reuss Voigt Hill
#
# Bulk Modulus (GPa) = 43.13294 54.98791 49.06043
# Shear Modulus (GPa) = 19.53675 33.91892 26.72783
#
# Velocity S-wave (km/s) = 2.81092 3.70377 3.28779
# Velocity P-wave (km/s) = 5.28955 6.36627 5.85272
#
# Compressibility (1/GPa) = 0.02318414
#
# Stress axis : x y z
#
# Youngs Moduli (GPa) = 100.39452 115.95874 47.96128
#
# Poissons Ratio (x) = -0.00758 0.23902
# Poissons Ratio (y) = -0.00656 0.15381
# Poissons Ratio (z) = 0.50034 0.37187
#
# Static dielectric constant tensor:
#      x y z
#    x 1.979330 0.000000 0.071360 
#    y 0.000000 1.956260 0.000000 
#    z 0.071360 0.000000 2.252980 
# 
# From -- ./inp_files/3834.got.cif
#   From: 2010.05.17/outbox.cif.g08.bks.cpg/sg5_2_cif.got.tgz:3834.got - 2010.06.03 18:56:24.
