data_PCOD9120750
_publ_section_title
;
Structure prediction by ZEFSAII (Michael W. Deem and Ramdas Pophale) SiO2 
 PCOD9120750
Probable space group: C 2
;
_chemical_formula_sum "Si O2"
_cell_formula_units_Z 28
_cell_length_a 7.474626
_cell_length_b 11.708828
_cell_length_c 13.468603
_cell_angle_alpha 90.000000
_cell_angle_beta 104.863416
_cell_angle_gamma 90.000000
_cell_volume 1139.318912
_symmetry_space_group_name_H-M "C 2"
_symmetry_group_IT_number 5
_symmetry_cell_setting 'monoclinic'
loop_
_space_group_symop_operation_xyz
x,y,z
-x,y,-z
1/2+x,1/2+y,z
1/2-x,1/2+y,-z
loop_
_atom_site_type_symbol
_atom_site_label
_atom_site_fract_x
_atom_site_fract_y
_atom_site_fract_z
Si Si1 0.703822 0.207850 0.916001
Si Si2 0.500000 0.761508 0.500000
Si Si3 0.772285 0.838563 0.391552
Si Si4 0.000000 0.402282 0.000000
Si Si5 0.569567 0.903220 0.791689
Si Si6 0.616829 0.116563 0.695823
Si Si7 0.765167 0.668991 0.871141
Si Si8 0.323557 0.574779 0.338637
O O1 0.723373 0.168131 0.806523
O O2 0.481121 0.204030 0.893181
O O3 0.774005 0.135558 0.021043
O O4 0.820007 0.323948 0.949521
O O5 0.667526 0.836256 0.481651
O O6 0.438750 0.677599 0.402639
O O7 0.619776 0.865529 0.285976
O O8 0.848699 0.711295 0.383353
O O9 0.890174 0.953483 0.391247
O O10 0.962922 0.460206 0.103138
O O11 0.672868 0.788464 0.831089
O O12 0.667128 0.983353 0.722568
O O13 0.392752 0.104148 0.668373
O O14 0.680820 0.580869 0.780888
#
# Coordination Sequence:
#
# PCOD9120750 Si02
#       8
#     4   2   4   2   4   4   4   4
#     4   9  18  34  61  91 135 173 213 256 306 383
#     4  12  26  46  68  96 122 166 220 276 334 384
#     4  11  24  45  67  95 127 164 217 270 328 389
#     4  10  18  34  64  96 134 178 218 250 312 380
#     4  10  20  38  66  96 132 174 210 266 310 384
#     4  10  22  41  62  99 130 169 209 263 321 380
#     4   9  18  39  61  95 133 171 217 256 316 377
#     4  10  24  43  69  95 127 172 210 271 326 379
#
# _framework density 24.576084999999999
#
# number of rings (size 3 to 8) (size 9 to 14) (size 15 to 20)
#    0.000    2.000    2.857    0.000    0.000    7.429 
#    5.143    2.857    0.000    0.000    0.000    0.000 
#    0.000    0.000    0.000    0.000    0.000    0.000 
#
# Total GULP energy -77991.053684 kJ/mol
# GULP energy per Si atom -5570.789549 kJ/mol
# Density = 2.452015 g / cm^3
# Si number density = 24.576085 Si / 1000 Ang^3
#
#
#
# Elastic Constant Matrix: (Units=GPa)
#
#
# Indices 1 2 3 4 5 6 
#
# 1 36.6839 25.1902 14.4689 0.0000 -1.5083 0.0000
# 2 25.1902 93.1777 18.4560 0.0000 -1.6657 0.0000
# 3 14.4689 18.4560 104.9015 0.0000 7.1869 0.0000
# 4 0.0000 0.0000 0.0000 12.7018 0.0000 1.2143
# 5 -1.5083 -1.6657 7.1869 0.0000 43.7035 0.0000
# 6 0.0000 0.0000 0.0000 1.2143 0.0000 25.8108
#
#
#
# Elastic Compliance Matrix: (Units=1/GPa)
#
#
# Indices 1 2 3 4 5 6 
#
# 1 0.034585 -0.008662 -0.003343 0.000000 0.001413 0.000000
# 2 -0.008662 0.013314 -0.001175 0.000000 0.000402 0.000000
# 3 -0.003343 -0.001175 0.010328 0.000000 -0.001859 0.000000
# 4 0.000000 0.000000 0.000000 0.079085 0.000000 -0.003721
# 5 0.001413 0.000402 -0.001859 0.000000 0.023251 0.000000
# 6 0.000000 0.000000 0.000000 -0.003721 0.000000 0.038919
#
#
# Mechanical properties :
#
#
# Convention : Reuss Voigt Hill
#
# Bulk Modulus (GPa) = 31.38178 38.99924 35.19051
# Shear Modulus (GPa) = 21.14482 28.21976 24.68229
#
# Velocity S-wave (km/s) = 2.93641 3.39228 3.17254
# Velocity P-wave (km/s) = 4.92886 5.58987 5.26974
#
# Compressibility (1/GPa) = 0.03186563
#
# Stress axis : x y z
#
# Youngs Moduli (GPa) = 28.91431 75.10894 96.82483
#
# Poissons Ratio (x) = 0.65063 0.32369
# Poissons Ratio (y) = 0.25047 0.11378
# Poissons Ratio (z) = 0.09666 0.08826
#
# Static dielectric constant tensor:
#      x y z
#    x 2.019300 0.000000 -0.074790 
#    y 0.000000 2.051240 0.000000 
#    z -0.074790 0.000000 1.988610 
# 
# From -- ./inp_files/50344.got.cif
#   From: 2010.05.17/outbox.cif.g08.bks.cpg/sg5_26_cif.got.tgz:50344.got - 2010.06.03 18:56:24.
