data_PCOD9120769
_publ_section_title
;
Structure prediction by ZEFSAII (Michael W. Deem and Ramdas Pophale) SiO2 
 PCOD9120769
Probable space group: C 2
;
_chemical_formula_sum "Si O2"
_cell_formula_units_Z 28
_cell_length_a 18.637745
_cell_length_b 8.666930
_cell_length_c 18.092249
_cell_angle_alpha 90.000000
_cell_angle_beta 21.705071
_cell_angle_gamma 90.000000
_cell_volume 1080.816986
_symmetry_space_group_name_H-M "C 2"
_symmetry_group_IT_number 5
_symmetry_cell_setting 'monoclinic'
loop_
_space_group_symop_operation_xyz
x,y,z
-x,y,-z
1/2+x,1/2+y,z
1/2-x,1/2+y,-z
loop_
_atom_site_type_symbol
_atom_site_label
_atom_site_fract_x
_atom_site_fract_y
_atom_site_fract_z
Si Si1 0.180779 0.504090 0.489884
Si Si2 0.723652 0.109046 0.920327
Si Si3 0.767056 0.549210 0.717855
Si Si4 0.820159 0.890756 0.930644
Si Si5 0.810329 0.140489 0.519625
Si Si6 0.735717 0.683332 0.278531
Si Si7 0.768763 0.624170 0.874952
O O1 0.269006 0.589754 0.333456
O O2 0.228022 0.323427 0.446889
O O3 0.232789 0.570143 0.519087
O O4 0.948861 0.505692 0.699255
O O5 0.678242 0.267992 0.004614
O O6 0.679929 0.109598 0.876124
O O7 0.960851 0.098825 0.696764
O O8 0.649936 0.973198 0.044447
O O9 0.717439 0.366354 0.769156
O O10 0.691349 0.632012 0.865071
O O11 0.000000 0.568409 0.500000
O O12 0.872861 0.045131 0.928907
O O13 0.872348 0.773794 0.812369
O O14 0.719865 0.101962 0.686128
O O15 0.500000 0.679571 0.500000
#
# Coordination Sequence:
#
# PCOD9120769 Si02
#       7
#     4   4   4   4   4   4   4
#     4  10  20  34  54  77 105 133 163 212 261 302
#     4  10  18  35  53  81  97 133 173 210 250 295
#     4   8  14  30  53  73  97 129 169 211 248 292
#     4  10  20  30  56  76 104 132 170 214 242 294
#     4  10  20  34  54  77 105 133 163 212 261 302
#     4   8  14  30  53  73  97 129 169 211 248 292
#     4  10  18  35  53  81  97 133 173 210 250 295
#
# _framework density 25.906327999999998
#
# number of rings (size 3 to 8) (size 9 to 14) (size 15 to 20)
#    0.000    2.571    2.857    1.714    2.000    0.000 
#    2.571    2.143    0.000   10.286    0.000    0.000 
#    0.000    0.000    0.000    0.000    0.000    0.000 
#
# Total GULP energy -77951.555809 kJ/mol
# GULP energy per Si atom -5567.968272 kJ/mol
# Density = 2.584736 g / cm^3
# Si number density = 25.906328 Si / 1000 Ang^3
#
#
#
# Elastic Constant Matrix: (Units=GPa)
#
#
# Indices 1 2 3 4 5 6 
#
# 1 194.9929 16.8220 64.3971 -0.0009 65.2449 0.0003
# 2 16.8220 35.0424 8.0654 -0.0021 11.6162 0.0012
# 3 64.3971 8.0654 135.9385 -0.0007 39.4225 0.0008
# 4 -0.0009 -0.0021 -0.0007 17.7227 0.0008 12.3008
# 5 65.2449 11.6162 39.4225 0.0008 67.0221 -0.0004
# 6 0.0003 0.0012 0.0008 12.3008 -0.0004 27.6456
#
#
#
# Elastic Compliance Matrix: (Units=1/GPa)
#
#
# Indices 1 2 3 4 5 6 
#
# 1 0.008023 -0.001271 -0.001838 0.000001 -0.006509 0.000000
# 2 -0.001271 0.030490 -0.000040 0.000007 -0.004024 -0.000004
# 3 -0.001838 -0.000040 0.009294 0.000001 -0.003671 -0.000001
# 4 0.000001 0.000007 0.000001 0.081636 -0.000004 -0.036323
# 5 -0.006509 -0.004024 -0.003671 -0.000004 0.024113 0.000002
# 6 0.000000 -0.000004 -0.000001 -0.036323 0.000002 0.052334
#
#
# Mechanical properties :
#
#
# Convention : Reuss Voigt Hill
#
# Bulk Modulus (GPa) = 24.09076 60.50473 42.29774
# Shear Modulus (GPa) = 22.12165 40.92405 31.52285
#
# Velocity S-wave (km/s) = 2.92534 3.97885 3.49205
# Velocity P-wave (km/s) = 4.55297 6.67190 5.71156
#
# Compressibility (1/GPa) = 0.04150970
#
# Stress axis : x y z
#
# Youngs Moduli (GPa) = 124.64506 32.79764 107.60008
#
# Poissons Ratio (x) = 0.04168 0.19772
# Poissons Ratio (y) = 0.15839 0.00431
# Poissons Ratio (z) = 0.22904 0.00132
#
# Static dielectric constant tensor:
#      x y z
#    x 2.100560 0.000000 -0.034060 
#    y 0.000000 2.077720 0.000000 
#    z -0.034060 0.000000 2.307370 
# 
# From -- ./inp_files/45979.got.cif
#   From: 2010.05.17/outbox.cif.g08.bks.cpg/sg5_23_cif.got.tgz:45979.got - 2010.06.03 18:56:24.
