data_PCOD9120381
_publ_section_title
;
Structure prediction by ZEFSAII (Michael W. Deem and Ramdas Pophale) SiO2 
 PCOD9120381
Probable space group: C 2
;
_chemical_formula_sum "Si O2"
_cell_formula_units_Z 26
_cell_length_a 8.690896
_cell_length_b 12.319466
_cell_length_c 12.061059
_cell_angle_alpha 90.000000
_cell_angle_beta 70.970021
_cell_angle_gamma 90.000000
_cell_volume 1220.769396
_symmetry_space_group_name_H-M "C 2"
_symmetry_group_IT_number 5
_symmetry_cell_setting 'monoclinic'
loop_
_space_group_symop_operation_xyz
x,y,z
-x,y,-z
1/2+x,1/2+y,z
1/2-x,1/2+y,-z
loop_
_atom_site_type_symbol
_atom_site_label
_atom_site_fract_x
_atom_site_fract_y
_atom_site_fract_z
Si Si1 0.948134 0.640390 0.885382
Si Si2 0.430387 0.434144 0.304614
Si Si3 0.375782 0.549896 0.108790
Si Si4 0.756920 0.853872 0.874072
Si Si5 0.500000 0.576387 0.500000
Si Si6 0.055520 0.277547 0.135453
Si Si7 0.758374 0.711646 0.304773
O O1 0.792508 0.563222 0.917256
O O2 0.868301 0.746982 0.850914
O O3 0.110328 0.626605 0.776083
O O4 0.000000 0.655548 0.000000
O O5 0.328110 0.495430 0.234569
O O6 0.610166 0.437446 0.203465
O O7 0.437523 0.499961 0.415688
O O8 0.352884 0.314910 0.334496
O O9 0.478025 0.660244 0.115255
O O10 0.500000 0.484795 0.000000
O O11 0.607285 0.849562 0.823193
O O12 0.667916 0.834522 0.014654
O O13 0.640435 0.652653 0.417456
O O14 0.155573 0.256133 0.222908
#
# Coordination Sequence:
#
# PCOD9120381 Si02
#       7
#     4   4   4   4   2   4   4
#     4  10  18  36  68 105 139 179 224 291 372 418
#     4  11  27  45  69 103 136 198 246 290 352 442
#     4  11  20  38  66 106 146 179 228 294 367 436
#     4   9  19  36  68 101 142 174 228 293 361 429
#     4  12  28  54  70  96 150 202 244 292 356 422
#     4  10  17  39  69 102 141 182 217 296 378 415
#     4  11  24  46  73  97 140 192 232 310 349 425
#
# _framework density 21.298044000000001
#
# number of rings (size 3 to 8) (size 9 to 14) (size 15 to 20)
#    0.000    1.538    6.154    0.000    2.154    1.231 
#    8.308    0.000    0.000    0.000    0.000    0.000 
#    0.000    0.000    0.000    0.000    0.000    0.000 
#
# Total GULP energy -72452.661117 kJ/mol
# GULP energy per Si atom -5573.281624 kJ/mol
# Density = 2.124957 g / cm^3
# Si number density = 21.298044 Si / 1000 Ang^3
#
#
#
# Elastic Constant Matrix: (Units=GPa)
#
#
# Indices 1 2 3 4 5 6 
#
# 1 132.5365 31.3836 62.9466 0.0000 -13.8125 0.0000
# 2 31.3836 78.2446 43.0881 0.0000 -6.9060 0.0000
# 3 62.9466 43.0881 137.3064 0.0000 -16.9488 0.0000
# 4 0.0000 0.0000 0.0000 26.5639 0.0000 -6.8045
# 5 -13.8125 -6.9060 -16.9488 0.0000 35.2094 0.0000
# 6 0.0000 0.0000 0.0000 -6.8045 0.0000 23.3815
#
#
#
# Elastic Compliance Matrix: (Units=1/GPa)
#
#
# Indices 1 2 3 4 5 6 
#
# 1 0.009942 -0.001744 -0.003797 0.000000 0.001730 0.000000
# 2 -0.001744 0.015775 -0.004097 0.000000 0.000438 0.000000
# 3 -0.003797 -0.004097 0.010659 0.000000 0.002838 0.000000
# 4 0.000000 0.000000 0.000000 0.040678 0.000000 0.011838
# 5 0.001730 0.000438 0.002838 0.000000 0.030532 0.000000
# 6 0.000000 0.000000 0.000000 0.011838 0.000000 0.046214
#
#
# Mechanical properties :
#
#
# Convention : Reuss Voigt Hill
#
# Bulk Modulus (GPa) = 58.47669 69.21379 63.84524
# Shear Modulus (GPa) = 27.96817 31.07557 29.52187
#
# Velocity S-wave (km/s) = 3.62771 3.82394 3.72712
# Velocity P-wave (km/s) = 6.71290 7.21560 6.96879
#
# Compressibility (1/GPa) = 0.01710083
#
# Stress axis : x y z
#
# Youngs Moduli (GPa) = 100.58741 63.39327 93.81344
#
# Poissons Ratio (x) = 0.11056 0.35619
# Poissons Ratio (y) = 0.17543 0.38432
# Poissons Ratio (z) = 0.38190 0.25970
#
# Static dielectric constant tensor:
#      x y z
#    x 1.837440 0.000000 -0.034650 
#    y 0.000000 1.879710 0.000000 
#    z -0.034650 0.000000 1.788720 
# 
# From -- ./inp_files/36031.got.cif
#   From: 2010.05.17/outbox.cif.g08.bks.cpg/sg5_19_cif.got.tgz:36031.got - 2010.06.03 18:56:24.
