data_PCOD9120157
_publ_section_title
;
Structure prediction by ZEFSAII (Michael W. Deem and Ramdas Pophale) SiO2 
 PCOD9120157
Probable space group: C 2
;
_chemical_formula_sum "Si O2"
_cell_formula_units_Z 26
_cell_length_a 7.360470
_cell_length_b 19.757082
_cell_length_c 10.162541
_cell_angle_alpha 90.000000
_cell_angle_beta 131.086074
_cell_angle_gamma 90.000000
_cell_volume 1113.890534
_symmetry_space_group_name_H-M "C 2"
_symmetry_group_IT_number 5
_symmetry_cell_setting 'monoclinic'
loop_
_space_group_symop_operation_xyz
x,y,z
-x,y,-z
1/2+x,1/2+y,z
1/2-x,1/2+y,-z
loop_
_atom_site_type_symbol
_atom_site_label
_atom_site_fract_x
_atom_site_fract_y
_atom_site_fract_z
Si Si1 0.181430 0.662880 0.957031
Si Si2 0.500000 0.361448 0.500000
Si Si3 0.367574 0.761281 0.568285
Si Si4 0.043786 0.436641 0.156161
Si Si5 0.606053 0.061253 0.333909
Si Si6 0.256525 0.306551 0.965012
Si Si7 0.525979 0.608260 0.326554
O O1 0.209306 0.741057 0.926377
O O2 0.410861 0.625870 0.131579
O O3 0.000000 0.667026 0.000000
O O4 0.080331 0.620181 0.788495
O O5 0.638049 0.308819 0.471508
O O6 0.302727 0.405365 0.324644
O O7 0.500000 0.781254 0.500000
O O8 0.546875 0.779965 0.770329
O O9 0.361709 0.679978 0.568967
O O10 0.990566 0.489445 0.245994
O O11 0.849476 0.377290 0.039639
O O12 0.000000 0.477873 0.000000
O O13 0.747536 0.060236 0.538829
O O14 0.813696 0.078346 0.320046
O O15 0.500000 0.317785 0.000000
#
# Coordination Sequence:
#
# PCOD9120157 Si02
#       7
#     4   2   4   4   4   4   4
#     4   8  15  28  49  79 102 126 187 244 266 332
#     4  10  24  38  54  90 128 144 198 248 284 360
#     4  10  19  35  60  89 112 153 193 242 301 339
#     4  11  23  36  53  83 121 156 186 244 302 343
#     4  10  17  29  52  80 104 144 200 227 280 356
#     4   9  20  35  56  82 112 146 197 241 288 357
#     4   9  16  28  52  80 101 135 191 236 275 334
#
# _framework density 23.341612999999999
#
# number of rings (size 3 to 8) (size 9 to 14) (size 15 to 20)
#    0.000    2.462    1.538    3.231    2.154    0.000 
#    0.000    0.000    0.000    8.308    4.000    0.000 
#    0.000    0.000    0.000    0.000    0.000    0.000 
#
# Total GULP energy -72468.302519 kJ/mol
# GULP energy per Si atom -5574.484809 kJ/mol
# Density = 2.328849 g / cm^3
# Si number density = 23.341613 Si / 1000 Ang^3
#
#
#
# Elastic Constant Matrix: (Units=GPa)
#
#
# Indices 1 2 3 4 5 6 
#
# 1 41.2929 6.2079 -1.5157 0.0000 16.2493 0.0000
# 2 6.2079 82.4750 31.2720 0.0000 14.2036 0.0000
# 3 -1.5157 31.2720 124.3159 0.0000 10.3433 0.0000
# 4 0.0000 0.0000 0.0000 43.7814 0.0000 10.3747
# 5 16.2493 14.2036 10.3433 0.0000 16.6006 0.0000
# 6 0.0000 0.0000 0.0000 10.3747 0.0000 24.9687
#
#
#
# Elastic Compliance Matrix: (Units=1/GPa)
#
#
# Indices 1 2 3 4 5 6 
#
# 1 0.042046 0.003489 0.003489 0.000000 -0.046315 0.000000
# 2 0.003489 0.015428 -0.002590 0.000000 -0.015001 0.000000
# 3 0.003489 -0.002590 0.009321 0.000000 -0.007006 0.000000
# 4 0.000000 0.000000 0.000000 0.025335 0.000000 -0.010527
# 5 -0.046315 -0.015001 -0.007006 0.000000 0.122775 0.000000
# 6 0.000000 0.000000 0.000000 -0.010527 0.000000 0.044424
#
#
# Mechanical properties :
#
#
# Convention : Reuss Voigt Hill
#
# Bulk Modulus (GPa) = 13.23286 35.55691 24.39488
# Shear Modulus (GPa) = 18.13266 31.21144 24.67205
#
# Velocity S-wave (km/s) = 2.79021 3.66068 3.25468
# Velocity P-wave (km/s) = 4.00772 5.75620 4.95962
#
# Compressibility (1/GPa) = 0.07556948
#
# Stress axis : x y z
#
# Youngs Moduli (GPa) = 23.78323 64.81756 107.28383
#
# Poissons Ratio (x) = -0.22613 -0.37427
# Poissons Ratio (y) = -0.08297 0.27789
# Poissons Ratio (z) = -0.08297 0.16789
#
# Static dielectric constant tensor:
#      x y z
#    x 1.974050 0.000000 0.035500 
#    y 0.000000 1.992460 0.000000 
#    z 0.035500 0.000000 1.850000 
# 
# From -- ./inp_files/37394.got.cif
#   From: 2010.05.17/outbox.cif.g08.bks.cpg/sg5_19_cif.got.tgz:37394.got - 2010.06.03 18:56:24.
