data_PCOD9120411
_publ_section_title
;
Structure prediction by ZEFSAII (Michael W. Deem and Ramdas Pophale) SiO2 
 PCOD9120411
Probable space group: C 2
;
_chemical_formula_sum "Si O2"
_cell_formula_units_Z 32
_cell_length_a 12.301267
_cell_length_b 28.564988
_cell_length_c 4.953139
_cell_angle_alpha 90.000000
_cell_angle_beta 66.775529
_cell_angle_gamma 90.000000
_cell_volume 1599.426636
_symmetry_space_group_name_H-M "C 2"
_symmetry_group_IT_number 5
_symmetry_cell_setting 'monoclinic'
loop_
_space_group_symop_operation_xyz
x,y,z
-x,y,-z
1/2+x,1/2+y,z
1/2-x,1/2+y,-z
loop_
_atom_site_type_symbol
_atom_site_label
_atom_site_fract_x
_atom_site_fract_y
_atom_site_fract_z
Si Si1 0.865656 0.001480 0.580843
Si Si2 0.135457 0.564827 0.919121
Si Si3 0.632402 0.128598 0.421287
Si Si4 0.742255 0.347224 0.625161
Si Si5 0.749369 0.221232 0.127269
Si Si6 0.120581 0.813097 0.248188
Si Si7 0.374742 0.756048 0.504643
Si Si8 0.633208 0.437768 0.918769
O O1 0.749913 0.032770 0.750458
O O2 0.000000 0.021374 0.500000
O O3 0.860040 0.982781 0.281891
O O4 0.858362 0.956376 0.786069
O O5 0.144598 0.609780 0.711777
O O6 0.143290 0.583634 0.215765
O O7 0.000000 0.545947 0.000000
O O8 0.500000 0.146987 0.500000
O O9 0.719842 0.169305 0.246510
O O10 0.715448 0.341722 0.334921
O O11 0.850125 0.311578 0.568569
O O12 0.731880 0.400420 0.732569
O O13 0.641634 0.323367 0.914971
O O14 0.644075 0.258417 0.278965
O O15 0.852224 0.241639 0.219578
O O16 0.782697 0.227720 0.782902
O O17 0.000000 0.828153 0.500000
O O18 0.500000 0.743706 0.500000
O O19 0.500000 0.418149 0.000000
#
# Coordination Sequence:
#
# PCOD9120411 Si02
#       8
#     4   4   4   4   4   4   4   4
#     4  10  21  37  56  79 109 141 175 223 278 328
#     4  10  21  38  59  81 109 143 177 221 276 330
#     4  10  20  36  58  82 108 135 172 222 270 319
#     4  10  20  32  50  75 101 137 177 210 255 311
#     4  10  20  34  54  77 101 136 178 213 257 311
#     4  10  18  29  48  75 106 131 160 207 256 306
#     4  10  21  37  52  71 108 148 180 216 258 306
#     4  10  19  33  55  80 106 135 173 222 272 321
#
# _framework density 20.007168
#
# number of rings (size 3 to 8) (size 9 to 14) (size 15 to 20)
#    0.000    2.000    0.000    4.125    0.000    1.000 
#    0.000    8.750    0.000    0.000    0.000    0.000 
#    0.000    0.000    0.000    0.000    0.000    0.000 
#
# Total GULP energy -89164.600481 kJ/mol
# GULP energy per Si atom -5572.787530 kJ/mol
# Density = 1.996163 g / cm^3
# Si number density = 20.007168 Si / 1000 Ang^3
#
#
#
# Elastic Constant Matrix: (Units=GPa)
#
#
# Indices 1 2 3 4 5 6 
#
# 1 52.3615 23.4030 0.1286 0.0000 -12.2879 0.0000
# 2 23.4030 47.8557 -4.7103 0.0000 -14.1831 0.0000
# 3 0.1286 -4.7103 57.6960 0.0000 6.6889 0.0000
# 4 0.0000 0.0000 0.0000 20.1211 0.0000 -1.5204
# 5 -12.2879 -14.1831 6.6889 0.0000 29.5393 0.0000
# 6 0.0000 0.0000 0.0000 -1.5204 0.0000 10.2312
#
#
#
# Elastic Compliance Matrix: (Units=1/GPa)
#
#
# Indices 1 2 3 4 5 6 
#
# 1 0.025277 -0.010837 -0.001599 0.000000 0.005674 0.000000
# 2 -0.010837 0.029033 0.001336 0.000000 0.009129 0.000000
# 3 -0.001599 0.001336 0.017918 0.000000 -0.004081 0.000000
# 4 0.000000 0.000000 0.000000 0.050263 0.000000 0.007469
# 5 0.005674 0.009129 -0.004081 0.000000 0.041521 0.000000
# 6 0.000000 0.000000 0.000000 0.007469 0.000000 0.098850
#
#
# Mechanical properties :
#
#
# Convention : Reuss Voigt Hill
#
# Bulk Modulus (GPa) = 19.98873 21.72839 20.85856
# Shear Modulus (GPa) = 16.57062 21.25110 18.91086
#
# Velocity S-wave (km/s) = 2.88103 3.26264 3.07775
# Velocity P-wave (km/s) = 4.59125 5.00769 4.80398
#
# Compressibility (1/GPa) = 0.05002818
#
# Stress axis : x y z
#
# Youngs Moduli (GPa) = 39.56155 34.44345 55.80984
#
# Poissons Ratio (x) = 0.37327 0.08923
# Poissons Ratio (y) = 0.42874 -0.07456
# Poissons Ratio (z) = 0.06325 -0.04602
#
# Static dielectric constant tensor:
#      x y z
#    x 1.731890 0.000000 -0.022950 
#    y 0.000000 1.704230 0.000000 
#    z -0.022950 0.000000 1.687920 
# 
# From -- ./inp_files/6019.got.cif
#   From: 2010.05.17/outbox.cif.g08.bks.cpg/sg5_4_cif.got.tgz:6019.got - 2010.06.03 18:56:24.
