data_PCOD9120851
_publ_section_title
;
Structure prediction by ZEFSAII (Michael W. Deem and Ramdas Pophale) SiO2 
 PCOD9120851
Probable space group: C 2
;
_chemical_formula_sum "Si O2"
_cell_formula_units_Z 26
_cell_length_a 21.204064
_cell_length_b 8.764776
_cell_length_c 14.836424
_cell_angle_alpha 90.000000
_cell_angle_beta 32.077061
_cell_angle_gamma 90.000000
_cell_volume 1464.307376
_symmetry_space_group_name_H-M "C 2"
_symmetry_group_IT_number 5
_symmetry_cell_setting 'monoclinic'
loop_
_space_group_symop_operation_xyz
x,y,z
-x,y,-z
1/2+x,1/2+y,z
1/2-x,1/2+y,-z
loop_
_atom_site_type_symbol
_atom_site_label
_atom_site_fract_x
_atom_site_fract_y
_atom_site_fract_z
Si Si1 0.500000 0.392061 0.500000
Si Si2 0.305615 0.156360 0.720551
Si Si3 0.281411 0.275852 0.368544
Si Si4 0.500000 0.335965 0.000000
Si Si5 0.720628 0.643599 0.626601
Si Si6 0.500000 0.891767 0.500000
Si Si7 0.457737 0.594745 0.902426
Si Si8 0.967128 0.143056 0.392156
O O1 0.390508 0.284291 0.658425
O O2 0.466343 0.498898 0.458016
O O3 0.278763 0.193181 0.648916
O O4 0.383809 0.000265 0.629871
O O5 0.175301 0.153536 0.921417
O O6 0.391238 0.241426 0.170703
O O7 0.272649 0.459398 0.383814
O O8 0.290635 0.213660 0.458292
O O9 0.164106 0.200864 0.471537
O O10 0.539171 0.443509 0.037110
O O11 0.578820 0.680242 0.790464
O O12 0.519778 0.782388 0.388911
O O13 0.476360 0.594155 0.772010
#
# Coordination Sequence:
#
# PCOD9120851 Si02
#       8
#     2   4   4   2   4   2   4   4
#     4  10  26  36  58  82 118 160 196 234 284 328
#     4  11  20  38  58  85 115 154 195 240 274 358
#     4  10  20  36  61  84 118 146 193 235 300 336
#     4  10  18  36  56  96 108 154 174 244 304 346
#     4  10  20  35  62  87 111 154 183 242 292 347
#     4  10  20  38  60  76 116 162 200 222 294 330
#     4  10  19  35  62  84 114 144 193 237 301 328
#     4  10  21  40  57  84 114 160 191 243 278 347
#
# _framework density 17.755835999999999
#
# number of rings (size 3 to 8) (size 9 to 14) (size 15 to 20)
#    0.000    1.846    4.615    0.000    6.462    1.231 
#    0.000    3.077    0.000    0.000    0.000    0.000 
#    0.000    0.000    0.000    0.000    0.000    0.000 
#
# Total GULP energy -72388.093611 kJ/mol
# GULP energy per Si atom -5568.314893 kJ/mol
# Density = 1.771542 g / cm^3
# Si number density = 17.755836 Si / 1000 Ang^3
#
#
#
# Elastic Constant Matrix: (Units=GPa)
#
#
# Indices 1 2 3 4 5 6 
#
# 1 76.2556 19.8111 51.1090 -0.0001 11.3261 0.0000
# 2 19.8111 57.8635 34.1016 -0.0001 -3.6837 0.0000
# 3 51.1090 34.1016 144.4253 -0.0001 3.4055 0.0000
# 4 -0.0001 -0.0001 -0.0001 17.5201 0.0001 5.6979
# 5 11.3261 -3.6837 3.4055 0.0001 25.6012 0.0000
# 6 0.0000 0.0000 0.0000 5.6979 0.0000 22.3646
#
#
#
# Elastic Compliance Matrix: (Units=1/GPa)
#
#
# Indices 1 2 3 4 5 6 
#
# 1 0.019118 -0.003714 -0.005695 0.000000 -0.008235 0.000000
# 2 -0.003714 0.021120 -0.003795 0.000000 0.005187 0.000000
# 3 -0.005695 -0.003795 0.009819 0.000000 0.000667 0.000000
# 4 0.000000 0.000000 0.000000 0.062234 0.000000 -0.015855
# 5 -0.008235 0.005187 0.000667 0.000000 0.043361 0.000000
# 6 0.000000 0.000000 0.000000 -0.015855 0.000000 0.048753
#
#
# Mechanical properties :
#
#
# Convention : Reuss Voigt Hill
#
# Bulk Modulus (GPa) = 42.28059 54.28755 48.28407
# Shear Modulus (GPa) = 20.94704 24.66537 22.80621
#
# Velocity S-wave (km/s) = 3.43844 3.73116 3.58779
# Velocity P-wave (km/s) = 6.29506 7.01448 6.66448
#
# Compressibility (1/GPa) = 0.02365152
#
# Stress axis : x y z
#
# Youngs Moduli (GPa) = 52.30549 47.34769 101.83825
#
# Poissons Ratio (x) = 0.17585 0.57992
# Poissons Ratio (y) = 0.19426 0.38647
# Poissons Ratio (z) = 0.29785 0.17968
#
# Static dielectric constant tensor:
#      x y z
#    x 1.619400 0.000000 -0.007140 
#    y 0.000000 1.612800 0.000000 
#    z -0.007140 0.000000 1.613050 
# 
# From -- ./inp_files/41462.got.cif
#   From: 2010.05.17/outbox.cif.g08.bks.cpg/sg5_21_cif.got.tgz:41462.got - 2010.06.03 18:56:24.
