data_PCOD9120684
_publ_section_title
;
Structure prediction by ZEFSAII (Michael W. Deem and Ramdas Pophale) SiO2 
 PCOD9120684
Probable space group: C 2
;
_chemical_formula_sum "Si O2"
_cell_formula_units_Z 22
_cell_length_a 9.092355
_cell_length_b 11.953214
_cell_length_c 8.266249
_cell_angle_alpha 90.000000
_cell_angle_beta 108.357729
_cell_angle_gamma 90.000000
_cell_volume 852.678836
_symmetry_space_group_name_H-M "C 2"
_symmetry_group_IT_number 5
_symmetry_cell_setting 'monoclinic'
loop_
_space_group_symop_operation_xyz
x,y,z
-x,y,-z
1/2+x,1/2+y,z
1/2-x,1/2+y,-z
loop_
_atom_site_type_symbol
_atom_site_label
_atom_site_fract_x
_atom_site_fract_y
_atom_site_fract_z
Si Si1 0.500000 0.106310 0.500000
Si Si2 0.780519 0.285888 0.582504
Si Si3 0.056925 0.585498 0.849131
Si Si4 0.116036 0.074357 0.922423
Si Si5 0.857032 0.837823 0.132805
Si Si6 0.651114 0.776277 0.752526
O O1 0.658374 0.180610 0.551985
O O2 0.491552 0.037365 0.661875
O O3 0.719206 0.352247 0.717426
O O4 0.778064 0.319133 0.391645
O O5 0.964265 0.274775 0.678684
O O6 0.045248 0.722047 0.838498
O O7 0.237272 0.561971 0.912314
O O8 0.000000 0.542413 0.000000
O O9 0.051838 0.953125 0.857753
O O10 0.176848 0.142388 0.789380
O O11 0.000000 0.139454 0.000000
O O12 0.732323 0.823919 0.943177
#
# Coordination Sequence:
#
# PCOD9120684 Si02
#       6
#     2   4   4   4   4   4
#     4  10  18  34  58  86 116 154 202 244 300 360
#     4  10  21  38  63  87 118 164 204 252 305 359
#     4  10  21  38  60  85 121 164 204 254 305 361
#     4  11  22  39  66  95 125 165 207 255 313 370
#     4  10  21  39  63  89 123 161 209 256 306 368
#     4  10  21  42  64  89 124 162 207 255 309 366
#
# _framework density 25.801041000000001
#
# number of rings (size 3 to 8) (size 9 to 14) (size 15 to 20)
#    0.000    1.818    0.000    6.545    0.000    2.909 
#    0.000   20.000    0.000    0.000    0.000    0.000 
#    0.000    0.000    0.000    0.000    0.000    0.000 
#
# Total GULP energy -61360.797029 kJ/mol
# GULP energy per Si atom -5578.254275 kJ/mol
# Density = 2.574232 g / cm^3
# Si number density = 25.801041 Si / 1000 Ang^3
#
#
#
# Elastic Constant Matrix: (Units=GPa)
#
#
# Indices 1 2 3 4 5 6 
#
# 1 96.5174 -12.4931 60.4801 0.0000 -20.3189 0.0000
# 2 -12.4931 82.8343 13.5300 0.0000 -8.5342 0.0000
# 3 60.4801 13.5300 219.9535 0.0000 -41.0872 0.0000
# 4 0.0000 0.0000 0.0000 3.2764 0.0000 -14.9500
# 5 -20.3189 -8.5342 -41.0872 0.0000 59.7998 0.0000
# 6 0.0000 0.0000 0.0000 -14.9500 0.0000 9.4417
#
#
#
# Elastic Compliance Matrix: (Units=1/GPa)
#
#
# Indices 1 2 3 4 5 6 
#
# 1 0.013393 0.002842 -0.003363 0.000000 0.002645 0.000000
# 2 0.002842 0.012902 -0.001205 0.000000 0.001979 0.000000
# 3 -0.003363 -0.001205 0.006080 0.000000 0.002863 0.000000
# 4 0.000000 0.000000 0.000000 -0.049030 0.000000 -0.077635
# 5 0.002645 0.001979 0.002863 0.000000 0.019871 0.000000
# 6 0.000000 0.000000 0.000000 -0.077635 0.000000 -0.017014
#
#
# Mechanical properties :
#
#
# Convention : Reuss Voigt Hill
#
# Bulk Modulus (GPa) = 34.57678 58.03768 46.30723
# Shear Modulus (GPa) = -7097.40479 37.02279 -3530.19100
#
# Velocity S-wave (km/s) = -52.50517 3.79216 -37.02980
# Velocity P-wave (km/s) = 60.51689 6.45888 42.54748
#
# Compressibility (1/GPa) = 0.02892114
#
# Stress axis : x y z
#
# Youngs Moduli (GPa) = 74.66512 77.50944 164.47037
#
# Poissons Ratio (x) = -0.22027 0.55317
# Poissons Ratio (y) = -0.21219 0.19826
# Poissons Ratio (z) = 0.25112 0.09343
#
# Static dielectric constant tensor:
#      x y z
#    x 2.053790 0.000000 0.011020 
#    y 0.000000 2.094110 0.000000 
#    z 0.011020 0.000000 2.072910 
# 
# From -- ./inp_files/14894.got.cif
#   From: 2010.05.17/outbox.cif.g08.bks.cpg/sg5_8_cif.got.tgz:14894.got - 2010.06.03 18:56:24.
