data_PCOD9120099
_publ_section_title
;
Structure prediction by ZEFSAII (Michael W. Deem and Ramdas Pophale) SiO2 
 PCOD9120099
Probable space group: C 2
;
_chemical_formula_sum "Si O2"
_cell_formula_units_Z 26
_cell_length_a 8.442602
_cell_length_b 17.077191
_cell_length_c 13.163291
_cell_angle_alpha 90.000000
_cell_angle_beta 38.879862
_cell_angle_gamma 90.000000
_cell_volume 1191.247738
_symmetry_space_group_name_H-M "C 2"
_symmetry_group_IT_number 5
_symmetry_cell_setting 'monoclinic'
loop_
_space_group_symop_operation_xyz
x,y,z
-x,y,-z
1/2+x,1/2+y,z
1/2-x,1/2+y,-z
loop_
_atom_site_type_symbol
_atom_site_label
_atom_site_fract_x
_atom_site_fract_y
_atom_site_fract_z
Si Si1 0.500000 0.010260 0.500000
Si Si2 0.440075 0.659553 0.682970
Si Si3 0.903642 0.715584 0.314079
Si Si4 0.169585 0.494852 0.811168
Si Si5 0.564688 0.399071 0.677456
Si Si6 0.155091 0.134669 0.786891
Si Si7 0.151388 0.986325 0.015666
O O1 0.347611 0.069284 0.647197
O O2 0.309947 0.951805 0.537786
O O3 0.687302 0.674801 0.491095
O O4 0.196760 0.699931 0.750797
O O5 0.353670 0.568881 0.722619
O O6 0.531673 0.679803 0.751707
O O7 0.886156 0.808243 0.339557
O O8 0.177662 0.685251 0.217378
O O9 0.342702 0.419480 0.710676
O O10 0.000000 0.498878 0.000000
O O11 0.945572 0.491335 0.843438
O O12 0.438339 0.435833 0.842917
O O13 0.931874 0.076893 0.932853
O O14 0.000000 0.949630 0.000000
#
# Coordination Sequence:
#
# PCOD9120099 Si02
#       7
#     2   4   4   4   4   4   4
#     4  10  16  36  66  84 118 170 212 248 314 350
#     4  11  20  38  64  90 124 164 207 262 299 376
#     4  11  23  36  60  94 130 161 204 253 332 365
#     4  10  18  39  65  87 119 161 213 255 305 359
#     4  10  21  38  61  88 129 167 195 265 310 369
#     4  11  19  38  66  89 123 164 213 267 300 366
#     4  10  21  39  67  92 117 165 221 253 305 374
#
# _framework density 21.825854
#
# number of rings (size 3 to 8) (size 9 to 14) (size 15 to 20)
#    0.000    1.538    6.154    1.846    0.000    0.000 
#    2.769    7.692   16.923    0.000    0.000    0.000 
#    0.000    0.000    0.000    0.000    0.000    0.000 
#
# Total GULP energy -72423.898432 kJ/mol
# GULP energy per Si atom -5571.069110 kJ/mol
# Density = 2.177618 g / cm^3
# Si number density = 21.825854 Si / 1000 Ang^3
#
#
#
# Elastic Constant Matrix: (Units=GPa)
#
#
# Indices 1 2 3 4 5 6 
#
# 1 153.8799 27.7417 28.4180 -0.0048 -38.1500 0.0028
# 2 27.7417 82.2367 14.6940 -0.0137 -16.4765 0.0083
# 3 28.4180 14.6940 38.9664 -0.0235 -16.7666 0.0125
# 4 -0.0048 -0.0137 -0.0235 8.2206 0.0046 1.1485
# 5 -38.1500 -16.4765 -16.7666 0.0046 31.7594 -0.0018
# 6 0.0028 0.0083 0.0125 1.1485 -0.0018 10.6710
#
#
#
# Elastic Compliance Matrix: (Units=1/GPa)
#
#
# Indices 1 2 3 4 5 6 
#
# 1 0.009503 -0.000826 -0.002448 -0.000009 0.009694 0.000004
# 2 -0.000826 0.013866 -0.002534 0.000014 0.004864 -0.000008
# 3 -0.002448 -0.002534 0.034383 0.000091 0.013897 -0.000045
# 4 -0.000009 0.000014 0.000091 0.123503 0.000026 -0.013293
# 5 0.009694 0.004864 0.013897 0.000026 0.052992 -0.000017
# 6 0.000004 -0.000008 -0.000045 -0.013293 -0.000017 0.095143
#
#
# Mechanical properties :
#
#
# Convention : Reuss Voigt Hill
#
# Bulk Modulus (GPa) = 21.67423 46.31006 33.99215
# Shear Modulus (GPa) = 14.02985 23.74550 18.88768
#
# Velocity S-wave (km/s) = 2.53812 3.30199 2.94493
# Velocity P-wave (km/s) = 4.30598 5.98344 5.21263
#
# Compressibility (1/GPa) = 0.04613773
#
# Stress axis : x y z
#
# Youngs Moduli (GPa) = 105.23026 72.11972 29.08385
#
# Poissons Ratio (x) = 0.05958 0.07119
# Poissons Ratio (y) = 0.08693 0.07368
# Poissons Ratio (z) = 0.25756 0.18272
#
# Static dielectric constant tensor:
#      x y z
#    x 2.207530 0.000000 0.012120 
#    y 0.000000 1.734420 0.000000 
#    z 0.012120 0.000000 1.858300 
# 
# From -- ./inp_files/51094.got.cif
#   From: 2010.05.17/outbox.cif.g08.bks.cpg/sg5_26_cif.got.tgz:51094.got - 2010.06.03 18:56:24.
