data_PCOD9120398
_publ_section_title
;
Structure prediction by ZEFSAII (Michael W. Deem and Ramdas Pophale) SiO2 
 PCOD9120398
Probable space group: C 2
;
_chemical_formula_sum "Si O2"
_cell_formula_units_Z 32
_cell_length_a 22.836413
_cell_length_b 7.100410
_cell_length_c 23.168902
_cell_angle_alpha 90.000000
_cell_angle_beta 162.726335
_cell_angle_gamma 90.000000
_cell_volume 1115.525821
_symmetry_space_group_name_H-M "C 2"
_symmetry_group_IT_number 5
_symmetry_cell_setting 'monoclinic'
loop_
_space_group_symop_operation_xyz
x,y,z
-x,y,-z
1/2+x,1/2+y,z
1/2-x,1/2+y,-z
loop_
_atom_site_type_symbol
_atom_site_label
_atom_site_fract_x
_atom_site_fract_y
_atom_site_fract_z
Si Si1 0.177876 0.099250 0.850790
Si Si2 0.224932 0.135179 0.771440
Si Si3 0.942215 0.676394 0.736167
Si Si4 0.739384 0.628638 0.662518
Si Si5 0.457280 0.606345 0.161310
Si Si6 0.535158 0.192244 0.705159
Si Si7 0.150804 0.188092 0.229349
Si Si8 0.728070 0.179368 0.776225
O O1 0.262725 0.199437 0.873015
O O2 0.055477 0.198700 0.786636
O O3 0.045281 0.919960 0.708242
O O4 0.383296 0.042296 0.075504
O O5 0.318643 0.204316 0.799221
O O6 0.991132 0.161473 0.549153
O O7 0.249203 0.907902 0.794493
O O8 0.890749 0.629731 0.621298
O O9 0.795359 0.693692 0.651346
O O10 0.033543 0.884282 0.817604
O O11 0.803223 0.410565 0.724909
O O12 0.629432 0.643368 0.277025
O O13 0.249473 0.645002 0.934352
O O14 0.554173 0.122984 0.656951
O O15 0.285977 0.118033 0.303333
O O16 0.936720 0.130093 0.001906
#
# Coordination Sequence:
#
# PCOD9120398 Si02
#       8
#     4   4   4   4   4   4   4   4
#     4   9  17  32  51  69  91 123 157 190 223 269
#     4   9  18  32  49  67  90 120 160 198 226 261
#     4  10  18  28  48  71  93 123 155 185 229 278
#     4  10  19  31  49  69  90 121 158 195 229 268
#     4   9  17  29  47  73 100 120 145 189 236 272
#     4   8  15  29  48  67  92 120 152 189 224 262
#     4   9  16  29  51  74  94 117 151 191 228 271
#     4   8  14  28  51  72  90 116 152 191 225 263
#
# _framework density 28.686022999999999
#
# number of rings (size 3 to 8) (size 9 to 14) (size 15 to 20)
#    0.000    3.000    0.000    2.250    0.000    2.500 
#    0.000    8.750    0.000   10.500    0.000    0.000 
#    0.000    0.000    0.000    0.000    0.000    0.000 
#
# Total GULP energy -89280.184084 kJ/mol
# GULP energy per Si atom -5580.011505 kJ/mol
# Density = 2.862073 g / cm^3
# Si number density = 28.686023 Si / 1000 Ang^3
#
#
#
# Elastic Constant Matrix: (Units=GPa)
#
#
# Indices 1 2 3 4 5 6 
#
# 1 422.2847 10.5974 59.0183 -0.0022 21.5601 0.0031
# 2 10.5974 92.0058 -12.8670 -0.0029 -0.9994 0.0055
# 3 59.0183 -12.8670 63.4891 0.0023 5.4836 0.0099
# 4 -0.0022 -0.0029 0.0023 -14.6961 -0.0011 -4.9253
# 5 21.5601 -0.9994 5.4836 -0.0011 62.0511 0.0030
# 6 0.0031 0.0055 0.0099 -4.9253 0.0030 32.9494
#
#
#
# Elastic Compliance Matrix: (Units=1/GPa)
#
#
# Indices 1 2 3 4 5 6 
#
# 1 0.002798 -0.000705 -0.002680 -0.000001 -0.000747 0.000001
# 2 -0.000705 0.011364 0.002944 -0.000001 0.000168 -0.000003
# 3 -0.002680 0.002944 0.018898 0.000005 -0.000692 -0.000005
# 4 -0.000001 -0.000001 0.000005 -0.064799 -0.000001 -0.009686
# 5 -0.000747 0.000168 -0.000692 -0.000001 0.016439 -0.000001
# 6 0.000001 -0.000003 -0.000005 -0.009686 -0.000001 0.028902
#
#
# Mechanical properties :
#
#
# Convention : Reuss Voigt Hill
#
# Bulk Modulus (GPa) = 31.07670 76.80857 53.94263
# Shear Modulus (GPa) = 198.33349 50.79627 124.56488
#
# Velocity S-wave (km/s) = 8.32403 4.21261 6.59680
# Velocity P-wave (km/s) = 10.16085 7.10600 8.76750
#
# Compressibility (1/GPa) = 0.03217845
#
# Stress axis : x y z
#
# Youngs Moduli (GPa) = 357.34381 87.99985 52.91505
#
# Poissons Ratio (x) = 0.06206 0.14180
# Poissons Ratio (y) = 0.25200 -0.15579
# Poissons Ratio (z) = 0.95760 -0.25908
#
# Static dielectric constant tensor:
#      x y z
#    x 2.361480 0.000000 -0.025020 
#    y 0.000000 2.239410 0.000000 
#    z -0.025020 0.000000 2.394370 
# 
# From -- ./inp_files/71236.got.cif
#   From: 2010.05.17/outbox.cif.g08.bks.cpg/sg5_36_cif.got.tgz:71236.got - 2010.06.03 18:56:24.
