data_PCOD9120496
_publ_section_title
;
Structure prediction by ZEFSAII (Michael W. Deem and Ramdas Pophale) SiO2 
 PCOD9120496
Probable space group: C 2
;
_chemical_formula_sum "Si O2"
_cell_formula_units_Z 30
_cell_length_a 28.085655
_cell_length_b 7.853799
_cell_length_c 6.480772
_cell_angle_alpha 90.000000
_cell_angle_beta 108.654508
_cell_angle_gamma 90.000000
_cell_volume 1354.422149
_symmetry_space_group_name_H-M "C 2"
_symmetry_group_IT_number 5
_symmetry_cell_setting 'monoclinic'
loop_
_space_group_symop_operation_xyz
x,y,z
-x,y,-z
1/2+x,1/2+y,z
1/2-x,1/2+y,-z
loop_
_atom_site_type_symbol
_atom_site_label
_atom_site_fract_x
_atom_site_fract_y
_atom_site_fract_z
Si Si1 0.088882 0.823590 0.887821
Si Si2 0.207582 0.331187 0.784768
Si Si3 0.453671 0.155862 0.779599
Si Si4 0.054291 0.296491 0.478378
Si Si5 0.000000 0.890518 0.500000
Si Si6 0.879818 0.459133 0.107106
Si Si7 0.188998 0.012621 0.051314
Si Si8 0.135732 0.246486 0.308786
O O1 0.045685 0.940652 0.724926
O O2 0.090494 0.630541 0.806184
O O3 0.082712 0.769893 0.121733
O O4 0.142532 0.901684 0.909117
O O5 0.176484 0.463254 0.884979
O O6 0.263261 0.398401 0.826522
O O7 0.174826 0.313120 0.532935
O O8 0.205515 0.154318 0.907725
O O9 0.468816 0.282209 0.620409
O O10 0.446784 0.976252 0.648359
O O11 0.500000 0.121627 0.000000
O O12 0.090923 0.317086 0.723133
O O13 0.085011 0.182983 0.355152
O O14 0.000000 0.250301 0.500000
O O15 0.878398 0.397904 0.870263
O O16 0.164845 0.109192 0.213200
#
# Coordination Sequence:
#
# PCOD9120496 Si02
#       8
#     4   4   4   4   2   4   4   4
#     4  11  21  36  66  95 132 172 222 277 328 392
#     4  10  24  46  68  96 128 171 222 278 345 409
#     4  10  18  31  57  96 124 164 219 266 315 376
#     4  11  19  34  65  95 131 178 224 271 319 382
#     4  10  20  36  58  96 132 172 222 268 316 386
#     4  10  20  38  65 101 132 165 225 278 327 396
#     4  11  25  45  69  94 134 173 223 282 343 409
#     4  10  24  42  63  98 141 166 226 278 340 403
#
# _framework density 22.149667999999998
#
# number of rings (size 3 to 8) (size 9 to 14) (size 15 to 20)
#    0.000    1.600    3.333    1.600    0.000    4.267 
#    0.000    0.000   44.000    0.000    0.000    0.000 
#    0.000    0.000    0.000    0.000    0.000    0.000 
#
# Total GULP energy -83548.707192 kJ/mol
# GULP energy per Si atom -5569.913813 kJ/mol
# Density = 2.209925 g / cm^3
# Si number density = 22.149668 Si / 1000 Ang^3
#
#
#
# Elastic Constant Matrix: (Units=GPa)
#
#
# Indices 1 2 3 4 5 6 
#
# 1 152.4987 33.8678 39.2207 0.0000 -0.6492 0.0000
# 2 33.8678 64.5323 23.2732 0.0000 -4.2649 0.0000
# 3 39.2207 23.2732 113.8906 0.0000 -5.9843 0.0000
# 4 0.0000 0.0000 0.0000 13.4718 0.0000 10.9964
# 5 -0.6492 -4.2649 -5.9843 0.0000 29.7807 0.0000
# 6 0.0000 0.0000 0.0000 10.9964 0.0000 18.2376
#
#
#
# Elastic Compliance Matrix: (Units=1/GPa)
#
#
# Indices 1 2 3 4 5 6 
#
# 1 0.007840 -0.003428 -0.002038 0.000000 -0.000729 0.000000
# 2 -0.003428 0.018316 -0.002454 0.000000 0.002055 0.000000
# 3 -0.002038 -0.002454 0.010069 0.000000 0.001627 0.000000
# 4 0.000000 0.000000 0.000000 0.146165 0.000000 -0.088130
# 5 -0.000729 0.002055 0.001627 0.000000 0.034184 0.000000
# 6 0.000000 0.000000 0.000000 -0.088130 0.000000 0.107970
#
#
# Mechanical properties :
#
#
# Convention : Reuss Voigt Hill
#
# Bulk Modulus (GPa) = 49.05517 58.18279 53.61898
# Shear Modulus (GPa) = 14.40179 27.93536 21.16858
#
# Velocity S-wave (km/s) = 2.55268 3.55520 3.09480
# Velocity P-wave (km/s) = 5.55728 6.57097 6.08527
#
# Compressibility (1/GPa) = 0.02038521
#
# Stress axis : x y z
#
# Youngs Moduli (GPa) = 127.55700 54.59687 99.31353
#
# Poissons Ratio (x) = 0.18714 0.20236
# Poissons Ratio (y) = 0.43723 0.24376
# Poissons Ratio (z) = 0.25991 0.13400
#
# Static dielectric constant tensor:
#      x y z
#    x 1.840710 0.000000 -0.029500 
#    y 0.000000 1.915740 0.000000 
#    z -0.029500 0.000000 1.822630 
# 
# From -- ./inp_files/11267.got.cif
#   From: 2010.05.17/outbox.cif.g08.bks.cpg/sg5_6_cif.got.tgz:11267.got - 2010.06.03 18:56:24.
