data_PCOD9120276
_publ_section_title
;
Structure prediction by ZEFSAII (Michael W. Deem and Ramdas Pophale) SiO2 
 PCOD9120276
Probable space group: C 2
;
_chemical_formula_sum "Si O2"
_cell_formula_units_Z 24
_cell_length_a 16.157311
_cell_length_b 7.486963
_cell_length_c 15.009693
_cell_angle_alpha 90.000000
_cell_angle_beta 39.075313
_cell_angle_gamma 90.000000
_cell_volume 1144.517388
_symmetry_space_group_name_H-M "C 2"
_symmetry_group_IT_number 5
_symmetry_cell_setting 'monoclinic'
loop_
_space_group_symop_operation_xyz
x,y,z
-x,y,-z
1/2+x,1/2+y,z
1/2-x,1/2+y,-z
loop_
_atom_site_type_symbol
_atom_site_label
_atom_site_fract_x
_atom_site_fract_y
_atom_site_fract_z
Si Si1 0.410510 0.551500 0.152107
Si Si2 0.933369 0.641288 0.142814
Si Si3 0.172742 0.005437 0.591682
Si Si4 0.860951 0.050067 0.587187
Si Si5 0.876508 0.646730 0.656716
Si Si6 0.549908 0.113611 0.677955
O O1 0.467363 0.351595 0.116315
O O2 0.390116 0.612369 0.272528
O O3 0.261957 0.552034 0.239699
O O4 0.500000 0.638812 0.000000
O O5 0.776128 0.630059 0.266445
O O6 0.976975 0.550466 0.198971
O O7 0.000000 0.562141 0.000000
O O8 0.141682 0.063536 0.517398
O O9 0.330963 0.005013 0.466934
O O10 0.118120 0.805421 0.637159
O O11 0.000000 0.128957 0.500000
O O12 0.859853 0.845991 0.627389
O O13 0.000000 0.567152 0.500000
O O14 0.927202 0.642363 0.715977
#
# Coordination Sequence:
#
# PCOD9120276 Si02
#       6
#     4   4   4   4   4   4
#     4  10  21  36  55  77 113 144 173 217 272 320
#     4   9  21  39  53  75 112 146 172 213 274 322
#     4  10  17  34  55  78 103 141 173 218 266 311
#     4  10  19  34  58  79 104 135 181 227 260 307
#     4  11  19  36  57  84 104 134 186 227 259 309
#     4  10  19  34  58  78 106 140 179 221 262 313
#
# _framework density 20.969538
#
# number of rings (size 3 to 8) (size 9 to 14) (size 15 to 20)
#    0.000    2.000    5.000    0.000    0.000    1.333 
#    6.000    0.000    0.000    0.000    0.000    0.000 
#    0.000    0.000    0.000    0.000    0.000    0.000 
#
# Total GULP energy -66839.120940 kJ/mol
# GULP energy per Si atom -5569.926745 kJ/mol
# Density = 2.092181 g / cm^3
# Si number density = 20.969538 Si / 1000 Ang^3
#
#
#
# Elastic Constant Matrix: (Units=GPa)
#
#
# Indices 1 2 3 4 5 6 
#
# 1 148.2271 8.3314 60.9693 0.0000 17.9601 0.0000
# 2 8.3314 43.7402 -1.3096 -0.0001 9.1841 -0.0006
# 3 60.9693 -1.3096 144.8765 0.0000 40.6746 0.0000
# 4 0.0000 -0.0001 0.0000 -3.1995 0.0000 -57.1511
# 5 17.9601 9.1841 40.6746 0.0000 33.5086 0.0002
# 6 0.0000 -0.0006 0.0000 -57.1511 0.0002 -142.1288
#
#
#
# Elastic Compliance Matrix: (Units=1/GPa)
#
#
# Indices 1 2 3 4 5 6 
#
# 1 0.008285 -0.001782 -0.003630 0.000000 0.000455 0.000000
# 2 -0.001782 0.025637 0.004075 0.000000 -0.011018 0.000000
# 3 -0.003630 0.004075 0.012491 0.000000 -0.014334 0.000000
# 4 0.000000 0.000000 0.000000 0.050553 0.000000 -0.020328
# 5 0.000455 -0.011018 -0.014334 0.000000 0.050018 0.000000
# 6 0.000000 0.000000 0.000000 -0.020328 0.000000 0.001138
#
#
# Mechanical properties :
#
#
# Convention : Reuss Voigt Hill
#
# Bulk Modulus (GPa) = 22.86310 52.53623 37.69967
# Shear Modulus (GPa) = 30.23406 -4.44045 12.89680
#
# Velocity S-wave (km/s) = 3.80123 -1.45677 2.48266
# Velocity P-wave (km/s) = 5.49477 4.72000 5.12206
#
# Compressibility (1/GPa) = 0.04373860
#
# Stress axis : x y z
#
# Youngs Moduli (GPa) = 120.70441 39.00577 80.05606
#
# Poissons Ratio (x) = 0.06951 0.29062
# Poissons Ratio (y) = 0.21512 -0.32624
# Poissons Ratio (z) = 0.43819 -0.15895
#
# Static dielectric constant tensor:
#      x y z
#    x 1.789310 0.000000 0.073830 
#    y 0.000000 1.831500 0.000000 
#    z 0.073830 0.000000 1.818730 
# 
# From -- ./inp_files/23460.got.cif
#   From: 2010.05.17/outbox.cif.g08.bks.cpg/sg5_12_cif.got.tgz:23460.got - 2010.06.03 18:56:24.
