data_PCOD9120094
_publ_section_title
;
Structure prediction by ZEFSAII (Michael W. Deem and Ramdas Pophale) SiO2 
 PCOD9120094
Probable space group: C 2
;
_chemical_formula_sum "Si O2"
_cell_formula_units_Z 24
_cell_length_a 11.140714
_cell_length_b 13.905533
_cell_length_c 6.742731
_cell_angle_alpha 90.000000
_cell_angle_beta 87.800142
_cell_angle_gamma 90.000000
_cell_volume 1043.797642
_symmetry_space_group_name_H-M "C 2"
_symmetry_group_IT_number 5
_symmetry_cell_setting 'monoclinic'
loop_
_space_group_symop_operation_xyz
x,y,z
-x,y,-z
1/2+x,1/2+y,z
1/2-x,1/2+y,-z
loop_
_atom_site_type_symbol
_atom_site_label
_atom_site_fract_x
_atom_site_fract_y
_atom_site_fract_z
Si Si1 0.213365 0.008710 0.986619
Si Si2 0.466106 0.180141 0.257413
Si Si3 0.715870 0.721463 0.101844
Si Si4 0.000000 0.535348 0.000000
Si Si5 0.714701 0.889620 0.371378
Si Si6 0.000000 0.526333 0.500000
Si Si7 0.850163 0.840833 0.753487
O O1 0.359399 0.998701 0.006491
O O2 0.201817 0.956228 0.775362
O O3 0.172809 0.119363 0.015441
O O4 0.146303 0.946021 0.154138
O O5 0.500000 0.153575 0.500000
O O6 0.323366 0.188145 0.241526
O O7 0.525410 0.285420 0.256493
O O8 0.500000 0.159061 0.000000
O O9 0.654179 0.804887 0.239100
O O10 0.768468 0.778128 0.909614
O O11 0.003425 0.557109 0.747864
O O12 0.617827 0.959471 0.477094
O O13 0.790130 0.844342 0.543925
#
# Coordination Sequence:
#
# PCOD9120094 Si02
#       7
#     4   4   4   2   4   2   4
#     4  10  21  37  60  88 122 157 199 249 301 352
#     4  11  19  37  65  89 119 153 203 252 294 351
#     4  10  21  40  61  89 122 159 199 254 300 356
#     4  10  16  36  60  84 114 154 202 248 290 342
#     4  11  23  35  58  95 124 153 201 250 305 354
#     4  12  22  38  64  92 120 156 202 256 294 358
#     4  11  21  34  58  95 125 155 197 251 304 355
#
# _framework density 22.992961000000001
#
# number of rings (size 3 to 8) (size 9 to 14) (size 15 to 20)
#    0.000    1.333    5.000    3.000    0.000    1.333 
#    0.000    0.000    0.000   15.000    0.000    0.000 
#    0.000    0.000    0.000    0.000    0.000    0.000 
#
# Total GULP energy -66860.690787 kJ/mol
# GULP energy per Si atom -5571.724232 kJ/mol
# Density = 2.294063 g / cm^3
# Si number density = 22.992961 Si / 1000 Ang^3
#
#
#
# Elastic Constant Matrix: (Units=GPa)
#
#
# Indices 1 2 3 4 5 6 
#
# 1 35.6343 12.6432 8.0044 0.0000 -1.3368 0.0000
# 2 12.6432 167.0708 49.5192 0.0000 -13.6543 0.0000
# 3 8.0044 49.5192 165.2684 0.0000 2.8460 0.0000
# 4 0.0000 0.0000 0.0000 58.7227 0.0000 -3.8729
# 5 -1.3368 -13.6543 2.8460 0.0000 35.2584 0.0000
# 6 0.0000 0.0000 0.0000 -3.8729 0.0000 34.0161
#
#
#
# Elastic Compliance Matrix: (Units=1/GPa)
#
#
# Indices 1 2 3 4 5 6 
#
# 1 0.028944 -0.001907 -0.000838 0.000000 0.000426 0.000000
# 2 -0.001907 0.006963 -0.002042 0.000000 0.002789 0.000000
# 3 -0.000838 -0.002042 0.006727 0.000000 -0.001366 0.000000
# 4 0.000000 0.000000 0.000000 0.017158 0.000000 0.001954
# 5 0.000426 0.002789 -0.001366 0.000000 0.029569 0.000000
# 6 0.000000 0.000000 0.000000 0.001954 0.000000 0.029620
#
#
# Mechanical properties :
#
#
# Convention : Reuss Voigt Hill
#
# Bulk Modulus (GPa) = 30.24838 56.47858 43.36348
# Shear Modulus (GPa) = 35.82334 45.45322 40.63828
#
# Velocity S-wave (km/s) = 3.95145 4.45098 4.20863
# Velocity P-wave (km/s) = 5.83118 7.14365 6.52052
#
# Compressibility (1/GPa) = 0.03305963
#
# Stress axis : x y z
#
# Youngs Moduli (GPa) = 34.54981 143.61649 148.66156
#
# Poissons Ratio (x) = 0.27390 0.12454
# Poissons Ratio (y) = 0.06589 0.30356
# Poissons Ratio (z) = 0.02894 0.29326
#
# Static dielectric constant tensor:
#      x y z
#    x 1.846420 0.000000 -0.019180 
#    y 0.000000 1.883700 0.000000 
#    z -0.019180 0.000000 1.996960 
# 
# From -- ./inp_files/6863.got.cif
#   From: 2010.05.17/outbox.cif.g08.bks.cpg/sg5_4_cif.got.tgz:6863.got - 2010.06.03 18:56:24.
