data_PCOD9120674
_publ_section_title
;
Structure prediction by ZEFSAII (Michael W. Deem and Ramdas Pophale) SiO2 
 PCOD9120674
Probable space group: C 2
;
_chemical_formula_sum "Si O2"
_cell_formula_units_Z 26
_cell_length_a 8.867668
_cell_length_b 20.666941
_cell_length_c 12.569302
_cell_angle_alpha 90.000000
_cell_angle_beta 146.555340
_cell_angle_gamma 90.000000
_cell_volume 1269.556015
_symmetry_space_group_name_H-M "C 2"
_symmetry_group_IT_number 5
_symmetry_cell_setting 'monoclinic'
loop_
_space_group_symop_operation_xyz
x,y,z
-x,y,-z
1/2+x,1/2+y,z
1/2-x,1/2+y,-z
loop_
_atom_site_type_symbol
_atom_site_label
_atom_site_fract_x
_atom_site_fract_y
_atom_site_fract_z
Si Si1 0.675903 0.889580 0.782187
Si Si2 0.382059 0.517591 0.815538
Si Si3 0.786659 0.696108 0.795449
Si Si4 0.763468 0.634721 0.428951
Si Si5 0.500000 0.793555 0.500000
Si Si6 0.173904 0.578574 0.310248
Si Si7 0.571056 0.948489 0.923013
O O1 0.527058 0.839587 0.617722
O O2 0.539376 0.893052 0.817131
O O3 0.665124 0.961621 0.721518
O O4 0.000000 0.878483 0.000000
O O5 0.322662 0.575657 0.700111
O O6 0.500000 0.540968 0.000000
O O7 0.619335 0.474960 0.899834
O O8 0.499589 0.676078 0.684692
O O9 0.739166 0.742385 0.666481
O O10 0.927448 0.631322 0.833763
O O11 0.000000 0.728016 0.000000
O O12 0.896627 0.600618 0.612040
O O13 0.000000 0.670508 0.500000
O O14 0.500000 0.584191 0.500000
O O15 0.097012 0.509220 0.221236
O O16 0.500000 0.930790 0.000000
#
# Coordination Sequence:
#
# PCOD9120674 Si02
#       7
#     4   4   4   4   2   4   4
#     4   9  22  38  62  88 114 161 205 250 299 357
#     4   9  19  34  54  90 124 160 191 238 315 379
#     4  11  23  41  65  88 118 166 207 250 304 367
#     4  11  20  33  60  94 132 152 198 256 313 366
#     4  12  22  44  64  82 110 170 228 246 274 378
#     4  10  19  33  55  93 124 160 194 240 314 379
#     4  10  18  34  57  88 127 151 194 248 316 370
#
# _framework density 20.479600000000001
#
# number of rings (size 3 to 8) (size 9 to 14) (size 15 to 20)
#    0.000    2.154    2.308    5.538    3.231    0.000 
#    0.000    0.000    6.769    0.000    0.000    0.000 
#    0.000    0.000    0.000    0.000    0.000    0.000 
#
# Total GULP energy -72401.724740 kJ/mol
# GULP energy per Si atom -5569.363442 kJ/mol
# Density = 2.043299 g / cm^3
# Si number density = 20.479600 Si / 1000 Ang^3
#
#
#
# Elastic Constant Matrix: (Units=GPa)
#
#
# Indices 1 2 3 4 5 6 
#
# 1 131.6891 21.3714 35.2851 0.0000 -34.0801 0.0000
# 2 21.3714 65.6573 35.3566 0.0000 -16.5068 0.0000
# 3 35.2851 35.3566 90.2184 0.0001 -29.9423 0.0001
# 4 0.0000 0.0000 0.0001 22.4078 0.0001 -26.1734
# 5 -34.0801 -16.5068 -29.9423 0.0001 30.5399 0.0000
# 6 0.0000 0.0000 0.0001 -26.1734 0.0000 2.7029
#
#
#
# Elastic Compliance Matrix: (Units=1/GPa)
#
#
# Indices 1 2 3 4 5 6 
#
# 1 0.010696 -0.000498 -0.000172 0.000000 0.011498 0.000000
# 2 -0.000498 0.019749 -0.006206 0.000000 0.004034 0.000000
# 3 -0.000172 -0.006206 0.018391 0.000000 0.014485 0.000000
# 4 0.000000 0.000000 0.000000 -0.004328 0.000000 -0.041912
# 5 0.011498 0.004034 0.014485 0.000000 0.061957 0.000000
# 6 0.000000 0.000000 0.000000 -0.041912 0.000000 -0.035882
#
#
# Mechanical properties :
#
#
# Convention : Reuss Voigt Hill
#
# Bulk Modulus (GPa) = 28.50338 52.39897 40.45118
# Shear Modulus (GPa) = 52.06764 24.16691 38.11728
#
# Velocity S-wave (km/s) = 5.04771 3.43891 4.31888
# Velocity P-wave (km/s) = 6.92247 6.43503 6.68320
#
# Compressibility (1/GPa) = 0.03508356
#
# Stress axis : x y z
#
# Youngs Moduli (GPa) = 93.49077 50.63592 54.37468
#
# Poissons Ratio (x) = 0.02523 0.00935
# Poissons Ratio (y) = 0.04658 0.33745
# Poissons Ratio (z) = 0.01608 0.31424
#
# Static dielectric constant tensor:
#      x y z
#    x 1.792080 0.000000 0.029540 
#    y 0.000000 1.776000 0.000000 
#    z 0.029540 0.000000 1.824130 
# 
# From -- ./inp_files/37413.got.cif
#   From: 2010.05.17/outbox.cif.g08.bks.cpg/sg5_19_cif.got.tgz:37413.got - 2010.06.03 18:56:24.
