data_PCOD9120362
_publ_section_title
;
Structure prediction by ZEFSAII (Michael W. Deem and Ramdas Pophale) SiO2 
 PCOD9120362
Probable space group: C 2
;
_chemical_formula_sum "Si O2"
_cell_formula_units_Z 32
_cell_length_a 17.062006
_cell_length_b 11.734681
_cell_length_c 14.941967
_cell_angle_alpha 90.000000
_cell_angle_beta 149.006983
_cell_angle_gamma 90.000000
_cell_volume 1540.495324
_symmetry_space_group_name_H-M "C 2"
_symmetry_group_IT_number 5
_symmetry_cell_setting 'monoclinic'
loop_
_space_group_symop_operation_xyz
x,y,z
-x,y,-z
1/2+x,1/2+y,z
1/2-x,1/2+y,-z
loop_
_atom_site_type_symbol
_atom_site_label
_atom_site_fract_x
_atom_site_fract_y
_atom_site_fract_z
Si Si1 0.697261 0.906390 0.508676
Si Si2 0.234792 0.352763 0.060563
Si Si3 0.322012 0.248414 0.955874
Si Si4 0.473158 0.056057 0.176905
Si Si5 0.022466 0.974883 0.317669
Si Si6 0.488588 0.692240 0.595437
Si Si7 0.672557 0.451098 0.171293
Si Si8 0.698110 0.600885 0.038857
O O1 0.590373 0.797322 0.428013
O O2 0.753892 0.948522 0.660563
O O3 0.608786 0.004355 0.367259
O O4 0.850362 0.891558 0.599496
O O5 0.395554 0.404629 0.248619
O O6 0.172877 0.233175 0.034999
O O7 0.280654 0.329043 0.000459
O O8 0.106033 0.447401 0.946701
O O9 0.331956 0.327351 0.878957
O O10 0.166087 0.177809 0.795149
O O11 0.470625 0.168213 0.111942
O O12 0.345087 0.098475 0.120284
O O13 0.086778 0.074776 0.444769
O O14 0.939094 0.041508 0.151928
O O15 0.500000 0.712537 0.500000
O O16 0.750781 0.532809 0.177220
O O17 0.500000 0.494205 0.000000
#
# Coordination Sequence:
#
# PCOD9120362 Si02
#       8
#     4   4   4   4   4   4   4   4
#     4  12  24  37  66 103 135 162 230 284 339 387
#     4  10  17  37  65  82 114 177 220 247 322 416
#     4  11  19  37  63  91 125 170 225 268 329 394
#     4  10  20  36  62  89 123 173 216 264 324 412
#     4  11  22  40  62  94 134 170 212 276 350 397
#     4  12  23  39  68  97 129 172 228 290 322 400
#     4  12  22  37  61  96 135 164 212 289 343 380
#     4  10  19  35  62  86 122 172 213 257 329 407
#
# _framework density 20.772541
#
# number of rings (size 3 to 8) (size 9 to 14) (size 15 to 20)
#    0.000    1.000   10.000    0.000    0.000    3.000 
#    0.000    0.000    8.250    0.750    0.000    0.000 
#    0.000    0.000    0.000    0.000    0.000    0.000 
#
# Total GULP energy -89117.274943 kJ/mol
# GULP energy per Si atom -5569.829684 kJ/mol
# Density = 2.072526 g / cm^3
# Si number density = 20.772541 Si / 1000 Ang^3
#
#
#
# Elastic Constant Matrix: (Units=GPa)
#
#
# Indices 1 2 3 4 5 6 
#
# 1 39.6031 15.1356 9.9430 0.0000 -5.1856 0.0000
# 2 15.1356 98.6963 24.9772 0.0000 -9.9354 0.0000
# 3 9.9430 24.9772 78.5452 0.0000 -5.2552 0.0000
# 4 0.0000 0.0000 0.0000 26.7136 0.0000 4.7684
# 5 -5.1856 -9.9354 -5.2552 0.0000 11.8777 0.0000
# 6 0.0000 0.0000 0.0000 4.7684 0.0000 7.3271
#
#
#
# Elastic Compliance Matrix: (Units=1/GPa)
#
#
# Indices 1 2 3 4 5 6 
#
# 1 0.028033 -0.002886 -0.002034 0.000000 0.008925 0.000000
# 2 -0.002886 0.012086 -0.002974 0.000000 0.007534 0.000000
# 3 -0.002034 -0.002974 0.014127 0.000000 0.002875 0.000000
# 4 0.000000 0.000000 0.000000 0.042354 0.000000 -0.027564
# 5 0.008925 0.007534 0.002875 0.000000 0.095661 0.000000
# 6 0.000000 0.000000 0.000000 -0.027564 0.000000 0.154418
#
#
# Mechanical properties :
#
#
# Convention : Reuss Voigt Hill
#
# Bulk Modulus (GPa) = 26.00218 35.21735 30.60977
# Shear Modulus (GPa) = 13.32321 20.30295 16.81308
#
# Velocity S-wave (km/s) = 2.53531 3.12972 2.84806
# Velocity P-wave (km/s) = 4.59512 5.48186 5.05796
#
# Compressibility (1/GPa) = 0.03845832
#
# Stress axis : x y z
#
# Youngs Moduli (GPa) = 35.67269 82.74293 70.78638
#
# Poissons Ratio (x) = 0.23878 0.14397
# Poissons Ratio (y) = 0.10295 0.21051
# Poissons Ratio (z) = 0.07255 0.24606
#
# Static dielectric constant tensor:
#      x y z
#    x 1.830290 0.000000 -0.013250 
#    y 0.000000 1.862500 0.000000 
#    z -0.013250 0.000000 1.835480 
# 
# From -- ./inp_files/56036.got.cif
#   From: 2010.05.17/outbox.cif.g08.bks.cpg/sg5_29_cif.got.tgz:56036.got - 2010.06.03 18:56:24.
