data_PCOD9120824
_publ_section_title
;
Structure prediction by ZEFSAII (Michael W. Deem and Ramdas Pophale) SiO2 
 PCOD9120824
Probable space group: C 2
;
_chemical_formula_sum "Si O2"
_cell_formula_units_Z 32
_cell_length_a 14.729930
_cell_length_b 6.615276
_cell_length_c 25.706198
_cell_angle_alpha 90.000000
_cell_angle_beta 32.873190
_cell_angle_gamma 90.000000
_cell_volume 1359.601225
_symmetry_space_group_name_H-M "C 2"
_symmetry_group_IT_number 5
_symmetry_cell_setting 'monoclinic'
loop_
_space_group_symop_operation_xyz
x,y,z
-x,y,-z
1/2+x,1/2+y,z
1/2-x,1/2+y,-z
loop_
_atom_site_type_symbol
_atom_site_label
_atom_site_fract_x
_atom_site_fract_y
_atom_site_fract_z
Si Si1 0.994888 0.648690 0.614747
Si Si2 0.741556 0.206395 0.073657
Si Si3 0.140427 0.248071 0.519240
Si Si4 0.833333 0.040051 0.692493
Si Si5 0.123938 0.479145 0.220533
Si Si6 0.198784 0.731544 0.657670
Si Si7 0.476742 0.590136 0.785391
Si Si8 0.004800 0.389460 0.126182
O O1 0.061301 0.466729 0.549161
O O2 0.170477 0.743140 0.550948
O O3 0.889341 0.826308 0.640925
O O4 0.886526 0.553659 0.714927
O O5 0.764075 0.077451 0.115885
O O6 0.646157 0.412886 0.135448
O O7 0.626607 0.066176 0.090609
O O8 0.904109 0.273186 0.963981
O O9 0.165233 0.164392 0.449799
O O10 0.012569 0.136772 0.619384
O O11 0.674348 0.983524 0.803907
O O12 0.760552 0.191538 0.685332
O O13 0.107290 0.242547 0.215722
O O14 0.956276 0.583379 0.278316
O O15 0.130271 0.960831 0.687517
O O16 0.518923 0.731237 0.814665
#
# Coordination Sequence:
#
# PCOD9120824 Si02
#       8
#     4   4   4   4   4   4   4   4
#     4  11  25  44  67  89 134 194 229 280 351 427
#     4  10  19  36  64  97 134 168 221 281 367 414
#     4  11  25  43  63  93 132 187 233 274 352 416
#     4  12  24  42  62  98 136 171 238 290 335 411
#     4   9  21  39  64  96 128 178 231 276 347 420
#     4  10  22  39  62  97 131 170 227 292 338 398
#     4  10  18  35  64  91 135 167 220 282 342 415
#     4  11  21  36  64 101 131 176 218 295 356 412
#
# _framework density 23.536313
#
# number of rings (size 3 to 8) (size 9 to 14) (size 15 to 20)
#    0.000    1.500    6.250    0.375    3.500    1.000 
#    2.250    0.625    0.000    0.000    0.000    0.000 
#    0.000    0.000    0.000    0.000    0.000    0.000 
#
# Total GULP energy -89253.337718 kJ/mol
# GULP energy per Si atom -5578.333607 kJ/mol
# Density = 2.348274 g / cm^3
# Si number density = 23.536313 Si / 1000 Ang^3
#
#
#
# Elastic Constant Matrix: (Units=GPa)
#
#
# Indices 1 2 3 4 5 6 
#
# 1 17.7933 10.4354 21.4321 0.0000 1.8979 0.0015
# 2 10.4354 129.9245 36.4987 0.0001 -4.0728 0.0024
# 3 21.4321 36.4987 157.4916 0.0001 7.8653 0.0001
# 4 0.0000 0.0001 0.0001 45.8079 -0.0001 -3.4344
# 5 1.8979 -4.0728 7.8653 -0.0001 26.5286 -0.0001
# 6 0.0015 0.0024 0.0001 -3.4344 -0.0001 19.3664
#
#
#
# Elastic Compliance Matrix: (Units=1/GPa)
#
#
# Indices 1 2 3 4 5 6 
#
# 1 0.068567 -0.003228 -0.008438 0.000000 -0.002899 -0.000005
# 2 -0.003228 0.008476 -0.001626 0.000000 0.002014 -0.000001
# 3 -0.008438 -0.001626 0.007975 0.000000 -0.002010 0.000001
# 4 0.000000 0.000000 0.000000 0.022124 0.000000 0.003923
# 5 -0.002899 0.002014 -0.002010 0.000000 0.038808 0.000000
# 6 -0.000005 -0.000001 0.000001 0.003923 0.000000 0.052332
#
#
# Mechanical properties :
#
#
# Convention : Reuss Voigt Hill
#
# Bulk Modulus (GPa) = 17.11303 49.10464 33.10884
# Shear Modulus (GPa) = 20.46307 34.13013 27.29660
#
# Velocity S-wave (km/s) = 2.95180 3.81216 3.40923
# Velocity P-wave (km/s) = 4.34790 6.34707 5.44011
#
# Compressibility (1/GPa) = 0.05843501
#
# Stress axis : x y z
#
# Youngs Moduli (GPa) = 14.58429 117.98245 125.39241
#
# Poissons Ratio (x) = 0.38081 1.05807
# Poissons Ratio (y) = 0.04707 0.20384
# Poissons Ratio (z) = 0.12306 0.19180
#
# Static dielectric constant tensor:
#      x y z
#    x 1.937410 0.000000 0.000460 
#    y 0.000000 1.908030 0.000000 
#    z 0.000460 0.000000 1.913660 
# 
# From -- ./inp_files/72019.got.cif
#   From: 2010.05.17/outbox.cif.g08.bks.cpg/sg5_37_cif.got.tgz:72019.got - 2010.06.03 18:56:24.
