data_PCOD9120593
_publ_section_title
;
Structure prediction by ZEFSAII (Michael W. Deem and Ramdas Pophale) SiO2 
 PCOD9120593
Probable space group: C 2
;
_chemical_formula_sum "Si O2"
_cell_formula_units_Z 28
_cell_length_a 14.023490
_cell_length_b 7.805680
_cell_length_c 12.297946
_cell_angle_alpha 90.000000
_cell_angle_beta 66.111055
_cell_angle_gamma 90.000000
_cell_volume 1230.845112
_symmetry_space_group_name_H-M "C 2"
_symmetry_group_IT_number 5
_symmetry_cell_setting 'monoclinic'
loop_
_space_group_symop_operation_xyz
x,y,z
-x,y,-z
1/2+x,1/2+y,z
1/2-x,1/2+y,-z
loop_
_atom_site_type_symbol
_atom_site_label
_atom_site_fract_x
_atom_site_fract_y
_atom_site_fract_z
Si Si1 0.168433 0.312730 0.189251
Si Si2 0.983911 0.564522 0.675076
Si Si3 0.845581 0.939620 0.260252
Si Si4 0.521596 0.232548 0.102133
Si Si5 0.897714 0.843758 0.482303
Si Si6 0.768887 0.778982 0.728579
Si Si7 0.279436 0.455718 0.941316
O O1 0.060580 0.373164 0.295390
O O2 0.253734 0.325537 0.246737
O O3 0.171133 0.135471 0.121231
O O4 0.201704 0.452780 0.080243
O O5 0.014817 0.616065 0.782191
O O6 0.880952 0.683846 0.700533
O O7 0.072844 0.640957 0.555287
O O8 0.874459 0.911480 0.372838
O O9 0.945406 0.894942 0.143084
O O10 0.811711 0.132817 0.260241
O O11 0.634329 0.316360 0.062278
O O12 0.500000 0.140107 0.000000
O O13 0.799594 0.877598 0.604916
O O14 0.000000 0.912736 0.500000
O O15 0.734586 0.883851 0.848973
#
# Coordination Sequence:
#
# PCOD9120593 Si02
#       7
#     4   4   4   4   4   4   4
#     4  11  21  37  58  88 121 157 204 246 299 353
#     4   8  18  35  58  81 109 154 195 239 290 352
#     4  10  20  35  60  85 112 155 203 244 287 359
#     4  10  18  33  56  80 114 152 188 231 299 349
#     4   9  18  37  62  84 112 157 203 242 302 352
#     4   9  19  36  58  85 117 154 198 240 295 354
#     4  11  22  36  58  86 126 160 194 249 300 359
#
# _framework density 22.748598000000001
#
# number of rings (size 3 to 8) (size 9 to 14) (size 15 to 20)
#    0.000    2.286    1.429    3.429    0.000    1.143 
#    0.000    5.000    0.000   24.857    0.000    0.000 
#    0.000    0.000    0.000    0.000    0.000    0.000 
#
# Total GULP energy -78020.727326 kJ/mol
# GULP energy per Si atom -5572.909095 kJ/mol
# Density = 2.269682 g / cm^3
# Si number density = 22.748598 Si / 1000 Ang^3
#
#
#
# Elastic Constant Matrix: (Units=GPa)
#
#
# Indices 1 2 3 4 5 6 
#
# 1 46.2498 14.0845 32.8069 0.0000 13.5852 0.0000
# 2 14.0845 50.6026 -5.6247 0.0000 16.1352 0.0000
# 3 32.8069 -5.6247 121.1064 0.0000 36.2260 0.0000
# 4 0.0000 0.0000 0.0000 16.5302 0.0000 1.3832
# 5 13.5852 16.1352 36.2260 0.0000 37.9604 0.0000
# 6 0.0000 0.0000 0.0000 1.3832 0.0000 18.9778
#
#
#
# Elastic Compliance Matrix: (Units=1/GPa)
#
#
# Indices 1 2 3 4 5 6 
#
# 1 0.030887 -0.010497 -0.009632 0.000000 0.002600 0.000000
# 2 -0.010497 0.029449 0.009561 0.000000 -0.017885 0.000000
# 3 -0.009632 0.009561 0.016087 0.000000 -0.015969 0.000000
# 4 0.000000 0.000000 0.000000 0.060867 0.000000 -0.004436
# 5 0.002600 -0.017885 -0.015969 0.000000 0.048254 0.000000
# 6 0.000000 0.000000 0.000000 -0.004436 0.000000 0.053017
#
#
# Mechanical properties :
#
#
# Convention : Reuss Voigt Hill
#
# Bulk Modulus (GPa) = 18.08723 33.38802 25.73762
# Shear Modulus (GPa) = 17.97741 26.47314 22.22528
#
# Velocity S-wave (km/s) = 2.81421 3.41504 3.12908
# Velocity P-wave (km/s) = 4.30441 5.50081 4.93897
#
# Compressibility (1/GPa) = 0.05528764
#
# Stress axis : x y z
#
# Youngs Moduli (GPa) = 32.37578 33.95691 62.16041
#
# Poissons Ratio (x) = 0.35644 0.59876
# Poissons Ratio (y) = 0.33984 -0.59433
# Poissons Ratio (z) = 0.31186 -0.32467
#
# Static dielectric constant tensor:
#      x y z
#    x 1.901640 0.000000 0.010740 
#    y 0.000000 1.897550 0.000000 
#    z 0.010740 0.000000 1.891700 
# 
# From -- ./inp_files/41685.got.cif
#   From: 2010.05.17/outbox.cif.g08.bks.cpg/sg5_21_cif.got.tgz:41685.got - 2010.06.03 18:56:24.
