data_PCOD9120196
_publ_section_title
;
Structure prediction by ZEFSAII (Michael W. Deem and Ramdas Pophale) SiO2 
 PCOD9120196
Probable space group: C 2
;
_chemical_formula_sum "Si O2"
_cell_formula_units_Z 26
_cell_length_a 27.943525
_cell_length_b 7.863476
_cell_length_c 8.524353
_cell_angle_alpha 90.000000
_cell_angle_beta 34.588574
_cell_angle_gamma 90.000000
_cell_volume 1063.311367
_symmetry_space_group_name_H-M "C 2"
_symmetry_group_IT_number 5
_symmetry_cell_setting 'monoclinic'
loop_
_space_group_symop_operation_xyz
x,y,z
-x,y,-z
1/2+x,1/2+y,z
1/2-x,1/2+y,-z
loop_
_atom_site_type_symbol
_atom_site_label
_atom_site_fract_x
_atom_site_fract_y
_atom_site_fract_z
Si Si1 0.887982 0.457340 0.564860
Si Si2 0.000000 0.683572 0.500000
Si Si3 0.661843 0.299565 0.901357
Si Si4 0.244182 0.453900 0.821706
Si Si5 0.095525 0.644747 0.779597
Si Si6 0.408952 0.614583 0.307931
Si Si7 0.320790 0.840951 0.317569
O O1 0.866350 0.595460 0.490110
O O2 0.917051 0.284041 0.396682
O O3 0.955075 0.554413 0.496676
O O4 0.804575 0.411422 0.888284
O O5 0.073644 0.805846 0.231679
O O6 0.704563 0.133948 0.868158
O O7 0.633155 0.275878 0.798644
O O8 0.746106 0.406940 0.636100
O O9 0.344625 0.482646 0.563439
O O10 0.211604 0.331509 0.771034
O O11 0.104612 0.475156 0.861972
O O12 0.000000 0.680762 0.000000
O O13 0.357724 0.671243 0.290620
O O14 0.500000 0.560650 0.000000
#
# Coordination Sequence:
#
# PCOD9120196 Si02
#       7
#     4   2   4   4   4   4   4
#     4  10  19  30  57  79 112 136 186 228 277 311
#     4  10  18  30  52  86 112 130 186 238 260 318
#     4   9  18  31  52  80 107 141 177 222 273 327
#     4   9  20  35  53  82 115 142 178 233 276 328
#     4  10  17  31  52  79 104 136 181 228 261 316
#     4  10  21  36  60  83 107 148 190 226 273 331
#     4   9  18  34  55  75 108 148 176 212 284 331
#
# _framework density 24.451917000000002
#
# number of rings (size 3 to 8) (size 9 to 14) (size 15 to 20)
#    0.000    2.462    1.538    1.846    4.308    1.231 
#    0.000    0.769   13.538    0.000    0.000    0.000 
#    0.000    0.000    0.000    0.000    0.000    0.000 
#
# Total GULP energy -72460.749144 kJ/mol
# GULP energy per Si atom -5573.903780 kJ/mol
# Density = 2.439626 g / cm^3
# Si number density = 24.451917 Si / 1000 Ang^3
#
#
#
# Elastic Constant Matrix: (Units=GPa)
#
#
# Indices 1 2 3 4 5 6 
#
# 1 114.4765 24.9256 50.5590 0.0000 6.3348 0.0000
# 2 24.9256 67.0033 20.8966 0.0000 -1.1688 0.0000
# 3 50.5590 20.8966 207.3058 0.0000 0.4515 0.0000
# 4 0.0000 0.0000 0.0000 17.6146 0.0000 -7.3535
# 5 6.3348 -1.1688 0.4515 0.0000 33.1200 0.0000
# 6 0.0000 0.0000 0.0000 -7.3535 0.0000 18.2818
#
#
#
# Elastic Compliance Matrix: (Units=1/GPa)
#
#
# Indices 1 2 3 4 5 6 
#
# 1 0.010552 -0.003263 -0.002240 0.000000 -0.002103 0.000000
# 2 -0.003263 0.016429 -0.000863 0.000000 0.001216 0.000000
# 3 -0.002240 -0.000863 0.005456 0.000000 0.000324 0.000000
# 4 0.000000 0.000000 0.000000 0.068228 0.000000 0.027444
# 5 -0.002103 0.001216 0.000324 0.000000 0.030634 0.000000
# 6 0.000000 0.000000 0.000000 0.027444 0.000000 0.065738
#
#
# Mechanical properties :
#
#
# Convention : Reuss Voigt Hill
#
# Bulk Modulus (GPa) = 50.74915 64.61644 57.68280
# Shear Modulus (GPa) = 23.11210 33.29689 28.20450
#
# Velocity S-wave (km/s) = 3.07776 3.69417 3.39996
# Velocity P-wave (km/s) = 5.78185 6.68424 6.24936
#
# Compressibility (1/GPa) = 0.01970476
#
# Stress axis : x y z
#
# Youngs Moduli (GPa) = 94.77255 60.86821 183.27348
#
# Poissons Ratio (x) = 0.19864 0.41050
# Poissons Ratio (y) = 0.30928 0.15813
# Poissons Ratio (z) = 0.21228 0.05252
#
# Static dielectric constant tensor:
#      x y z
#    x 1.914770 0.000000 0.002130 
#    y 0.000000 2.029280 0.000000 
#    z 0.002130 0.000000 2.039650 
# 
# From -- ./inp_files/32582.got.cif
#   From: 2010.05.17/outbox.cif.g08.bks.cpg/sg5_17_cif.got.tgz:32582.got - 2010.06.03 18:56:24.
