data_PCOD9120070
_publ_section_title
;
Structure prediction by ZEFSAII (Michael W. Deem and Ramdas Pophale) SiO2 
 PCOD9120070
Probable space group: C 2
;
_chemical_formula_sum "Si O2"
_cell_formula_units_Z 30
_cell_length_a 9.495107
_cell_length_b 16.707439
_cell_length_c 12.323885
_cell_angle_alpha 90.000000
_cell_angle_beta 119.389219
_cell_angle_gamma 90.000000
_cell_volume 1703.445220
_symmetry_space_group_name_H-M "C 2"
_symmetry_group_IT_number 5
_symmetry_cell_setting 'monoclinic'
loop_
_space_group_symop_operation_xyz
x,y,z
-x,y,-z
1/2+x,1/2+y,z
1/2-x,1/2+y,-z
loop_
_atom_site_type_symbol
_atom_site_label
_atom_site_fract_x
_atom_site_fract_y
_atom_site_fract_z
Si Si1 0.482705 0.844140 0.746619
Si Si2 0.388600 0.158446 0.689909
Si Si3 0.838697 0.107321 0.760365
Si Si4 0.942628 0.502511 0.355112
Si Si5 0.000000 0.330173 0.000000
Si Si6 0.276192 0.198865 0.085557
Si Si7 0.329434 0.674871 0.186839
Si Si8 0.814300 0.744821 0.444949
O O1 0.596032 0.765039 0.775518
O O2 0.309366 0.813337 0.637397
O O3 0.533666 0.919609 0.696418
O O4 0.484370 0.868565 0.874851
O O5 0.458957 0.074915 0.667719
O O6 0.545752 0.204438 0.797007
O O7 0.264148 0.148854 0.741479
O O8 0.304652 0.209525 0.562688
O O9 0.746862 0.024677 0.714712
O O10 0.819991 0.134528 0.877555
O O11 0.730519 0.170932 0.651114
O O12 0.017757 0.118588 0.783741
O O13 0.000000 0.498674 0.500000
O O14 0.161842 0.275987 0.053274
O O15 0.281629 0.175227 0.962072
O O16 0.000000 0.768426 0.500000
#
# Coordination Sequence:
#
# PCOD9120070 Si02
#       8
#     4   4   4   4   2   4   4   4
#     4  10  23  35  62  85 118 152 196 243 297 349
#     4  11  21  34  60  90 119 146 195 252 286 338
#     4  10  17  35  61  80 112 155 191 234 290 353
#     4  11  22  40  55  83 121 158 186 238 314 350
#     4  10  16  38  60  86 114 156 194 244 292 350
#     4  10  16  34  61  85 115 150 197 237 285 345
#     4  10  21  35  60  92 109 150 206 245 276 344
#     4  11  17  36  60  89 106 157 200 235 286 359
#
# _framework density 17.611367999999999
#
# number of rings (size 3 to 8) (size 9 to 14) (size 15 to 20)
#    0.000    1.600    8.000    0.400    1.867    1.600 
#    4.800    1.333    2.933    4.800    0.000    0.000 
#    0.000    0.000    0.000    0.000    0.000    0.000 
#
# Total GULP energy -83587.956768 kJ/mol
# GULP energy per Si atom -5572.530451 kJ/mol
# Density = 1.757128 g / cm^3
# Si number density = 17.611368 Si / 1000 Ang^3
#
#
#
# Elastic Constant Matrix: (Units=GPa)
#
#
# Indices 1 2 3 4 5 6 
#
# 1 82.7691 30.1263 37.0027 0.0000 -20.7348 0.0000
# 2 30.1263 53.5195 40.4888 0.0000 -5.3782 0.0000
# 3 37.0027 40.4888 123.5660 0.0000 -15.7207 0.0000
# 4 0.0000 0.0000 0.0000 12.7455 0.0000 -8.6186
# 5 -20.7348 -5.3782 -15.7207 0.0000 38.0383 0.0000
# 6 0.0000 0.0000 0.0000 -8.6186 0.0000 26.6539
#
#
#
# Elastic Compliance Matrix: (Units=1/GPa)
#
#
# Indices 1 2 3 4 5 6 
#
# 1 0.017668 -0.007857 -0.001723 0.000000 0.007808 0.000000
# 2 -0.007857 0.028338 -0.007355 0.000000 -0.003316 0.000000
# 3 -0.001723 -0.007355 0.011364 0.000000 0.002718 0.000000
# 4 0.000000 0.000000 0.000000 0.100415 0.000000 0.032469
# 5 0.007808 -0.003316 0.002718 0.000000 0.031200 0.000000
# 6 0.000000 0.000000 0.000000 0.032469 0.000000 0.048017
#
#
# Mechanical properties :
#
#
# Convention : Reuss Voigt Hill
#
# Bulk Modulus (GPa) = 42.55087 52.78779 47.66933
# Shear Modulus (GPa) = 17.94006 25.63667 21.78836
#
# Velocity S-wave (km/s) = 3.19511 3.81949 3.52117
# Velocity P-wave (km/s) = 6.15022 7.03492 6.60739
#
# Compressibility (1/GPa) = 0.02350128
#
# Stress axis : x y z
#
# Youngs Moduli (GPa) = 56.59983 35.28782 87.99433
#
# Poissons Ratio (x) = 0.27727 0.15160
# Poissons Ratio (y) = 0.44472 0.64716
# Poissons Ratio (z) = 0.09751 0.25953
#
# Static dielectric constant tensor:
#      x y z
#    x 1.629740 0.000000 0.021420 
#    y 0.000000 1.579590 0.000000 
#    z 0.021420 0.000000 1.689970 
# 
# From -- ./inp_files/37020.got.cif
#   From: 2010.05.17/outbox.cif.g08.bks.cpg/sg5_19_cif.got.tgz:37020.got - 2010.06.03 18:56:24.
