data_PCOD9120563
_publ_section_title
;
Structure prediction by ZEFSAII (Michael W. Deem and Ramdas Pophale) SiO2 
 PCOD9120563
Probable space group: C 2
;
_chemical_formula_sum "Si O2"
_cell_formula_units_Z 30
_cell_length_a 21.427197
_cell_length_b 11.454215
_cell_length_c 8.590718
_cell_angle_alpha 90.000000
_cell_angle_beta 41.040593
_cell_angle_gamma 90.000000
_cell_volume 1384.384654
_symmetry_space_group_name_H-M "C 2"
_symmetry_group_IT_number 5
_symmetry_cell_setting 'monoclinic'
loop_
_space_group_symop_operation_xyz
x,y,z
-x,y,-z
1/2+x,1/2+y,z
1/2-x,1/2+y,-z
loop_
_atom_site_type_symbol
_atom_site_label
_atom_site_fract_x
_atom_site_fract_y
_atom_site_fract_z
Si Si1 0.095427 0.287830 0.383979
Si Si2 0.613843 0.544960 0.169549
Si Si3 0.453340 0.440951 0.258032
Si Si4 0.404112 0.684552 0.283944
Si Si5 0.240780 0.172093 0.692989
Si Si6 0.000000 0.683908 0.500000
Si Si7 0.700055 0.326731 0.133033
Si Si8 0.053692 0.662562 0.735654
O O1 0.094507 0.166879 0.287791
O O2 0.081247 0.260533 0.591311
O O3 0.000000 0.352812 0.500000
O O4 0.205168 0.327718 0.153875
O O5 0.523568 0.481870 0.263421
O O6 0.664275 0.458645 0.194351
O O7 0.679660 0.575452 0.898257
O O8 0.382116 0.550382 0.377307
O O9 0.435237 0.303742 0.310047
O O10 0.500000 0.443087 0.000000
O O11 0.318209 0.723365 0.337836
O O12 0.500000 0.686502 0.000000
O O13 0.260765 0.272240 0.782159
O O14 0.339361 0.117965 0.452508
O O15 0.102285 0.752699 0.282084
O O16 0.012691 0.621841 0.645090
O O17 0.000000 0.642076 0.000000
#
# Coordination Sequence:
#
# PCOD9120563 Si02
#       8
#     4   4   4   4   4   2   4   4
#     4  11  23  36  64  93 122 165 214 258 317 382
#     4  11  20  39  63  92 122 159 216 259 313 372
#     4  10  18  32  60  92 120 156 202 266 308 357
#     4  11  20  36  58  90 125 160 196 263 312 369
#     4  10  22  38  57  93 129 160 204 263 322 373
#     4  10  20  36  60  92 122 160 212 268 318 366
#     4  10  23  38  62  92 125 165 212 270 314 380
#     4  10  22  35  59  93 125 163 209 263 322 380
#
# _framework density 21.670278
#
# number of rings (size 3 to 8) (size 9 to 14) (size 15 to 20)
#    0.000    1.600    5.333    0.800    6.533    0.000 
#    0.000    0.000   13.200    0.800    0.000    0.000 
#    0.000    0.000    0.000    0.000    0.000    0.000 
#
# Total GULP energy -83553.743122 kJ/mol
# GULP energy per Si atom -5570.249541 kJ/mol
# Density = 2.162096 g / cm^3
# Si number density = 21.670278 Si / 1000 Ang^3
#
#
#
# Elastic Constant Matrix: (Units=GPa)
#
#
# Indices 1 2 3 4 5 6 
#
# 1 146.3835 3.6715 47.3633 0.0000 1.5839 0.0000
# 2 3.6715 17.8014 2.2410 0.0000 -3.7740 0.0000
# 3 47.3633 2.2410 159.1716 0.0000 0.8543 0.0000
# 4 0.0000 0.0000 0.0000 12.6056 0.0000 -1.6387
# 5 1.5839 -3.7740 0.8543 0.0000 36.2221 0.0000
# 6 0.0000 0.0000 0.0000 -1.6387 0.0000 5.9606
#
#
#
# Elastic Compliance Matrix: (Units=1/GPa)
#
#
# Indices 1 2 3 4 5 6 
#
# 1 0.007595 -0.001374 -0.002238 0.000000 -0.000422 0.000000
# 2 -0.001374 0.057806 -0.000438 0.000000 0.006093 0.000000
# 3 -0.002238 -0.000438 0.006955 0.000000 -0.000112 0.000000
# 4 0.000000 0.000000 0.000000 0.082270 0.000000 0.022618
# 5 -0.000422 0.006093 -0.000112 0.000000 0.028263 0.000000
# 6 0.000000 0.000000 0.000000 0.022618 0.000000 0.173985
#
#
# Mechanical properties :
#
#
# Convention : Reuss Voigt Hill
#
# Bulk Modulus (GPa) = 15.56288 47.76756 31.66522
# Shear Modulus (GPa) = 12.94019 28.96305 20.95162
#
# Velocity S-wave (km/s) = 2.44630 3.65983 3.11277
# Velocity P-wave (km/s) = 3.89569 6.32059 5.25006
#
# Compressibility (1/GPa) = 0.06425547
#
# Stress axis : x y z
#
# Youngs Moduli (GPa) = 131.67243 17.29933 143.77516
#
# Poissons Ratio (x) = 0.02377 0.32180
# Poissons Ratio (y) = 0.18094 0.06293
# Poissons Ratio (z) = 0.29471 0.00757
#
# Static dielectric constant tensor:
#      x y z
#    x 1.795110 0.000000 -0.014850 
#    y 0.000000 1.808670 0.000000 
#    z -0.014850 0.000000 1.917240 
# 
# From -- ./inp_files/29797.got.cif
#   From: 2010.05.17/outbox.cif.g08.bks.cpg/sg5_15_cif.got.tgz:29797.got - 2010.06.03 18:56:24.
