data_PCOD9120208
_publ_section_title
;
Structure prediction by ZEFSAII (Michael W. Deem and Ramdas Pophale) SiO2 
 PCOD9120208
Probable space group: C 2
;
_chemical_formula_sum "Si O2"
_cell_formula_units_Z 32
_cell_length_a 27.359860
_cell_length_b 7.092195
_cell_length_c 21.537677
_cell_angle_alpha 90.000000
_cell_angle_beta 161.754374
_cell_angle_gamma 90.000000
_cell_volume 1308.471914
_symmetry_space_group_name_H-M "C 2"
_symmetry_group_IT_number 5
_symmetry_cell_setting 'monoclinic'
loop_
_space_group_symop_operation_xyz
x,y,z
-x,y,-z
1/2+x,1/2+y,z
1/2-x,1/2+y,-z
loop_
_atom_site_type_symbol
_atom_site_label
_atom_site_fract_x
_atom_site_fract_y
_atom_site_fract_z
Si Si1 0.380854 0.427390 0.456801
Si Si2 0.185945 0.351761 0.337295
Si Si3 0.739105 0.285848 0.434305
Si Si4 0.286663 0.553196 0.112743
Si Si5 0.383153 0.858797 0.414982
Si Si6 0.646431 0.948078 0.074309
Si Si7 0.964090 0.425461 0.285802
Si Si8 0.547496 0.359170 0.988664
O O1 0.278598 0.325395 0.385844
O O2 0.562102 0.417095 0.695511
O O3 0.356755 0.659346 0.420300
O O4 0.300897 0.372759 0.294881
O O5 0.252919 0.270278 0.481879
O O6 0.214792 0.573955 0.382803
O O7 0.001916 0.311718 0.108930
O O8 0.588962 0.394998 0.225465
O O9 0.897952 0.365632 0.595563
O O10 0.363335 0.753809 0.192606
O O11 0.192651 0.526572 0.062820
O O12 0.164770 0.530660 0.909920
O O13 0.500000 0.817396 0.500000
O O14 0.452866 0.997337 0.551057
O O15 0.223281 0.928709 0.191395
O O16 0.575246 0.131424 0.023181
O O17 0.500000 0.421416 0.000000
#
# Coordination Sequence:
#
# PCOD9120208 Si02
#       8
#     4   4   4   4   4   4   4   4
#     4  10  18  33  53  86 112 140 194 242 275 324
#     4  11  21  35  60  83 116 153 181 234 290 331
#     4  11  21  38  56  88 120 146 190 236 281 344
#     4  11  22  35  61  81 117 153 182 234 293 331
#     4  10  18  33  58  86 115 141 188 245 289 322
#     4  10  18  32  55  87 108 142 193 238 282 329
#     4  11  21  40  54  87 121 147 187 240 279 344
#     4  10  17  31  57  83 111 146 184 242 290 315
#
# _framework density 24.456008000000001
#
# number of rings (size 3 to 8) (size 9 to 14) (size 15 to 20)
#    0.000    1.500    5.000    6.000    0.000    3.000 
#    0.000    0.000    0.000    4.500    0.000    0.000 
#    0.000    0.000    0.000    0.000    0.000    0.000 
#
# Total GULP energy -89331.006208 kJ/mol
# GULP energy per Si atom -5583.187888 kJ/mol
# Density = 2.440035 g / cm^3
# Si number density = 24.456008 Si / 1000 Ang^3
#
#
#
# Elastic Constant Matrix: (Units=GPa)
#
#
# Indices 1 2 3 4 5 6 
#
# 1 134.7949 3.5912 35.6814 0.0000 -7.4753 0.0000
# 2 3.5912 43.9946 15.0685 -0.0001 1.2258 0.0002
# 3 35.6814 15.0685 191.0992 0.0000 -15.4400 0.0001
# 4 0.0000 -0.0001 0.0000 80.3891 0.0000 -126.5162
# 5 -7.4753 1.2258 -15.4400 0.0000 50.8299 0.0000
# 6 0.0000 0.0002 0.0001 -126.5162 0.0000 321.5949
#
#
#
# Elastic Compliance Matrix: (Units=1/GPa)
#
#
# Indices 1 2 3 4 5 6 
#
# 1 0.007832 -0.000184 -0.001388 0.000000 0.000734 0.000000
# 2 -0.000184 0.023431 -0.001908 0.000000 -0.001172 0.000000
# 3 -0.001388 -0.001908 0.005771 0.000000 0.001595 0.000000
# 4 0.000000 0.000000 0.000000 0.032661 0.000000 0.012849
# 5 0.000734 -0.001172 0.001595 0.000000 0.020294 0.000000
# 6 0.000000 0.000000 0.000000 0.012849 0.000000 0.008164
#
#
# Mechanical properties :
#
#
# Convention : Reuss Voigt Hill
#
# Bulk Modulus (GPa) = 33.25197 53.17454 43.21326
# Shear Modulus (GPa) = 43.42548 111.59929 77.51238
#
# Velocity S-wave (km/s) = 4.21843 6.76252 5.63590
# Velocity P-wave (km/s) = 6.11171 9.09757 7.74980
#
# Compressibility (1/GPa) = 0.03007341
#
# Stress axis : x y z
#
# Youngs Moduli (GPa) = 127.68365 42.67817 173.26708
#
# Poissons Ratio (x) = 0.00786 0.24058
# Poissons Ratio (y) = 0.02352 0.33057
# Poissons Ratio (z) = 0.17728 0.08142
#
# Static dielectric constant tensor:
#      x y z
#    x -0.572190 0.000000 1.057820 
#    y 0.000000 2.079460 0.000000 
#    z 1.057820 0.000000 1.603570 
# 
# From -- ./inp_files/30876.got.cif
#   From: 2010.05.17/outbox.cif.g08.bks.cpg/sg5_16_cif.got.tgz:30876.got - 2010.06.03 18:56:24.
