data_PCOD9120765
_publ_section_title
;
Structure prediction by ZEFSAII (Michael W. Deem and Ramdas Pophale) SiO2 
 PCOD9120765
Probable space group: C 2
;
_chemical_formula_sum "Si O2"
_cell_formula_units_Z 28
_cell_length_a 18.822041
_cell_length_b 13.267298
_cell_length_c 5.511631
_cell_angle_alpha 90.000000
_cell_angle_beta 71.398176
_cell_angle_gamma 90.000000
_cell_volume 1304.448415
_symmetry_space_group_name_H-M "C 2"
_symmetry_group_IT_number 5
_symmetry_cell_setting 'monoclinic'
loop_
_space_group_symop_operation_xyz
x,y,z
-x,y,-z
1/2+x,1/2+y,z
1/2-x,1/2+y,-z
loop_
_atom_site_type_symbol
_atom_site_label
_atom_site_fract_x
_atom_site_fract_y
_atom_site_fract_z
Si Si1 0.923293 0.600450 0.974017
Si Si2 0.735844 0.707106 0.664196
Si Si3 0.419394 0.676406 0.207281
Si Si4 0.000000 0.064160 0.500000
Si Si5 0.000000 0.741389 0.500000
Si Si6 0.240569 0.580655 0.864565
Si Si7 0.123043 0.981426 0.048667
Si Si8 0.624619 0.298570 0.688759
O O1 0.948883 0.664764 0.712560
O O2 0.845534 0.540483 0.027383
O O3 0.896790 0.688980 0.183340
O O4 0.000000 0.552814 0.000000
O O5 0.650873 0.749556 0.744309
O O6 0.743988 0.631822 0.416971
O O7 0.798465 0.789917 0.539405
O O8 0.753421 0.658858 0.910673
O O9 0.439131 0.640152 0.453697
O O10 0.500000 0.701854 0.000000
O O11 0.383663 0.576002 0.126846
O O12 0.955882 0.996313 0.734634
O O13 0.055000 0.812736 0.589343
O O14 0.306161 0.501506 0.854937
O O15 0.129085 0.879250 0.895209
#
# Coordination Sequence:
#
# PCOD9120765 Si02
#       8
#     4   4   4   2   2   4   4   4
#     4   9  19  32  54  80 110 151 193 239 288 341
#     4  10  19  37  55  79 115 151 200 236 277 348
#     4   9  19  32  54  80 110 151 193 239 288 341
#     4  10  18  35  50  76 115 150 194 224 295 350
#     4  10  18  35  50  76 115 150 194 224 295 350
#     4  10  19  37  55  79 115 151 200 236 277 348
#     4  10  21  33  52  82 120 157 187 236 295 353
#     4  10  21  33  52  82 120 157 187 236 295 353
#
# _framework density 21.465009999999999
#
# number of rings (size 3 to 8) (size 9 to 14) (size 15 to 20)
#    0.000    2.286    2.857    0.000    0.000    7.429 
#    0.000    0.000    0.000    0.000    0.000    1.000 
#   17.143    0.000    0.000    0.000    0.000    0.000 
#
# Total GULP energy -78001.523614 kJ/mol
# GULP energy per Si atom -5571.537401 kJ/mol
# Density = 2.141616 g / cm^3
# Si number density = 21.465010 Si / 1000 Ang^3
#
#
#
# Elastic Constant Matrix: (Units=GPa)
#
#
# Indices 1 2 3 4 5 6 
#
# 1 141.2665 13.8459 23.2926 0.0000 -24.8107 0.0000
# 2 13.8459 9.1306 1.4050 0.0000 4.6677 0.0000
# 3 23.2926 1.4050 83.4127 0.0000 -1.6739 0.0000
# 4 0.0000 0.0000 0.0000 19.7322 0.0000 2.0143
# 5 -24.8107 4.6677 -1.6739 0.0000 38.7682 0.0000
# 6 0.0000 0.0000 0.0000 2.0143 0.0000 6.4873
#
#
#
# Elastic Compliance Matrix: (Units=1/GPa)
#
#
# Indices 1 2 3 4 5 6 
#
# 1 0.011371 -0.021849 -0.002611 0.000000 0.009795 0.000000
# 2 -0.021849 0.159110 0.002759 0.000000 -0.033021 0.000000
# 3 -0.002611 0.002759 0.012642 0.000000 -0.001457 0.000000
# 4 0.000000 0.000000 0.000000 0.052337 0.000000 -0.016251
# 5 0.009795 -0.033021 -0.001457 0.000000 0.035976 0.000000
# 6 0.000000 0.000000 0.000000 -0.016251 0.000000 0.159194
#
#
# Mechanical properties :
#
#
# Convention : Reuss Voigt Hill
#
# Bulk Modulus (GPa) = 7.15715 34.54409 20.85062
# Shear Modulus (GPa) = 9.60420 26.01529 17.80974
#
# Velocity S-wave (km/s) = 2.11756 3.48514 2.88359
# Velocity P-wave (km/s) = 3.05292 5.68534 4.56308
#
# Compressibility (1/GPa) = 0.13972041
#
# Stress axis : x y z
#
# Youngs Moduli (GPa) = 87.94227 6.28497 79.10194
#
# Poissons Ratio (x) = 0.13732 0.20652
# Poissons Ratio (y) = 1.92145 -0.21821
# Poissons Ratio (z) = 0.22960 -0.01734
#
# Static dielectric constant tensor:
#      x y z
#    x 1.916620 0.000000 0.001330 
#    y 0.000000 1.815820 0.000000 
#    z 0.001330 0.000000 1.884230 
# 
# From -- ./inp_files/8527.got.cif
#   From: 2010.05.17/outbox.cif.g08.bks.cpg/sg5_5_cif.got.tgz:8527.got - 2010.06.03 18:56:24.
