data_PCOD9120142
_publ_section_title
;
Structure prediction by ZEFSAII (Michael W. Deem and Ramdas Pophale) SiO2 
 PCOD9120142
Probable space group: C 2
;
_chemical_formula_sum "Si O2"
_cell_formula_units_Z 32
_cell_length_a 28.241115
_cell_length_b 7.496513
_cell_length_c 8.918197
_cell_angle_alpha 90.000000
_cell_angle_beta 131.263237
_cell_angle_gamma 90.000000
_cell_volume 1419.238893
_symmetry_space_group_name_H-M "C 2"
_symmetry_group_IT_number 5
_symmetry_cell_setting 'monoclinic'
loop_
_space_group_symop_operation_xyz
x,y,z
-x,y,-z
1/2+x,1/2+y,z
1/2-x,1/2+y,-z
loop_
_atom_site_type_symbol
_atom_site_label
_atom_site_fract_x
_atom_site_fract_y
_atom_site_fract_z
Si Si1 0.485560 0.489080 0.790845
Si Si2 0.348650 0.504038 0.564654
Si Si3 0.381461 0.480288 0.960958
Si Si4 0.226522 0.476844 0.132165
Si Si5 0.261149 0.557016 0.867323
Si Si6 0.358702 0.069485 0.546380
Si Si7 0.600638 0.061701 0.043056
Si Si8 0.479047 0.100232 0.627785
O O1 0.415771 0.574299 0.640734
O O2 0.478108 0.306360 0.681378
O O3 0.500000 0.458338 0.000000
O O4 0.551201 0.573646 0.869409
O O5 0.348733 0.551091 0.741033
O O6 0.284441 0.557590 0.349028
O O7 0.352286 0.286137 0.553654
O O8 0.330151 0.477258 0.984321
O O9 0.399401 0.277220 0.960225
O O10 0.232288 0.265278 0.147965
O O11 0.158658 0.516311 0.057899
O O12 0.235676 0.533713 0.980596
O O13 0.208469 0.491446 0.640484
O O14 0.384830 0.000630 0.758690
O O15 0.409654 0.033323 0.523344
O O16 0.532723 0.006878 0.840192
O O17 0.500000 0.089480 0.500000
#
# Coordination Sequence:
#
# PCOD9120142 Si02
#       8
#     4   4   4   4   4   4   4   4
#     4   8  15  29  50  76 103 133 174 215 248 292
#     4   8  16  31  52  77 102 131 173 214 251 298
#     4   9  17  32  55  79 101 130 168 215 257 300
#     4  11  22  35  51  74 104 137 170 212 260 309
#     4  11  22  35  52  75 106 137 171 212 258 308
#     4   9  18  33  53  77 102 135 177 214 248 297
#     4  10  19  34  56  78 102 133 172 214 257 302
#     4  10  17  27  49  80 108 132 165 210 255 298
#
# _framework density 22.547295999999999
#
# number of rings (size 3 to 8) (size 9 to 14) (size 15 to 20)
#    0.000    2.500    0.000    4.875    0.000    5.000 
#    0.000    1.250    0.000   10.500    0.000    0.000 
#    0.000    0.000    0.000    0.000    0.000    0.000 
#
# Total GULP energy -89297.185057 kJ/mol
# GULP energy per Si atom -5581.074066 kJ/mol
# Density = 2.249598 g / cm^3
# Si number density = 22.547296 Si / 1000 Ang^3
#
#
#
# Elastic Constant Matrix: (Units=GPa)
#
#
# Indices 1 2 3 4 5 6 
#
# 1 118.9589 -15.0244 -11.3303 0.0000 16.5886 0.0000
# 2 -15.0244 38.3619 -10.0813 0.0000 1.9595 0.0000
# 3 -11.3303 -10.0813 31.0190 0.0000 16.9912 0.0000
# 4 0.0000 0.0000 0.0000 10.0489 0.0000 3.1008
# 5 16.5886 1.9595 16.9912 0.0000 36.9934 0.0000
# 6 0.0000 0.0000 0.0000 3.1008 0.0000 23.3761
#
#
#
# Elastic Compliance Matrix: (Units=1/GPa)
#
#
# Indices 1 2 3 4 5 6 
#
# 1 0.012928 0.009723 0.015152 0.000000 -0.013272 0.000000
# 2 0.009723 0.037557 0.025702 0.000000 -0.018155 0.000000
# 3 0.015152 0.025702 0.067602 0.000000 -0.039206 0.000000
# 4 0.000000 0.000000 0.000000 0.103761 0.000000 -0.013764
# 5 -0.013272 -0.018155 -0.039206 0.000000 0.051952 0.000000
# 6 0.000000 0.000000 0.000000 -0.013764 0.000000 0.044604
#
#
# Mechanical properties :
#
#
# Convention : Reuss Voigt Hill
#
# Bulk Modulus (GPa) = 4.56115 12.82974 8.69545
# Shear Modulus (GPa) = 17.22175 29.06872 23.14524
#
# Velocity S-wave (km/s) = 2.76670 3.59448 3.20741
# Velocity P-wave (km/s) = 3.49764 4.78849 4.19304
#
# Compressibility (1/GPa) = 0.21924281
#
# Stress axis : x y z
#
# Youngs Moduli (GPa) = 77.35031 26.62593 14.79248
#
# Poissons Ratio (x) = -0.25889 -0.22414
# Poissons Ratio (y) = -0.75209 -0.38020
# Poissons Ratio (z) = -1.17202 -0.68435
#
# Static dielectric constant tensor:
#      x y z
#    x 1.721330 0.000000 0.024830 
#    y 0.000000 1.897720 0.000000 
#    z 0.024830 0.000000 1.848180 
# 
# From -- ./inp_files/30885.got.cif
#   From: 2010.05.17/outbox.cif.g08.bks.cpg/sg5_16_cif.got.tgz:30885.got - 2010.06.03 18:56:24.
