data_PCOD9120267
_publ_section_title
;
Structure prediction by ZEFSAII (Michael W. Deem and Ramdas Pophale) SiO2 
 PCOD9120267
Probable space group: C 2
;
_chemical_formula_sum "Si O2"
_cell_formula_units_Z 28
_cell_length_a 14.263849
_cell_length_b 12.990644
_cell_length_c 15.362287
_cell_angle_alpha 90.000000
_cell_angle_beta 28.087324
_cell_angle_gamma 90.000000
_cell_volume 1340.217105
_symmetry_space_group_name_H-M "C 2"
_symmetry_group_IT_number 5
_symmetry_cell_setting 'monoclinic'
loop_
_space_group_symop_operation_xyz
x,y,z
-x,y,-z
1/2+x,1/2+y,z
1/2-x,1/2+y,-z
loop_
_atom_site_type_symbol
_atom_site_label
_atom_site_fract_x
_atom_site_fract_y
_atom_site_fract_z
Si Si1 0.111485 0.875000 0.220112
Si Si2 0.729196 0.438014 0.838677
Si Si3 0.500000 0.300689 0.500000
Si Si4 0.178406 0.135981 0.794905
Si Si5 0.521610 0.591584 0.742369
Si Si6 0.749079 0.746615 0.462149
Si Si7 0.000000 0.293741 0.500000
Si Si8 0.896959 0.315475 0.855648
O O1 0.056995 0.860942 0.365912
O O2 0.966844 0.794679 0.286800
O O3 0.062905 0.990706 0.231768
O O4 0.333114 0.845220 0.005286
O O5 0.791911 0.555123 0.764338
O O6 0.767675 0.392004 0.902036
O O7 0.853205 0.364435 0.674950
O O8 0.500000 0.431253 0.000000
O O9 0.313324 0.223538 0.643299
O O10 0.083806 0.075150 0.791059
O O11 0.000000 0.177698 0.000000
O O12 0.715716 0.635576 0.533056
O O13 0.373816 0.691391 0.862135
O O14 0.638133 0.739765 0.459831
O O15 0.618338 0.823182 0.632666
#
# Coordination Sequence:
#
# PCOD9120267 Si02
#       8
#     4   4   2   4   4   4   2   4
#     4  12  22  42  63  87 131 164 202 255 309 368
#     4  10  19  33  61  92 116 151 201 258 309 344
#     4  12  25  37  62  90 122 170 203 241 314 376
#     4  11  21  38  61  91 120 155 208 258 299 361
#     4  10  22  42  59  90 124 160 206 249 311 361
#     4   9  21  39  58  92 120 160 201 253 298 368
#     4  10  17  33  60  84 124 150 195 255 298 350
#     4   9  21  40  59  91 123 155 204 257 306 358
#
# _framework density 20.892139
#
# number of rings (size 3 to 8) (size 9 to 14) (size 15 to 20)
#    0.857    0.857    1.429    4.714    0.000    1.714 
#    2.571    0.000    0.000    0.000    0.000    0.000 
#    0.000    0.000    0.000    0.000    0.000    0.000 
#
# Total GULP energy -77978.389682 kJ/mol
# GULP energy per Si atom -5569.884977 kJ/mol
# Density = 2.084459 g / cm^3
# Si number density = 20.892139 Si / 1000 Ang^3
#
#
#
# Elastic Constant Matrix: (Units=GPa)
#
#
# Indices 1 2 3 4 5 6 
#
# 1 84.3091 26.5426 11.8977 0.0000 29.9541 0.0008
# 2 26.5426 93.6782 1.6221 -0.0016 20.4013 0.0017
# 3 11.8977 1.6221 68.0179 -0.0019 32.5416 0.0016
# 4 0.0000 -0.0016 -0.0019 24.2285 0.0020 4.9646
# 5 29.9541 20.4013 32.5416 0.0020 34.4338 -0.0011
# 6 0.0008 0.0017 0.0016 4.9646 -0.0011 32.6032
#
#
#
# Elastic Compliance Matrix: (Units=1/GPa)
#
#
# Indices 1 2 3 4 5 6 
#
# 1 0.019604 -0.000273 0.008504 0.000003 -0.024928 -0.000002
# 2 -0.000273 0.013661 0.006353 0.000003 -0.013860 -0.000002
# 3 0.008504 0.006353 0.033590 0.000008 -0.042906 -0.000005
# 4 0.000003 0.000003 0.000008 0.042603 -0.000015 -0.006487
# 5 -0.024928 -0.013860 -0.042906 -0.000015 0.099486 0.000009
# 6 -0.000002 -0.000002 -0.000005 -0.006487 0.000009 0.031660
#
#
# Mechanical properties :
#
#
# Convention : Reuss Voigt Hill
#
# Bulk Modulus (GPa) = 10.41424 36.23664 23.32544
# Shear Modulus (GPa) = 20.53868 31.98264 26.26066
#
# Velocity S-wave (km/s) = 3.13881 3.91685 3.54921
# Velocity P-wave (km/s) = 4.25815 6.15125 5.29007
#
# Compressibility (1/GPa) = 0.09602233
#
# Stress axis : x y z
#
# Youngs Moduli (GPa) = 51.01106 73.20296 29.77040
#
# Poissons Ratio (x) = 0.01997 -0.25316
# Poissons Ratio (y) = 0.01392 -0.18913
# Poissons Ratio (z) = -0.43378 -0.46506
#
# Static dielectric constant tensor:
#      x y z
#    x 1.811130 0.000000 0.010140 
#    y 0.000000 1.740900 0.000000 
#    z 0.010140 0.000000 1.780160 
# 
# From -- ./inp_files/54758.got.cif
#   From: 2010.05.17/outbox.cif.g08.bks.cpg/sg5_28_cif.got.tgz:54758.got - 2010.06.03 18:56:24.
