data_PCOD9120118
_publ_section_title
;
Structure prediction by ZEFSAII (Michael W. Deem and Ramdas Pophale) SiO2 
 PCOD9120118
Probable space group: C 2
;
_chemical_formula_sum "Si O2"
_cell_formula_units_Z 26
_cell_length_a 12.102799
_cell_length_b 8.202521
_cell_length_c 12.872265
_cell_angle_alpha 90.000000
_cell_angle_beta 119.328053
_cell_angle_gamma 90.000000
_cell_volume 1114.088606
_symmetry_space_group_name_H-M "C 2"
_symmetry_group_IT_number 5
_symmetry_cell_setting 'monoclinic'
loop_
_space_group_symop_operation_xyz
x,y,z
-x,y,-z
1/2+x,1/2+y,z
1/2-x,1/2+y,-z
loop_
_atom_site_type_symbol
_atom_site_label
_atom_site_fract_x
_atom_site_fract_y
_atom_site_fract_z
Si Si1 0.380629 0.582360 0.730242
Si Si2 0.500000 0.839298 0.500000
Si Si3 0.833347 0.599409 0.529534
Si Si4 0.526703 0.221605 0.203681
Si Si5 0.745101 0.818311 0.157898
Si Si6 0.500000 0.972710 0.000000
Si Si7 0.500000 0.354819 0.500000
Si Si8 0.605687 0.607528 0.706508
O O1 0.303421 0.570174 0.584470
O O2 0.413938 0.402252 0.789972
O O3 0.303122 0.695092 0.774293
O O4 0.515913 0.658602 0.759790
O O5 0.601902 0.743664 0.616818
O O6 0.417559 0.943853 0.540446
O O7 0.885492 0.743581 0.481361
O O8 0.877789 0.647817 0.664812
O O9 0.380043 0.252504 0.175683
O O10 0.515371 0.094855 0.104759
O O11 0.619450 0.852368 0.032873
O O12 0.773661 0.007534 0.202958
O O13 0.535945 0.462296 0.612951
#
# Coordination Sequence:
#
# PCOD9120118 Si02
#       8
#     4   2   4   4   4   2   2   4
#     4  11  24  42  79 108 145 196 232 297 391 446
#     4  10  24  34  66 110 148 196 226 286 384 440
#     4  11  21  41  68 111 149 187 229 295 377 453
#     4  11  28  52  70 109 153 186 254 316 352 442
#     4  11  25  51  73 104 148 190 253 316 361 429
#     4  12  32  48  80 100 134 208 260 306 368 432
#     4  10  16  40  64  98 156 180 216 300 360 424
#     4  10  22  39  65 107 151 186 232 298 357 447
#
# _framework density 23.337463
#
# number of rings (size 3 to 8) (size 9 to 14) (size 15 to 20)
#    0.000    1.231    4.615    0.923    6.462    5.538 
#    0.000    0.000    0.000    0.000    0.000    0.000 
#    0.000    0.000    0.000    0.000    0.000    0.000 
#
# Total GULP energy -72498.677000 kJ/mol
# GULP energy per Si atom -5576.821308 kJ/mol
# Density = 2.328435 g / cm^3
# Si number density = 23.337463 Si / 1000 Ang^3
#
#
#
# Elastic Constant Matrix: (Units=GPa)
#
#
# Indices 1 2 3 4 5 6 
#
# 1 118.2970 26.8398 52.1251 0.0000 10.6731 0.0000
# 2 26.8398 56.6164 35.9002 0.0000 -3.0071 0.0000
# 3 52.1251 35.9002 106.1109 0.0000 9.0962 0.0000
# 4 0.0000 0.0000 0.0000 48.8817 0.0000 17.0437
# 5 10.6731 -3.0071 9.0962 0.0000 32.2674 0.0000
# 6 0.0000 0.0000 0.0000 17.0437 0.0000 42.1717
#
#
#
# Elastic Compliance Matrix: (Units=1/GPa)
#
#
# Indices 1 2 3 4 5 6 
#
# 1 0.011240 -0.002701 -0.004373 0.000000 -0.002737 0.000000
# 2 -0.002701 0.023747 -0.007146 0.000000 0.005121 0.000000
# 3 -0.004373 -0.007146 0.014268 0.000000 -0.003242 0.000000
# 4 0.000000 0.000000 0.000000 0.023813 0.000000 -0.009624
# 5 -0.002737 0.005121 -0.003242 0.000000 0.033287 0.000000
# 6 0.000000 0.000000 0.000000 -0.009624 0.000000 0.027602
#
#
# Mechanical properties :
#
#
# Convention : Reuss Voigt Hill
#
# Bulk Modulus (GPa) = 48.04467 56.75049 52.39758
# Shear Modulus (GPa) = 29.52717 35.74144 32.63431
#
# Velocity S-wave (km/s) = 3.56086 3.91769 3.74353
# Velocity P-wave (km/s) = 6.12682 6.69586 6.41765
#
# Compressibility (1/GPa) = 0.02081397
#
# Stress axis : x y z
#
# Youngs Moduli (GPa) = 88.96885 42.11133 70.08707
#
# Poissons Ratio (x) = 0.11374 0.30649
# Poissons Ratio (y) = 0.24029 0.50087
# Poissons Ratio (z) = 0.38906 0.30094
#
# Static dielectric constant tensor:
#      x y z
#    x 1.966470 0.000000 0.055760 
#    y 0.000000 1.901670 0.000000 
#    z 0.055760 0.000000 1.756630 
# 
# From -- ./inp_files/52358.got.cif
#   From: 2010.05.17/outbox.cif.g08.bks.cpg/sg5_27_cif.got.tgz:52358.got - 2010.06.03 18:56:24.
