data_PCOD9120301
_publ_section_title
;
Structure prediction by ZEFSAII (Michael W. Deem and Ramdas Pophale) SiO2 
 PCOD9120301
Probable space group: C 2
;
_chemical_formula_sum "Si O2"
_cell_formula_units_Z 26
_cell_length_a 13.205231
_cell_length_b 19.078946
_cell_length_c 9.397571
_cell_angle_alpha 90.000000
_cell_angle_beta 147.882367
_cell_angle_gamma 90.000000
_cell_volume 1258.778681
_symmetry_space_group_name_H-M "C 2"
_symmetry_group_IT_number 5
_symmetry_cell_setting 'monoclinic'
loop_
_space_group_symop_operation_xyz
x,y,z
-x,y,-z
1/2+x,1/2+y,z
1/2-x,1/2+y,-z
loop_
_atom_site_type_symbol
_atom_site_label
_atom_site_fract_x
_atom_site_fract_y
_atom_site_fract_z
Si Si1 0.409260 0.372140 0.046815
Si Si2 0.000000 0.336489 0.500000
Si Si3 0.755439 0.137480 0.999496
Si Si4 0.287596 0.118022 0.726525
Si Si5 0.899590 0.236618 0.648365
Si Si6 0.055914 0.748098 0.409687
Si Si7 0.014172 0.007685 0.688024
O O1 0.451046 0.298220 0.171993
O O2 0.491658 0.435005 0.238531
O O3 0.500000 0.371936 0.000000
O O4 0.184194 0.380137 0.761063
O O5 0.947468 0.291350 0.579707
O O6 0.788867 0.140157 0.209519
O O7 0.914188 0.187359 0.114952
O O8 0.808152 0.055389 0.042685
O O9 0.549550 0.171350 0.723397
O O10 0.268957 0.187971 0.615382
O O11 0.164488 0.059148 0.503275
O O12 0.500000 0.093007 0.000000
O O13 0.783010 0.258481 0.650474
O O14 0.000000 0.774051 0.500000
O O15 0.000000 0.996109 0.500000
#
# Coordination Sequence:
#
# PCOD9120301 Si02
#       7
#     4   2   4   4   4   4   4
#     4  12  25  46  67  93 135 182 226 279 330 403
#     4  12  22  40  70 100 126 172 232 274 328 404
#     4  10  20  40  65  95 133 169 218 277 329 401
#     4  10  17  34  70  98 124 172 222 270 326 403
#     4  11  19  36  65  98 127 162 221 276 324 390
#     4  12  25  40  66 100 135 175 221 278 341 392
#     4   9  22  44  64  93 137 178 219 274 337 399
#
# _framework density 20.65494
#
# number of rings (size 3 to 8) (size 9 to 14) (size 15 to 20)
#    0.000    1.231    6.154    1.385    0.000    0.615 
#   12.462    0.000    0.000    0.000    0.000    0.000 
#    0.000    0.000    0.000    0.000    0.000    0.000 
#
# Total GULP energy -72432.688679 kJ/mol
# GULP energy per Si atom -5571.745283 kJ/mol
# Density = 2.060793 g / cm^3
# Si number density = 20.654940 Si / 1000 Ang^3
#
#
#
# Elastic Constant Matrix: (Units=GPa)
#
#
# Indices 1 2 3 4 5 6 
#
# 1 129.8257 21.6233 30.1452 0.0000 10.6185 0.0000
# 2 21.6233 69.5895 22.5543 0.0000 -9.5012 0.0000
# 3 30.1452 22.5543 59.6642 0.0000 14.2189 0.0000
# 4 0.0000 0.0000 0.0000 41.5917 0.0000 20.6645
# 5 10.6185 -9.5012 14.2189 0.0000 34.8898 0.0000
# 6 0.0000 0.0000 0.0000 20.6645 0.0000 102.2259
#
#
#
# Elastic Compliance Matrix: (Units=1/GPa)
#
#
# Indices 1 2 3 4 5 6 
#
# 1 0.008959 -0.001964 -0.003330 0.000000 -0.001904 0.000000
# 2 -0.001964 0.018936 -0.008348 0.000000 0.009157 0.000000
# 3 -0.003330 -0.008348 0.024254 0.000000 -0.011144 0.000000
# 4 0.000000 0.000000 0.000000 0.026728 0.000000 -0.005403
# 5 -0.001904 0.009157 -0.011144 0.000000 0.036277 0.000000
# 6 0.000000 0.000000 0.000000 -0.005403 0.000000 0.010874
#
#
# Mechanical properties :
#
#
# Convention : Reuss Voigt Hill
#
# Bulk Modulus (GPa) = 40.21747 45.30278 42.76013
# Shear Modulus (GPa) = 30.94041 48.05860 39.49950
#
# Velocity S-wave (km/s) = 3.87456 4.82886 4.37779
# Velocity P-wave (km/s) = 6.28726 7.28500 6.80444
#
# Compressibility (1/GPa) = 0.02486481
#
# Stress axis : x y z
#
# Youngs Moduli (GPa) = 111.62205 52.80901 41.22951
#
# Poissons Ratio (x) = 0.10374 0.13729
# Poissons Ratio (y) = 0.21928 0.34418
# Poissons Ratio (z) = 0.37169 0.44084
#
# Static dielectric constant tensor:
#      x y z
#    x 1.877250 0.000000 0.021910 
#    y 0.000000 1.715090 0.000000 
#    z 0.021910 0.000000 1.751650 
# 
# From -- ./inp_files/22016.got.cif
#   From: 2010.05.17/outbox.cif.g08.bks.cpg/sg5_12_cif.got.tgz:22016.got - 2010.06.03 18:56:24.
