data_PCOD9120339
_publ_section_title
;
Structure prediction by ZEFSAII (Michael W. Deem and Ramdas Pophale) SiO2 
 PCOD9120339
Probable space group: C 2
;
_chemical_formula_sum "Si O2"
_cell_formula_units_Z 28
_cell_length_a 20.973289
_cell_length_b 15.539123
_cell_length_c 8.524283
_cell_angle_alpha 90.000000
_cell_angle_beta 149.598652
_cell_angle_gamma 90.000000
_cell_volume 1405.878585
_symmetry_space_group_name_H-M "C 2"
_symmetry_group_IT_number 5
_symmetry_cell_setting 'monoclinic'
loop_
_space_group_symop_operation_xyz
x,y,z
-x,y,-z
1/2+x,1/2+y,z
1/2-x,1/2+y,-z
loop_
_atom_site_type_symbol
_atom_site_label
_atom_site_fract_x
_atom_site_fract_y
_atom_site_fract_z
Si Si1 0.772824 0.330770 0.866856
Si Si2 0.857881 0.501076 0.228900
Si Si3 0.795650 0.113973 0.315212
Si Si4 0.985306 0.256684 0.659407
Si Si5 0.644618 0.448067 0.361105
Si Si6 0.779838 0.395205 0.336948
Si Si7 0.865540 0.760280 0.137919
O O1 0.663443 0.375241 0.534809
O O2 0.724063 0.268608 0.899835
O O3 0.842201 0.412364 0.096502
O O4 0.875784 0.279378 0.985338
O O5 0.828461 0.477369 0.344345
O O6 0.000000 0.532350 0.500000
O O7 0.751475 0.563897 0.938832
O O8 0.925976 0.164650 0.571212
O O9 0.810600 0.040574 0.477045
O O10 0.686925 0.187713 0.092007
O O11 0.889460 0.325088 0.535078
O O12 0.000000 0.264206 0.500000
O O13 0.738691 0.419388 0.422467
O O14 0.500000 0.452484 0.000000
O O15 0.656767 0.352012 0.993559
O O16 0.000000 0.745874 0.500000
#
# Coordination Sequence:
#
# PCOD9120339 Si02
#       7
#     4   4   4   4   4   4   4
#     4  10  19  38  69  88 121 167 224 263 305 373
#     4  10  17  36  63  94 126 164 215 271 306 381
#     4  10  23  36  61  91 135 164 204 271 332 361
#     4  11  18  41  68  99 120 160 228 275 307 379
#     4  11  25  43  56  93 137 174 207 261 322 399
#     4  10  20  37  64  92 124 171 220 255 315 383
#     4  10  19  38  66  95 117 165 221 273 309 369
#
# _framework density 19.916371999999999
#
# number of rings (size 3 to 8) (size 9 to 14) (size 15 to 20)
#    0.000    1.714    5.714    1.286    0.000    1.714 
#    5.143    1.429    0.000    3.429    0.000    0.000 
#    0.000    0.000    0.000    0.000    0.000    0.000 
#
# Total GULP energy -77993.733858 kJ/mol
# GULP energy per Si atom -5570.980990 kJ/mol
# Density = 1.987104 g / cm^3
# Si number density = 19.916372 Si / 1000 Ang^3
#
#
#
# Elastic Constant Matrix: (Units=GPa)
#
#
# Indices 1 2 3 4 5 6 
#
# 1 91.3140 36.6216 19.6561 0.0000 3.1808 0.0000
# 2 36.6216 82.5536 35.6872 0.0000 6.8841 0.0000
# 3 19.6561 35.6872 106.9939 0.0000 12.7404 0.0000
# 4 0.0000 0.0000 0.0000 32.2608 0.0000 -3.9896
# 5 3.1808 6.8841 12.7404 0.0000 23.7573 0.0000
# 6 0.0000 0.0000 0.0000 -3.9896 0.0000 21.6498
#
#
#
# Elastic Compliance Matrix: (Units=1/GPa)
#
#
# Indices 1 2 3 4 5 6 
#
# 1 0.013350 -0.005688 -0.000576 0.000000 0.000169 0.000000
# 2 -0.005688 0.016640 -0.004296 0.000000 -0.001756 0.000000
# 3 -0.000576 -0.004296 0.011459 0.000000 -0.004823 0.000000
# 4 0.000000 0.000000 0.000000 0.031720 0.000000 0.005845
# 5 0.000169 -0.001756 -0.004823 0.000000 0.045165 0.000000
# 6 0.000000 0.000000 0.000000 0.005845 0.000000 0.047267
#
#
# Mechanical properties :
#
#
# Convention : Reuss Voigt Hill
#
# Bulk Modulus (GPa) = 49.18646 51.64348 50.41497
# Shear Modulus (GPa) = 25.84007 28.12669 26.98338
#
# Velocity S-wave (km/s) = 3.60589 3.76205 3.68480
# Velocity P-wave (km/s) = 6.48743 6.69755 6.59333
#
# Compressibility (1/GPa) = 0.02033080
#
# Stress axis : x y z
#
# Youngs Moduli (GPa) = 74.90505 60.09599 87.26443
#
# Poissons Ratio (x) = 0.34180 0.05024
# Poissons Ratio (y) = 0.42602 0.37491
# Poissons Ratio (z) = 0.04312 0.25818
#
# Static dielectric constant tensor:
#      x y z
#    x 1.697020 0.000000 0.007710 
#    y 0.000000 1.741370 0.000000 
#    z 0.007710 0.000000 1.768570 
# 
# From -- ./inp_files/29922.got.cif
#   From: 2010.05.17/outbox.cif.g08.bks.cpg/sg5_15_cif.got.tgz:29922.got - 2010.06.03 18:56:24.
