data_PCOD9120866
_publ_section_title
;
Structure prediction by ZEFSAII (Michael W. Deem and Ramdas Pophale) SiO2 
 PCOD9120866
Probable space group: C 2
;
_chemical_formula_sum "Si O2"
_cell_formula_units_Z 30
_cell_length_a 11.068355
_cell_length_b 14.400314
_cell_length_c 9.258637
_cell_angle_alpha 90.000000
_cell_angle_beta 97.951092
_cell_angle_gamma 90.000000
_cell_volume 1461.526903
_symmetry_space_group_name_H-M "C 2"
_symmetry_group_IT_number 5
_symmetry_cell_setting 'monoclinic'
loop_
_space_group_symop_operation_xyz
x,y,z
-x,y,-z
1/2+x,1/2+y,z
1/2-x,1/2+y,-z
loop_
_atom_site_type_symbol
_atom_site_label
_atom_site_fract_x
_atom_site_fract_y
_atom_site_fract_z
Si Si1 0.370102 0.205540 0.918474
Si Si2 0.000000 0.446141 0.500000
Si Si3 0.245830 0.549390 0.613720
Si Si4 0.384996 0.511800 0.058971
Si Si5 0.519043 0.794932 0.730900
Si Si6 0.723582 0.389204 0.161883
Si Si7 0.666816 0.612741 0.683028
Si Si8 0.684862 0.691387 0.134584
O O1 0.372532 0.305492 0.842610
O O2 0.289983 0.141479 0.795498
O O3 0.500000 0.170736 0.000000
O O4 0.290389 0.228024 0.048463
O O5 0.890631 0.512447 0.434691
O O6 0.039595 0.372620 0.382720
O O7 0.300556 0.463916 0.715543
O O8 0.303542 0.575589 0.469873
O O9 0.258905 0.639375 0.717494
O O10 0.393591 0.533680 0.227216
O O11 0.500000 0.466908 0.000000
O O12 0.277337 0.446606 0.987544
O O13 0.370432 0.610214 0.975228
O O14 0.642607 0.844212 0.804519
O O15 0.575490 0.701161 0.667435
O O16 0.419986 0.760423 0.829667
#
# Coordination Sequence:
#
# PCOD9120866 Si02
#       8
#     4   2   4   4   4   4   4   4
#     4  10  22  39  62  90 121 167 205 262 306 381
#     4  10  22  36  60  84 136 148 202 258 326 358
#     4  10  22  39  57  91 121 166 196 265 312 371
#     4  10  18  36  59  92 124 162 202 267 298 368
#     4  10  19  39  62  91 116 166 200 263 294 387
#     4   9  21  37  58  86 126 154 207 254 325 349
#     4  10  21  36  64  89 122 163 219 242 313 376
#     4  10  21  37  66  88 121 161 219 248 314 371
#
# _framework density 20.526477
#
# number of rings (size 3 to 8) (size 9 to 14) (size 15 to 20)
#    0.000    2.133    1.333    1.200    1.867    1.067 
#    0.000    1.333    0.000    3.200    0.000    0.000 
#    0.000    0.000    0.000    0.000    0.000    0.000 
#
# Total GULP energy -83607.339264 kJ/mol
# GULP energy per Si atom -5573.822618 kJ/mol
# Density = 2.047976 g / cm^3
# Si number density = 20.526477 Si / 1000 Ang^3
#
#
#
# Elastic Constant Matrix: (Units=GPa)
#
#
# Indices 1 2 3 4 5 6 
#
# 1 56.2673 17.6412 23.8418 0.0000 -4.0120 0.0000
# 2 17.6412 62.5762 36.2764 0.0000 -8.7807 0.0000
# 3 23.8418 36.2764 125.4057 0.0000 -15.9597 0.0000
# 4 0.0000 0.0000 0.0000 8.6491 0.0000 -0.4125
# 5 -4.0120 -8.7807 -15.9597 0.0000 30.2232 0.0000
# 6 0.0000 0.0000 0.0000 -0.4125 0.0000 21.4966
#
#
#
# Elastic Compliance Matrix: (Units=1/GPa)
#
#
# Indices 1 2 3 4 5 6 
#
# 1 0.020195 -0.004159 -0.002625 0.000000 0.000086 0.000000
# 2 -0.004159 0.020286 -0.004715 0.000000 0.002852 0.000000
# 3 -0.002625 -0.004715 0.010311 0.000000 0.003727 0.000000
# 4 0.000000 0.000000 0.000000 0.115725 0.000000 0.002220
# 5 0.000086 0.002852 0.003727 0.000000 0.035895 0.000000
# 6 0.000000 0.000000 0.000000 0.002220 0.000000 0.046562
#
#
# Mechanical properties :
#
#
# Convention : Reuss Voigt Hill
#
# Bulk Modulus (GPa) = 35.97854 44.41866 40.19860
# Shear Modulus (GPa) = 17.77858 23.17310 20.47584
#
# Velocity S-wave (km/s) = 2.94620 3.36361 3.16180
# Velocity P-wave (km/s) = 5.39809 6.06398 5.74070
#
# Compressibility (1/GPa) = 0.02779435
#
# Stress axis : x y z
#
# Youngs Moduli (GPa) = 49.51748 49.29417 96.98084
#
# Poissons Ratio (x) = 0.20503 0.25460
# Poissons Ratio (y) = 0.20596 0.45722
# Poissons Ratio (z) = 0.13000 0.23240
#
# Static dielectric constant tensor:
#      x y z
#    x 1.819110 0.000000 0.044240 
#    y 0.000000 1.767590 0.000000 
#    z 0.044240 0.000000 1.768340 
# 
# From -- ./inp_files/20375.got.cif
#   From: 2010.05.17/outbox.cif.g08.bks.cpg/sg5_11_cif.got.tgz:20375.got - 2010.06.03 18:56:24.
