data_PCOD9120729
_publ_section_title
;
Structure prediction by ZEFSAII (Michael W. Deem and Ramdas Pophale) SiO2 
 PCOD9120729
Probable space group: C 2
;
_chemical_formula_sum "Si O2"
_cell_formula_units_Z 28
_cell_length_a 8.485876
_cell_length_b 16.942490
_cell_length_c 12.028238
_cell_angle_alpha 90.000000
_cell_angle_beta 56.524098
_cell_angle_gamma 90.000000
_cell_volume 1442.458631
_symmetry_space_group_name_H-M "C 2"
_symmetry_group_IT_number 5
_symmetry_cell_setting 'monoclinic'
loop_
_space_group_symop_operation_xyz
x,y,z
-x,y,-z
1/2+x,1/2+y,z
1/2-x,1/2+y,-z
loop_
_atom_site_type_symbol
_atom_site_label
_atom_site_fract_x
_atom_site_fract_y
_atom_site_fract_z
Si Si1 0.009514 0.050840 0.805016
Si Si2 0.102666 0.874823 0.696800
Si Si3 0.692105 0.072236 0.111638
Si Si4 0.000000 0.436961 0.500000
Si Si5 0.000000 0.878911 0.500000
Si Si6 0.977755 0.730053 0.139072
Si Si7 0.832420 0.501172 0.344654
Si Si8 0.398383 0.651873 0.643539
O O1 0.010275 0.114436 0.704549
O O2 0.175089 0.062268 0.831646
O O3 0.816812 0.057888 0.952552
O O4 0.028219 0.964188 0.743500
O O5 0.328888 0.885812 0.617206
O O6 0.999676 0.817191 0.821680
O O7 0.062455 0.839379 0.589961
O O8 0.608686 0.160983 0.138672
O O9 0.513791 0.012872 0.194223
O O10 0.913199 0.490835 0.436944
O O11 0.816360 0.930152 0.607460
O O12 0.762645 0.707577 0.247842
O O13 0.000000 0.728789 0.000000
O O14 0.707851 0.578219 0.373364
O O15 0.500000 0.691811 0.500000
#
# Coordination Sequence:
#
# PCOD9120729 Si02
#       8
#     4   4   4   2   2   4   4   4
#     4  11  21  42  70  93 122 164 224 263 313 378
#     4  11  23  40  66  92 129 169 210 265 325 377
#     4  10  23  39  64  94 126 169 210 268 314 379
#     4  10  20  36  60  98 130 156 212 276 304 378
#     4  10  20  40  60  92 134 158 210 274 316 366
#     4  11  25  44  62  90 137 166 207 266 330 378
#     4  10  18  34  61  94 122 160 207 265 306 365
#     4  11  21  39  66  92 123 170 212 259 320 381
#
# _framework density 19.411301999999999
#
# number of rings (size 3 to 8) (size 9 to 14) (size 15 to 20)
#    0.000    1.429    5.000    0.857    3.000    0.000 
#    2.571    0.000    6.286    0.000    0.000    0.000 
#    0.000    0.000    0.000    0.000    0.000    0.000 
#
# Total GULP energy -78054.567727 kJ/mol
# GULP energy per Si atom -5575.326266 kJ/mol
# Density = 1.936712 g / cm^3
# Si number density = 19.411302 Si / 1000 Ang^3
#
#
#
# Elastic Constant Matrix: (Units=GPa)
#
#
# Indices 1 2 3 4 5 6 
#
# 1 71.3775 -2.2100 32.5778 0.0000 6.5308 0.0000
# 2 -2.2100 29.6376 10.9145 0.0000 1.0050 0.0000
# 3 32.5778 10.9145 125.9359 0.0000 -9.2306 0.0000
# 4 0.0000 0.0000 0.0000 48.7661 0.0000 0.6800
# 5 6.5308 1.0050 -9.2306 0.0000 44.4360 0.0000
# 6 0.0000 0.0000 0.0000 0.6800 0.0000 7.4364
#
#
#
# Elastic Compliance Matrix: (Units=1/GPa)
#
#
# Indices 1 2 3 4 5 6 
#
# 1 0.016635 0.003140 -0.004833 0.000000 -0.003520 0.000000
# 2 0.003140 0.035537 -0.004046 0.000000 -0.002106 0.000000
# 3 -0.004833 -0.004046 0.009749 0.000000 0.002827 0.000000
# 4 0.000000 0.000000 0.000000 0.020532 0.000000 -0.001877
# 5 -0.003520 -0.002106 0.002827 0.000000 0.023656 0.000000
# 6 0.000000 0.000000 0.000000 -0.001877 0.000000 0.134645
#
#
# Mechanical properties :
#
#
# Convention : Reuss Voigt Hill
#
# Bulk Modulus (GPa) = 19.82528 34.39061 27.10794
# Shear Modulus (GPa) = 18.58403 32.50562 25.54483
#
# Velocity S-wave (km/s) = 3.09752 4.09659 3.63158
# Velocity P-wave (km/s) = 4.79878 6.33493 5.61959
#
# Compressibility (1/GPa) = 0.05044065
#
# Stress axis : x y z
#
# Youngs Moduli (GPa) = 60.11293 28.13999 102.57687
#
# Poissons Ratio (x) = -0.08835 0.49580
# Poissons Ratio (y) = -0.18874 0.41507
# Poissons Ratio (z) = 0.29055 0.11387
#
# Static dielectric constant tensor:
#      x y z
#    x 1.707740 0.000000 -0.008310 
#    y 0.000000 1.659020 0.000000 
#    z -0.008310 0.000000 1.679630 
# 
# From -- ./inp_files/36344.got.cif
#   From: 2010.05.17/outbox.cif.g08.bks.cpg/sg5_19_cif.got.tgz:36344.got - 2010.06.03 18:56:24.
