data_PCOD9120825
_publ_section_title
;
Structure prediction by ZEFSAII (Michael W. Deem and Ramdas Pophale) SiO2 
 PCOD9120825
Probable space group: C 2
;
_chemical_formula_sum "Si O2"
_cell_formula_units_Z 28
_cell_length_a 15.822944
_cell_length_b 9.912931
_cell_length_c 21.879661
_cell_angle_alpha 90.000000
_cell_angle_beta 156.457440
_cell_angle_gamma 90.000000
_cell_volume 1370.789660
_symmetry_space_group_name_H-M "C 2"
_symmetry_group_IT_number 5
_symmetry_cell_setting 'monoclinic'
loop_
_space_group_symop_operation_xyz
x,y,z
-x,y,-z
1/2+x,1/2+y,z
1/2-x,1/2+y,-z
loop_
_atom_site_type_symbol
_atom_site_label
_atom_site_fract_x
_atom_site_fract_y
_atom_site_fract_z
Si Si1 0.433308 0.163190 0.359817
Si Si2 0.147786 0.799787 0.813812
Si Si3 0.824750 0.361654 0.622603
Si Si4 0.337820 0.022225 0.850450
Si Si5 0.677866 0.886765 0.518665
Si Si6 0.026118 0.298906 0.149745
Si Si7 0.571275 0.607644 0.483451
O O1 0.500000 0.545803 0.500000
O O2 0.393849 0.176857 0.260607
O O3 0.602864 0.281797 0.484932
O O4 0.216756 0.200084 0.252430
O O5 0.934393 0.882606 0.688064
O O6 0.275722 0.901360 0.854932
O O7 0.299642 0.760689 0.970422
O O8 0.887538 0.342688 0.593927
O O9 0.969500 0.312764 0.774257
O O10 0.764902 0.518857 0.588540
O O11 0.126163 0.097165 0.692327
O O12 0.423653 0.946516 0.846872
O O13 0.500000 0.105292 0.000000
O O14 0.628005 0.762019 0.528770
O O15 0.554089 0.023092 0.452961
#
# Coordination Sequence:
#
# PCOD9120825 Si02
#       7
#     4   4   4   4   4   4   4
#     4  10  19  36  59  88 118 158 203 248 296 364
#     4   9  19  35  61  87 122 150 201 250 305 350
#     4  11  19  36  63  86 114 154 214 244 289 364
#     4   9  17  33  59  87 108 145 198 245 282 345
#     4  11  24  37  57  90 129 155 187 254 319 350
#     4  10  18  35  64  92 106 154 213 255 276 361
#     4  12  21  38  60  88 117 159 202 244 290 367
#
# _framework density 20.426182000000001
#
# number of rings (size 3 to 8) (size 9 to 14) (size 15 to 20)
#    0.000    1.714    5.714    3.429    0.000    1.143 
#    0.000    5.714    0.000    0.000    0.000    0.000 
#    0.000    0.000    0.000    0.000    0.000    0.000 
#
# Total GULP energy -78005.094846 kJ/mol
# GULP energy per Si atom -5571.792489 kJ/mol
# Density = 2.037969 g / cm^3
# Si number density = 20.426182 Si / 1000 Ang^3
#
#
#
# Elastic Constant Matrix: (Units=GPa)
#
#
# Indices 1 2 3 4 5 6 
#
# 1 56.4255 -2.8443 22.8193 0.0025 -9.0276 -0.0004
# 2 -2.8443 68.9392 15.5578 0.0041 12.6402 -0.0006
# 3 22.8193 15.5578 113.2905 0.0080 -16.7115 -0.0009
# 4 0.0025 0.0041 0.0080 17.0835 -0.0006 8.3439
# 5 -9.0276 12.6402 -16.7115 -0.0006 22.4239 -0.0002
# 6 -0.0004 -0.0006 -0.0009 8.3439 -0.0002 17.0423
#
#
#
# Elastic Compliance Matrix: (Units=1/GPa)
#
#
# Indices 1 2 3 4 5 6 
#
# 1 0.019933 0.000624 -0.003335 -0.000002 0.005187 0.000001
# 2 0.000624 0.017996 -0.004557 -0.000004 -0.013290 0.000002
# 3 -0.003335 -0.004557 0.011578 -0.000005 0.009855 0.000003
# 4 -0.000002 -0.000004 -0.000005 0.076933 -0.000001 -0.037666
# 5 0.005187 -0.013290 0.009855 -0.000001 0.061519 0.000001
# 6 0.000001 0.000002 0.000003 -0.037666 0.000001 0.077119
#
#
# Mechanical properties :
#
#
# Convention : Reuss Voigt Hill
#
# Bulk Modulus (GPa) = 28.59613 34.41342 31.50477
# Shear Modulus (GPa) = 17.16600 24.85142 21.00871
#
# Velocity S-wave (km/s) = 2.90210 3.49183 3.21053
# Velocity P-wave (km/s) = 5.02590 5.75686 5.40375
#
# Compressibility (1/GPa) = 0.03496977
#
# Stress axis : x y z
#
# Youngs Moduli (GPa) = 50.16866 55.56637 86.36874
#
# Poissons Ratio (x) = -0.03468 0.28808
# Poissons Ratio (y) = -0.03131 0.39362
# Poissons Ratio (z) = 0.16734 0.25324
#
# Static dielectric constant tensor:
#      x y z
#    x 1.767490 0.000000 0.019830 
#    y 0.000000 1.718220 -0.000010 
#    z 0.019830 -0.000010 1.828470 
# 
# From -- ./inp_files/71126.got.cif
#   From: 2010.05.17/outbox.cif.g08.bks.cpg/sg5_36_cif.got.tgz:71126.got - 2010.06.03 18:56:24.
