data_PCOD9120816
_publ_section_title
;
Structure prediction by ZEFSAII (Michael W. Deem and Ramdas Pophale) SiO2 
 PCOD9120816
Probable space group: C 2
;
_chemical_formula_sum "Si O2"
_cell_formula_units_Z 26
_cell_length_a 16.524367
_cell_length_b 7.120371
_cell_length_c 9.354971
_cell_angle_alpha 90.000000
_cell_angle_beta 98.277438
_cell_angle_gamma 90.000000
_cell_volume 1089.235862
_symmetry_space_group_name_H-M "C 2"
_symmetry_group_IT_number 5
_symmetry_cell_setting 'monoclinic'
loop_
_space_group_symop_operation_xyz
x,y,z
-x,y,-z
1/2+x,1/2+y,z
1/2-x,1/2+y,-z
loop_
_atom_site_type_symbol
_atom_site_label
_atom_site_fract_x
_atom_site_fract_y
_atom_site_fract_z
Si Si1 0.810402 0.667800 0.866998
Si Si2 0.000000 0.167016 0.000000
Si Si3 0.941350 0.450529 0.740532
Si Si4 0.886261 0.572800 0.181579
Si Si5 0.373647 0.617659 0.185953
Si Si6 0.746067 0.494008 0.321140
Si Si7 0.131104 0.200351 0.505708
O O1 0.859490 0.564706 0.753349
O O2 0.721255 0.572236 0.862619
O O3 0.795188 0.881889 0.819139
O O4 0.862519 0.650287 0.022697
O O5 0.046728 0.304894 0.123809
O O6 0.938194 0.050758 0.084729
O O7 0.932884 0.329036 0.595275
O O8 0.019014 0.589960 0.754403
O O9 0.878314 0.345306 0.170146
O O10 0.816153 0.631701 0.276230
O O11 0.396389 0.589926 0.358560
O O12 0.797638 0.339513 0.420660
O O13 0.675663 0.575664 0.399822
#
# Coordination Sequence:
#
# PCOD9120816 Si02
#       7
#     4   2   4   4   4   4   4
#     4  10  18  35  62  94 123 164 208 266 308 374
#     4  10  20  36  58 100 112 168 210 262 310 372
#     4  11  19  36  69  90 129 161 220 263 311 382
#     4   9  19  35  59  94 120 164 214 258 307 372
#     4   9  20  35  57  91 126 152 213 258 313 369
#     4  10  23  38  63  94 130 168 217 256 326 379
#     4  10  21  38  60  96 126 171 208 263 319 387
#
# _framework density 23.869945999999999
#
# number of rings (size 3 to 8) (size 9 to 14) (size 15 to 20)
#    0.000    2.462    3.077    1.846    2.154    5.538 
#    0.000    0.000    3.385   12.923    0.000    0.000 
#    0.000    0.000    0.000    0.000    0.000    0.000 
#
# Total GULP energy -72635.892643 kJ/mol
# GULP energy per Si atom -5587.376357 kJ/mol
# Density = 2.381562 g / cm^3
# Si number density = 23.869946 Si / 1000 Ang^3
#
#
#
# Elastic Constant Matrix: (Units=GPa)
#
#
# Indices 1 2 3 4 5 6 
#
# 1 159.7215 11.1242 71.3251 0.0000 -37.1961 0.0000
# 2 11.1242 20.1775 18.4284 0.0000 -8.9545 0.0000
# 3 71.3251 18.4284 137.5696 0.0000 -26.5468 0.0000
# 4 0.0000 0.0000 0.0000 28.9110 0.0000 0.8024
# 5 -37.1961 -8.9545 -26.5468 0.0000 49.6991 0.0000
# 6 0.0000 0.0000 0.0000 0.8024 0.0000 26.3912
#
#
#
# Elastic Compliance Matrix: (Units=1/GPa)
#
#
# Indices 1 2 3 4 5 6 
#
# 1 0.009064 0.000674 -0.003854 0.000000 0.004846 0.000000
# 2 0.000674 0.058683 -0.006771 0.000000 0.007461 0.000000
# 3 -0.003854 -0.006771 0.010461 0.000000 0.001483 0.000000
# 4 0.000000 0.000000 0.000000 0.034618 0.000000 -0.001053
# 5 0.004846 0.007461 0.001483 0.000000 0.025884 0.000000
# 6 0.000000 0.000000 0.000000 -0.001053 0.000000 0.037923
#
#
# Mechanical properties :
#
#
# Convention : Reuss Voigt Hill
#
# Bulk Modulus (GPa) = 17.15110 57.69156 37.42133
# Shear Modulus (GPa) = 23.15125 35.43965 29.29545
#
# Velocity S-wave (km/s) = 3.11769 3.85736 3.50708
# Velocity P-wave (km/s) = 4.49008 6.63781 5.66663
#
# Compressibility (1/GPa) = 0.05830531
#
# Stress axis : x y z
#
# Youngs Moduli (GPa) = 110.32985 17.04061 95.59748
#
# Poissons Ratio (x) = -0.01148 0.36847
# Poissons Ratio (y) = -0.07435 0.64726
# Poissons Ratio (z) = 0.42525 0.11538
#
# Static dielectric constant tensor:
#      x y z
#    x 2.003920 0.000000 -0.050840 
#    y 0.000000 1.954900 0.000000 
#    z -0.050840 0.000000 1.940870 
# 
# From -- ./inp_files/26532.got.cif
#   From: 2010.05.17/outbox.cif.g08.bks.cpg/sg5_14_cif.got.tgz:26532.got - 2010.06.03 18:56:24.
