data_PCOD9120538
_publ_section_title
;
Structure prediction by ZEFSAII (Michael W. Deem and Ramdas Pophale) SiO2 
 PCOD9120538
Probable space group: C 2
;
_chemical_formula_sum "Si O2"
_cell_formula_units_Z 30
_cell_length_a 24.959040
_cell_length_b 5.497877
_cell_length_c 10.056765
_cell_angle_alpha 90.000000
_cell_angle_beta 111.706646
_cell_angle_gamma 90.000000
_cell_volume 1282.149989
_symmetry_space_group_name_H-M "C 2"
_symmetry_group_IT_number 5
_symmetry_cell_setting 'monoclinic'
loop_
_space_group_symop_operation_xyz
x,y,z
-x,y,-z
1/2+x,1/2+y,z
1/2-x,1/2+y,-z
loop_
_atom_site_type_symbol
_atom_site_label
_atom_site_fract_x
_atom_site_fract_y
_atom_site_fract_z
Si Si1 0.214476 0.704170 0.125077
Si Si2 0.612130 0.147677 0.221231
Si Si3 0.100811 0.150098 0.350042
Si Si4 0.608360 0.473408 0.623990
Si Si5 0.500000 0.152357 0.500000
Si Si6 0.779702 0.706444 0.189130
Si Si7 0.040046 0.119843 0.813931
Si Si8 0.480855 0.098983 0.165467
O O1 0.151737 0.698870 0.131771
O O2 0.242589 0.446031 0.190640
O O3 0.250811 0.947189 0.199241
O O4 0.213131 0.705469 0.964138
O O5 0.625391 0.883325 0.296579
O O6 0.542718 0.129064 0.155031
O O7 0.622741 0.388766 0.320264
O O8 0.119274 0.169039 0.520232
O O9 0.030005 0.138082 0.273437
O O10 0.658322 0.282113 0.697283
O O11 0.582969 0.610000 0.728635
O O12 0.554962 0.316294 0.523086
O O13 0.487277 0.056380 0.335856
O O14 0.052258 0.358123 0.910193
O O15 0.048968 0.855539 0.882321
#
# Coordination Sequence:
#
# PCOD9120538 Si02
#       8
#     4   4   4   4   2   4   4   4
#     4  10  22  47  60  85 111 162 219 283 296 349
#     4  10  19  34  60  79 116 161 195 240 314 358
#     4  10  19  31  54  92 120 157 183 230 310 394
#     4  11  19  36  57  95 124 161 193 252 304 389
#     4  10  18  32  56  82 136 148 192 228 308 388
#     4  10  24  40  68  84 113 156 226 266 315 344
#     4   9  18  29  48  80 125 151 184 223 287 369
#     4   9  18  28  49  82 110 167 182 223 287 376
#
# _framework density 23.398197
#
# number of rings (size 3 to 8) (size 9 to 14) (size 15 to 20)
#    0.000    2.133    4.000    0.800    3.733    3.200 
#    0.000    2.667    0.000    7.200    0.000   13.067 
#    0.000    0.000    0.000    0.000    0.000    0.000 
#
# Total GULP energy -83659.379881 kJ/mol
# GULP energy per Si atom -5577.291992 kJ/mol
# Density = 2.334494 g / cm^3
# Si number density = 23.398197 Si / 1000 Ang^3
#
#
#
# Elastic Constant Matrix: (Units=GPa)
#
#
# Indices 1 2 3 4 5 6 
#
# 1 116.5043 64.2356 38.4117 0.0000 -21.8984 0.0000
# 2 64.2356 206.5063 41.9865 0.0000 -17.3573 0.0000
# 3 38.4117 41.9865 35.0185 0.0000 -6.0840 0.0000
# 4 0.0000 0.0000 0.0000 18.4910 0.0000 -4.6071
# 5 -21.8984 -17.3573 -6.0840 0.0000 29.7467 0.0000
# 6 0.0000 0.0000 0.0000 -4.6071 0.0000 30.3559
#
#
#
# Elastic Compliance Matrix: (Units=1/GPa)
#
#
# Indices 1 2 3 4 5 6 
#
# 1 0.015335 -0.001290 -0.013939 0.000000 0.007685 0.000000
# 2 -0.001290 0.006660 -0.006283 0.000000 0.001651 0.000000
# 3 -0.013939 -0.006283 0.050763 0.000000 -0.003545 0.000000
# 4 0.000000 0.000000 0.000000 0.056206 0.000000 0.008530
# 5 0.007685 0.001651 -0.003545 0.000000 0.039513 0.000000
# 6 0.000000 0.000000 0.000000 0.008530 0.000000 0.034237
#
#
# Mechanical properties :
#
#
# Convention : Reuss Voigt Hill
#
# Bulk Modulus (GPa) = 33.63151 71.92186 52.77668
# Shear Modulus (GPa) = 19.55797 29.94508 24.75153
#
# Velocity S-wave (km/s) = 2.89429 3.58131 3.25597
# Velocity P-wave (km/s) = 5.05707 6.92142 6.06135
#
# Compressibility (1/GPa) = 0.02973402
#
# Stress axis : x y z
#
# Youngs Moduli (GPa) = 65.21096 150.14857 19.69921
#
# Poissons Ratio (x) = 0.19370 0.27458
# Poissons Ratio (y) = 0.08413 0.12378
# Poissons Ratio (z) = 0.90896 0.94343
#
# Static dielectric constant tensor:
#      x y z
#    x 1.751910 0.000000 0.026120 
#    y 0.000000 1.970290 0.000000 
#    z 0.026120 0.000000 1.969940 
# 
# From -- ./inp_files/46962.got.cif
#   From: 2010.05.17/outbox.cif.g08.bks.cpg/sg5_24_cif.got.tgz:46962.got - 2010.06.03 18:56:24.
