data_PCOD9120287
_publ_section_title
;
Structure prediction by ZEFSAII (Michael W. Deem and Ramdas Pophale) SiO2 
 PCOD9120287
Probable space group: C 2
;
_chemical_formula_sum "Si O2"
_cell_formula_units_Z 22
_cell_length_a 10.242000
_cell_length_b 16.929805
_cell_length_c 9.028279
_cell_angle_alpha 90.000000
_cell_angle_beta 42.480851
_cell_angle_gamma 90.000000
_cell_volume 1057.222973
_symmetry_space_group_name_H-M "C 2"
_symmetry_group_IT_number 5
_symmetry_cell_setting 'monoclinic'
loop_
_space_group_symop_operation_xyz
x,y,z
-x,y,-z
1/2+x,1/2+y,z
1/2-x,1/2+y,-z
loop_
_atom_site_type_symbol
_atom_site_label
_atom_site_fract_x
_atom_site_fract_y
_atom_site_fract_z
Si Si1 0.500000 0.155710 0.000000
Si Si2 0.508841 0.041924 0.719272
Si Si3 0.331130 0.548095 0.232633
Si Si4 0.596866 0.378329 0.709073
Si Si5 0.736333 0.797021 0.159386
Si Si6 0.583303 0.863033 0.765226
O O1 0.527764 0.100347 0.116857
O O2 0.686133 0.213296 0.848326
O O3 0.696029 0.078166 0.478103
O O4 0.331162 0.032465 0.755886
O O5 0.544663 0.953835 0.749444
O O6 0.428483 0.470472 0.227563
O O7 0.500000 0.591798 0.000000
O O8 0.401937 0.331706 0.910096
O O9 0.691451 0.357396 0.472078
O O10 0.750639 0.351944 0.706823
O O11 0.539081 0.804192 0.236630
O O12 0.500000 0.852761 0.000000
#
# Coordination Sequence:
#
# PCOD9120287 Si02
#       6
#     2   4   4   4   4   4
#     4  10  22  42  56  84 124 158 180 236 308 340
#     4  10  20  35  58  86 120 150 189 242 287 341
#     4  10  17  34  60  87 114 147 197 236 283 337
#     4   9  17  33  58  85 108 148 197 232 276 338
#     4  10  20  38  60  77 117 158 192 227 285 355
#     4  11  20  33  59  89 113 146 196 244 278 330
#
# _framework density 20.809234
#
# number of rings (size 3 to 8) (size 9 to 14) (size 15 to 20)
#    0.000    2.182    4.545    0.545    0.000    0.727 
#    0.000   16.364    0.000    0.000    0.000    0.000 
#    0.000    0.000    0.000    0.000    0.000    0.000 
#
# Total GULP energy -61241.353305 kJ/mol
# GULP energy per Si atom -5567.395755 kJ/mol
# Density = 2.076187 g / cm^3
# Si number density = 20.809234 Si / 1000 Ang^3
#
#
#
# Elastic Constant Matrix: (Units=GPa)
#
#
# Indices 1 2 3 4 5 6 
#
# 1 26.0746 1.5869 7.5563 0.0001 -3.8300 0.0000
# 2 1.5869 39.4539 -18.4345 0.0000 3.4631 0.0000
# 3 7.5563 -18.4345 116.5653 0.0000 -1.3497 0.0000
# 4 0.0001 0.0000 0.0000 -94.9079 0.0000 40.0475
# 5 -3.8300 3.4631 -1.3497 0.0000 27.0374 0.0000
# 6 0.0000 0.0000 0.0000 40.0475 0.0000 -5.0015
#
#
#
# Elastic Compliance Matrix: (Units=1/GPa)
#
#
# Indices 1 2 3 4 5 6 
#
# 1 0.040359 -0.003609 -0.003117 0.000000 0.006024 0.000000
# 2 -0.003609 0.027987 0.004615 0.000000 -0.003865 0.000000
# 3 -0.003117 0.004615 0.009504 0.000000 -0.000558 0.000000
# 4 0.000000 0.000000 0.000000 0.004430 0.000000 0.035468
# 5 0.006024 -0.003865 -0.000558 0.000000 0.038306 0.000000
# 6 0.000000 0.000000 0.000000 0.035468 0.000000 0.084055
#
#
# Mechanical properties :
#
#
# Convention : Reuss Voigt Hill
#
# Bulk Modulus (GPa) = 13.58153 18.16793 15.87473
# Shear Modulus (GPa) = 21.42195 -1.81538 9.80329
#
# Velocity S-wave (km/s) = 3.21198 -0.93503 2.17284
# Velocity P-wave (km/s) = 4.50517 2.75390 3.73367
#
# Compressibility (1/GPa) = 0.07362940
#
# Stress axis : x y z
#
# Youngs Moduli (GPa) = 24.77743 35.73105 105.21466
#
# Poissons Ratio (x) = 0.12894 0.32798
# Poissons Ratio (y) = 0.08941 -0.48559
# Poissons Ratio (z) = 0.07724 -0.16491
#
# Static dielectric constant tensor:
#      x y z
#    x 1.731020 0.000000 -0.024100 
#    y 0.000000 1.731360 0.000000 
#    z -0.024100 0.000000 1.828650 
# 
# From -- ./inp_files/21141.got.cif
#   From: 2010.05.17/outbox.cif.g08.bks.cpg/sg5_11_cif.got.tgz:21141.got - 2010.06.03 18:56:24.
