data_PCOD9120590
_publ_section_title
;
Structure prediction by ZEFSAII (Michael W. Deem and Ramdas Pophale) SiO2 
 PCOD9120590
Probable space group: C 2
;
_chemical_formula_sum "Si O2"
_cell_formula_units_Z 26
_cell_length_a 8.671413
_cell_length_b 16.370171
_cell_length_c 10.294003
_cell_angle_alpha 90.000000
_cell_angle_beta 63.429076
_cell_angle_gamma 90.000000
_cell_volume 1306.923330
_symmetry_space_group_name_H-M "C 2"
_symmetry_group_IT_number 5
_symmetry_cell_setting 'monoclinic'
loop_
_space_group_symop_operation_xyz
x,y,z
-x,y,-z
1/2+x,1/2+y,z
1/2-x,1/2+y,-z
loop_
_atom_site_type_symbol
_atom_site_label
_atom_site_fract_x
_atom_site_fract_y
_atom_site_fract_z
Si Si1 0.298356 0.140990 0.742184
Si Si2 0.032938 0.853007 0.278211
Si Si3 0.867073 0.969041 0.168838
Si Si4 0.869468 0.308752 0.781237
Si Si5 0.248201 0.289941 0.583786
Si Si6 0.947682 0.705569 0.159908
Si Si7 0.000000 0.239728 0.000000
O O1 0.288823 0.197457 0.616892
O O2 0.479499 0.151430 0.750088
O O3 0.152360 0.182910 0.887857
O O4 0.243026 0.047894 0.752307
O O5 0.986059 0.940906 0.244230
O O6 0.871922 0.816945 0.421174
O O7 0.046378 0.792098 0.150421
O O8 0.192323 0.843659 0.313656
O O9 0.738921 0.892348 0.190011
O O10 0.000000 0.982958 0.000000
O O11 0.749376 0.233793 0.778070
O O12 0.048707 0.306168 0.635725
O O13 0.927337 0.291674 0.907412
O O14 0.000000 0.671720 0.000000
#
# Coordination Sequence:
#
# PCOD9120590 Si02
#       7
#     4   4   4   4   4   4   2
#     4  10  20  37  57  83 119 154 199 245 306 341
#     4   9  19  38  61  83 117 156 210 235 295 357
#     4  11  23  36  57  92 123 158 188 257 307 342
#     4  10  20  33  57  85 114 159 201 237 292 355
#     4   9  20  38  62  85 109 166 206 240 284 368
#     4  10  18  33  55  82 114 157 191 240 284 362
#     4  10  18  34  56  78 116 152 198 236 280 370
#
# _framework density 19.89405
#
# number of rings (size 3 to 8) (size 9 to 14) (size 15 to 20)
#    0.000    2.154    2.308    1.846    4.308    2.462 
#    1.385    9.231    0.000   12.923    0.000    0.000 
#    0.000    0.000    0.000    0.000    0.000    0.000 
#
# Total GULP energy -72494.079236 kJ/mol
# GULP energy per Si atom -5576.467634 kJ/mol
# Density = 1.984877 g / cm^3
# Si number density = 19.894050 Si / 1000 Ang^3
#
#
#
# Elastic Constant Matrix: (Units=GPa)
#
#
# Indices 1 2 3 4 5 6 
#
# 1 117.3065 32.0302 19.9681 0.0000 -7.1958 0.0000
# 2 32.0302 104.8379 12.8249 0.0000 8.2387 0.0000
# 3 19.9681 12.8249 62.3179 0.0000 -3.3318 0.0000
# 4 0.0000 0.0000 0.0000 10.9952 0.0000 -4.4811
# 5 -7.1958 8.2387 -3.3318 0.0000 39.9359 0.0000
# 6 0.0000 0.0000 0.0000 -4.4811 0.0000 30.0481
#
#
#
# Elastic Compliance Matrix: (Units=1/GPa)
#
#
# Indices 1 2 3 4 5 6 
#
# 1 0.009862 -0.002884 -0.002451 0.000000 0.002167 0.000000
# 2 -0.002884 0.010824 -0.001457 0.000000 -0.002874 0.000000
# 3 -0.002451 -0.001457 0.017201 0.000000 0.001294 0.000000
# 4 0.000000 0.000000 0.000000 0.096834 0.000000 0.014441
# 5 0.002167 -0.002874 0.001294 0.000000 0.026132 0.000000
# 6 0.000000 0.000000 0.000000 0.014441 0.000000 0.035434
#
#
# Mechanical properties :
#
#
# Convention : Reuss Voigt Hill
#
# Bulk Modulus (GPa) = 41.14573 46.01206 43.57889
# Shear Modulus (GPa) = 22.93892 30.83846 26.88869
#
# Velocity S-wave (km/s) = 3.39935 3.94145 3.68039
# Velocity P-wave (km/s) = 6.01122 6.62511 6.32562
#
# Compressibility (1/GPa) = 0.02430386
#
# Stress axis : x y z
#
# Youngs Moduli (GPa) = 101.39764 92.39022 58.13585
#
# Poissons Ratio (x) = 0.26642 0.14248
# Poissons Ratio (y) = 0.29239 0.08471
# Poissons Ratio (z) = 0.24850 0.13463
#
# Static dielectric constant tensor:
#      x y z
#    x 1.750730 0.000000 -0.004920 
#    y 0.000000 1.686400 0.000000 
#    z -0.004920 0.000000 1.758150 
# 
# From -- ./inp_files/36621.got.cif
#   From: 2010.05.17/outbox.cif.g08.bks.cpg/sg5_19_cif.got.tgz:36621.got - 2010.06.03 18:56:24.
