data_PCOD9120759
_publ_section_title
;
Structure prediction by ZEFSAII (Michael W. Deem and Ramdas Pophale) SiO2 
 PCOD9120759
Probable space group: C 2
;
_chemical_formula_sum "Si O2"
_cell_formula_units_Z 24
_cell_length_a 9.507772
_cell_length_b 17.440224
_cell_length_c 9.230052
_cell_angle_alpha 90.000000
_cell_angle_beta 66.721907
_cell_angle_gamma 90.000000
_cell_volume 1405.918832
_symmetry_space_group_name_H-M "C 2"
_symmetry_group_IT_number 5
_symmetry_cell_setting 'monoclinic'
loop_
_space_group_symop_operation_xyz
x,y,z
-x,y,-z
1/2+x,1/2+y,z
1/2-x,1/2+y,-z
loop_
_atom_site_type_symbol
_atom_site_label
_atom_site_fract_x
_atom_site_fract_y
_atom_site_fract_z
Si Si1 0.000000 0.272560 0.000000
Si Si2 0.932838 0.382188 0.765827
Si Si3 0.274383 0.177719 0.750134
Si Si4 0.500000 0.292176 0.500000
Si Si5 0.259934 0.888107 0.547803
Si Si6 0.328499 0.060586 0.496636
Si Si7 0.027457 0.558398 0.158069
O O1 0.129096 0.220552 0.873105
O O2 0.927719 0.326878 0.905383
O O3 0.807273 0.367661 0.692600
O O4 0.926963 0.470859 0.819855
O O5 0.095392 0.371653 0.616835
O O6 0.401883 0.238553 0.647072
O O7 0.245044 0.127503 0.617088
O O8 0.346836 0.118106 0.835037
O O9 0.615387 0.343823 0.545734
O O10 0.244264 0.980154 0.548519
O O11 0.500000 0.052490 0.500000
O O12 0.372766 0.075621 0.312890
O O13 0.000000 0.564635 0.000000
#
# Coordination Sequence:
#
# PCOD9120759 Si02
#       7
#     2   4   4   2   4   4   4
#     4  12  24  38  60  94 132 158 202 268 312 350
#     4  10  19  38  64  89 123 165 214 238 312 375
#     4  11  22  40  57  90 128 163 196 263 310 358
#     4  12  22  36  66  92 126 150 216 260 310 344
#     4  10  19  37  65  90 115 171 208 250 293 386
#     4   9  16  37  64  82 114 169 206 236 305 378
#     4  10  18  34  67  89 115 164 213 242 295 384
#
# _framework density 17.070687
#
# number of rings (size 3 to 8) (size 9 to 14) (size 15 to 20)
#    0.000    1.667   10.000    0.000    0.000    1.333 
#    0.000    5.000    0.000    0.000    0.000    0.000 
#    0.000    0.000    0.000    0.000    0.000    0.000 
#
# Total GULP energy -66914.411921 kJ/mol
# GULP energy per Si atom -5576.200993 kJ/mol
# Density = 1.703183 g / cm^3
# Si number density = 17.070687 Si / 1000 Ang^3
#
#
#
# Elastic Constant Matrix: (Units=GPa)
#
#
# Indices 1 2 3 4 5 6 
#
# 1 85.1603 63.6905 56.8902 0.0000 6.7550 0.0000
# 2 63.6905 122.7940 70.7118 0.0000 -2.2780 0.0000
# 3 56.8902 70.7118 145.5675 0.0000 17.4984 0.0000
# 4 0.0000 0.0000 0.0000 32.8146 0.0000 1.1495
# 5 6.7550 -2.2780 17.4984 0.0000 31.0267 0.0000
# 6 0.0000 0.0000 0.0000 1.1495 0.0000 12.8156
#
#
#
# Elastic Compliance Matrix: (Units=1/GPa)
#
#
# Indices 1 2 3 4 5 6 
#
# 1 0.021028 -0.008972 -0.003465 0.000000 -0.003283 0.000000
# 2 -0.008972 0.015673 -0.004806 0.000000 0.005814 0.000000
# 3 -0.003465 -0.004806 0.011274 0.000000 -0.005957 0.000000
# 4 0.000000 0.000000 0.000000 0.030570 0.000000 -0.002742
# 5 -0.003283 0.005814 -0.005957 0.000000 0.036731 0.000000
# 6 0.000000 0.000000 0.000000 -0.002742 0.000000 0.078276
#
#
# Mechanical properties :
#
#
# Convention : Reuss Voigt Hill
#
# Bulk Modulus (GPa) = 74.13436 81.78964 77.96200
# Shear Modulus (GPa) = 21.50213 26.14668 23.82440
#
# Velocity S-wave (km/s) = 3.55293 3.91790 3.73987
# Velocity P-wave (km/s) = 7.76873 8.27544 8.02609
#
# Compressibility (1/GPa) = 0.01348902
#
# Stress axis : x y z
#
# Youngs Moduli (GPa) = 47.55565 63.80527 88.69665
#
# Poissons Ratio (x) = 0.57248 0.30734
# Poissons Ratio (y) = 0.42668 0.42625
# Poissons Ratio (z) = 0.16478 0.30663
#
# Static dielectric constant tensor:
#      x y z
#    x 1.559250 0.000000 0.008480 
#    y 0.000000 1.588890 0.000000 
#    z 0.008480 0.000000 1.592940 
# 
# From -- ./inp_files/15844.got.cif
#   From: 2010.05.17/outbox.cif.g08.bks.cpg/sg5_8_cif.got.tgz:15844.got - 2010.06.03 18:56:24.
