data_PCOD9120371
_publ_section_title
;
Structure prediction by ZEFSAII (Michael W. Deem and Ramdas Pophale) SiO2 
 PCOD9120371
Probable space group: C 2
;
_chemical_formula_sum "Si O2"
_cell_formula_units_Z 32
_cell_length_a 20.113798
_cell_length_b 9.453749
_cell_length_c 13.166704
_cell_angle_alpha 90.000000
_cell_angle_beta 41.850774
_cell_angle_gamma 90.000000
_cell_volume 1670.423512
_symmetry_space_group_name_H-M "C 2"
_symmetry_group_IT_number 5
_symmetry_cell_setting 'monoclinic'
loop_
_space_group_symop_operation_xyz
x,y,z
-x,y,-z
1/2+x,1/2+y,z
1/2-x,1/2+y,-z
loop_
_atom_site_type_symbol
_atom_site_label
_atom_site_fract_x
_atom_site_fract_y
_atom_site_fract_z
Si Si1 0.501163 0.497160 0.390362
Si Si2 0.867043 0.908752 0.366005
Si Si3 0.437273 0.894424 0.316015
Si Si4 0.692500 0.108797 0.646198
Si Si5 0.148736 0.389731 0.181123
Si Si6 0.656966 0.751621 0.395109
Si Si7 0.493722 0.623211 0.120638
Si Si8 0.675624 0.598662 0.054426
O O1 0.500000 0.422845 0.500000
O O2 0.446774 0.408404 0.366152
O O3 0.433504 0.638692 0.486036
O O4 0.609359 0.537962 0.224055
O O5 0.828864 0.753726 0.387759
O O6 0.780812 0.014287 0.499777
O O7 0.923626 0.985787 0.209072
O O8 0.540294 0.925304 0.258133
O O9 0.358283 0.864713 0.496406
O O10 0.451303 0.745461 0.241850
O O11 0.402330 0.009036 0.272082
O O12 0.740209 0.164613 0.699165
O O13 0.147793 0.329380 0.297594
O O14 0.190626 0.261553 0.064918
O O15 0.223568 0.518615 0.082828
O O16 0.601487 0.586731 0.043239
O O17 0.500000 0.675733 0.000000
#
# Coordination Sequence:
#
# PCOD9120371 Si02
#       8
#     4   4   4   4   4   4   4   4
#     4  10  17  38  66  87 112 168 215 253 321 391
#     4  10  20  36  59  89 120 156 204 265 320 382
#     4  11  21  42  63  91 126 167 221 275 320 386
#     4  11  21  37  63  92 124 156 212 276 311 379
#     4  11  23  40  65  94 128 172 218 265 332 393
#     4  11  19  39  70  90 117 177 220 252 325 404
#     4  10  21  39  60  82 123 170 207 261 338 387
#     4  10  22  39  61  90 128 166 210 271 318 392
#
# _framework density 19.15682
#
# number of rings (size 3 to 8) (size 9 to 14) (size 15 to 20)
#    0.000    1.500    7.500    0.375    1.750    2.000 
#    4.500    5.625    0.000    0.000    0.000    0.000 
#    0.000    0.000    0.000    0.000    0.000    0.000 
#
# Total GULP energy -89163.553582 kJ/mol
# GULP energy per Si atom -5572.722099 kJ/mol
# Density = 1.911322 g / cm^3
# Si number density = 19.156820 Si / 1000 Ang^3
#
#
#
# Elastic Constant Matrix: (Units=GPa)
#
#
# Indices 1 2 3 4 5 6 
#
# 1 94.6556 21.6345 37.1702 0.0000 -1.6236 0.0000
# 2 21.6345 59.8464 10.9932 0.0000 -22.0901 0.0000
# 3 37.1702 10.9932 41.6099 0.0000 0.5419 0.0000
# 4 0.0000 0.0000 0.0000 19.6032 0.0000 -6.6738
# 5 -1.6236 -22.0901 0.5419 0.0000 26.5616 0.0000
# 6 0.0000 0.0000 0.0000 -6.6738 0.0000 28.7829
#
#
#
# Elastic Compliance Matrix: (Units=1/GPa)
#
#
# Indices 1 2 3 4 5 6 
#
# 1 0.017051 -0.004471 -0.014019 0.000000 -0.002390 0.000000
# 2 -0.004471 0.027264 -0.003502 0.000000 0.022472 0.000000
# 3 -0.014019 -0.003502 0.037540 0.000000 -0.004535 0.000000
# 4 0.000000 0.000000 0.000000 0.055384 0.000000 0.012842
# 5 -0.002390 0.022472 -0.004535 0.000000 0.056284 0.000000
# 6 0.000000 0.000000 0.000000 0.012842 0.000000 0.037720
#
#
# Mechanical properties :
#
#
# Convention : Reuss Voigt Hill
#
# Bulk Modulus (GPa) = 26.40537 37.30084 31.85310
# Shear Modulus (GPa) = 17.37015 23.41047 20.39031
#
# Velocity S-wave (km/s) = 3.01447 3.49957 3.26604
# Velocity P-wave (km/s) = 5.09213 5.98689 5.55755
#
# Compressibility (1/GPa) = 0.03787108
#
# Stress axis : x y z
#
# Youngs Moduli (GPa) = 58.64910 36.67880 26.63807
#
# Poissons Ratio (x) = 0.16398 0.37344
# Poissons Ratio (y) = 0.26220 0.09329
# Poissons Ratio (z) = 0.82220 0.12845
#
# Static dielectric constant tensor:
#      x y z
#    x 1.729740 0.000000 -0.017470 
#    y 0.000000 1.668160 0.000000 
#    z -0.017470 0.000000 1.668350 
# 
# From -- ./inp_files/56808.got.cif
#   From: 2010.05.17/outbox.cif.g08.bks.cpg/sg5_29_cif.got.tgz:56808.got - 2010.06.03 18:56:24.
