data_PCOD9120615
_publ_section_title
;
Structure prediction by ZEFSAII (Michael W. Deem and Ramdas Pophale) SiO2 
 PCOD9120615
Probable space group: C 2
;
_chemical_formula_sum "Si O2"
_cell_formula_units_Z 28
_cell_length_a 9.061477
_cell_length_b 17.055433
_cell_length_c 9.093328
_cell_angle_alpha 90.000000
_cell_angle_beta 88.016044
_cell_angle_gamma 90.000000
_cell_volume 1404.507903
_symmetry_space_group_name_H-M "C 2"
_symmetry_group_IT_number 5
_symmetry_cell_setting 'monoclinic'
loop_
_space_group_symop_operation_xyz
x,y,z
-x,y,-z
1/2+x,1/2+y,z
1/2-x,1/2+y,-z
loop_
_atom_site_type_symbol
_atom_site_label
_atom_site_fract_x
_atom_site_fract_y
_atom_site_fract_z
Si Si1 0.850578 0.254690 0.454654
Si Si2 0.070938 0.828295 0.337478
Si Si3 0.640567 0.186481 0.708191
Si Si4 0.175552 0.587492 0.987004
Si Si5 0.372777 0.485353 0.786917
Si Si6 0.151914 0.526051 0.538948
Si Si7 0.651872 0.596328 0.722289
O O1 0.739462 0.306773 0.365272
O O2 0.765168 0.226413 0.603919
O O3 0.886253 0.176835 0.359384
O O4 0.000000 0.294429 0.500000
O O5 0.000000 0.849400 0.500000
O O6 0.991082 0.748961 0.286335
O O7 0.059001 0.898835 0.222708
O O8 0.690415 0.156649 0.865581
O O9 0.601239 0.106686 0.622524
O O10 0.270422 0.513549 0.924421
O O11 0.248319 0.610884 0.138062
O O12 0.000000 0.570622 0.000000
O O13 0.263759 0.487791 0.650064
O O14 0.503538 0.548589 0.764426
O O15 0.248351 0.546699 0.393784
O O16 0.000000 0.484588 0.500000
#
# Coordination Sequence:
#
# PCOD9120615 Si02
#       7
#     4   4   4   4   4   4   4
#     4  10  19  34  60  88 115 143 186 240 286 332
#     4  10  20  37  59  86 116 149 186 233 288 344
#     4   9  19  36  58  84 113 147 192 235 281 343
#     4  11  22  38  58  83 115 155 196 236 282 342
#     4  11  23  37  57  86 118 152 193 237 287 339
#     4  10  18  33  58  86 113 149 193 235 277 334
#     4  11  20  35  58  85 116 151 189 236 282 334
#
# _framework density 19.935808000000002
#
# number of rings (size 3 to 8) (size 9 to 14) (size 15 to 20)
#    0.000    1.714    0.000    9.000    0.000    0.571 
#    0.000    7.143    0.000    3.429    0.000    0.000 
#    0.000    0.000    0.000    0.000    0.000    0.000 
#
# Total GULP energy -78191.307929 kJ/mol
# GULP energy per Si atom -5585.093423 kJ/mol
# Density = 1.989043 g / cm^3
# Si number density = 19.935808 Si / 1000 Ang^3
#
#
#
# Elastic Constant Matrix: (Units=GPa)
#
#
# Indices 1 2 3 4 5 6 
#
# 1 117.8562 33.4492 11.1511 0.0000 6.5302 0.0000
# 2 33.4492 86.7421 11.6244 0.0000 -13.2947 0.0000
# 3 11.1511 11.6244 77.9351 0.0000 8.5512 0.0000
# 4 0.0000 0.0000 0.0000 11.6515 0.0000 6.7524
# 5 6.5302 -13.2947 8.5512 0.0000 28.6933 0.0000
# 6 0.0000 0.0000 0.0000 6.7524 0.0000 8.7870
#
#
#
# Elastic Compliance Matrix: (Units=1/GPa)
#
#
# Indices 1 2 3 4 5 6 
#
# 1 0.010020 -0.004478 -0.000298 0.000000 -0.004267 0.000000
# 2 -0.004478 0.014928 -0.002540 0.000000 0.008693 0.000000
# 3 -0.000298 -0.002540 0.013826 0.000000 -0.005230 0.000000
# 4 0.000000 0.000000 0.000000 0.154739 0.000000 -0.118910
# 5 -0.004267 0.008693 -0.005230 0.000000 0.041409 0.000000
# 6 0.000000 0.000000 0.000000 -0.118910 0.000000 0.205182
#
#
# Mechanical properties :
#
#
# Convention : Reuss Voigt Hill
#
# Bulk Modulus (GPa) = 41.41824 43.88698 42.65261
# Shear Modulus (GPa) = 10.80421 24.91361 17.85891
#
# Velocity S-wave (km/s) = 2.33051 3.53893 2.99627
# Velocity P-wave (km/s) = 5.29741 6.22581 5.78028
#
# Compressibility (1/GPa) = 0.02414395
#
# Stress axis : x y z
#
# Youngs Moduli (GPa) = 99.79612 66.98874 72.32553
#
# Poissons Ratio (x) = 0.29998 0.02153
# Poissons Ratio (y) = 0.44690 0.18368
# Poissons Ratio (z) = 0.02971 0.17013
#
# Static dielectric constant tensor:
#      x y z
#    x 1.738100 0.000000 0.010150 
#    y 0.000000 1.698260 0.000000 
#    z 0.010150 0.000000 1.709900 
# 
# From -- ./inp_files/16089.got.cif
#   From: 2010.05.17/outbox.cif.g08.bks.cpg/sg5_9_cif.got.tgz:16089.got - 2010.06.03 18:56:24.
