data_PCOD9120536
_publ_section_title
;
Structure prediction by ZEFSAII (Michael W. Deem and Ramdas Pophale) SiO2 
 PCOD9120536
Probable space group: C 2
;
_chemical_formula_sum "Si O2"
_cell_formula_units_Z 22
_cell_length_a 12.299499
_cell_length_b 13.947717
_cell_length_c 7.012956
_cell_angle_alpha 90.000000
_cell_angle_beta 124.518868
_cell_angle_gamma 90.000000
_cell_volume 991.258787
_symmetry_space_group_name_H-M "C 2"
_symmetry_group_IT_number 5
_symmetry_cell_setting 'monoclinic'
loop_
_space_group_symop_operation_xyz
x,y,z
-x,y,-z
1/2+x,1/2+y,z
1/2-x,1/2+y,-z
loop_
_atom_site_type_symbol
_atom_site_label
_atom_site_fract_x
_atom_site_fract_y
_atom_site_fract_z
Si Si1 0.732929 0.918560 0.800957
Si Si2 0.500000 0.220153 0.000000
Si Si3 0.351958 0.372297 0.308594
Si Si4 0.973345 0.569365 0.262566
Si Si5 0.762604 0.263983 0.473154
Si Si6 0.776062 0.042048 0.493298
O O1 0.667674 0.837393 0.601680
O O2 0.624384 0.982110 0.801761
O O3 0.806689 0.989716 0.725285
O O4 0.822707 0.875105 0.056142
O O5 0.576815 0.151041 0.927157
O O6 0.386729 0.268739 0.763376
O O7 0.500000 0.341318 0.500000
O O8 0.251086 0.306216 0.328559
O O9 0.334801 0.478270 0.383593
O O10 0.000000 0.610430 0.500000
O O11 0.884118 0.537612 0.673604
O O12 0.809070 0.154476 0.520271
#
# Coordination Sequence:
#
# PCOD9120536 Si02
#       6
#     4   2   4   4   4   4
#     4  10  20  35  58  83 112 145 179 228 279 318
#     4  10  18  32  56  82 112 144 178 230 276 316
#     4  11  23  37  56  82 114 150 184 220 271 330
#     4   9  18  34  59  83 105 138 182 227 275 322
#     4  10  21  35  55  86 112 138 187 231 267 326
#     4   9  21  39  57  82 112 141 184 231 272 327
#
# _framework density 22.194004
#
# number of rings (size 3 to 8) (size 9 to 14) (size 15 to 20)
#    0.000    2.182    0.000    3.273    0.000   13.818 
#    0.000    4.545    0.000    8.727    0.000    0.000 
#    0.000    0.000    0.000    0.000    0.000    0.000 
#
# Total GULP energy -61433.168424 kJ/mol
# GULP energy per Si atom -5584.833493 kJ/mol
# Density = 2.214349 g / cm^3
# Si number density = 22.194004 Si / 1000 Ang^3
#
#
#
# Elastic Constant Matrix: (Units=GPa)
#
#
# Indices 1 2 3 4 5 6 
#
# 1 36.7993 8.2300 2.0551 0.0000 -12.3682 0.0000
# 2 8.2300 129.9413 14.8609 0.0000 -15.0228 0.0000
# 3 2.0551 14.8609 114.5625 0.0000 -22.8620 0.0000
# 4 0.0000 0.0000 0.0000 35.5232 0.0000 -8.7182
# 5 -12.3682 -15.0228 -22.8620 0.0000 22.3520 0.0000
# 6 0.0000 0.0000 0.0000 -8.7182 0.0000 20.1072
#
#
#
# Elastic Compliance Matrix: (Units=1/GPa)
#
#
# Indices 1 2 3 4 5 6 
#
# 1 0.034814 0.000041 0.004046 0.000000 0.023430 0.000000
# 2 0.000041 0.008344 0.000051 0.000000 0.005683 0.000000
# 3 0.004046 0.000051 0.011438 0.000000 0.013972 0.000000
# 4 0.000000 0.000000 0.000000 0.031503 0.000000 0.013659
# 5 0.023430 0.005683 0.013972 0.000000 0.075813 0.000000
# 6 0.000000 0.000000 0.000000 0.013659 0.000000 0.055656
#
#
# Mechanical properties :
#
#
# Convention : Reuss Voigt Hill
#
# Bulk Modulus (GPa) = 15.90539 36.84389 26.37464
# Shear Modulus (GPa) = 21.71549 32.67361 27.19455
#
# Velocity S-wave (km/s) = 3.13140 3.84106 3.50424
# Velocity P-wave (km/s) = 4.50070 6.02566 5.31812
#
# Compressibility (1/GPa) = 0.06287177
#
# Stress axis : x y z
#
# Youngs Moduli (GPa) = 28.72412 119.84094 87.42886
#
# Poissons Ratio (x) = -0.00492 -0.35372
# Poissons Ratio (y) = -0.00118 -0.00446
# Poissons Ratio (z) = -0.11621 -0.00611
#
# Static dielectric constant tensor:
#      x y z
#    x 1.848780 0.000000 0.004180 
#    y 0.000000 1.881480 0.000000 
#    z 0.004180 0.000000 1.841100 
# 
# From -- ./inp_files/6716.got.cif
#   From: 2010.05.17/outbox.cif.g08.bks.cpg/sg5_4_cif.got.tgz:6716.got - 2010.06.03 18:56:24.
