data_PCOD9120217
_publ_section_title
;
Structure prediction by ZEFSAII (Michael W. Deem and Ramdas Pophale) SiO2 
 PCOD9120217
Probable space group: C 2
;
_chemical_formula_sum "Si O2"
_cell_formula_units_Z 22
_cell_length_a 16.285529
_cell_length_b 9.321557
_cell_length_c 14.426900
_cell_angle_alpha 90.000000
_cell_angle_beta 26.347031
_cell_angle_gamma 90.000000
_cell_volume 971.980203
_symmetry_space_group_name_H-M "C 2"
_symmetry_group_IT_number 5
_symmetry_cell_setting 'monoclinic'
loop_
_space_group_symop_operation_xyz
x,y,z
-x,y,-z
1/2+x,1/2+y,z
1/2-x,1/2+y,-z
loop_
_atom_site_type_symbol
_atom_site_label
_atom_site_fract_x
_atom_site_fract_y
_atom_site_fract_z
Si Si1 0.501520 0.231500 0.163818
Si Si2 0.603686 0.385427 0.243592
Si Si3 0.000000 0.925297 0.000000
Si Si4 0.945194 0.207271 0.662815
Si Si5 0.842624 0.599727 0.725734
Si Si6 0.019946 0.449247 0.232773
O O1 0.493849 0.324019 0.265749
O O2 0.421864 0.072888 0.269241
O O3 0.420441 0.321415 0.160437
O O4 0.721642 0.223342 0.909905
O O5 0.523847 0.539038 0.350486
O O6 0.626261 0.268658 0.300757
O O7 0.816558 0.395189 0.996844
O O8 0.152625 0.031518 0.886733
O O9 0.041982 0.312671 0.641753
O O10 0.000000 0.234890 0.500000
O O11 0.880967 0.547039 0.790132
O O12 0.000000 0.540563 0.500000
#
# Coordination Sequence:
#
# PCOD9120217 Si02
#       6
#     4   4   2   4   4   4
#     4   9  20  35  57  82 124 166 207 251 315 371
#     4   9  18  36  61  88 125 173 198 253 324 386
#     4  12  22  38  68  94 128 164 218 274 310 360
#     4  10  17  31  63  92 117 161 211 251 311 379
#     4  11  22  38  66  92 125 165 216 256 317 376
#     4   9  18  35  63  86 116 176 204 240 325 390
#
# _framework density 22.634208000000001
#
# number of rings (size 3 to 8) (size 9 to 14) (size 15 to 20)
#    0.000    2.182    3.636    2.182    0.000    0.000 
#    0.000    3.636   16.000    0.000    0.000    0.000 
#    0.000    0.000    0.000    0.000    0.000    0.000 
#
# Total GULP energy -61277.808247 kJ/mol
# GULP energy per Si atom -5570.709841 kJ/mol
# Density = 2.258269 g / cm^3
# Si number density = 22.634208 Si / 1000 Ang^3
#
#
#
# Elastic Constant Matrix: (Units=GPa)
#
#
# Indices 1 2 3 4 5 6 
#
# 1 75.0784 60.0438 26.0382 0.0000 18.1493 0.0000
# 2 60.0438 213.3249 38.5011 0.0000 33.3724 0.0000
# 3 26.0382 38.5011 91.2509 0.0000 29.6819 0.0000
# 4 0.0000 0.0000 0.0000 14.9931 0.0000 36.9598
# 5 18.1493 33.3724 29.6819 0.0000 29.1959 0.0000
# 6 0.0000 0.0000 0.0000 36.9598 0.0000 6.0590
#
#
#
# Elastic Compliance Matrix: (Units=1/GPa)
#
#
# Indices 1 2 3 4 5 6 
#
# 1 0.018425 -0.004082 -0.001983 0.000000 -0.004772 0.000000
# 2 -0.004082 0.006624 0.000011 0.000000 -0.005045 0.000000
# 3 -0.001983 0.000011 0.016619 0.000000 -0.015675 0.000000
# 4 0.000000 0.000000 0.000000 -0.004751 0.000000 0.028984
# 5 -0.004772 -0.005045 -0.015675 0.000000 0.058921 0.000000
# 6 0.000000 0.000000 0.000000 0.028984 0.000000 -0.011758
#
#
# Mechanical properties :
#
#
# Convention : Reuss Voigt Hill
#
# Bulk Modulus (GPa) = 33.82917 69.86893 51.84905
# Shear Modulus (GPa) = 47.15177 27.05433 37.10305
#
# Velocity S-wave (km/s) = 4.56917 3.46104 4.05315
# Velocity P-wave (km/s) = 6.54331 6.84890 6.69785
#
# Compressibility (1/GPa) = 0.02956029
#
# Stress axis : x y z
#
# Youngs Moduli (GPa) = 54.27404 150.97058 60.17260
#
# Poissons Ratio (x) = 0.61620 0.11933
# Poissons Ratio (y) = 0.22152 -0.00066
# Poissons Ratio (z) = 0.10763 -0.00167
#
# Static dielectric constant tensor:
#      x y z
#    x 1.808620 0.000000 -0.062820 
#    y 0.000000 1.941770 0.000000 
#    z -0.062820 0.000000 1.811620 
# 
# From -- ./inp_files/32444.got.cif
#   From: 2010.05.17/outbox.cif.g08.bks.cpg/sg5_17_cif.got.tgz:32444.got - 2010.06.03 18:56:24.
