data_PCOD9120531
_publ_section_title
;
Structure prediction by ZEFSAII (Michael W. Deem and Ramdas Pophale) SiO2 
 PCOD9120531
Probable space group: C 2
;
_chemical_formula_sum "Si O2"
_cell_formula_units_Z 30
_cell_length_a 8.020076
_cell_length_b 14.504161
_cell_length_c 18.589587
_cell_angle_alpha 90.000000
_cell_angle_beta 37.590940
_cell_angle_gamma 90.000000
_cell_volume 1319.121568
_symmetry_space_group_name_H-M "C 2"
_symmetry_group_IT_number 5
_symmetry_cell_setting 'monoclinic'
loop_
_space_group_symop_operation_xyz
x,y,z
-x,y,-z
1/2+x,1/2+y,z
1/2-x,1/2+y,-z
loop_
_atom_site_type_symbol
_atom_site_label
_atom_site_fract_x
_atom_site_fract_y
_atom_site_fract_z
Si Si1 0.279265 0.669290 0.767952
Si Si2 0.692373 0.339530 0.572928
Si Si3 0.816465 0.015773 0.960697
Si Si4 0.362282 0.983625 0.405346
Si Si5 0.000000 0.683527 0.000000
Si Si6 0.985676 0.975697 0.249933
Si Si7 0.709717 0.166424 0.492110
Si Si8 0.422273 0.030793 0.815619
O O1 0.412871 0.573836 0.753548
O O2 0.519282 0.709742 0.637086
O O3 0.043041 0.630508 0.796317
O O4 0.166929 0.726381 0.875361
O O5 0.717903 0.397431 0.490852
O O6 0.517472 0.397749 0.689032
O O7 0.584215 0.239490 0.590019
O O8 0.000000 0.330771 0.500000
O O9 0.841435 0.954985 0.880778
O O10 0.119865 0.033558 0.886043
O O11 0.700782 0.113744 0.973517
O O12 0.626659 0.981250 0.090618
O O13 0.671833 0.985853 0.331287
O O14 0.225568 0.074643 0.485889
O O15 0.390719 0.986733 0.309864
O O16 0.500000 0.145367 0.500000
#
# Coordination Sequence:
#
# PCOD9120531 Si02
#       8
#     4   4   4   4   2   4   4   4
#     4  10  18  32  55  83 112 151 191 240 286 349
#     4  10  22  37  54  82 114 156 195 241 297 347
#     4   8  15  30  52  87 110 145 194 238 282 348
#     4  10  19  37  56  79 118 154 186 238 297 351
#     4   8  16  30  54  80 106 152 196 228 286 348
#     4   9  16  35  58  75 112 153 190 228 290 352
#     4  12  23  37  56  84 121 160 200 240 297 356
#     4   9  18  28  53  88 114 141 193 244 283 341
#
# _framework density 22.742407
#
# number of rings (size 3 to 8) (size 9 to 14) (size 15 to 20)
#    0.000    2.400    2.667    0.400    1.867    1.067 
#    0.000    0.000    0.000    4.800    0.000   14.933 
#    0.000    0.000    0.000    0.000    0.000    0.000 
#
# Total GULP energy -83705.730624 kJ/mol
# GULP energy per Si atom -5580.382042 kJ/mol
# Density = 2.269064 g / cm^3
# Si number density = 22.742407 Si / 1000 Ang^3
#
#
#
# Elastic Constant Matrix: (Units=GPa)
#
#
# Indices 1 2 3 4 5 6 
#
# 1 81.4302 6.8381 38.9572 0.0013 13.7782 0.0014
# 2 6.8381 45.0556 11.9751 -0.0004 12.9278 0.0015
# 3 38.9572 11.9751 145.2172 0.0024 30.9492 0.0018
# 4 0.0013 -0.0004 0.0024 16.7946 0.0004 5.5428
# 5 13.7782 12.9278 30.9492 0.0004 42.2682 -0.0017
# 6 0.0014 0.0015 0.0018 5.5428 -0.0017 8.8683
#
#
#
# Elastic Compliance Matrix: (Units=1/GPa)
#
#
# Indices 1 2 3 4 5 6 
#
# 1 0.014278 -0.000707 -0.003349 0.000000 -0.001986 -0.000002
# 2 -0.000707 0.024395 -0.000333 0.000003 -0.006987 -0.000007
# 3 -0.003349 -0.000333 0.008955 0.000000 -0.005364 -0.000002
# 4 0.000000 0.000003 0.000000 0.075017 -0.000003 -0.046887
# 5 -0.001986 -0.006987 -0.005364 -0.000003 0.030370 0.000011
# 6 -0.000002 -0.000007 -0.000002 -0.046887 0.000011 0.142067
#
#
# Mechanical properties :
#
#
# Convention : Reuss Voigt Hill
#
# Bulk Modulus (GPa) = 25.73941 43.02708 34.38325
# Shear Modulus (GPa) = 15.78230 27.84841 21.81535
#
# Velocity S-wave (km/s) = 2.63717 3.50310 3.10051
# Velocity P-wave (km/s) = 4.54040 5.94329 5.28857
#
# Compressibility (1/GPa) = 0.03885093
#
# Stress axis : x y z
#
# Youngs Moduli (GPa) = 70.03808 40.99136 111.66725
#
# Poissons Ratio (x) = 0.02899 0.37395
# Poissons Ratio (y) = 0.04952 0.03718
# Poissons Ratio (z) = 0.23454 0.01365
#
# Static dielectric constant tensor:
#      x y z
#    x 1.869970 0.000000 0.004990 
#    y 0.000000 1.760810 0.000000 
#    z 0.004990 0.000000 1.932880 
# 
# From -- ./inp_files/59824.got.cif
#   From: 2010.05.17/outbox.cif.g08.bks.cpg/sg5_30_cif.got.tgz:59824.got - 2010.06.03 18:56:24.
