data_PCOD9120229
_publ_section_title
;
Structure prediction by ZEFSAII (Michael W. Deem and Ramdas Pophale) SiO2 
 PCOD9120229
Probable space group: C 2
;
_chemical_formula_sum "Si O2"
_cell_formula_units_Z 30
_cell_length_a 12.182270
_cell_length_b 8.438688
_cell_length_c 18.030121
_cell_angle_alpha 90.000000
_cell_angle_beta 141.630058
_cell_angle_gamma 90.000000
_cell_volume 1150.559593
_symmetry_space_group_name_H-M "C 2"
_symmetry_group_IT_number 5
_symmetry_cell_setting 'monoclinic'
loop_
_space_group_symop_operation_xyz
x,y,z
-x,y,-z
1/2+x,1/2+y,z
1/2-x,1/2+y,-z
loop_
_atom_site_type_symbol
_atom_site_label
_atom_site_fract_x
_atom_site_fract_y
_atom_site_fract_z
Si Si1 0.500000 0.854250 0.500000
Si Si2 0.781959 0.449926 0.707468
Si Si3 0.554496 0.334198 0.786744
Si Si4 0.364468 0.668430 0.675161
Si Si5 0.202927 0.654907 0.430218
Si Si6 0.732807 0.278190 0.254476
Si Si7 0.147909 0.479221 0.980503
Si Si8 0.253433 0.812680 0.105771
O O1 0.351804 0.767651 0.472057
O O2 0.365318 0.903346 0.363112
O O3 0.743718 0.265369 0.669599
O O4 0.790879 0.510369 0.625198
O O5 0.678550 0.599049 0.692519
O O6 0.949031 0.440744 0.852301
O O7 0.462693 0.505043 0.745362
O O8 0.485377 0.244347 0.677955
O O9 0.443943 0.244696 0.791869
O O10 0.757833 0.356377 0.913164
O O11 0.256820 0.632947 0.543242
O O12 0.540494 0.779701 0.763222
O O13 0.672772 0.336999 0.143314
O O14 0.250591 0.450122 0.956988
O O15 0.180708 0.649905 0.032870
#
# Coordination Sequence:
#
# PCOD9120229 Si02
#       8
#     2   4   4   4   4   4   4   4
#     4   8  16  30  54  84 106 126 184 224 248 330
#     4   9  20  31  53  78 111 139 186 221 271 318
#     4   9  20  31  53  78 111 139 186 221 271 318
#     4  10  18  33  52  83 107 144 170 237 272 317
#     4  10  17  32  55  81 106 144 182 225 268 331
#     4  10  19  37  58  83 105 150 178 221 274 330
#     4  10  20  36  50  82 110 140 188 228 250 336
#     4  10  20  35  60  78 111 145 181 224 279 305
#
# _framework density 26.074269000000001
#
# number of rings (size 3 to 8) (size 9 to 14) (size 15 to 20)
#    0.000    2.667    1.333    2.400    0.000    2.133 
#    0.000    1.333    0.000   17.600    0.000    0.000 
#    0.000    0.000    0.000    0.000    0.000    0.000 
#
# Total GULP energy -83507.337656 kJ/mol
# GULP energy per Si atom -5567.155844 kJ/mol
# Density = 2.601492 g / cm^3
# Si number density = 26.074269 Si / 1000 Ang^3
#
#
#
# Elastic Constant Matrix: (Units=GPa)
#
#
# Indices 1 2 3 4 5 6 
#
# 1 51.3956 -1.2128 22.7134 0.0000 -15.5910 0.0000
# 2 -1.2128 63.7709 22.8193 0.0000 -11.5112 0.0000
# 3 22.7134 22.8193 204.5714 0.0000 -15.2898 0.0000
# 4 0.0000 0.0000 0.0000 37.5871 0.0000 -0.4596
# 5 -15.5910 -11.5112 -15.2898 0.0000 33.5170 0.0000
# 6 0.0000 0.0000 0.0000 -0.4596 0.0000 14.7773
#
#
#
# Elastic Compliance Matrix: (Units=1/GPa)
#
#
# Indices 1 2 3 4 5 6 
#
# 1 0.023909 0.003265 -0.002178 0.000000 0.011249 0.000000
# 2 0.003265 0.017612 -0.001824 0.000000 0.006735 0.000000
# 3 -0.002178 -0.001824 0.005395 0.000000 0.000822 0.000000
# 4 0.000000 0.000000 0.000000 0.026615 0.000000 0.000828
# 5 0.011249 0.006735 0.000822 0.000000 0.037756 0.000000
# 6 0.000000 0.000000 0.000000 0.000828 0.000000 0.067697
#
#
# Mechanical properties :
#
#
# Convention : Reuss Voigt Hill
#
# Bulk Modulus (GPa) = 22.00625 45.37529 33.69077
# Shear Modulus (GPa) = 25.56170 35.53748 30.54959
#
# Velocity S-wave (km/s) = 3.13444 3.69580 3.42663
# Velocity P-wave (km/s) = 4.64303 5.97093 5.34835
#
# Compressibility (1/GPa) = 0.04544164
#
# Stress axis : x y z
#
# Youngs Moduli (GPa) = 41.82525 56.78100 185.35988
#
# Poissons Ratio (x) = -0.18537 0.40371
# Poissons Ratio (y) = -0.13654 0.33802
# Poissons Ratio (z) = 0.09109 0.10354
#
# Static dielectric constant tensor:
#      x y z
#    x 2.199990 0.000000 0.021510 
#    y 0.000000 2.221150 0.000000 
#    z 0.021510 0.000000 2.099450 
# 
# From -- ./inp_files/66621.got.cif
#   From: 2010.05.17/outbox.cif.g08.bks.cpg/sg5_34_cif.got.tgz:66621.got - 2010.06.03 18:56:24.
