data_PCOD9120077
_publ_section_title
;
Structure prediction by ZEFSAII (Michael W. Deem and Ramdas Pophale) SiO2 
 PCOD9120077
Probable space group: C 2
;
_chemical_formula_sum "Si O2"
_cell_formula_units_Z 30
_cell_length_a 13.469801
_cell_length_b 13.352366
_cell_length_c 22.466052
_cell_angle_alpha 90.000000
_cell_angle_beta 156.110064
_cell_angle_gamma 90.000000
_cell_volume 1636.367357
_symmetry_space_group_name_H-M "C 2"
_symmetry_group_IT_number 5
_symmetry_cell_setting 'monoclinic'
loop_
_space_group_symop_operation_xyz
x,y,z
-x,y,-z
1/2+x,1/2+y,z
1/2-x,1/2+y,-z
loop_
_atom_site_type_symbol
_atom_site_label
_atom_site_fract_x
_atom_site_fract_y
_atom_site_fract_z
Si Si1 0.913664 0.807810 0.886353
Si Si2 0.635389 0.502516 0.514616
Si Si3 0.338522 0.594818 0.244412
Si Si4 0.760410 0.030286 0.619055
Si Si5 0.261735 0.205526 0.609597
Si Si6 0.000000 0.429420 0.000000
Si Si7 0.376005 0.866587 0.555829
Si Si8 0.085554 0.862612 0.857767
O O1 0.837085 0.690247 0.845810
O O2 0.659643 0.858588 0.726978
O O3 0.099388 0.838267 0.935384
O O4 0.000000 0.834915 0.000000
O O5 0.500000 0.473468 0.500000
O O6 0.454514 0.561255 0.370359
O O7 0.830412 0.590070 0.637310
O O8 0.738348 0.407307 0.537607
O O9 0.558993 0.606331 0.316799
O O10 0.186832 0.500771 0.137265
O O11 0.500000 0.071168 0.500000
O O12 0.676545 0.948080 0.524124
O O13 0.924228 0.963769 0.755156
O O14 0.223111 0.263595 0.526259
O O15 0.440501 0.270620 0.747999
O O16 0.000000 0.206981 0.500000
O O17 0.160881 0.371819 0.039236
#
# Coordination Sequence:
#
# PCOD9120077 Si02
#       8
#     4   4   4   4   4   2   4   4
#     4  12  21  34  55  81 118 156 175 219 285 358
#     4  10  20  33  58  83 111 141 181 239 277 325
#     4  10  20  35  57  86 108 144 192 221 279 339
#     4   9  16  33  62  84 100 134 191 251 257 304
#     4  10  16  34  64  82  98 144 193 236 265 320
#     4  10  22  38  60  82 106 152 194 238 260 334
#     4  10  18  32  54  86 106 132 192 227 281 321
#     4  10  19  35  60  81 107 145 201 226 271 328
#
# _framework density 18.333292
#
# number of rings (size 3 to 8) (size 9 to 14) (size 15 to 20)
#    0.000    1.867    4.667    2.400    0.000    1.067 
#    0.000    0.667   10.267    0.000    0.000    0.000 
#    0.000    0.000    0.000    0.000    0.000    0.000 
#
# Total GULP energy -83605.853154 kJ/mol
# GULP energy per Si atom -5573.723544 kJ/mol
# Density = 1.829156 g / cm^3
# Si number density = 18.333292 Si / 1000 Ang^3
#
#
#
# Elastic Constant Matrix: (Units=GPa)
#
#
# Indices 1 2 3 4 5 6 
#
# 1 160.9885 43.7826 29.6198 0.0014 6.9978 0.0013
# 2 43.7826 46.1476 -3.5309 0.0023 4.4931 0.0011
# 3 29.6198 -3.5309 37.6245 0.0037 1.1224 0.0043
# 4 0.0014 0.0023 0.0037 5.3247 0.0023 -0.8197
# 5 6.9978 4.4931 1.1224 0.0023 30.3949 0.0020
# 6 0.0013 0.0011 0.0043 -0.8197 0.0020 24.5143
#
#
#
# Elastic Compliance Matrix: (Units=1/GPa)
#
#
# Indices 1 2 3 4 5 6 
#
# 1 0.011077 -0.011203 -0.009755 0.000009 -0.000534 0.000002
# 2 -0.011203 0.033495 0.012047 -0.000019 -0.002817 -0.000003
# 3 -0.009755 0.012047 0.035414 -0.000028 -0.000843 -0.000007
# 4 0.000009 -0.000019 -0.000028 0.188777 -0.000013 0.006313
# 5 -0.000534 -0.002817 -0.000843 -0.000013 0.033471 -0.000003
# 6 0.000002 -0.000003 -0.000007 0.006313 -0.000003 0.041004
#
#
# Mechanical properties :
#
#
# Convention : Reuss Voigt Hill
#
# Bulk Modulus (GPa) = 16.08692 42.72263 29.40477
# Shear Modulus (GPa) = 13.09653 23.70606 18.40129
#
# Velocity S-wave (km/s) = 2.67565 3.59982 3.17157
# Velocity P-wave (km/s) = 4.28243 6.37433 5.43007
#
# Compressibility (1/GPa) = 0.06216232
#
# Stress axis : x y z
#
# Youngs Moduli (GPa) = 90.28046 29.85532 28.23733
#
# Poissons Ratio (x) = 0.33448 0.27547
# Poissons Ratio (y) = 1.01145 -0.34018
# Poissons Ratio (z) = 0.88073 -0.35967
#
# Static dielectric constant tensor:
#      x y z
#    x 1.666960 0.000000 0.002000 
#    y 0.000000 1.642590 0.000000 
#    z 0.002000 0.000000 1.658770 
# 
# From -- ./inp_files/65419.got.cif
#   From: 2010.05.17/outbox.cif.g08.bks.cpg/sg5_33_cif.got.tgz:65419.got - 2010.06.03 18:56:24.
