data_PCOD9120494
_publ_section_title
;
Structure prediction by ZEFSAII (Michael W. Deem and Ramdas Pophale) SiO2 
 PCOD9120494
Probable space group: C 2
;
_chemical_formula_sum "Si O2"
_cell_formula_units_Z 26
_cell_length_a 15.926878
_cell_length_b 9.546529
_cell_length_c 8.027589
_cell_angle_alpha 90.000000
_cell_angle_beta 70.737108
_cell_angle_gamma 90.000000
_cell_volume 1152.232413
_symmetry_space_group_name_H-M "C 2"
_symmetry_group_IT_number 5
_symmetry_cell_setting 'monoclinic'
loop_
_space_group_symop_operation_xyz
x,y,z
-x,y,-z
1/2+x,1/2+y,z
1/2-x,1/2+y,-z
loop_
_atom_site_type_symbol
_atom_site_label
_atom_site_fract_x
_atom_site_fract_y
_atom_site_fract_z
Si Si1 0.545614 0.031140 0.298753
Si Si2 0.274021 0.162688 0.857951
Si Si3 0.811094 0.630300 0.204350
Si Si4 0.413516 0.521099 0.009046
Si Si5 0.644002 0.439289 0.324005
Si Si6 0.500000 0.968218 0.000000
Si Si7 0.929575 0.810084 0.308409
O O1 0.500000 0.994260 0.500000
O O2 0.650960 0.048838 0.237578
O O3 0.506326 0.189749 0.279438
O O4 0.519931 0.920100 0.173347
O O5 0.298874 0.300184 0.744579
O O6 0.177143 0.101494 0.895862
O O7 0.287347 0.201881 0.044063
O O8 0.720903 0.550934 0.306253
O O9 0.903809 0.548015 0.097044
O O10 0.839943 0.720186 0.342667
O O11 0.426858 0.396646 0.137114
O O12 0.500000 0.612652 0.000000
O O13 0.406172 0.474580 0.818995
O O14 0.583698 0.407824 0.523461
#
# Coordination Sequence:
#
# PCOD9120494 Si02
#       7
#     4   4   4   4   4   2   4
#     4  10  18  31  57  85 109 141 191 246 289 339
#     4  10  20  39  57  86 121 157 196 245 302 356
#     4   9  20  37  57  88 118 156 200 252 296 356
#     4  11  25  39  59  88 124 160 202 250 296 353
#     4  11  22  38  62  86 125 159 199 248 302 356
#     4   8  18  32  52  78 110 144 186 244 284 334
#     4  11  22  34  64  89 119 152 203 254 298 349
#
# _framework density 22.564890999999999
#
# number of rings (size 3 to 8) (size 9 to 14) (size 15 to 20)
#    0.000    1.846    3.077    0.923    6.462    0.000 
#    1.385    0.000    0.000    0.000    0.000    4.308 
#    0.000    0.000    0.000    0.000    0.000    0.000 
#
# Total GULP energy -72416.676285 kJ/mol
# GULP energy per Si atom -5570.513560 kJ/mol
# Density = 2.251353 g / cm^3
# Si number density = 22.564891 Si / 1000 Ang^3
#
#
#
# Elastic Constant Matrix: (Units=GPa)
#
#
# Indices 1 2 3 4 5 6 
#
# 1 181.3818 23.4374 71.8595 0.0000 -8.8359 0.0000
# 2 23.4374 5.2150 17.3805 0.0000 -0.7286 0.0000
# 3 71.8595 17.3805 129.2674 0.0000 -1.1437 0.0000
# 4 0.0000 0.0000 0.0000 20.6610 0.0000 2.6999
# 5 -8.8359 -0.7286 -1.1437 0.0000 24.3961 0.0000
# 6 0.0000 0.0000 0.0000 2.6999 0.0000 19.0094
#
#
#
# Elastic Compliance Matrix: (Units=1/GPa)
#
#
# Indices 1 2 3 4 5 6 
#
# 1 0.013463 -0.063836 0.001126 0.000000 0.003022 0.000000
# 2 -0.063836 0.651779 -0.052202 0.000000 -0.006102 0.000000
# 3 0.001126 -0.052202 0.014125 0.000000 -0.000489 0.000000
# 4 0.000000 0.000000 0.000000 0.049316 0.000000 -0.007004
# 5 0.003022 -0.006102 -0.000489 0.000000 0.041880 0.000000
# 6 0.000000 0.000000 0.000000 -0.007004 0.000000 0.053600
#
#
# Mechanical properties :
#
#
# Convention : Reuss Voigt Hill
#
# Bulk Modulus (GPa) = 2.22449 60.13543 31.17996
# Shear Modulus (GPa) = 4.15339 26.35909 15.25624
#
# Velocity S-wave (km/s) = 1.35818 3.42152 2.60302
# Velocity P-wave (km/s) = 1.85674 6.50515 4.78354
#
# Compressibility (1/GPa) = 0.44954198
#
# Stress axis : x y z
#
# Youngs Moduli (GPa) = 74.27693 1.53426 70.79834
#
# Poissons Ratio (x) = 0.09794 -0.07969
# Poissons Ratio (y) = 4.74154 3.69582
# Poissons Ratio (z) = -0.08361 0.08009
#
# Static dielectric constant tensor:
#      x y z
#    x 1.909200 0.000000 -0.024700 
#    y 0.000000 1.970520 0.000000 
#    z -0.024700 0.000000 1.865930 
# 
# From -- ./inp_files/23338.got.cif
#   From: 2010.05.17/outbox.cif.g08.bks.cpg/sg5_12_cif.got.tgz:23338.got - 2010.06.03 18:56:24.
