data_PCOD9120275
_publ_section_title
;
Structure prediction by ZEFSAII (Michael W. Deem and Ramdas Pophale) SiO2 
 PCOD9120275
Probable space group: C 2
;
_chemical_formula_sum "Si O2"
_cell_formula_units_Z 30
_cell_length_a 21.314088
_cell_length_b 8.048059
_cell_length_c 12.772340
_cell_angle_alpha 90.000000
_cell_angle_beta 41.478075
_cell_angle_gamma 90.000000
_cell_volume 1451.125702
_symmetry_space_group_name_H-M "C 2"
_symmetry_group_IT_number 5
_symmetry_cell_setting 'monoclinic'
loop_
_space_group_symop_operation_xyz
x,y,z
-x,y,-z
1/2+x,1/2+y,z
1/2-x,1/2+y,-z
loop_
_atom_site_type_symbol
_atom_site_label
_atom_site_fract_x
_atom_site_fract_y
_atom_site_fract_z
Si Si1 0.619621 0.993750 0.683220
Si Si2 0.665502 0.686007 0.496299
Si Si3 0.958462 0.810310 0.666821
Si Si4 0.594761 0.991985 0.145044
Si Si5 0.335360 0.082672 0.154214
Si Si6 0.957116 0.183289 0.665845
Si Si7 0.891977 0.871274 0.336206
Si Si8 0.000000 0.838605 0.000000
O O1 0.671582 0.861082 0.545944
O O2 0.509838 0.989580 0.780628
O O3 0.632724 0.959824 0.790893
O O4 0.648162 0.188596 0.639778
O O5 0.735142 0.663277 0.311389
O O6 0.554479 0.673256 0.608815
O O7 0.677673 0.519673 0.549279
O O8 0.900537 0.656553 0.787838
O O9 0.000000 0.770069 0.500000
O O10 0.044028 0.832765 0.642419
O O11 0.914685 0.996678 0.714086
O O12 0.603599 0.827525 0.204668
O O13 0.665027 0.002766 0.959203
O O14 0.416933 0.223821 0.055352
O O15 0.000000 0.233097 0.500000
O O16 0.953547 0.926572 0.158012
#
# Coordination Sequence:
#
# PCOD9120275 Si02
#       8
#     4   4   4   4   4   4   4   2
#     4   9  19  35  51  75 110 143 173 214 258 320
#     4  10  22  34  56  82 105 140 182 218 262 321
#     4   9  16  30  55  80  98 135 184 221 257 313
#     4  10  17  34  54  78 105 141 178 213 272 318
#     4  11  19  34  54  79 113 140 171 224 267 314
#     4   9  19  36  58  78 103 137 184 222 259 316
#     4   9  18  36  53  77 106 142 180 213 266 321
#     4  10  18  36  54  72 116 144 166 222 264 318
#
# _framework density 20.673605999999999
#
# number of rings (size 3 to 8) (size 9 to 14) (size 15 to 20)
#    0.000    2.400    4.000    0.400    3.733    0.000 
#    7.200    1.333    8.800    0.000    0.000    0.000 
#    0.000    0.000    0.000    0.000    0.000    0.000 
#
# Total GULP energy -83541.511355 kJ/mol
# GULP energy per Si atom -5569.434090 kJ/mol
# Density = 2.062655 g / cm^3
# Si number density = 20.673606 Si / 1000 Ang^3
#
#
#
# Elastic Constant Matrix: (Units=GPa)
#
#
# Indices 1 2 3 4 5 6 
#
# 1 20.3036 5.4789 8.6109 0.0002 19.9435 -0.0001
# 2 5.4789 110.5320 75.7879 -0.0001 16.6498 -0.0003
# 3 8.6109 75.7879 142.1990 -0.0001 32.6506 -0.0001
# 4 0.0002 -0.0001 -0.0001 24.5934 0.0000 0.1921
# 5 19.9435 16.6498 32.6506 0.0000 42.1248 0.0001
# 6 -0.0001 -0.0003 -0.0001 0.1921 0.0001 23.1196
#
#
#
# Elastic Compliance Matrix: (Units=1/GPa)
#
#
# Indices 1 2 3 4 5 6 
#
# 1 0.095811 -0.001749 0.006553 -0.000001 -0.049749 0.000001
# 2 -0.001749 0.014293 -0.007791 0.000000 0.001218 0.000000
# 3 0.006553 -0.007791 0.013130 0.000000 -0.010200 0.000000
# 4 -0.000001 0.000000 0.000000 0.040664 0.000000 -0.000338
# 5 -0.049749 0.001218 -0.010200 0.000000 0.054717 -0.000001
# 6 0.000001 0.000000 0.000000 -0.000338 -0.000001 0.043256
#
#
# Mechanical properties :
#
#
# Convention : Reuss Voigt Hill
#
# Bulk Modulus (GPa) = 8.52802 50.30999 29.41900
# Shear Modulus (GPa) = 16.29030 30.17804 23.23417
#
# Velocity S-wave (km/s) = 2.81014 3.82480 3.35603
# Velocity P-wave (km/s) = 3.82925 6.62523 5.41095
#
# Compressibility (1/GPa) = 0.11726051
#
# Stress axis : x y z
#
# Youngs Moduli (GPa) = 10.43718 69.96644 76.16086
#
# Poissons Ratio (x) = 0.12234 -0.49908
# Poissons Ratio (y) = 0.01825 0.59338
# Poissons Ratio (z) = -0.06839 0.54512
#
# Static dielectric constant tensor:
#      x y z
#    x 1.119900 0.000000 0.047470 
#    y 0.000000 1.766700 0.000000 
#    z 0.047470 0.000000 1.752390 
# 
# From -- ./inp_files/44146.got.cif
#   From: 2010.05.17/outbox.cif.g08.bks.cpg/sg5_23_cif.got.tgz:44146.got - 2010.06.03 18:56:24.
