data_PCOD9120066
_publ_section_title
;
Structure prediction by ZEFSAII (Michael W. Deem and Ramdas Pophale) SiO2 
 PCOD9120066
Probable space group: C 2
;
_chemical_formula_sum "Si O2"
_cell_formula_units_Z 24
_cell_length_a 11.218598
_cell_length_b 9.220958
_cell_length_c 12.272867
_cell_angle_alpha 90.000000
_cell_angle_beta 54.480366
_cell_angle_gamma 90.000000
_cell_volume 1033.333473
_symmetry_space_group_name_H-M "C 2"
_symmetry_group_IT_number 5
_symmetry_cell_setting 'monoclinic'
loop_
_space_group_symop_operation_xyz
x,y,z
-x,y,-z
1/2+x,1/2+y,z
1/2-x,1/2+y,-z
loop_
_atom_site_type_symbol
_atom_site_label
_atom_site_fract_x
_atom_site_fract_y
_atom_site_fract_z
Si Si1 0.000000 0.107700 0.500000
Si Si2 0.049933 0.346785 0.315593
Si Si3 0.780755 0.139313 0.937353
Si Si4 0.324723 0.394248 0.279475
Si Si5 0.417278 0.412479 0.713940
Si Si6 0.999017 0.632947 0.771950
Si Si7 0.000000 0.059601 0.000000
O O1 0.038964 0.220354 0.576705
O O2 0.890831 0.993592 0.615644
O O3 0.162475 0.264592 0.173384
O O4 0.155334 0.418933 0.350743
O O5 0.974839 0.474636 0.289090
O O6 0.886199 0.147097 0.986739
O O7 0.814996 0.987036 0.858569
O O8 0.615613 0.137706 0.067317
O O9 0.415256 0.450596 0.335340
O O10 0.358946 0.222628 0.267842
O O11 0.408176 0.462296 0.132351
O O12 0.421160 0.239569 0.723212
#
# Coordination Sequence:
#
# PCOD9120066 Si02
#       7
#     2   4   4   4   4   4   2
#     4  10  22  42  56  80 124 164 200 264 310 340
#     4  11  21  38  61  89 124 156 208 265 295 365
#     4  10  18  33  61  89 123 157 197 251 314 366
#     4   9  19  36  60  88 117 162 198 247 309 360
#     4   8  20  37  59  81 116 166 201 243 312 363
#     4  10  19  35  60  92 113 156 207 246 309 374
#     4  10  16  34  60  84 128 164 184 244 314 374
#
# _framework density 23.225802999999999
#
# number of rings (size 3 to 8) (size 9 to 14) (size 15 to 20)
#    1.000    1.333    1.667    2.000    0.000    0.667 
#    3.000    5.833    0.000    0.000    0.000    0.000 
#    0.000    0.000    0.000    0.000    0.000    0.000 
#
# Total GULP energy -66834.893947 kJ/mol
# GULP energy per Si atom -5569.574496 kJ/mol
# Density = 2.317294 g / cm^3
# Si number density = 23.225803 Si / 1000 Ang^3
#
#
#
# Elastic Constant Matrix: (Units=GPa)
#
#
# Indices 1 2 3 4 5 6 
#
# 1 58.9413 10.1985 14.5308 0.0000 -1.4333 0.0000
# 2 10.1985 105.9384 23.6412 0.0000 20.4496 0.0000
# 3 14.5308 23.6412 78.3760 0.0000 16.6770 0.0000
# 4 0.0000 0.0000 0.0000 28.5436 0.0000 6.3522
# 5 -1.4333 20.4496 16.6770 0.0000 16.6785 0.0000
# 6 0.0000 0.0000 0.0000 6.3522 0.0000 29.6822
#
#
#
# Elastic Compliance Matrix: (Units=1/GPa)
#
#
# Indices 1 2 3 4 5 6 
#
# 1 0.018814 -0.002595 -0.004733 0.000000 0.009531 0.000000
# 2 -0.002595 0.012749 0.000011 0.000000 -0.015867 0.000000
# 3 -0.004733 0.000011 0.017431 0.000000 -0.017851 0.000000
# 4 0.000000 0.000000 0.000000 0.036786 0.000000 -0.007872
# 5 0.009531 -0.015867 -0.017851 0.000000 0.098080 0.000000
# 6 0.000000 0.000000 0.000000 -0.007872 0.000000 0.035375
#
#
# Mechanical properties :
#
#
# Convention : Reuss Voigt Hill
#
# Bulk Modulus (GPa) = 29.10257 37.77742 33.43999
# Shear Modulus (GPa) = 20.38135 27.97320 24.17728
#
# Velocity S-wave (km/s) = 2.96553 3.47421 3.22990
# Velocity P-wave (km/s) = 4.92781 5.69159 5.32341
#
# Compressibility (1/GPa) = 0.03436123
#
# Stress axis : x y z
#
# Youngs Moduli (GPa) = 53.15277 78.43484 57.36761
#
# Poissons Ratio (x) = 0.20351 0.27155
# Poissons Ratio (y) = 0.13791 -0.00066
# Poissons Ratio (z) = 0.25160 -0.00090
#
# Static dielectric constant tensor:
#      x y z
#    x 1.879570 0.000000 0.012670 
#    y 0.000000 1.860370 0.000000 
#    z 0.012670 0.000000 1.904640 
# 
# From -- ./inp_files/41302.got.cif
#   From: 2010.05.17/outbox.cif.g08.bks.cpg/sg5_21_cif.got.tgz:41302.got - 2010.06.03 18:56:24.
