data_PCOD9120511
_publ_section_title
;
Structure prediction by ZEFSAII (Michael W. Deem and Ramdas Pophale) SiO2 
 PCOD9120511
Probable space group: C 2
;
_chemical_formula_sum "Si O2"
_cell_formula_units_Z 32
_cell_length_a 5.387754
_cell_length_b 35.136215
_cell_length_c 6.894438
_cell_angle_alpha 90.000000
_cell_angle_beta 102.287818
_cell_angle_gamma 90.000000
_cell_volume 1275.253573
_symmetry_space_group_name_H-M "C 2"
_symmetry_group_IT_number 5
_symmetry_cell_setting 'monoclinic'
loop_
_space_group_symop_operation_xyz
x,y,z
-x,y,-z
1/2+x,1/2+y,z
1/2-x,1/2+y,-z
loop_
_atom_site_type_symbol
_atom_site_label
_atom_site_fract_x
_atom_site_fract_y
_atom_site_fract_z
Si Si1 0.075345 0.245350 0.740871
Si Si2 0.454497 0.117685 0.763464
Si Si3 0.704523 0.859800 0.294154
Si Si4 0.432197 0.487735 0.758532
Si Si5 0.939043 0.706603 0.268550
Si Si6 0.792518 0.828737 0.742842
Si Si7 0.423405 0.944361 0.758564
Si Si8 0.557300 0.575706 0.241946
O O1 0.315494 0.218465 0.812494
O O2 0.196118 0.287162 0.788053
O O3 0.000000 0.244254 0.500000
O O4 0.824770 0.229488 0.807479
O O5 0.539076 0.161125 0.733084
O O6 0.669481 0.094314 0.690906
O O7 0.170469 0.100231 0.698024
O O8 0.500000 0.113770 0.000000
O O9 0.746912 0.836883 0.503792
O O10 0.412005 0.855251 0.189736
O O11 0.708113 0.904742 0.329039
O O12 0.916224 0.841235 0.191126
O O13 0.690489 0.473339 0.703811
O O14 0.407417 0.531715 0.697656
O O15 0.180205 0.461035 0.702364
O O16 0.500000 0.487129 0.000000
O O17 0.000000 0.718102 0.500000
O O18 0.500000 0.939851 0.000000
O O19 0.500000 0.576132 0.000000
#
# Coordination Sequence:
#
# PCOD9120511 Si02
#       8
#     4   4   4   4   4   4   4   4
#     4  10  18  32  52  76 100 122 170 220 265 288
#     4  10  19  33  52  79 108 135 170 218 263 305
#     4  10  19  30  50  76 100 128 164 215 270 293
#     4   9  17  30  48  74 103 134 176 213 246 297
#     4  10  21  32  52  81 103 134 169 217 256 318
#     4  10  19  32  52  76  94 126 171 225 250 296
#     4  10  19  31  48  75 109 137 165 209 263 315
#     4   9  17  30  52  77 102 134 174 217 252 296
#
# _framework density 25.093046999999999
#
# number of rings (size 3 to 8) (size 9 to 14) (size 15 to 20)
#    0.000    2.250    1.250    3.000    3.500    3.000 
#    0.000    0.000    0.000    3.000   32.500    0.000 
#    0.000    0.000    0.000    0.000    0.000    0.000 
#
# Total GULP energy -89340.121051 kJ/mol
# GULP energy per Si atom -5583.757566 kJ/mol
# Density = 2.503593 g / cm^3
# Si number density = 25.093047 Si / 1000 Ang^3
#
#
#
# Elastic Constant Matrix: (Units=GPa)
#
#
# Indices 1 2 3 4 5 6 
#
# 1 254.1338 100.6893 42.8371 0.0000 -22.3173 0.0000
# 2 100.6893 198.6147 -3.3524 0.0000 -7.3693 0.0000
# 3 42.8371 -3.3524 89.4823 0.0000 -9.9557 0.0000
# 4 0.0000 0.0000 0.0000 -7.9156 0.0000 -8.3325
# 5 -22.3173 -7.3693 -9.9557 0.0000 50.4909 0.0000
# 6 0.0000 0.0000 0.0000 -8.3325 0.0000 50.9885
#
#
#
# Elastic Compliance Matrix: (Units=1/GPa)
#
#
# Indices 1 2 3 4 5 6 
#
# 1 0.005645 -0.002848 -0.002635 0.000000 0.001560 0.000000
# 2 -0.002848 0.006506 0.001608 0.000000 0.000008 0.000000
# 3 -0.002635 0.001608 0.012672 0.000000 0.001568 0.000000
# 4 0.000000 0.000000 0.000000 -0.107790 0.000000 -0.017615
# 5 0.001560 0.000008 0.001568 0.000000 0.020805 0.000000
# 6 0.000000 0.000000 0.000000 -0.017615 0.000000 0.016734
#
#
# Mechanical properties :
#
#
# Convention : Reuss Voigt Hill
#
# Bulk Modulus (GPa) = 58.57661 91.39763 74.98712
# Shear Modulus (GPa) = -156.31129 45.51654 -55.39738
#
# Velocity S-wave (km/s) = -7.90113 4.26362 -4.70369
# Velocity P-wave (km/s) = 7.73581 7.79362 0.66999
#
# Compressibility (1/GPa) = 0.01707166
#
# Stress axis : x y z
#
# Youngs Moduli (GPa) = 177.16106 153.69925 78.91564
#
# Poissons Ratio (x) = 0.43776 0.20797
# Poissons Ratio (y) = 0.50459 -0.12690
# Poissons Ratio (z) = 0.46689 -0.24716
#
# Static dielectric constant tensor:
#      x y z
#    x 1.964270 0.000000 -0.014300 
#    y 0.000000 2.049970 0.000000 
#    z -0.014300 0.000000 2.082410 
# 
# From -- ./inp_files/13359.got.cif
#   From: 2010.05.17/outbox.cif.g08.bks.cpg/sg5_7_cif.got.tgz:13359.got - 2010.06.03 18:56:24.
