data_PCOD9120648
_publ_section_title
;
Structure prediction by ZEFSAII (Michael W. Deem and Ramdas Pophale) SiO2 
 PCOD9120648
Probable space group: C 2
;
_chemical_formula_sum "Si O2"
_cell_formula_units_Z 26
_cell_length_a 8.654296
_cell_length_b 18.570886
_cell_length_c 15.091979
_cell_angle_alpha 90.000000
_cell_angle_beta 34.383057
_cell_angle_gamma 90.000000
_cell_volume 1369.764873
_symmetry_space_group_name_H-M "C 2"
_symmetry_group_IT_number 5
_symmetry_cell_setting 'monoclinic'
loop_
_space_group_symop_operation_xyz
x,y,z
-x,y,-z
1/2+x,1/2+y,z
1/2-x,1/2+y,-z
loop_
_atom_site_type_symbol
_atom_site_label
_atom_site_fract_x
_atom_site_fract_y
_atom_site_fract_z
Si Si1 0.768776 0.664310 0.982405
Si Si2 0.500000 0.281996 0.000000
Si Si3 0.000000 0.694781 0.500000
Si Si4 0.899420 0.329675 0.302785
Si Si5 0.281431 0.332057 0.417255
Si Si6 0.500000 0.049202 0.000000
Si Si7 0.283151 0.909552 0.173408
Si Si8 0.875181 0.682956 0.740925
O O1 0.901567 0.646708 0.824312
O O2 0.803262 0.599558 0.035311
O O3 0.926631 0.731124 0.951622
O O4 0.452907 0.685572 0.117585
O O5 0.225635 0.324869 0.150206
O O6 0.741819 0.749860 0.631545
O O7 0.001018 0.651029 0.590787
O O8 0.789542 0.356481 0.449052
O O9 0.820534 0.374204 0.252386
O O10 0.480511 0.391844 0.282920
O O11 0.468651 0.259861 0.327830
O O12 0.000000 0.319325 0.500000
O O13 0.655257 0.994201 0.860952
O O14 0.500000 0.876886 0.000000
#
# Coordination Sequence:
#
# PCOD9120648 Si02
#       8
#     4   2   2   4   4   2   4   4
#     4  10  20  37  59  84 117 160 204 244 287 342
#     4  11  20  30  60  94 120 145 204 238 304 377
#     4  10  18  34  54  92 124 146 176 232 330 370
#     4  11  20  34  58  90 123 155 181 245 313 367
#     4  11  22  36  60  99 128 147 188 246 316 373
#     4   9  24  40  62  82 110 163 228 252 256 343
#     4  10  22  39  62  77 123 160 206 245 297 336
#     4  10  20  35  63  85 126 151 181 244 321 356
#
# _framework density 18.981359999999999
#
# number of rings (size 3 to 8) (size 9 to 14) (size 15 to 20)
#    0.462    1.231    4.615    0.923    6.462    0.000 
#    0.000    4.615    8.462    0.000    0.000    0.000 
#    0.000    0.000    0.000    0.000    0.000    0.000 
#
# Total GULP energy -72368.131556 kJ/mol
# GULP energy per Si atom -5566.779350 kJ/mol
# Density = 1.893816 g / cm^3
# Si number density = 18.981360 Si / 1000 Ang^3
#
#
#
# Elastic Constant Matrix: (Units=GPa)
#
#
# Indices 1 2 3 4 5 6 
#
# 1 115.2820 28.7365 56.2818 -0.0004 1.9718 0.0006
# 2 28.7365 43.2323 30.8214 0.0039 -8.0011 0.0000
# 3 56.2818 30.8214 125.2289 0.0114 3.2711 -0.0018
# 4 -0.0004 0.0039 0.0114 14.0211 0.0004 4.8881
# 5 1.9718 -8.0011 3.2711 0.0004 57.4804 -0.0003
# 6 0.0006 0.0000 -0.0018 4.8881 -0.0003 9.7107
#
#
#
# Elastic Compliance Matrix: (Units=1/GPa)
#
#
# Indices 1 2 3 4 5 6 
#
# 1 0.011982 -0.005227 -0.004075 0.000007 -0.000907 -0.000005
# 2 -0.005227 0.031439 -0.005516 -0.000005 0.004869 0.000002
# 3 -0.004075 -0.005516 0.011207 -0.000010 -0.001266 0.000007
# 4 0.000007 -0.000005 -0.000010 0.086501 -0.000001 -0.043543
# 5 -0.000907 0.004869 -0.001266 -0.000001 0.018178 0.000001
# 6 -0.000005 0.000002 0.000007 -0.043543 0.000001 0.124898
#
#
# Mechanical properties :
#
#
# Convention : Reuss Voigt Hill
#
# Bulk Modulus (GPa) = 40.01168 57.26919 48.64043
# Shear Modulus (GPa) = 15.51963 27.43600 21.47782
#
# Velocity S-wave (km/s) = 2.86252 3.80599 3.36746
# Velocity P-wave (km/s) = 5.66132 7.03924 6.38754
#
# Compressibility (1/GPa) = 0.02499270
#
# Stress axis : x y z
#
# Youngs Moduli (GPa) = 83.45591 31.80779 89.22676
#
# Poissons Ratio (x) = 0.16627 0.36360
# Poissons Ratio (y) = 0.43625 0.49214
# Poissons Ratio (z) = 0.34009 0.17544
#
# Static dielectric constant tensor:
#      x y z
#    x 1.720430 0.000000 0.030800 
#    y 0.000000 1.644790 0.000000 
#    z 0.030800 0.000000 1.696700 
# 
# From -- ./inp_files/51539.got.cif
#   From: 2010.05.17/outbox.cif.g08.bks.cpg/sg5_26_cif.got.tgz:51539.got - 2010.06.03 18:56:24.
