data_PCOD9120004
_publ_section_title
;
Structure prediction by ZEFSAII (Michael W. Deem and Ramdas Pophale) SiO2 
 PCOD9120004
Probable space group: C 2
;
_chemical_formula_sum "Si O2"
_cell_formula_units_Z 32
_cell_length_a 15.861696
_cell_length_b 11.155905
_cell_length_c 24.313316
_cell_angle_alpha 90.000000
_cell_angle_beta 23.759689
_cell_angle_gamma 90.000000
_cell_volume 1733.394737
_symmetry_space_group_name_H-M "C 2"
_symmetry_group_IT_number 5
_symmetry_cell_setting 'monoclinic'
loop_
_space_group_symop_operation_xyz
x,y,z
-x,y,-z
1/2+x,1/2+y,z
1/2-x,1/2+y,-z
loop_
_atom_site_type_symbol
_atom_site_label
_atom_site_fract_x
_atom_site_fract_y
_atom_site_fract_z
Si Si1 0.146155 0.500000 0.245811
Si Si2 0.434507 0.670120 0.636297
Si Si3 0.464228 0.313047 0.085727
Si Si4 0.679198 0.421734 0.350082
Si Si5 0.649802 0.637464 0.627458
Si Si6 0.581778 0.851135 0.174091
Si Si7 0.455687 0.255967 0.660976
Si Si8 0.216074 0.388490 0.461169
O O1 0.352737 0.442447 0.148758
O O2 0.120824 0.442543 0.201193
O O3 0.147753 0.642144 0.248305
O O4 0.945795 0.448372 0.398669
O O5 0.210441 0.728315 0.783769
O O6 0.396713 0.552958 0.623136
O O7 0.540802 0.633937 0.631686
O O8 0.584294 0.772501 0.519630
O O9 0.500000 0.276277 0.000000
O O10 0.684324 0.320287 0.985344
O O11 0.500000 0.379721 0.500000
O O12 0.685127 0.339054 0.292567
O O13 0.907114 0.411921 0.240790
O O14 0.515243 0.727028 0.744824
O O15 0.869744 0.701150 0.484157
O O16 0.699305 0.505090 0.621702
O O17 0.584205 0.334426 0.627439
#
# Coordination Sequence:
#
# PCOD9120004 Si02
#       8
#     4   4   4   4   4   4   4   4
#     4   9  17  32  56  79 103 145 195 228 261 330
#     4  10  19  34  57  82 113 151 185 232 281 341
#     4   9  17  36  60  81 101 149 206 225 264 334
#     4  12  23  35  53  87 118 146 179 235 298 335
#     4  10  16  30  56  84 105 140 186 228 275 335
#     4  11  20  35  59  84 108 144 193 236 274 342
#     4  10  18  30  51  79 114 140 178 228 279 333
#     4   9  16  28  55  80 102 139 186 223 279 324
#
# _framework density 18.460884
#
# number of rings (size 3 to 8) (size 9 to 14) (size 15 to 20)
#    0.000    2.000    7.500    0.000    3.500    0.000 
#    2.250    0.000    8.250    6.750    0.000    0.000 
#    0.000    0.000    0.000    0.000    0.000    0.000 
#
# Total GULP energy -89124.941991 kJ/mol
# GULP energy per Si atom -5570.308874 kJ/mol
# Density = 1.841887 g / cm^3
# Si number density = 18.460884 Si / 1000 Ang^3
#
#
#
# Elastic Constant Matrix: (Units=GPa)
#
#
# Indices 1 2 3 4 5 6 
#
# 1 57.1340 35.5545 20.5328 0.0143 -24.4555 -0.0072
# 2 35.5545 128.7296 17.8101 0.0125 -7.0397 -0.0015
# 3 20.5328 17.8101 50.0580 0.0064 -19.1432 -0.0010
# 4 0.0143 0.0125 0.0064 11.6211 -0.0045 -0.7904
# 5 -24.4555 -7.0397 -19.1432 -0.0045 23.7056 0.0078
# 6 -0.0072 -0.0015 -0.0010 -0.7904 0.0078 28.0217
#
#
#
# Elastic Compliance Matrix: (Units=1/GPa)
#
#
# Indices 1 2 3 4 5 6 
#
# 1 0.039256 -0.008987 0.002260 -0.000025 0.039654 -0.000002
# 2 -0.008987 0.010228 -0.003381 -0.000002 -0.008964 0.000001
# 3 0.002260 -0.003381 0.030036 -0.000006 0.025583 -0.000006
# 4 -0.000025 -0.000002 -0.000006 0.086216 -0.000015 0.002432
# 5 0.039654 -0.008964 0.025583 -0.000015 0.101090 -0.000018
# 6 -0.000002 0.000001 -0.000006 0.002432 -0.000018 0.035755
#
#
# Mechanical properties :
#
#
# Convention : Reuss Voigt Hill
#
# Bulk Modulus (GPa) = 16.86185 42.63515 29.74850
# Shear Modulus (GPa) = 14.59577 23.47129 19.03353
#
# Velocity S-wave (km/s) = 2.81487 3.56955 3.21443
# Velocity P-wave (km/s) = 4.44053 6.33513 5.47047
#
# Compressibility (1/GPa) = 0.05930547
#
# Stress axis : x y z
#
# Youngs Moduli (GPa) = 25.47349 97.77257 33.29326
#
# Poissons Ratio (x) = 0.87864 -0.07524
# Poissons Ratio (y) = 0.22892 0.11256
# Poissons Ratio (z) = -0.05757 0.33054
#
# Static dielectric constant tensor:
#      x y z
#    x 1.652510 -0.000030 0.005880 
#    y -0.000030 1.678330 0.000020 
#    z 0.005880 0.000020 1.641870 
# 
# From -- ./inp_files/70946.got.cif
#   From: 2010.05.17/outbox.cif.g08.bks.cpg/sg5_36_cif.got.tgz:70946.got - 2010.06.03 18:56:24.
