data_PCOD9120739
_publ_section_title
;
Structure prediction by ZEFSAII (Michael W. Deem and Ramdas Pophale) SiO2 
 PCOD9120739
Probable space group: C 2
;
_chemical_formula_sum "Si O2"
_cell_formula_units_Z 26
_cell_length_a 15.633538
_cell_length_b 18.839361
_cell_length_c 10.503890
_cell_angle_alpha 90.000000
_cell_angle_beta 28.778234
_cell_angle_gamma 90.000000
_cell_volume 1489.355603
_symmetry_space_group_name_H-M "C 2"
_symmetry_group_IT_number 5
_symmetry_cell_setting 'monoclinic'
loop_
_space_group_symop_operation_xyz
x,y,z
-x,y,-z
1/2+x,1/2+y,z
1/2-x,1/2+y,-z
loop_
_atom_site_type_symbol
_atom_site_label
_atom_site_fract_x
_atom_site_fract_y
_atom_site_fract_z
Si Si1 0.731793 0.789600 0.141704
Si Si2 0.294314 0.103090 0.313289
Si Si3 0.850679 0.208828 0.287410
Si Si4 0.418071 0.833458 0.399207
Si Si5 0.921823 0.814330 0.462267
Si Si6 0.177701 0.436974 0.685493
Si Si7 0.000000 0.159007 0.500000
O O1 0.609118 0.841049 0.216316
O O2 0.710005 0.809362 0.318297
O O3 0.633898 0.713496 0.252641
O O4 0.928323 0.794870 0.835884
O O5 0.246241 0.152419 0.496086
O O6 0.137876 0.118174 0.412486
O O7 0.286071 0.020252 0.359514
O O8 0.500000 0.117886 0.000000
O O9 0.922144 0.270965 0.288836
O O10 0.720205 0.251852 0.365303
O O11 0.000000 0.177406 0.000000
O O12 0.356669 0.903962 0.408543
O O13 0.831678 0.888939 0.545103
O O14 0.000000 0.816974 0.500000
O O15 0.000000 0.424335 0.000000
#
# Coordination Sequence:
#
# PCOD9120739 Si02
#       7
#     4   4   4   4   4   4   2
#     4  10  18  34  63  88 111 149 200 251 300 346
#     4  11  23  41  63  87 121 165 201 239 304 364
#     4  11  21  36  58  83 120 154 191 253 302 342
#     4   9  18  36  58  82 116 149 193 252 294 342
#     4  11  22  34  60  89 115 152 206 248 297 360
#     4  10  22  38  57  83 119 158 194 246 297 358
#     4  10  20  38  66  88 116 146 206 258 284 358
#
# _framework density 17.457214
#
# number of rings (size 3 to 8) (size 9 to 14) (size 15 to 20)
#    0.000    1.846    3.077    4.615    1.077    1.846 
#    2.769    0.000    3.385    0.000    0.000    0.000 
#    0.000    0.000    0.000    0.000    0.000    0.000 
#
# Total GULP energy -72465.589974 kJ/mol
# GULP energy per Si atom -5574.276152 kJ/mol
# Density = 1.741748 g / cm^3
# Si number density = 17.457214 Si / 1000 Ang^3
#
#
#
# Elastic Constant Matrix: (Units=GPa)
#
#
# Indices 1 2 3 4 5 6 
#
# 1 107.1691 49.2077 24.4898 -0.0080 8.0615 0.0085
# 2 49.2077 113.0651 52.1600 0.0023 -1.5317 0.0022
# 3 24.4898 52.1600 112.1319 0.0003 -4.3269 0.0041
# 4 -0.0080 0.0023 0.0003 16.2596 -0.0023 -4.9590
# 5 8.0615 -1.5317 -4.3269 -0.0023 17.7986 -0.0043
# 6 0.0085 0.0022 0.0041 -4.9590 -0.0043 24.7403
#
#
#
# Elastic Compliance Matrix: (Units=1/GPa)
#
#
# Indices 1 2 3 4 5 6 
#
# 1 0.012297 -0.005203 -0.000502 0.000005 -0.006139 -0.000004
# 2 -0.005203 0.013464 -0.005038 -0.000004 0.002291 0.000001
# 3 -0.000502 -0.005038 0.011471 0.000000 0.002583 -0.000001
# 4 0.000005 -0.000004 0.000000 0.065507 0.000009 0.013130
# 5 -0.006139 0.002291 0.002583 0.000009 0.059790 0.000014
# 6 -0.000004 0.000001 -0.000001 0.013130 0.000014 0.043052
#
#
# Mechanical properties :
#
#
# Convention : Reuss Voigt Hill
#
# Bulk Modulus (GPa) = 63.51379 64.89789 64.20584
# Shear Modulus (GPa) = 21.52235 25.52694 23.52464
#
# Velocity S-wave (km/s) = 3.51502 3.82810 3.67490
# Velocity P-wave (km/s) = 7.27567 7.53626 7.40711
#
# Compressibility (1/GPa) = 0.01574461
#
# Stress axis : x y z
#
# Youngs Moduli (GPa) = 81.32249 74.27009 87.17568
#
# Poissons Ratio (x) = 0.38644 0.04378
# Poissons Ratio (y) = 0.42314 0.43923
# Poissons Ratio (z) = 0.04084 0.37420
#
# Static dielectric constant tensor:
#      x y z
#    x 1.633240 -0.000010 -0.050160 
#    y -0.000010 1.576810 0.000020 
#    z -0.050160 0.000020 1.697700 
# 
# From -- ./inp_files/25397.got.cif
#   From: 2010.05.17/outbox.cif.g08.bks.cpg/sg5_13_cif.got.tgz:25397.got - 2010.06.03 18:56:24.
