data_PCOD9120018
_publ_section_title
;
Structure prediction by ZEFSAII (Michael W. Deem and Ramdas Pophale) SiO2 
 PCOD9120018
Probable space group: C 2
;
_chemical_formula_sum "Si O2"
_cell_formula_units_Z 32
_cell_length_a 18.212494
_cell_length_b 8.201458
_cell_length_c 15.316159
_cell_angle_alpha 90.000000
_cell_angle_beta 149.163260
_cell_angle_gamma 90.000000
_cell_volume 1172.690734
_symmetry_space_group_name_H-M "C 2"
_symmetry_group_IT_number 5
_symmetry_cell_setting 'monoclinic'
loop_
_space_group_symop_operation_xyz
x,y,z
-x,y,-z
1/2+x,1/2+y,z
1/2-x,1/2+y,-z
loop_
_atom_site_type_symbol
_atom_site_label
_atom_site_fract_x
_atom_site_fract_y
_atom_site_fract_z
Si Si1 0.850259 0.468140 0.295175
Si Si2 0.462922 0.433739 0.609004
Si Si3 0.709319 0.932657 0.490015
Si Si4 0.848546 0.944540 0.050138
Si Si5 0.724316 0.695671 0.649453
Si Si6 0.779538 0.689932 0.356668
Si Si7 0.479028 0.752310 0.079010
Si Si8 0.486716 0.096784 0.137470
O O1 0.812059 0.453299 0.154339
O O2 0.781370 0.310071 0.272123
O O3 0.778642 0.636797 0.255774
O O4 0.000000 0.465406 0.500000
O O5 0.351340 0.427618 0.577130
O O6 0.390528 0.550332 0.463148
O O7 0.434981 0.258712 0.538174
O O8 0.613544 0.463477 0.808895
O O9 0.746702 0.026908 0.616957
O O10 0.579528 0.029371 0.314275
O O11 0.673582 0.763806 0.501174
O O12 0.927123 0.101698 0.084930
O O13 0.904820 0.762925 0.080434
O O14 0.888854 0.648302 0.803575
O O15 0.650937 0.794457 0.266928
O O16 0.410444 0.931161 0.023841
O O17 0.500000 0.700497 0.000000
#
# Coordination Sequence:
#
# PCOD9120018 Si02
#       8
#     4   4   4   4   4   4   4   4
#     4  11  27  47  60  77 119 178 226 263 302 351
#     4  11  18  33  62 100 124 152 191 251 316 389
#     4  10  16  31  55  95 128 155 178 230 312 393
#     4  12  23  38  65  94 129 165 205 254 321 374
#     4  10  20  35  65  88 129 165 195 241 318 383
#     4  11  19  36  61  87 126 161 193 241 316 375
#     4  12  23  33  57  99 139 157 195 246 316 398
#     4  11  22  33  62 101 135 153 190 250 319 394
#
# _framework density 27.287673999999999
#
# number of rings (size 3 to 8) (size 9 to 14) (size 15 to 20)
#    0.000    1.000    7.500    2.250    1.750    0.000 
#    0.000    1.875    0.000    0.000    0.000    0.000 
#    0.000    0.000    0.000    0.000    0.000    0.000 
#
# Total GULP energy -89221.796381 kJ/mol
# GULP energy per Si atom -5576.362274 kJ/mol
# Density = 2.722557 g / cm^3
# Si number density = 27.287674 Si / 1000 Ang^3
#
#
#
# Elastic Constant Matrix: (Units=GPa)
#
#
# Indices 1 2 3 4 5 6 
#
# 1 44.2742 2.2982 11.1613 0.0000 20.1935 0.0000
# 2 2.2982 101.5427 -0.3272 0.0000 10.4986 0.0000
# 3 11.1613 -0.3272 126.3458 0.0000 -6.5211 0.0000
# 4 0.0000 0.0000 0.0000 20.1392 0.0000 -8.3738
# 5 20.1935 10.4986 -6.5211 0.0000 36.8750 0.0000
# 6 0.0000 0.0000 0.0000 -8.3738 0.0000 -1.9020
#
#
#
# Elastic Compliance Matrix: (Units=1/GPa)
#
#
# Indices 1 2 3 4 5 6 
#
# 1 0.031900 0.001176 -0.003768 0.000000 -0.018470 0.000000
# 2 0.001176 0.010192 -0.000263 0.000000 -0.003592 0.000000
# 3 -0.003768 -0.000263 0.008434 0.000000 0.003630 0.000000
# 4 0.000000 0.000000 0.000000 0.017542 0.000000 -0.077231
# 5 -0.018470 -0.003592 0.003630 0.000000 0.038898 0.000000
# 6 0.000000 0.000000 0.000000 -0.077231 0.000000 -0.185743
#
#
# Mechanical properties :
#
#
# Convention : Reuss Voigt Hill
#
# Bulk Modulus (GPa) = 22.31405 33.15859 27.73632
# Shear Modulus (GPa) = -86.01701 28.29115 -28.86293
#
# Velocity S-wave (km/s) = -5.62056 3.22339 -3.25580
# Velocity P-wave (km/s) = 5.82459 5.10211 1.98675
#
# Compressibility (1/GPa) = 0.04481482
#
# Stress axis : x y z
#
# Youngs Moduli (GPa) = 31.34834 98.11622 118.56286
#
# Poissons Ratio (x) = -0.11534 0.44677
# Poissons Ratio (y) = -0.03685 0.03116
# Poissons Ratio (z) = 0.11813 0.02579
#
# Static dielectric constant tensor:
#      x y z
#    x 2.163330 0.000000 -0.045680 
#    y 0.000000 2.209140 0.000000 
#    z -0.045680 0.000000 2.549410 
# 
# From -- ./inp_files/67592.got.cif
#   From: 2010.05.17/outbox.cif.g08.bks.cpg/sg5_34_cif.got.tgz:67592.got - 2010.06.03 18:56:24.
