data_PCOD9120090
_publ_section_title
;
Structure prediction by ZEFSAII (Michael W. Deem and Ramdas Pophale) SiO2 
 PCOD9120090
Probable space group: C 2
;
_chemical_formula_sum "Si O2"
_cell_formula_units_Z 30
_cell_length_a 15.698849
_cell_length_b 7.402531
_cell_length_c 9.473599
_cell_angle_alpha 90.000000
_cell_angle_beta 98.286578
_cell_angle_gamma 90.000000
_cell_volume 1089.444202
_symmetry_space_group_name_H-M "C 2"
_symmetry_group_IT_number 5
_symmetry_cell_setting 'monoclinic'
loop_
_space_group_symop_operation_xyz
x,y,z
-x,y,-z
1/2+x,1/2+y,z
1/2-x,1/2+y,-z
loop_
_atom_site_type_symbol
_atom_site_label
_atom_site_fract_x
_atom_site_fract_y
_atom_site_fract_z
Si Si1 0.854838 0.395470 0.810176
Si Si2 0.000000 0.186394 0.000000
Si Si3 0.172513 0.312580 0.500289
Si Si4 0.910088 0.269206 0.243537
Si Si5 0.887703 0.734839 0.968417
Si Si6 0.028184 0.689414 0.729363
Si Si7 0.758157 0.441553 0.035606
Si Si8 0.133427 0.735203 0.499696
O O1 0.851026 0.281411 0.668222
O O2 0.852793 0.520135 0.491577
O O3 0.764923 0.400708 0.869670
O O4 0.920458 0.308844 0.934686
O O5 0.963713 0.138258 0.151020
O O6 0.117254 0.209232 0.605154
O O7 0.275670 0.306507 0.534255
O O8 0.385410 0.105510 0.829625
O O9 0.960977 0.465548 0.268536
O O10 0.817394 0.317139 0.150856
O O11 0.961522 0.745856 0.104656
O O12 0.814083 0.624195 0.041492
O O13 0.839420 0.924975 0.932644
O O14 0.105838 0.772007 0.653577
O O15 0.947532 0.764474 0.621164
#
# Coordination Sequence:
#
# PCOD9120090 Si02
#       8
#     4   2   4   4   4   4   4   4
#     4   9  20  30  57  82 117 150 196 244 304 352
#     4  10  16  36  54  86 112 156 200 260 288 356
#     4  11  22  36  56  94 123 163 199 260 307 370
#     4   9  19  33  55  84 124 151 206 253 303 350
#     4   9  17  32  57  85 119 154 204 248 297 357
#     4   9  17  38  59  87 116 170 202 254 292 369
#     4   8  17  31  51  83 118 154 195 248 292 362
#     4  10  22  35  63  86 129 159 212 251 309 364
#
# _framework density 27.536977
#
# number of rings (size 3 to 8) (size 9 to 14) (size 15 to 20)
#    0.800    1.867    1.333    1.600    1.867    1.600 
#    0.000    0.000    0.000   16.000    0.000    3.733 
#    0.000    0.000    0.000    0.000    0.000    0.000 
#
# Total GULP energy -83515.973684 kJ/mol
# GULP energy per Si atom -5567.731579 kJ/mol
# Density = 2.747430 g / cm^3
# Si number density = 27.536977 Si / 1000 Ang^3
#
#
#
# Elastic Constant Matrix: (Units=GPa)
#
#
# Indices 1 2 3 4 5 6 
#
# 1 55.8219 -7.8639 61.4520 0.0000 8.6689 0.0000
# 2 -7.8639 42.7754 7.6113 0.0000 -4.2501 0.0000
# 3 61.4520 7.6113 196.1076 0.0000 -26.3072 0.0000
# 4 0.0000 0.0000 0.0000 5.2600 0.0000 19.8407
# 5 8.6689 -4.2501 -26.3072 0.0000 59.8856 0.0000
# 6 0.0000 0.0000 0.0000 19.8407 0.0000 12.3316
#
#
#
# Elastic Compliance Matrix: (Units=1/GPa)
#
#
# Indices 1 2 3 4 5 6 
#
# 1 0.033951 0.007449 -0.012238 0.000000 -0.009762 0.000000
# 2 0.007449 0.025278 -0.003421 0.000000 -0.000787 0.000000
# 3 -0.012238 -0.003421 0.009852 0.000000 0.005857 0.000000
# 4 0.000000 0.000000 0.000000 -0.037506 0.000000 0.060345
# 5 -0.009762 -0.000787 0.005857 0.000000 0.020629 0.000000
# 6 0.000000 0.000000 0.000000 0.060345 0.000000 -0.015998
#
#
# Mechanical properties :
#
#
# Convention : Reuss Voigt Hill
#
# Bulk Modulus (GPa) = 18.98859 46.34487 32.66673
# Shear Modulus (GPa) = 71.24651 31.06248 51.15450
#
# Velocity S-wave (km/s) = 5.09207 3.36226 4.31474
# Velocity P-wave (km/s) = 6.44072 5.65151 6.05898
#
# Compressibility (1/GPa) = 0.05266320
#
# Stress axis : x y z
#
# Youngs Moduli (GPa) = 29.45387 39.56018 101.49765
#
# Poissons Ratio (x) = -0.29470 1.24209
# Poissons Ratio (y) = -0.21941 0.34722
# Poissons Ratio (z) = 0.36045 0.13534
#
# Static dielectric constant tensor:
#      x y z
#    x 2.441880 0.000000 -0.119750 
#    y 0.000000 2.288630 0.000000 
#    z -0.119750 0.000000 2.306210 
# 
# From -- ./inp_files/27288.got.cif
#   From: 2010.05.17/outbox.cif.g08.bks.cpg/sg5_14_cif.got.tgz:27288.got - 2010.06.03 18:56:24.
