data_PCOD9120968
_publ_section_title
;
Structure prediction by ZEFSAII (Michael W. Deem and Ramdas Pophale) SiO2 
 PCOD9120968
Probable space group: C 2
;
_chemical_formula_sum "Si O2"
_cell_formula_units_Z 26
_cell_length_a 20.357793
_cell_length_b 15.909742
_cell_length_c 8.585911
_cell_angle_alpha 90.000000
_cell_angle_beta 30.791124
_cell_angle_gamma 90.000000
_cell_volume 1423.553033
_symmetry_space_group_name_H-M "C 2"
_symmetry_group_IT_number 5
_symmetry_cell_setting 'monoclinic'
loop_
_space_group_symop_operation_xyz
x,y,z
-x,y,-z
1/2+x,1/2+y,z
1/2-x,1/2+y,-z
loop_
_atom_site_type_symbol
_atom_site_label
_atom_site_fract_x
_atom_site_fract_y
_atom_site_fract_z
Si Si1 0.381499 0.413100 0.653262
Si Si2 0.546101 0.145813 0.228518
Si Si3 0.901142 0.779460 0.342220
Si Si4 0.500000 0.829512 0.500000
Si Si5 0.365996 0.961675 0.006522
Si Si6 0.743172 0.787645 0.174365
Si Si7 0.648226 0.833161 0.702678
O O1 0.500000 0.455908 0.500000
O O2 0.421246 0.352085 0.429904
O O3 0.269609 0.469285 0.807861
O O4 0.322374 0.350897 0.903610
O O5 0.500000 0.143727 0.500000
O O6 0.439841 0.192517 0.342408
O O7 0.672210 0.205428 0.964510
O O8 0.569740 0.051826 0.124151
O O9 0.753860 0.781202 0.586201
O O10 0.000000 0.794451 0.000000
O O11 0.612485 0.774174 0.344528
O O12 0.443851 0.891859 0.747433
O O13 0.351894 0.922156 0.206671
O O14 0.703163 0.831936 0.416846
O O15 0.500000 0.803214 0.000000
#
# Coordination Sequence:
#
# PCOD9120968 Si02
#       7
#     4   4   4   2   4   4   4
#     4  10  18  37  62  88 115 161 213 248 296 374
#     4  12  22  39  61  94 124 155 206 265 306 362
#     4  11  20  36  61  95 118 160 208 255 303 367
#     4  10  20  38  60  88 114 162 206 240 298 378
#     4  10  23  36  60  89 125 153 201 254 312 357
#     4  11  20  37  63  88 116 164 210 254 298 371
#     4  11  22  38  60  89 122 162 207 256 301 373
#
# _framework density 18.264158999999999
#
# number of rings (size 3 to 8) (size 9 to 14) (size 15 to 20)
#    0.000    1.231    6.923    0.000    0.000    0.615 
#    1.385    0.000    0.000    3.692    0.000    0.000 
#    0.000    0.000    0.000    0.000    0.000    0.000 
#
# Total GULP energy -72515.025612 kJ/mol
# GULP energy per Si atom -5578.078893 kJ/mol
# Density = 1.822259 g / cm^3
# Si number density = 18.264159 Si / 1000 Ang^3
#
#
#
# Elastic Constant Matrix: (Units=GPa)
#
#
# Indices 1 2 3 4 5 6 
#
# 1 116.5788 41.5496 47.4459 0.0000 -19.3521 0.0000
# 2 41.5496 63.8346 35.8151 0.0000 0.1246 0.0000
# 3 47.4459 35.8151 89.7864 0.0000 7.8428 0.0000
# 4 0.0000 0.0000 0.0000 20.7996 0.0000 1.6211
# 5 -19.3521 0.1246 7.8428 0.0000 63.6714 0.0000
# 6 0.0000 0.0000 0.0000 1.6211 0.0000 12.3049
#
#
#
# Elastic Compliance Matrix: (Units=1/GPa)
#
#
# Indices 1 2 3 4 5 6 
#
# 1 0.013627 -0.005931 -0.005254 0.000000 0.004801 0.000000
# 2 -0.005931 0.022822 -0.005871 0.000000 -0.001124 0.000000
# 3 -0.005254 -0.005871 0.016573 0.000000 -0.003627 0.000000
# 4 0.000000 0.000000 0.000000 0.048577 0.000000 -0.006400
# 5 0.004801 -0.001124 -0.003627 0.000000 0.017614 0.000000
# 6 0.000000 0.000000 0.000000 -0.006400 0.000000 0.082112
#
#
# Mechanical properties :
#
#
# Convention : Reuss Voigt Hill
#
# Bulk Modulus (GPa) = 52.88555 57.75790 55.32172
# Shear Modulus (GPa) = 20.68325 29.04777 24.86551
#
# Velocity S-wave (km/s) = 3.36884 3.99234 3.69377
# Velocity P-wave (km/s) = 6.64461 7.27626 6.96760
#
# Compressibility (1/GPa) = 0.01890876
#
# Stress axis : x y z
#
# Youngs Moduli (GPa) = 73.38262 43.81663 60.33915
#
# Poissons Ratio (x) = 0.25988 0.31705
# Poissons Ratio (y) = 0.43524 0.35427
# Poissons Ratio (z) = 0.38559 0.25726
#
# Static dielectric constant tensor:
#      x y z
#    x 1.668920 0.000000 -0.023080 
#    y 0.000000 1.574120 0.000000 
#    z -0.023080 0.000000 1.667050 
# 
# From -- ./inp_files/20081.got.cif
#   From: 2010.05.17/outbox.cif.g08.bks.cpg/sg5_11_cif.got.tgz:20081.got - 2010.06.03 18:56:24.
