data_PCOD9120547
_publ_section_title
;
Structure prediction by ZEFSAII (Michael W. Deem and Ramdas Pophale) SiO2 
 PCOD9120547
Probable space group: C 2
;
_chemical_formula_sum "Si O2"
_cell_formula_units_Z 32
_cell_length_a 8.550176
_cell_length_b 25.527343
_cell_length_c 14.522580
_cell_angle_alpha 90.000000
_cell_angle_beta 148.822596
_cell_angle_gamma 90.000000
_cell_volume 1640.944588
_symmetry_space_group_name_H-M "C 2"
_symmetry_group_IT_number 5
_symmetry_cell_setting 'monoclinic'
loop_
_space_group_symop_operation_xyz
x,y,z
-x,y,-z
1/2+x,1/2+y,z
1/2-x,1/2+y,-z
loop_
_atom_site_type_symbol
_atom_site_label
_atom_site_fract_x
_atom_site_fract_y
_atom_site_fract_z
Si Si1 0.638303 0.551750 0.674201
Si Si2 0.681316 0.743536 0.493014
Si Si3 0.641174 0.938227 0.801515
Si Si4 0.350166 0.052487 0.194337
Si Si5 0.645114 0.166734 0.800205
Si Si6 0.757257 0.441267 0.795832
Si Si7 0.695444 0.863769 0.505679
Si Si8 0.234173 0.661709 0.201105
O O1 0.500000 0.551519 0.500000
O O2 0.590015 0.497927 0.703684
O O3 0.587693 0.606372 0.699871
O O4 0.992764 0.552051 0.826601
O O5 0.500000 0.743248 0.500000
O O6 0.741731 0.803608 0.499419
O O7 0.466709 0.710061 0.317416
O O8 0.991406 0.711731 0.663094
O O9 0.449389 0.935748 0.798781
O O10 0.508141 0.894017 0.670290
O O11 0.578558 0.996165 0.726547
O O12 0.000000 0.933252 0.000000
O O13 0.416976 0.108581 0.272832
O O14 0.000000 0.052510 0.000000
O O15 0.461826 0.166854 0.804029
O O16 0.000000 0.173148 0.000000
O O17 0.506569 0.395858 0.675651
O O18 0.000000 0.440655 0.000000
O O19 0.500000 0.863508 0.500000
O O20 0.000000 0.660928 0.000000
#
# Coordination Sequence:
#
# PCOD9120547 Si02
#       8
#     4   4   4   4   4   4   4   4
#     4  10  18  32  57  84 111 145 180 219 274 339
#     4   9  20  37  56  76 105 146 190 227 271 327
#     4  10  20  37  59  84 113 147 183 229 285 339
#     4   8  15  28  52  80 105 132 168 211 268 331
#     4   9  17  34  58  80 105 140 177 220 274 333
#     4  11  22  37  58  87 116 147 187 234 284 339
#     4  11  23  39  56  79 111 152 197 238 277 329
#     4  10  19  34  56  84 112 141 178 226 277 331
#
# _framework density 19.500962000000001
#
# number of rings (size 3 to 8) (size 9 to 14) (size 15 to 20)
#    0.000    2.250    0.000    4.875    0.000    1.000 
#    0.000    6.875    0.000    0.000    0.000    0.000 
#    0.000    0.000    0.000    0.000    0.000    0.000 
#
# Total GULP energy -89166.752836 kJ/mol
# GULP energy per Si atom -5572.922052 kJ/mol
# Density = 1.945658 g / cm^3
# Si number density = 19.500962 Si / 1000 Ang^3
#
#
#
# Elastic Constant Matrix: (Units=GPa)
#
#
# Indices 1 2 3 4 5 6 
#
# 1 32.0866 30.0231 23.6198 0.0000 7.0891 0.0000
# 2 30.0231 232.6402 103.1116 0.0000 -5.6293 0.0000
# 3 23.6198 103.1116 148.0006 0.0000 -2.3196 0.0000
# 4 0.0000 0.0000 0.0000 16.9462 0.0000 7.0684
# 5 7.0891 -5.6293 -2.3196 0.0000 34.5681 0.0000
# 6 0.0000 0.0000 0.0000 7.0684 0.0000 19.9865
#
#
#
# Elastic Compliance Matrix: (Units=1/GPa)
#
#
# Indices 1 2 3 4 5 6 
#
# 1 0.039360 -0.003543 -0.003953 0.000000 -0.008914 0.000000
# 2 -0.003543 0.006556 -0.003978 0.000000 0.001527 0.000000
# 3 -0.003953 -0.003978 0.010172 0.000000 0.000845 0.000000
# 4 0.000000 0.000000 0.000000 0.069221 0.000000 -0.024481
# 5 -0.008914 0.001527 0.000845 0.000000 0.031062 0.000000
# 6 0.000000 0.000000 0.000000 -0.024481 0.000000 0.058692
#
#
# Mechanical properties :
#
#
# Convention : Reuss Voigt Hill
#
# Bulk Modulus (GPa) = 30.17476 80.69293 55.43385
# Shear Modulus (GPa) = 20.07564 31.36503 25.72034
#
# Velocity S-wave (km/s) = 3.21201 4.01482 3.63564
# Velocity P-wave (km/s) = 5.40954 7.93476 6.79057
#
# Compressibility (1/GPa) = 0.03314028
#
# Stress axis : x y z
#
# Youngs Moduli (GPa) = 25.40637 152.53472 98.30647
#
# Poissons Ratio (x) = 0.54049 0.38857
# Poissons Ratio (y) = 0.09002 0.39107
# Poissons Ratio (z) = 0.10042 0.60679
#
# Static dielectric constant tensor:
#      x y z
#    x 1.717540 0.000000 0.019750 
#    y 0.000000 1.737740 0.000000 
#    z 0.019750 0.000000 1.705130 
# 
# From -- ./inp_files/51718.got.cif
#   From: 2010.05.17/outbox.cif.g08.bks.cpg/sg5_26_cif.got.tgz:51718.got - 2010.06.03 18:56:24.
