data_PCOD9120313
_publ_section_title
;
Structure prediction by ZEFSAII (Michael W. Deem and Ramdas Pophale) SiO2 
 PCOD9120313
Probable space group: C 2
;
_chemical_formula_sum "Si O2"
_cell_formula_units_Z 30
_cell_length_a 12.480268
_cell_length_b 8.882649
_cell_length_c 16.338517
_cell_angle_alpha 90.000000
_cell_angle_beta 130.346113
_cell_angle_gamma 90.000000
_cell_volume 1380.441777
_symmetry_space_group_name_H-M "C 2"
_symmetry_group_IT_number 5
_symmetry_cell_setting 'monoclinic'
loop_
_space_group_symop_operation_xyz
x,y,z
-x,y,-z
1/2+x,1/2+y,z
1/2-x,1/2+y,-z
loop_
_atom_site_type_symbol
_atom_site_label
_atom_site_fract_x
_atom_site_fract_y
_atom_site_fract_z
Si Si1 0.850420 0.347860 0.091127
Si Si2 0.973944 0.878880 0.073530
Si Si3 0.479177 0.106294 0.242522
Si Si4 0.832258 0.581866 0.801804
Si Si5 0.579652 0.961756 0.615271
Si Si6 0.500000 0.866708 0.000000
Si Si7 0.104801 0.936366 0.290925
Si Si8 0.028201 0.185314 0.686602
O O1 0.871176 0.527506 0.124083
O O2 0.920573 0.269883 0.204940
O O3 0.684785 0.322911 0.003101
O O4 0.920660 0.300968 0.040099
O O5 0.082048 0.736884 0.134891
O O6 0.013547 0.986208 0.167103
O O7 0.000000 0.954328 0.000000
O O8 0.619524 0.040129 0.266670
O O9 0.523459 0.281353 0.272164
O O10 0.424845 0.058957 0.304484
O O11 0.883137 0.466874 0.895643
O O12 0.667821 0.601692 0.725763
O O13 0.500000 0.034486 0.500000
O O14 0.497393 0.811257 0.603679
O O15 0.736276 0.920569 0.662558
O O16 0.090447 0.064786 0.351390
#
# Coordination Sequence:
#
# PCOD9120313 Si02
#       8
#     4   4   4   4   4   2   4   4
#     4  10  20  34  59  93 128 178 216 255 301 372
#     4  11  17  33  61  85 127 173 216 244 300 367
#     4   9  21  42  64  91 132 168 208 266 326 371
#     4  10  17  35  62  84 131 171 207 256 311 366
#     4  11  24  47  71  92 123 161 213 273 336 393
#     4  10  18  30  50  90 124 174 214 246 294 362
#     4  11  24  41  64  95 130 170 208 270 318 381
#     4  11  21  43  64  95 127 169 215 260 326 379
#
# _framework density 21.732173
#
# number of rings (size 3 to 8) (size 9 to 14) (size 15 to 20)
#    0.000    1.600    4.667    1.600    0.000    3.200 
#   13.200    0.667    0.000    0.000    0.000    0.000 
#    0.000    0.000    0.000    0.000    0.000    0.000 
#
# Total GULP energy -83547.285019 kJ/mol
# GULP energy per Si atom -5569.819001 kJ/mol
# Density = 2.168271 g / cm^3
# Si number density = 21.732173 Si / 1000 Ang^3
#
#
#
# Elastic Constant Matrix: (Units=GPa)
#
#
# Indices 1 2 3 4 5 6 
#
# 1 117.2244 33.0502 26.7800 0.0000 -18.7331 0.0000
# 2 33.0502 55.2918 2.1860 0.0000 4.3359 0.0000
# 3 26.7800 2.1860 43.9328 0.0000 -8.0716 0.0000
# 4 0.0000 0.0000 0.0000 9.7437 0.0000 -2.4755
# 5 -18.7331 4.3359 -8.0716 0.0000 12.8666 0.0000
# 6 0.0000 0.0000 0.0000 -2.4755 0.0000 18.9818
#
#
#
# Elastic Compliance Matrix: (Units=1/GPa)
#
#
# Indices 1 2 3 4 5 6 
#
# 1 0.017313 -0.012190 -0.005155 0.000000 0.026081 0.000000
# 2 -0.012190 0.027376 0.001258 0.000000 -0.026185 0.000000
# 3 -0.005155 0.001258 0.027562 0.000000 0.009361 0.000000
# 4 0.000000 0.000000 0.000000 0.106147 0.000000 0.013843
# 5 0.026081 -0.026185 0.009361 0.000000 0.130390 0.000000
# 6 0.000000 0.000000 0.000000 0.013843 0.000000 0.054487
#
#
# Mechanical properties :
#
#
# Convention : Reuss Voigt Hill
#
# Bulk Modulus (GPa) = 24.95278 37.83125 31.39201
# Shear Modulus (GPa) = 12.23065 18.61395 15.42230
#
# Velocity S-wave (km/s) = 2.37489 2.92980 2.66682
# Velocity P-wave (km/s) = 4.36200 5.37501 4.89478
#
# Compressibility (1/GPa) = 0.04007570
#
# Stress axis : x y z
#
# Youngs Moduli (GPa) = 57.75962 36.52820 36.28221
#
# Poissons Ratio (x) = 0.44529 0.18704
# Poissons Ratio (y) = 0.70410 -0.04563
# Poissons Ratio (z) = 0.29776 -0.04594
#
# Static dielectric constant tensor:
#      x y z
#    x 1.811960 0.000000 -0.031690 
#    y 0.000000 1.896630 0.000000 
#    z -0.031690 0.000000 1.791780 
# 
# From -- ./inp_files/52752.got.cif
#   From: 2010.05.17/outbox.cif.g08.bks.cpg/sg5_27_cif.got.tgz:52752.got - 2010.06.03 18:56:24.
