data_PCOD9120029
_publ_section_title
;
Structure prediction by ZEFSAII (Michael W. Deem and Ramdas Pophale) SiO2 
 PCOD9120029
Probable space group: C 2
;
_chemical_formula_sum "Si O2"
_cell_formula_units_Z 26
_cell_length_a 12.582522
_cell_length_b 17.549652
_cell_length_c 8.928896
_cell_angle_alpha 90.000000
_cell_angle_beta 139.284318
_cell_angle_gamma 90.000000
_cell_volume 1286.131180
_symmetry_space_group_name_H-M "C 2"
_symmetry_group_IT_number 5
_symmetry_cell_setting 'monoclinic'
loop_
_space_group_symop_operation_xyz
x,y,z
-x,y,-z
1/2+x,1/2+y,z
1/2-x,1/2+y,-z
loop_
_atom_site_type_symbol
_atom_site_label
_atom_site_fract_x
_atom_site_fract_y
_atom_site_fract_z
Si Si1 0.000000 0.131011 0.000000
Si Si2 0.683692 0.221610 0.133224
Si Si3 0.171813 0.130373 0.466711
Si Si4 0.239398 0.513372 0.850266
Si Si5 0.030783 0.960786 0.360689
Si Si6 0.474395 0.149009 0.302389
Si Si7 0.318273 0.386623 0.741092
O O1 0.946419 0.168361 0.785381
O O2 0.850970 0.076049 0.885249
O O3 0.810696 0.166260 0.350018
O O4 0.727602 0.305554 0.239254
O O5 0.500000 0.209700 0.000000
O O6 0.651661 0.201707 0.925663
O O7 0.350920 0.142469 0.588939
O O8 0.117626 0.042920 0.428938
O O9 0.097993 0.563549 0.769150
O O10 0.201435 0.450529 0.684690
O O11 0.353352 0.472700 0.094911
O O12 0.142833 0.899080 0.392433
O O13 0.000000 0.943268 0.500000
O O14 0.500000 0.175602 0.500000
O O15 0.500000 0.403483 0.000000
#
# Coordination Sequence:
#
# PCOD9120029 Si02
#       7
#     2   4   4   4   4   4   4
#     4  10  16  32  56  78 100 146 194 226 264 312
#     4   9  20  33  51  81 117 144 174 235 285 318
#     4  10  19  34  52  85 111 143 183 235 273 319
#     4  10  17  32  55  80 109 144 184 226 272 325
#     4  10  18  31  57  83 104 144 194 225 266 325
#     4  11  19  32  56  85 113 145 184 224 280 337
#     4   9  16  34  52  76 115 143 179 227 280 321
#
# _framework density 20.215667
#
# number of rings (size 3 to 8) (size 9 to 14) (size 15 to 20)
#    0.000    2.154    5.385    0.923    0.000    0.000 
#    0.000   12.308    0.000   13.846   10.000    0.000 
#    0.000    0.000    0.000    0.000    0.000    0.000 
#
# Total GULP energy -72381.503999 kJ/mol
# GULP energy per Si atom -5567.808000 kJ/mol
# Density = 2.016966 g / cm^3
# Si number density = 20.215667 Si / 1000 Ang^3
#
#
#
# Elastic Constant Matrix: (Units=GPa)
#
#
# Indices 1 2 3 4 5 6 
#
# 1 66.5983 23.9373 38.4617 0.0000 -23.7330 0.0000
# 2 23.9373 59.8754 44.1977 0.0000 -14.1745 0.0000
# 3 38.4617 44.1977 107.7019 0.0000 -36.6287 0.0000
# 4 0.0000 0.0000 0.0000 17.3692 0.0000 2.1228
# 5 -23.7330 -14.1745 -36.6287 0.0000 42.0987 0.0000
# 6 0.0000 0.0000 0.0000 2.1228 0.0000 12.8239
#
#
#
# Elastic Compliance Matrix: (Units=1/GPa)
#
#
# Indices 1 2 3 4 5 6 
#
# 1 0.021133 -0.004287 -0.003163 0.000000 0.007719 0.000000
# 2 -0.004287 0.024843 -0.009432 0.000000 -0.002259 0.000000
# 3 -0.003163 -0.009432 0.017893 0.000000 0.010610 0.000000
# 4 0.000000 0.000000 0.000000 0.058762 0.000000 -0.009727
# 5 0.007719 -0.002259 0.010610 0.000000 0.036576 0.000000
# 6 0.000000 0.000000 0.000000 -0.009727 0.000000 0.079589
#
#
# Mechanical properties :
#
#
# Convention : Reuss Voigt Hill
#
# Bulk Modulus (GPa) = 33.21586 49.70765 41.46176
# Shear Modulus (GPa) = 17.69316 22.96363 20.32839
#
# Velocity S-wave (km/s) = 2.96162 3.37402 3.17452
# Velocity P-wave (km/s) = 5.30673 6.31036 5.83018
#
# Compressibility (1/GPa) = 0.03010610
#
# Stress axis : x y z
#
# Youngs Moduli (GPa) = 47.31846 40.25301 55.88721
#
# Poissons Ratio (x) = 0.17256 0.17675
# Poissons Ratio (y) = 0.20285 0.52713
# Poissons Ratio (z) = 0.14965 0.37967
#
# Static dielectric constant tensor:
#      x y z
#    x 1.764170 0.000000 -0.042120 
#    y 0.000000 1.742300 0.000000 
#    z -0.042120 0.000000 1.798030 
# 
# From -- ./inp_files/21379.got.cif
#   From: 2010.05.17/outbox.cif.g08.bks.cpg/sg5_11_cif.got.tgz:21379.got - 2010.06.03 18:56:24.
