data_PCOD9120764
_publ_section_title
;
Structure prediction by ZEFSAII (Michael W. Deem and Ramdas Pophale) SiO2 
 PCOD9120764
Probable space group: C 2
;
_chemical_formula_sum "Si O2"
_cell_formula_units_Z 30
_cell_length_a 13.513491
_cell_length_b 11.291812
_cell_length_c 16.913637
_cell_angle_alpha 90.000000
_cell_angle_beta 29.932993
_cell_angle_gamma 90.000000
_cell_volume 1287.826329
_symmetry_space_group_name_H-M "C 2"
_symmetry_group_IT_number 5
_symmetry_cell_setting 'monoclinic'
loop_
_space_group_symop_operation_xyz
x,y,z
-x,y,-z
1/2+x,1/2+y,z
1/2-x,1/2+y,-z
loop_
_atom_site_type_symbol
_atom_site_label
_atom_site_fract_x
_atom_site_fract_y
_atom_site_fract_z
Si Si1 0.029500 0.453630 0.235994
Si Si2 0.869713 0.484191 0.998783
Si Si3 0.107555 0.880848 0.503152
Si Si4 0.598254 0.139948 0.556232
Si Si5 0.297352 0.338653 0.185159
Si Si6 0.803954 0.083512 0.258832
Si Si7 0.697453 0.585848 0.259223
Si Si8 0.000000 0.262599 0.000000
O O1 0.841907 0.385430 0.329953
O O2 0.920948 0.565244 0.351354
O O3 0.173080 0.480458 0.063859
O O4 0.146025 0.387026 0.223766
O O5 0.100136 0.526451 0.847331
O O6 0.736859 0.577391 0.137997
O O7 0.856776 0.357921 0.053888
O O8 0.083455 0.779104 0.584638
O O9 0.000000 0.830358 0.500000
O O10 0.992659 0.003878 0.594299
O O11 0.775772 0.110821 0.371502
O O12 0.406169 0.101739 0.639613
O O13 0.347720 0.445503 0.210167
O O14 0.198550 0.219856 0.287832
O O15 0.500000 0.304588 0.000000
O O16 0.934163 0.175202 0.116648
#
# Coordination Sequence:
#
# PCOD9120764 Si02
#       8
#     4   4   4   4   4   4   4   2
#     4  11  26  43  65 106 136 176 232 288 352 414
#     4  10  20  41  67 101 131 175 239 283 339 412
#     4  12  22  44  73  98 135 184 227 291 350 413
#     4  10  22  42  63  96 143 170 231 285 336 427
#     4  11  23  47  67  95 145 184 224 286 349 424
#     4  10  19  39  68  96 128 183 228 277 350 405
#     4  10  22  43  69  95 135 188 226 279 354 414
#     4  10  18  34  74  98 122 178 238 286 338 404
#
# _framework density 23.295067
#
# number of rings (size 3 to 8) (size 9 to 14) (size 15 to 20)
#    0.000    1.600    4.667    2.400    1.867    0.000 
#   16.800    0.000    0.000    0.000    0.000    0.000 
#    0.000    0.000    0.000    0.000    0.000    0.000 
#
# Total GULP energy -83649.721035 kJ/mol
# GULP energy per Si atom -5576.648069 kJ/mol
# Density = 2.324205 g / cm^3
# Si number density = 23.295067 Si / 1000 Ang^3
#
#
#
# Elastic Constant Matrix: (Units=GPa)
#
#
# Indices 1 2 3 4 5 6 
#
# 1 49.3482 16.3472 16.1171 -0.0007 -1.0019 0.0003
# 2 16.3472 154.8553 30.0451 0.0015 22.5556 0.0001
# 3 16.1171 30.0451 59.6435 0.0018 8.7334 0.0002
# 4 -0.0007 0.0015 0.0018 39.2716 -0.0006 3.4779
# 5 -1.0019 22.5556 8.7334 -0.0006 36.6063 -0.0003
# 6 0.0003 0.0001 0.0002 3.4779 -0.0003 5.2635
#
#
#
# Elastic Compliance Matrix: (Units=1/GPa)
#
#
# Indices 1 2 3 4 5 6 
#
# 1 0.022772 -0.001739 -0.005726 0.000001 0.003061 -0.000002
# 2 -0.001739 0.007802 -0.002849 0.000000 -0.004175 0.000000
# 3 -0.005726 -0.002849 0.020221 -0.000001 -0.003225 0.000000
# 4 0.000001 0.000000 -0.000001 0.027046 0.000001 -0.017871
# 5 0.003061 -0.004175 -0.003225 0.000001 0.030744 0.000001
# 6 -0.000002 0.000000 0.000000 -0.017871 0.000001 0.201798
#
#
# Mechanical properties :
#
#
# Convention : Reuss Voigt Hill
#
# Bulk Modulus (GPa) = 33.14768 43.20734 38.17751
# Shear Modulus (GPa) = 14.65989 29.65079 22.15534
#
# Velocity S-wave (km/s) = 2.51133 3.57155 3.08730
# Velocity P-wave (km/s) = 4.76124 5.96625 5.39748
#
# Compressibility (1/GPa) = 0.03016802
#
# Stress axis : x y z
#
# Youngs Moduli (GPa) = 43.91286 128.17021 49.45346
#
# Poissons Ratio (x) = 0.22287 0.28317
# Poissons Ratio (y) = 0.07636 0.14089
# Poissons Ratio (z) = 0.25144 0.36516
#
# Static dielectric constant tensor:
#      x y z
#    x 1.841250 0.000000 0.083810 
#    y 0.000000 1.941160 0.000000 
#    z 0.083810 0.000000 1.914600 
# 
# From -- ./inp_files/61625.got.cif
#   From: 2010.05.17/outbox.cif.g08.bks.cpg/sg5_31_cif.got.tgz:61625.got - 2010.06.03 18:56:24.
