data_PCOD9120158
_publ_section_title
;
Structure prediction by ZEFSAII (Michael W. Deem and Ramdas Pophale) SiO2 
 PCOD9120158
Probable space group: C 2
;
_chemical_formula_sum "Si O2"
_cell_formula_units_Z 20
_cell_length_a 13.421588
_cell_length_b 4.955520
_cell_length_c 17.257383
_cell_angle_alpha 90.000000
_cell_angle_beta 39.667585
_cell_angle_gamma 90.000000
_cell_volume 732.681089
_symmetry_space_group_name_H-M "C 2"
_symmetry_group_IT_number 5
_symmetry_cell_setting 'monoclinic'
loop_
_space_group_symop_operation_xyz
x,y,z
-x,y,-z
1/2+x,1/2+y,z
1/2-x,1/2+y,-z
loop_
_atom_site_type_symbol
_atom_site_label
_atom_site_fract_x
_atom_site_fract_y
_atom_site_fract_z
Si Si1 0.596686 0.832710 0.377597
Si Si2 0.140881 0.966357 0.569050
Si Si3 0.163937 0.755112 0.200235
Si Si4 0.616624 0.039419 0.813376
Si Si5 0.933603 0.055300 0.952959
O O1 0.500000 0.992365 0.500000
O O2 0.475365 0.604955 0.422947
O O3 0.751811 0.686270 0.315926
O O4 0.642809 0.025556 0.278893
O O5 0.260455 0.207215 0.517652
O O6 0.009216 0.867739 0.709386
O O7 0.254457 0.636018 0.072298
O O8 0.277050 0.976418 0.173288
O O9 0.481149 0.251904 0.909360
O O10 0.533366 0.761816 0.840904
O O11 0.000000 0.103192 0.000000
#
# Coordination Sequence:
#
# PCOD9120158 Si02
#       5
#     4   4   4   4   4
#     4  11  23  38  59  93 132 158 193 248 308 374
#     4  11  23  42  59  84 124 166 212 244 290 359
#     4  10  21  32  60  85 123 154 201 248 303 349
#     4  10  19  32  50  83 123 152 186 239 313 345
#     4  10  17  29  52  80 119 145 191 250 301 341
#
# _framework density 27.297008000000002
#
# number of rings (size 3 to 8) (size 9 to 14) (size 15 to 20)
#    0.000    1.600    6.000    1.800    2.800    3.200 
#    0.000    0.000    0.000    0.000    0.000    5.600 
#    0.000    0.000    0.000    0.000    0.000    0.000 
#
# Total GULP energy -55943.328754 kJ/mol
# GULP energy per Si atom -5594.332875 kJ/mol
# Density = 2.723488 g / cm^3
# Si number density = 27.297008 Si / 1000 Ang^3
#
#
#
# Elastic Constant Matrix: (Units=GPa)
#
#
# Indices 1 2 3 4 5 6 
#
# 1 82.0612 35.4249 62.6582 -0.0025 -31.0540 0.0028
# 2 35.4249 191.1071 91.7528 -0.0091 -17.5931 0.0123
# 3 62.6582 91.7528 212.3068 -0.0028 -22.5091 0.0030
# 4 -0.0025 -0.0091 -0.0028 62.0882 0.0009 -9.3427
# 5 -31.0540 -17.5931 -22.5091 0.0009 31.6798 -0.0019
# 6 0.0028 0.0123 0.0030 -9.3427 -0.0019 3.7020
#
#
#
# Elastic Compliance Matrix: (Units=1/GPa)
#
#
# Indices 1 2 3 4 5 6 
#
# 1 0.023145 -0.000278 -0.004674 0.000000 0.019213 -0.000003
# 2 -0.000278 0.006699 -0.002647 -0.000003 0.001567 -0.000027
# 3 -0.004674 -0.002647 0.007129 0.000001 -0.000986 0.000009
# 4 0.000000 -0.000003 0.000001 0.025967 0.000002 0.065534
# 5 0.019213 0.001567 -0.000986 0.000002 0.050569 0.000013
# 6 -0.000003 -0.000027 0.000009 0.065534 0.000013 0.435511
#
#
# Mechanical properties :
#
#
# Convention : Reuss Voigt Hill
#
# Bulk Modulus (GPa) = 45.92136 96.12743 71.02440
# Shear Modulus (GPa) = 8.74926 39.20328 23.97627
#
# Velocity S-wave (km/s) = 1.79225 3.79380 2.96691
# Velocity P-wave (km/s) = 4.59807 7.38122 6.14917
#
# Compressibility (1/GPa) = 0.02177636
#
# Stress axis : x y z
#
# Youngs Moduli (GPa) = 43.20514 149.26805 140.27158
#
# Poissons Ratio (x) = 0.04144 0.65562
# Poissons Ratio (y) = 0.01200 0.37132
# Poissons Ratio (z) = 0.20194 0.39513
#
# Static dielectric constant tensor:
#      x y z
#    x 2.204890 0.000000 0.079270 
#    y 0.000000 2.097050 0.000000 
#    z 0.079270 0.000000 2.248870 
# 
# From -- ./inp_files/68485.got.cif
#   From: 2010.05.17/outbox.cif.g08.bks.cpg/sg5_35_cif.got.tgz:68485.got - 2010.06.03 18:56:24.
