data_PCOD9120095
_publ_section_title
;
Structure prediction by ZEFSAII (Michael W. Deem and Ramdas Pophale) SiO2 
 PCOD9120095
Probable space group: C 2
;
_chemical_formula_sum "Si O2"
_cell_formula_units_Z 24
_cell_length_a 12.415668
_cell_length_b 6.774409
_cell_length_c 10.270764
_cell_angle_alpha 90.000000
_cell_angle_beta 72.142696
_cell_angle_gamma 90.000000
_cell_volume 822.243654
_symmetry_space_group_name_H-M "C 2"
_symmetry_group_IT_number 5
_symmetry_cell_setting 'monoclinic'
loop_
_space_group_symop_operation_xyz
x,y,z
-x,y,-z
1/2+x,1/2+y,z
1/2-x,1/2+y,-z
loop_
_atom_site_type_symbol
_atom_site_label
_atom_site_fract_x
_atom_site_fract_y
_atom_site_fract_z
Si Si1 0.790032 0.171170 0.749803
Si Si2 0.166168 0.633552 0.052659
Si Si3 0.000000 0.755876 0.500000
Si Si4 0.464182 0.783114 0.296543
Si Si5 0.768953 0.710193 0.681257
Si Si6 0.500000 0.809145 0.000000
Si Si7 0.950752 0.758354 0.249243
O O1 0.917088 0.243829 0.678260
O O2 0.679719 0.285720 0.736112
O O3 0.780217 0.945596 0.706347
O O4 0.763172 0.182676 0.914279
O O5 0.219342 0.617822 0.177123
O O6 0.058927 0.781852 0.114159
O O7 0.102781 0.454557 0.001870
O O8 0.882092 0.644181 0.565385
O O9 0.979529 0.866455 0.372589
O O10 0.338998 0.705978 0.374401
O O11 0.460313 0.021504 0.277376
O O12 0.471134 0.700297 0.143917
#
# Coordination Sequence:
#
# PCOD9120095 Si02
#       7
#     4   4   2   4   4   2   4
#     4  11  20  37  64  97 125 158 211 266 322 368
#     4  10  17  34  64  84 126 167 196 252 325 365
#     4  10  22  46  62  74 128 174 206 260 320 360
#     4  10  20  37  60  94 124 156 210 261 316 373
#     4  10  22  40  59  90 128 166 208 263 308 376
#     4  10  16  36  60  86 132 160 190 264 310 376
#     4   9  20  40  61  89 119 173 207 253 313 374
#
# _framework density 29.188426
#
# number of rings (size 3 to 8) (size 9 to 14) (size 15 to 20)
#    0.000    2.000    5.000    1.000    2.333    0.000 
#   12.000   10.833    0.000    0.000    0.000    0.000 
#    0.000    0.000    0.000    0.000    0.000    0.000 
#
# Total GULP energy -67087.387559 kJ/mol
# GULP energy per Si atom -5590.615630 kJ/mol
# Density = 2.912199 g / cm^3
# Si number density = 29.188426 Si / 1000 Ang^3
#
#
#
# Elastic Constant Matrix: (Units=GPa)
#
#
# Indices 1 2 3 4 5 6 
#
# 1 288.2945 57.8723 21.5487 0.0000 -24.7274 0.0000
# 2 57.8723 107.0765 -10.0528 0.0000 -6.2544 0.0000
# 3 21.5487 -10.0528 87.4890 0.0000 -13.6853 0.0000
# 4 0.0000 0.0000 0.0000 5.4797 0.0000 0.2083
# 5 -24.7274 -6.2544 -13.6853 0.0000 45.1956 0.0000
# 6 0.0000 0.0000 0.0000 0.2083 0.0000 54.8358
#
#
#
# Elastic Compliance Matrix: (Units=1/GPa)
#
#
# Indices 1 2 3 4 5 6 
#
# 1 0.004134 -0.002234 -0.001018 0.000000 0.001645 0.000000
# 2 -0.002234 0.010777 0.001922 0.000000 0.000851 0.000000
# 3 -0.001018 0.001922 0.012445 0.000000 0.003478 0.000000
# 4 0.000000 0.000000 0.000000 0.182517 0.000000 -0.000693
# 5 0.001645 0.000851 0.003478 0.000000 0.024197 0.000000
# 6 0.000000 0.000000 0.000000 -0.000693 0.000000 0.018239
#
#
# Mechanical properties :
#
#
# Convention : Reuss Voigt Hill
#
# Bulk Modulus (GPa) = 40.49199 69.06627 54.77913
# Shear Modulus (GPa) = 18.99688 48.66834 33.83261
#
# Velocity S-wave (km/s) = 2.55392 4.08779 3.40826
# Velocity P-wave (km/s) = 4.75388 6.78186 5.85632
#
# Compressibility (1/GPa) = 0.02469624
#
# Stress axis : x y z
#
# Youngs Moduli (GPa) = 241.88198 92.79341 80.35061
#
# Poissons Ratio (x) = 0.20730 0.08177
# Poissons Ratio (y) = 0.54035 -0.15440
# Poissons Ratio (z) = 0.24616 -0.17831
#
# Static dielectric constant tensor:
#      x y z
#    x 2.245170 0.000000 -0.025310 
#    y 0.000000 2.498020 0.000000 
#    z -0.025310 0.000000 2.334570 
# 
# From -- ./inp_files/38306.got.cif
#   From: 2010.05.17/outbox.cif.g08.bks.cpg/sg5_20_cif.got.tgz:38306.got - 2010.06.03 18:56:24.
