data_PCOD9120999
_publ_section_title
;
Structure prediction by ZEFSAII (Michael W. Deem and Ramdas Pophale) SiO2 
 PCOD9120999
Probable space group: C 2
;
_chemical_formula_sum "Si O2"
_cell_formula_units_Z 26
_cell_length_a 18.522988
_cell_length_b 5.201794
_cell_length_c 12.641283
_cell_angle_alpha 90.000000
_cell_angle_beta 88.264735
_cell_angle_gamma 90.000000
_cell_volume 1217.464035
_symmetry_space_group_name_H-M "C 2"
_symmetry_group_IT_number 5
_symmetry_cell_setting 'monoclinic'
loop_
_space_group_symop_operation_xyz
x,y,z
-x,y,-z
1/2+x,1/2+y,z
1/2-x,1/2+y,-z
loop_
_atom_site_type_symbol
_atom_site_label
_atom_site_fract_x
_atom_site_fract_y
_atom_site_fract_z
Si Si1 0.314652 0.455230 0.751721
Si Si2 0.362382 0.130620 0.937170
Si Si3 0.179060 0.690898 0.830675
Si Si4 0.610267 0.692535 0.727262
Si Si5 0.956041 0.223921 0.795779
Si Si6 0.764061 0.171678 0.434031
Si Si7 0.500000 0.450627 0.000000
O O1 0.314135 0.290355 0.858926
O O2 0.258912 0.687539 0.775867
O O3 0.397395 0.544033 0.741827
O O4 0.286942 0.285642 0.656247
O O5 0.429775 0.282123 0.985357
O O6 0.404061 0.927776 0.859185
O O7 0.316877 0.101796 0.046680
O O8 0.138301 0.456100 0.776864
O O9 0.137736 0.953469 0.800369
O O10 0.524801 0.746235 0.715834
O O11 0.655747 0.650149 0.618108
O O12 0.000160 0.117771 0.895195
O O13 0.761096 0.395356 0.522595
#
# Coordination Sequence:
#
# PCOD9120999 Si02
#       7
#     4   4   4   4   4   4   2
#     4  10  27  40  68 100 138 175 234 294 341 409
#     4  11  23  36  66  98 152 182 231 268 338 413
#     4  11  24  42  66 102 145 191 228 264 340 418
#     4  11  24  45  73 100 135 185 235 281 347 426
#     4  11  23  39  65  97 147 182 230 276 341 406
#     4  11  25  50  78  95 127 177 239 300 368 415
#     4  10  18  38  54 100 132 200 208 264 318 414
#
# _framework density 21.355865999999999
#
# number of rings (size 3 to 8) (size 9 to 14) (size 15 to 20)
#    0.000    1.231    1.538    4.154   12.923    0.000 
#    0.000    0.769    0.000    0.000    0.000    0.000 
#    0.000    0.000    0.000    0.000    0.000    0.000 
#
# Total GULP energy -72421.748120 kJ/mol
# GULP energy per Si atom -5570.903702 kJ/mol
# Density = 2.130726 g / cm^3
# Si number density = 21.355866 Si / 1000 Ang^3
#
#
#
# Elastic Constant Matrix: (Units=GPa)
#
#
# Indices 1 2 3 4 5 6 
#
# 1 142.6286 18.8598 48.2943 0.0000 11.4573 0.0000
# 2 18.8598 74.1151 6.9558 0.0000 -12.2231 0.0000
# 3 48.2943 6.9558 65.4543 0.0000 -26.3349 0.0000
# 4 0.0000 0.0000 0.0000 32.2778 0.0000 8.8176
# 5 11.4573 -12.2231 -26.3349 0.0000 42.4640 0.0000
# 6 0.0000 0.0000 0.0000 8.8176 0.0000 41.1730
#
#
#
# Elastic Compliance Matrix: (Units=1/GPa)
#
#
# Indices 1 2 3 4 5 6 
#
# 1 0.014357 -0.004650 -0.016251 0.000000 -0.015290 0.000000
# 2 -0.004650 0.015673 0.005443 0.000000 0.009142 0.000000
# 3 -0.016251 0.005443 0.038754 0.000000 0.029986 0.000000
# 4 0.000000 0.000000 0.000000 0.032906 0.000000 -0.007047
# 5 -0.015290 0.009142 0.029986 0.000000 0.048903 0.000000
# 6 0.000000 0.000000 0.000000 -0.007047 0.000000 0.025797
#
#
# Mechanical properties :
#
#
# Convention : Reuss Voigt Hill
#
# Bulk Modulus (GPa) = 26.40667 47.82421 37.11544
# Shear Modulus (GPa) = 22.73478 37.05548 29.89513
#
# Velocity S-wave (km/s) = 3.26631 4.17002 3.74552
# Velocity P-wave (km/s) = 5.15916 6.75485 6.01020
#
# Compressibility (1/GPa) = 0.03786922
#
# Stress axis : x y z
#
# Youngs Moduli (GPa) = 69.65284 63.80574 25.80359
#
# Poissons Ratio (x) = 0.29669 0.41933
# Poissons Ratio (y) = 0.32388 -0.14046
# Poissons Ratio (z) = 1.13192 -0.34732
#
# Static dielectric constant tensor:
#      x y z
#    x 1.863710 0.000000 -0.123700 
#    y 0.000000 1.824250 0.000000 
#    z -0.123700 0.000000 1.857510 
# 
# From -- ./inp_files/43782.got.cif
#   From: 2010.05.17/outbox.cif.g08.bks.cpg/sg5_22_cif.got.tgz:43782.got - 2010.06.03 18:56:24.
