data_PCOD9120271
_publ_section_title
;
Structure prediction by ZEFSAII (Michael W. Deem and Ramdas Pophale) SiO2 
 PCOD9120271
Probable space group: C 2
;
_chemical_formula_sum "Si O2"
_cell_formula_units_Z 24
_cell_length_a 14.750044
_cell_length_b 16.641221
_cell_length_c 8.350530
_cell_angle_alpha 90.000000
_cell_angle_beta 34.827044
_cell_angle_gamma 90.000000
_cell_volume 1170.591956
_symmetry_space_group_name_H-M "C 2"
_symmetry_group_IT_number 5
_symmetry_cell_setting 'monoclinic'
loop_
_space_group_symop_operation_xyz
x,y,z
-x,y,-z
1/2+x,1/2+y,z
1/2-x,1/2+y,-z
loop_
_atom_site_type_symbol
_atom_site_label
_atom_site_fract_x
_atom_site_fract_y
_atom_site_fract_z
Si Si1 0.307375 0.989060 0.781390
Si Si2 0.183569 0.678705 0.735390
Si Si3 0.983742 0.254641 0.198563
Si Si4 0.351753 0.630102 0.809616
Si Si5 0.811553 0.503960 0.419483
Si Si6 0.649051 0.927270 0.955211
O O1 0.500000 0.986776 0.500000
O O2 0.249674 0.975695 0.683091
O O3 0.265044 0.934689 0.998182
O O4 0.238012 0.074115 0.936263
O O5 0.298623 0.749698 0.510176
O O6 0.233154 0.657591 0.843996
O O7 0.216457 0.597405 0.583273
O O8 0.000000 0.698439 0.000000
O O9 0.071851 0.203672 0.205797
O O10 0.063574 0.341526 0.073082
O O11 0.000000 0.216390 0.000000
O O12 0.500000 0.589551 0.500000
O O13 0.002580 0.491016 0.161313
O O14 0.760208 0.450521 0.339958
#
# Coordination Sequence:
#
# PCOD9120271 Si02
#       6
#     4   4   4   4   4   4
#     4  10  19  33  64  92 113 163 230 255 303 395
#     4  11  20  38  64  93 128 172 219 262 318 392
#     4  11  23  38  60  96 134 167 211 272 335 371
#     4  10  22  37  58  94 140 165 210 276 328 377
#     4  10  17  33  63  87 114 165 220 252 301 383
#     4  10  19  37  61  91 122 164 216 266 307 385
#
# _framework density 20.502447
#
# number of rings (size 3 to 8) (size 9 to 14) (size 15 to 20)
#    0.000    1.667    5.000    2.000    0.000    6.000 
#    0.000    0.000    0.000   20.000    0.000    0.000 
#    0.000    0.000    0.000    0.000    0.000    0.000 
#
# Total GULP energy -66864.814167 kJ/mol
# GULP energy per Si atom -5572.067847 kJ/mol
# Density = 2.045578 g / cm^3
# Si number density = 20.502447 Si / 1000 Ang^3
#
#
#
# Elastic Constant Matrix: (Units=GPa)
#
#
# Indices 1 2 3 4 5 6 
#
# 1 129.4380 16.4997 57.1708 -0.0002 37.7594 0.0001
# 2 16.4997 52.3212 14.3357 -0.0001 11.3266 0.0000
# 3 57.1708 14.3357 69.6023 -0.0004 33.5671 0.0001
# 4 -0.0002 -0.0001 -0.0004 15.4510 0.0002 3.3868
# 5 37.7594 11.3266 33.5671 0.0002 49.4156 0.0000
# 6 0.0001 0.0000 0.0001 3.3868 0.0000 15.0911
#
#
#
# Elastic Compliance Matrix: (Units=1/GPa)
#
#
# Indices 1 2 3 4 5 6 
#
# 1 0.012639 -0.000873 -0.008389 0.000000 -0.003759 0.000000
# 2 -0.000873 0.020560 -0.002329 0.000000 -0.002463 0.000000
# 3 -0.008389 -0.002329 0.027348 0.000001 -0.011633 0.000000
# 4 0.000000 0.000000 0.000001 0.068069 -0.000001 -0.015276
# 5 -0.003759 -0.002463 -0.011633 -0.000001 0.031575 0.000000
# 6 0.000000 0.000000 0.000000 -0.015276 0.000000 0.069693
#
#
# Mechanical properties :
#
#
# Convention : Reuss Voigt Hill
#
# Bulk Modulus (GPa) = 26.76442 47.48598 37.12520
# Shear Modulus (GPa) = 18.83094 26.88189 22.85641
#
# Velocity S-wave (km/s) = 3.03392 3.62492 3.34251
# Velocity P-wave (km/s) = 5.03542 6.38212 5.74834
#
# Compressibility (1/GPa) = 0.03736304
#
# Stress axis : x y z
#
# Youngs Moduli (GPa) = 79.12172 48.63922 36.56620
#
# Poissons Ratio (x) = 0.04249 0.30674
# Poissons Ratio (y) = 0.06911 0.08518
# Poissons Ratio (z) = 0.66372 0.11330
#
# Static dielectric constant tensor:
#      x y z
#    x 1.767660 0.000000 0.040470 
#    y 0.000000 1.744400 0.000000 
#    z 0.040470 0.000000 1.804540 
# 
# From -- ./inp_files/27861.got.cif
#   From: 2010.05.17/outbox.cif.g08.bks.cpg/sg5_14_cif.got.tgz:27861.got - 2010.06.03 18:56:24.
