data_PCOD9120477
_publ_section_title
;
Structure prediction by ZEFSAII (Michael W. Deem and Ramdas Pophale) SiO2 
 PCOD9120477
Probable space group: C 2
;
_chemical_formula_sum "Si O2"
_cell_formula_units_Z 30
_cell_length_a 9.902571
_cell_length_b 16.784391
_cell_length_c 14.772663
_cell_angle_alpha 90.000000
_cell_angle_beta 147.815973
_cell_angle_gamma 90.000000
_cell_volume 1307.815285
_symmetry_space_group_name_H-M "C 2"
_symmetry_group_IT_number 5
_symmetry_cell_setting 'monoclinic'
loop_
_space_group_symop_operation_xyz
x,y,z
-x,y,-z
1/2+x,1/2+y,z
1/2-x,1/2+y,-z
loop_
_atom_site_type_symbol
_atom_site_label
_atom_site_fract_x
_atom_site_fract_y
_atom_site_fract_z
Si Si1 0.773250 0.835620 0.964469
Si Si2 0.500000 0.268108 0.500000
Si Si3 0.950053 0.659732 0.101918
Si Si4 0.908230 0.335838 0.598248
Si Si5 0.805827 0.161545 0.464656
Si Si6 0.112947 0.083614 0.776773
Si Si7 0.825588 0.268816 0.830991
Si Si8 0.997740 0.905879 0.742778
O O1 0.661131 0.852149 0.800690
O O2 0.522848 0.821113 0.884264
O O3 0.947464 0.896610 0.119290
O O4 0.913869 0.750750 0.050618
O O5 0.692822 0.322630 0.553062
O O6 0.657084 0.221614 0.664201
O O7 0.043258 0.660376 0.259373
O O8 0.171946 0.618982 0.168383
O O9 0.694551 0.616627 0.921660
O O10 0.906075 0.250494 0.545849
O O11 0.787524 0.396522 0.457555
O O12 0.000000 0.127299 0.500000
O O13 0.851679 0.114923 0.584048
O O14 0.111886 0.989003 0.776100
O O15 0.647433 0.331100 0.782958
O O16 0.000000 0.222563 0.000000
#
# Coordination Sequence:
#
# PCOD9120477 Si02
#       8
#     4   2   4   4   4   4   4   4
#     4  10  18  31  53  76 110 152 194 228 285 353
#     4   8  16  28  44  74 100 134 168 236 276 320
#     4  10  20  34  52  78 115 156 188 232 295 357
#     4  10  18  34  54  80 116 144 200 237 290 346
#     4  10  20  36  53  80 114 157 197 232 291 360
#     4  10  22  35  52  80 120 150 187 243 308 337
#     4   8  16  27  44  72 104 131 178 220 277 321
#     4  10  20  34  53  82 117 149 185 247 294 343
#
# _framework density 22.939018000000001
#
# number of rings (size 3 to 8) (size 9 to 14) (size 15 to 20)
#    0.000    2.400    2.667    0.000    5.600    1.067 
#   19.200    0.000    0.000    0.000    1.733    0.000 
#   20.000    0.000    0.000    0.000    0.000    0.000 
#
# Total GULP energy -83547.444664 kJ/mol
# GULP energy per Si atom -5569.829644 kJ/mol
# Density = 2.288681 g / cm^3
# Si number density = 22.939018 Si / 1000 Ang^3
#
#
#
# Elastic Constant Matrix: (Units=GPa)
#
#
# Indices 1 2 3 4 5 6 
#
# 1 65.5915 1.7616 21.3681 0.0112 -5.8933 0.0047
# 2 1.7616 72.3167 47.4280 0.0182 2.2423 0.0131
# 3 21.3681 47.4280 319.1353 0.0360 -43.9137 0.0273
# 4 0.0112 0.0182 0.0360 10.8527 0.0248 -9.6723
# 5 -5.8933 2.2423 -43.9137 0.0248 18.6005 0.0162
# 6 0.0047 0.0131 0.0273 -9.6723 0.0162 11.7633
#
#
#
# Elastic Compliance Matrix: (Units=1/GPa)
#
#
# Indices 1 2 3 4 5 6 
#
# 1 0.015758 -0.000173 -0.000503 -0.000120 0.003827 -0.000109
# 2 -0.000173 0.016909 -0.004132 0.000071 -0.011848 0.000065
# 3 -0.000503 -0.004132 0.005670 -0.000251 0.013725 -0.000233
# 4 -0.000120 0.000071 -0.000251 0.344876 -0.001345 0.283574
# 5 0.003827 -0.011848 0.013725 -0.001345 0.088809 -0.001249
# 6 -0.000109 0.000065 -0.000233 0.283574 -0.001249 0.318178
#
#
# Mechanical properties :
#
#
# Convention : Reuss Voigt Hill
#
# Bulk Modulus (GPa) = 34.81549 66.46211 50.63880
# Shear Modulus (GPa) = 6.17749 34.00902 20.09326
#
# Velocity S-wave (km/s) = 1.64282 3.85461 2.96284
# Velocity P-wave (km/s) = 4.33692 6.98906 5.81618
#
# Compressibility (1/GPa) = 0.02872284
#
# Stress axis : x y z
#
# Youngs Moduli (GPa) = 63.45916 59.13891 176.37240
#
# Poissons Ratio (x) = 0.01021 0.08870
# Poissons Ratio (y) = 0.01096 0.72872
# Poissons Ratio (z) = 0.03191 0.24434
#
# Static dielectric constant tensor:
#      x y z
#    x 1.946050 0.000000 0.013070 
#    y 0.000000 1.769040 0.000000 
#    z 0.013070 0.000000 2.053520 
# 
# From -- ./inp_files/61759.got.cif
#   From: 2010.05.17/outbox.cif.g08.bks.cpg/sg5_31_cif.got.tgz:61759.got - 2010.06.03 18:56:24.
