data_PCOD9120151
_publ_section_title
;
Structure prediction by ZEFSAII (Michael W. Deem and Ramdas Pophale) SiO2 
 PCOD9120151
Probable space group: C 2
;
_chemical_formula_sum "Si O2"
_cell_formula_units_Z 26
_cell_length_a 10.870957
_cell_length_b 16.240900
_cell_length_c 14.628722
_cell_angle_alpha 90.000000
_cell_angle_beta 150.139937
_cell_angle_gamma 90.000000
_cell_volume 1285.913844
_symmetry_space_group_name_H-M "C 2"
_symmetry_group_IT_number 5
_symmetry_cell_setting 'monoclinic'
loop_
_space_group_symop_operation_xyz
x,y,z
-x,y,-z
1/2+x,1/2+y,z
1/2-x,1/2+y,-z
loop_
_atom_site_type_symbol
_atom_site_label
_atom_site_fract_x
_atom_site_fract_y
_atom_site_fract_z
Si Si1 0.000000 0.924300 0.000000
Si Si2 0.552661 0.446818 0.378728
Si Si3 0.309756 0.093988 0.801279
Si Si4 0.525953 0.985776 0.790127
Si Si5 0.500000 0.309029 0.500000
Si Si6 0.507553 0.815035 0.893610
Si Si7 0.000000 0.223176 0.500000
Si Si8 0.549465 0.332240 0.211310
O O1 0.210295 0.977913 0.087242
O O2 0.106650 0.864357 0.146895
O O3 0.347125 0.514916 0.266928
O O4 0.522182 0.368797 0.426493
O O5 0.529445 0.411965 0.262911
O O6 0.817961 0.481604 0.577884
O O7 0.120014 0.164556 0.652670
O O8 0.462753 0.063748 0.811520
O O9 0.500000 0.121094 0.000000
O O10 0.498227 0.905430 0.838773
O O11 0.767751 0.268561 0.695600
O O12 0.500000 0.819517 0.000000
O O13 0.784580 0.786478 0.045505
O O14 0.776263 0.278297 0.392069
#
# Coordination Sequence:
#
# PCOD9120151 Si02
#       8
#     2   4   4   4   2   4   2   4
#     4  10  22  36  60  96 128 174 216 264 318 378
#     4  11  18  36  66  97 120 161 225 275 302 367
#     4  12  22  40  68  93 126 170 219 270 320 380
#     4  10  18  34  59  93 123 158 216 272 301 372
#     4  10  17  28  58 102 121 144 210 284 309 346
#     4  10  17  32  57  92 118 155 208 269 308 351
#     4  12  27  44  56 100 139 174 202 266 345 394
#     4  11  23  38  61  91 140 172 211 267 325 386
#
# _framework density 20.219083000000001
#
# number of rings (size 3 to 8) (size 9 to 14) (size 15 to 20)
#    0.000    1.231    6.154    3.231    1.077    0.000 
#    0.000    0.000    1.692    0.000    4.000    0.000 
#    0.000    0.000    0.000    0.000    0.000    0.000 
#
# Total GULP energy -72544.806124 kJ/mol
# GULP energy per Si atom -5580.369702 kJ/mol
# Density = 2.017306 g / cm^3
# Si number density = 20.219083 Si / 1000 Ang^3
#
#
#
# Elastic Constant Matrix: (Units=GPa)
#
#
# Indices 1 2 3 4 5 6 
#
# 1 95.7335 31.6675 48.4757 -0.0324 8.3003 -0.0019
# 2 31.6675 35.5214 29.4508 -0.1899 12.9223 -0.0079
# 3 48.4757 29.4508 177.2005 -0.1718 18.3002 -0.0118
# 4 -0.0324 -0.1899 -0.1718 276.5276 0.0348 -0.6598
# 5 8.3003 12.9223 18.3002 0.0348 45.0338 0.0001
# 6 -0.0019 -0.0079 -0.0118 -0.6598 0.0001 1.6159
#
#
#
# Elastic Compliance Matrix: (Units=1/GPa)
#
#
# Indices 1 2 3 4 5 6 
#
# 1 0.015673 -0.012630 -0.002364 -0.000009 0.001696 -0.000064
# 2 -0.012630 0.045434 -0.003121 0.000029 -0.009441 0.000198
# 3 -0.002364 -0.003121 0.006963 0.000002 -0.001498 0.000034
# 4 -0.000009 0.000029 0.000002 0.003620 -0.000011 0.001478
# 5 0.001696 -0.009441 -0.001498 -0.000011 0.025211 -0.000061
# 6 -0.000064 0.000198 0.000034 0.001478 -0.000061 0.619470
#
#
# Mechanical properties :
#
#
# Convention : Reuss Voigt Hill
#
# Bulk Modulus (GPa) = 31.40568 58.62704 45.01636
# Shear Modulus (GPa) = 6.55123 77.89289 42.22206
#
# Velocity S-wave (km/s) = 1.80199 6.21354 4.57467
# Velocity P-wave (km/s) = 4.46049 8.97420 7.08633
#
# Compressibility (1/GPa) = 0.03184138
#
# Stress axis : x y z
#
# Youngs Moduli (GPa) = 63.80223 22.00982 143.60777
#
# Poissons Ratio (x) = 0.27799 0.33945
# Poissons Ratio (y) = 0.80584 0.44819
# Poissons Ratio (z) = 0.15081 0.06869
#
# Static dielectric constant tensor:
#      x y z
#    x 1.608740 0.000020 -0.022190 
#    y 0.000020 1.713610 0.000010 
#    z -0.022190 0.000010 1.746230 
# 
# From -- ./inp_files/53256.got.cif
#   From: 2010.05.17/outbox.cif.g08.bks.cpg/sg5_27_cif.got.tgz:53256.got - 2010.06.03 18:56:24.
