data_PCOD9120396
_publ_section_title
;
Structure prediction by ZEFSAII (Michael W. Deem and Ramdas Pophale) SiO2 
 PCOD9120396
Probable space group: C 2
;
_chemical_formula_sum "Si O2"
_cell_formula_units_Z 24
_cell_length_a 14.718153
_cell_length_b 10.518233
_cell_length_c 5.660829
_cell_angle_alpha 90.000000
_cell_angle_beta 84.662774
_cell_angle_gamma 90.000000
_cell_volume 872.547639
_symmetry_space_group_name_H-M "C 2"
_symmetry_group_IT_number 5
_symmetry_cell_setting 'monoclinic'
loop_
_space_group_symop_operation_xyz
x,y,z
-x,y,-z
1/2+x,1/2+y,z
1/2-x,1/2+y,-z
loop_
_atom_site_type_symbol
_atom_site_label
_atom_site_fract_x
_atom_site_fract_y
_atom_site_fract_z
Si Si1 0.392655 0.837100 0.558164
Si Si2 0.761490 0.054163 0.351099
Si Si3 0.893512 0.340060 0.058541
Si Si4 0.968590 0.719846 0.255197
Si Si5 0.967163 0.009333 0.254843
Si Si6 0.290038 0.109470 0.140497
O O1 0.500000 0.873013 0.500000
O O2 0.323894 0.956411 0.595880
O O3 0.376824 0.769571 0.310301
O O4 0.374125 0.774081 0.815231
O O5 0.858525 0.994533 0.259415
O O6 0.776621 0.092605 0.620928
O O7 0.733277 0.139491 0.127738
O O8 0.837275 0.470207 0.096815
O O9 0.000000 0.371434 0.000000
O O10 0.005330 0.864270 0.247271
O O11 0.861002 0.706939 0.244412
O O12 0.000000 0.664728 0.500000
O O13 0.000000 0.659076 0.000000
O O14 0.000000 0.065615 0.500000
O O15 0.000000 0.070928 0.000000
#
# Coordination Sequence:
#
# PCOD9120396 Si02
#       6
#     4   4   4   4   4   4
#     4   8  14  23  36  59  89 118 147 189 247 299
#     4  10  19  31  49  74 103 137 178 223 265 314
#     4   8  13  20  32  53  85 118 141 173 226 290
#     4  10  20  33  51  77 112 147 174 214 277 340
#     4  10  21  37  54  74 107 149 187 221 265 322
#     4  10  18  28  46  73 102 129 169 218 266 317
#
# _framework density 27.505659999999999
#
# number of rings (size 3 to 8) (size 9 to 14) (size 15 to 20)
#    0.000    2.667    0.000    2.500    0.000    6.667 
#    0.000    0.000    0.000    0.000    0.000    3.500 
#    0.000   25.333    0.000    0.000    0.000    0.000 
#
# Total GULP energy -66956.375213 kJ/mol
# GULP energy per Si atom -5579.697934 kJ/mol
# Density = 2.744306 g / cm^3
# Si number density = 27.505660 Si / 1000 Ang^3
#
#
#
# Elastic Constant Matrix: (Units=GPa)
#
#
# Indices 1 2 3 4 5 6 
#
# 1 108.4669 24.3136 62.4958 0.0000 9.0214 0.0000
# 2 24.3136 82.3250 51.4372 0.0000 14.4090 0.0000
# 3 62.4958 51.4372 362.1360 0.0000 21.2542 0.0000
# 4 0.0000 0.0000 0.0000 20.9867 0.0000 7.8308
# 5 9.0214 14.4090 21.2542 0.0000 67.0702 0.0000
# 6 0.0000 0.0000 0.0000 7.8308 0.0000 37.9320
#
#
#
# Elastic Compliance Matrix: (Units=1/GPa)
#
#
# Indices 1 2 3 4 5 6 
#
# 1 0.010597 -0.002105 -0.001501 0.000000 -0.000498 0.000000
# 2 -0.002105 0.014108 -0.001507 0.000000 -0.002270 0.000000
# 3 -0.001501 -0.001507 0.003264 0.000000 -0.000509 0.000000
# 4 0.000000 0.000000 0.000000 0.051626 0.000000 -0.010658
# 5 -0.000498 -0.002270 -0.000509 0.000000 0.015626 0.000000
# 6 0.000000 0.000000 0.000000 -0.010658 0.000000 0.028563
#
#
# Mechanical properties :
#
#
# Convention : Reuss Voigt Hill
#
# Bulk Modulus (GPa) = 56.35918 92.15789 74.25854
# Shear Modulus (GPa) = 35.73354 52.84320 44.28837
#
# Velocity S-wave (km/s) = 3.60826 4.38788 4.01703
# Velocity P-wave (km/s) = 6.15580 7.69734 6.96933
#
# Compressibility (1/GPa) = 0.01774334
#
# Stress axis : x y z
#
# Youngs Moduli (GPa) = 94.36385 70.88279 306.34212
#
# Poissons Ratio (x) = 0.14921 0.45970
# Poissons Ratio (y) = 0.19864 0.46176
# Poissons Ratio (z) = 0.14160 0.10684
#
# Static dielectric constant tensor:
#      x y z
#    x 2.197610 0.000000 0.011020 
#    y 0.000000 2.131700 0.000000 
#    z 0.011020 0.000000 2.169320 
# 
# From -- ./inp_files/6838.got.cif
#   From: 2010.05.17/outbox.cif.g08.bks.cpg/sg5_4_cif.got.tgz:6838.got - 2010.06.03 18:56:24.
