data_PCOD9120135
_publ_section_title
;
Structure prediction by ZEFSAII (Michael W. Deem and Ramdas Pophale) SiO2 
 PCOD9120135
Probable space group: C 2
;
_chemical_formula_sum "Si O2"
_cell_formula_units_Z 22
_cell_length_a 6.814277
_cell_length_b 25.698184
_cell_length_c 5.433092
_cell_angle_alpha 90.000000
_cell_angle_beta 78.917755
_cell_angle_gamma 90.000000
_cell_volume 933.671734
_symmetry_space_group_name_H-M "C 2"
_symmetry_group_IT_number 5
_symmetry_cell_setting 'monoclinic'
loop_
_space_group_symop_operation_xyz
x,y,z
-x,y,-z
1/2+x,1/2+y,z
1/2-x,1/2+y,-z
loop_
_atom_site_type_symbol
_atom_site_label
_atom_site_fract_x
_atom_site_fract_y
_atom_site_fract_z
Si Si1 0.775339 0.258190 0.583599
Si Si2 0.752002 0.419271 0.287780
Si Si3 0.000000 0.555683 0.500000
Si Si4 0.295360 0.959727 0.783072
Si Si5 0.742356 0.804986 0.911343
Si Si6 0.618955 0.153743 0.716442
O O1 0.697114 0.266083 0.324488
O O2 0.785120 0.198464 0.678207
O O3 0.000000 0.278510 0.500000
O O4 0.683244 0.290871 0.831937
O O5 0.683621 0.433620 0.579236
O O6 0.706832 0.361883 0.203249
O O7 0.994587 0.427669 0.249613
O O8 0.699645 0.457187 0.074105
O O9 0.138923 0.517714 0.307563
O O10 0.137520 0.592855 0.639666
O O11 0.500000 0.802447 0.000000
O O12 0.500000 0.170618 0.500000
O O13 0.500000 0.156700 0.000000
#
# Coordination Sequence:
#
# PCOD9120135 Si02
#       6
#     4   4   2   4   4   4
#     4  10  21  32  49  73  99 134 172 204 245 292
#     4   9  15  23  38  63  98 123 148 184 257 302
#     4   8  20  28  50  62 100 132 168 196 256 282
#     4   9  16  23  41  65  92 127 155 196 245 314
#     4  10  17  27  44  66 101 136 150 196 250 305
#     4  10  21  35  52  67 100 138 173 210 245 289
#
# _framework density 23.562888000000001
#
# number of rings (size 3 to 8) (size 9 to 14) (size 15 to 20)
#    0.545    2.182    1.818    2.182   10.182    0.000 
#    0.000    0.000    0.000    0.000    0.000    0.000 
#    0.000   36.364    0.000    0.000    0.000    0.000 
#
# Total GULP energy -61283.217905 kJ/mol
# GULP energy per Si atom -5571.201628 kJ/mol
# Density = 2.350926 g / cm^3
# Si number density = 23.562888 Si / 1000 Ang^3
#
#
#
# Elastic Constant Matrix: (Units=GPa)
#
#
# Indices 1 2 3 4 5 6 
#
# 1 48.5397 -2.1222 30.0424 0.0000 14.2710 0.0000
# 2 -2.1222 160.7405 74.0861 0.0000 -0.9091 0.0000
# 3 30.0424 74.0861 245.9023 0.0000 14.8215 0.0000
# 4 0.0000 0.0000 0.0000 74.6711 0.0000 35.4136
# 5 14.2710 -0.9091 14.8215 0.0000 42.9225 0.0000
# 6 0.0000 0.0000 0.0000 35.4136 0.0000 52.9048
#
#
#
# Elastic Compliance Matrix: (Units=1/GPa)
#
#
# Indices 1 2 3 4 5 6 
#
# 1 0.024686 0.001717 -0.003105 0.000000 -0.007099 0.000000
# 2 0.001717 0.007380 -0.002459 0.000000 0.000435 0.000000
# 3 -0.003105 -0.002459 0.005237 0.000000 -0.000828 0.000000
# 4 0.000000 0.000000 0.000000 0.019621 0.000000 -0.013134
# 5 -0.007099 0.000435 -0.000828 0.000000 0.025953 0.000000
# 6 0.000000 0.000000 0.000000 -0.013134 0.000000 0.027694
#
#
# Mechanical properties :
#
#
# Convention : Reuss Voigt Hill
#
# Bulk Modulus (GPa) = 33.77548 73.24391 53.50970
# Shear Modulus (GPa) = 39.02136 57.64476 48.33306
#
# Velocity S-wave (km/s) = 4.07388 4.95150 4.53397
# Velocity P-wave (km/s) = 6.04102 7.99010 7.08292
#
# Compressibility (1/GPa) = 0.02960728
#
# Stress axis : x y z
#
# Youngs Moduli (GPa) = 40.50893 135.50343 190.95171
#
# Poissons Ratio (x) = -0.23266 0.59297
# Poissons Ratio (y) = -0.06956 0.46963
# Poissons Ratio (z) = 0.12579 0.33326
#
# Static dielectric constant tensor:
#      x y z
#    x 1.860860 0.000000 0.103740 
#    y 0.000000 1.895680 0.000000 
#    z 0.103740 0.000000 1.785210 
# 
# From -- ./inp_files/3338.got.cif
#   From: 2010.05.17/outbox.cif.g08.bks.cpg/sg5_2_cif.got.tgz:3338.got - 2010.06.03 18:56:24.
