data_PCOD9120988
_publ_section_title
;
Structure prediction by ZEFSAII (Michael W. Deem and Ramdas Pophale) SiO2 
 PCOD9120988
Probable space group: C 2
;
_chemical_formula_sum "Si O2"
_cell_formula_units_Z 30
_cell_length_a 25.070788
_cell_length_b 8.732608
_cell_length_c 9.921888
_cell_angle_alpha 90.000000
_cell_angle_beta 133.481301
_cell_angle_gamma 90.000000
_cell_volume 1576.169559
_symmetry_space_group_name_H-M "C 2"
_symmetry_group_IT_number 5
_symmetry_cell_setting 'monoclinic'
loop_
_space_group_symop_operation_xyz
x,y,z
-x,y,-z
1/2+x,1/2+y,z
1/2-x,1/2+y,-z
loop_
_atom_site_type_symbol
_atom_site_label
_atom_site_fract_x
_atom_site_fract_y
_atom_site_fract_z
Si Si1 0.699723 0.029930 0.447367
Si Si2 0.354185 0.242103 0.412906
Si Si3 0.999244 0.534341 0.653666
Si Si4 0.441911 0.822480 0.783168
Si Si5 0.000000 0.996634 0.500000
Si Si6 0.378802 0.596933 0.488040
Si Si7 0.378978 0.268093 0.157203
Si Si8 0.734663 0.263477 0.275467
O O1 0.691641 0.148915 0.557483
O O2 0.716938 0.118677 0.340385
O O3 0.623543 0.938553 0.294379
O O4 0.754467 0.902550 0.601365
O O5 0.434908 0.162388 0.557960
O O6 0.355155 0.420418 0.451990
O O7 0.335278 0.234294 0.220771
O O8 0.076014 0.618810 0.811116
O O9 0.000000 0.484450 0.500000
O O10 0.981101 0.399206 0.722734
O O11 0.407869 0.661428 0.679791
O O12 0.500000 0.806277 0.000000
O O13 0.946267 0.094167 0.500773
O O14 0.942452 0.890625 0.313249
O O15 0.311824 0.712942 0.339022
O O16 0.324456 0.306487 0.940929
#
# Coordination Sequence:
#
# PCOD9120988 Si02
#       8
#     4   4   4   4   2   4   4   4
#     4  10  22  41  57  86 127 164 192 253 303 370
#     4   9  18  37  62  81 118 154 199 252 302 354
#     4   9  16  33  58  86 113 154 194 250 297 350
#     4  10  21  36  56  85 121 153 208 245 294 354
#     4  10  20  42  64  92 124 154 210 264 300 362
#     4  10  21  39  59  85 126 156 196 260 302 356
#     4  10  18  37  66  91 115 159 208 247 304 373
#     4  11  23  38  63  89 126 164 205 244 315 366
#
# _framework density 19.033484999999999
#
# number of rings (size 3 to 8) (size 9 to 14) (size 15 to 20)
#    0.000    2.133    3.333    1.600    0.933    2.133 
#    7.200    0.667    5.867    0.000    0.000    0.000 
#    0.000    0.000    0.000    0.000    0.000    0.000 
#
# Total GULP energy -83597.599866 kJ/mol
# GULP energy per Si atom -5573.173324 kJ/mol
# Density = 1.899016 g / cm^3
# Si number density = 19.033485 Si / 1000 Ang^3
#
#
#
# Elastic Constant Matrix: (Units=GPa)
#
#
# Indices 1 2 3 4 5 6 
#
# 1 69.9712 10.0689 24.2879 0.0000 -4.0704 0.0000
# 2 10.0689 71.7764 32.3683 0.0000 -1.7533 0.0000
# 3 24.2879 32.3683 145.1123 0.0000 12.1415 0.0000
# 4 0.0000 0.0000 0.0000 11.5522 0.0000 -6.4418
# 5 -4.0704 -1.7533 12.1415 0.0000 13.0219 0.0000
# 6 0.0000 0.0000 0.0000 -6.4418 0.0000 26.8891
#
#
#
# Elastic Compliance Matrix: (Units=1/GPa)
#
#
# Indices 1 2 3 4 5 6 
#
# 1 0.015945 -0.000604 -0.003193 0.000000 0.007880 0.000000
# 2 -0.000604 0.015922 -0.003920 0.000000 0.005609 0.000000
# 3 -0.003193 -0.003920 0.009141 0.000000 -0.010049 0.000000
# 4 0.000000 0.000000 0.000000 0.099911 0.000000 0.023936
# 5 0.007880 0.005609 -0.010049 0.000000 0.089381 0.000000
# 6 0.000000 0.000000 0.000000 0.023936 0.000000 0.042924
#
#
# Mechanical properties :
#
#
# Convention : Reuss Voigt Hill
#
# Bulk Modulus (GPa) = 39.10342 46.70110 42.90226
# Shear Modulus (GPa) = 16.82464 24.96829 20.89647
#
# Velocity S-wave (km/s) = 2.97635 3.62582 3.31702
# Velocity P-wave (km/s) = 5.69216 6.48986 6.10406
#
# Compressibility (1/GPa) = 0.02557321
#
# Stress axis : x y z
#
# Youngs Moduli (GPa) = 62.71382 62.80806 109.40006
#
# Poissons Ratio (x) = 0.03795 0.34936
# Poissons Ratio (y) = 0.03790 0.42880
# Poissons Ratio (z) = 0.20027 0.24618
#
# Static dielectric constant tensor:
#      x y z
#    x 1.701590 0.000000 0.010270 
#    y 0.000000 1.667650 0.000000 
#    z 0.010270 0.000000 1.632960 
# 
# From -- ./inp_files/31669.got.cif
#   From: 2010.05.17/outbox.cif.g08.bks.cpg/sg5_16_cif.got.tgz:31669.got - 2010.06.03 18:56:24.
