data_PCOD9120801
_publ_section_title
;
Structure prediction by ZEFSAII (Michael W. Deem and Ramdas Pophale) SiO2 
 PCOD9120801
Probable space group: C 2
;
_chemical_formula_sum "Si O2"
_cell_formula_units_Z 32
_cell_length_a 14.619763
_cell_length_b 12.447947
_cell_length_c 14.090120
_cell_angle_alpha 90.000000
_cell_angle_beta 40.040862
_cell_angle_gamma 90.000000
_cell_volume 1649.639718
_symmetry_space_group_name_H-M "C 2"
_symmetry_group_IT_number 5
_symmetry_cell_setting 'monoclinic'
loop_
_space_group_symop_operation_xyz
x,y,z
-x,y,-z
1/2+x,1/2+y,z
1/2-x,1/2+y,-z
loop_
_atom_site_type_symbol
_atom_site_label
_atom_site_fract_x
_atom_site_fract_y
_atom_site_fract_z
Si Si1 0.330444 0.658600 0.905757
Si Si2 0.951492 0.765177 0.939267
Si Si3 0.256258 0.357555 0.657339
Si Si4 0.275518 0.481911 0.098431
Si Si5 0.459857 0.299309 0.325473
Si Si6 0.630273 0.149052 0.328915
Si Si7 0.930343 0.390586 0.887088
Si Si8 0.823324 0.975188 0.783826
O O1 0.405138 0.764767 0.884689
O O2 0.364642 0.595647 0.780993
O O3 0.168926 0.694560 0.015211
O O4 0.346507 0.569427 0.973565
O O5 0.067764 0.780023 0.763822
O O6 0.000000 0.715895 0.000000
O O7 0.874182 0.877815 0.028184
O O8 0.331900 0.332637 0.496986
O O9 0.277368 0.245771 0.698737
O O10 0.331068 0.443988 0.667493
O O11 0.096682 0.398844 0.772457
O O12 0.227786 0.547982 0.227784
O O13 0.132161 0.447481 0.156769
O O14 0.547897 0.201597 0.304229
O O15 0.569750 0.397617 0.244857
O O16 0.500000 0.119604 0.500000
O O17 0.831135 0.438245 0.050617
#
# Coordination Sequence:
#
# PCOD9120801 Si02
#       8
#     4   4   4   4   4   4   4   4
#     4  10  18  35  61  75 113 147 183 227 272 322
#     4  11  22  36  58  83 109 146 190 227 270 330
#     4  10  21  34  60  88 110 137 188 236 271 319
#     4  10  19  36  57  79 110 150 183 225 277 320
#     4  10  18  39  58  81 114 145 180 234 278 318
#     4   9  18  35  60  80 107 148 186 223 277 330
#     4  10  20  34  54  87 115 142 180 233 277 315
#     4  10  18  35  62  82 106 152 188 219 274 330
#
# _framework density 19.398174999999998
#
# number of rings (size 3 to 8) (size 9 to 14) (size 15 to 20)
#    0.000    2.000    5.000    2.250    0.000    3.000 
#    2.250    1.250    2.750    0.000    0.000    0.000 
#    0.000    0.000    0.000    0.000    0.000    0.000 
#
# Total GULP energy -89111.944697 kJ/mol
# GULP energy per Si atom -5569.496544 kJ/mol
# Density = 1.935402 g / cm^3
# Si number density = 19.398175 Si / 1000 Ang^3
#
#
#
# Elastic Constant Matrix: (Units=GPa)
#
#
# Indices 1 2 3 4 5 6 
#
# 1 43.2752 -25.5457 23.3361 0.0000 12.9097 0.0000
# 2 -25.5457 52.1524 -0.1898 0.0000 6.4814 0.0000
# 3 23.3361 -0.1898 64.2704 0.0000 14.9100 0.0000
# 4 0.0000 0.0000 0.0000 15.9570 0.0000 8.5886
# 5 12.9097 6.4814 14.9100 0.0000 28.0610 0.0000
# 6 0.0000 0.0000 0.0000 8.5886 0.0000 -1.9023
#
#
#
# Elastic Compliance Matrix: (Units=1/GPa)
#
#
# Indices 1 2 3 4 5 6 
#
# 1 0.056956 0.031024 -0.014654 0.000000 -0.025583 0.000000
# 2 0.031024 0.036732 -0.006703 0.000000 -0.019196 0.000000
# 3 -0.014654 -0.006703 0.021599 0.000000 -0.003187 0.000000
# 4 0.000000 0.000000 0.000000 0.018270 0.000000 0.082489
# 5 -0.025583 -0.019196 -0.003187 0.000000 0.053533 0.000000
# 6 0.000000 0.000000 0.000000 0.082489 0.000000 -0.153258
#
#
# Mechanical properties :
#
#
# Convention : Reuss Voigt Hill
#
# Bulk Modulus (GPa) = 7.42818 17.21104 12.31961
# Shear Modulus (GPa) = 84.21496 19.22964 51.72230
#
# Velocity S-wave (km/s) = 6.59607 3.15193 5.16927
# Velocity P-wave (km/s) = 7.86438 4.70510 6.48022
#
# Compressibility (1/GPa) = 0.13462245
#
# Stress axis : x y z
#
# Youngs Moduli (GPa) = 17.55755 27.22394 46.29744
#
# Poissons Ratio (x) = -0.84461 0.67843
# Poissons Ratio (y) = -0.54471 0.31034
# Poissons Ratio (z) = 0.25728 0.18249
#
# Static dielectric constant tensor:
#      x y z
#    x 1.689980 0.000000 0.036890 
#    y 0.000000 1.727170 0.000000 
#    z 0.036890 0.000000 1.730450 
# 
# From -- ./inp_files/54564.got.cif
#   From: 2010.05.17/outbox.cif.g08.bks.cpg/sg5_28_cif.got.tgz:54564.got - 2010.06.03 18:56:24.
