data_PCOD9120971
_publ_section_title
;
Structure prediction by ZEFSAII (Michael W. Deem and Ramdas Pophale) SiO2 
 PCOD9120971
Probable space group: C 2
;
_chemical_formula_sum "Si O2"
_cell_formula_units_Z 32
_cell_length_a 14.344767
_cell_length_b 9.024124
_cell_length_c 11.910989
_cell_angle_alpha 90.000000
_cell_angle_beta 87.382972
_cell_angle_gamma 90.000000
_cell_volume 1540.256995
_symmetry_space_group_name_H-M "C 2"
_symmetry_group_IT_number 5
_symmetry_cell_setting 'monoclinic'
loop_
_space_group_symop_operation_xyz
x,y,z
-x,y,-z
1/2+x,1/2+y,z
1/2-x,1/2+y,-z
loop_
_atom_site_type_symbol
_atom_site_label
_atom_site_fract_x
_atom_site_fract_y
_atom_site_fract_z
Si Si1 0.154575 0.335940 0.762157
Si Si2 0.284746 0.402791 0.208684
Si Si3 0.983343 0.522557 0.382094
Si Si4 0.169133 0.659529 0.271783
Si Si5 0.900015 0.086972 0.060244
Si Si6 0.792751 0.089757 0.837781
Si Si7 0.417166 0.441950 0.669040
Si Si8 0.887556 0.848903 0.418832
O O1 0.073370 0.412984 0.695024
O O2 0.231484 0.232488 0.692012
O O3 0.116701 0.233451 0.864316
O O4 0.215422 0.469632 0.809047
O O5 0.211587 0.534755 0.188716
O O6 0.380570 0.452129 0.145700
O O7 0.250347 0.250933 0.162573
O O8 0.302029 0.380712 0.340977
O O9 0.923852 0.677344 0.404529
O O10 0.000000 0.446660 0.500000
O O11 0.087488 0.571818 0.340549
O O12 0.110500 0.806863 0.244931
O O13 0.831806 0.066087 0.958997
O O14 0.000000 0.089397 0.000000
O O15 0.871982 0.078936 0.735435
O O16 0.373788 0.394319 0.549591
O O17 0.525483 0.444822 0.633363
#
# Coordination Sequence:
#
# PCOD9120971 Si02
#       8
#     4   4   4   4   4   4   4   4
#     4  10  23  43  68  98 135 179 236 286 349 421
#     4  11  23  38  64  93 128 169 224 275 352 404
#     4  11  20  41  67 100 139 186 225 278 348 428
#     4   9  21  38  61  93 138 172 222 282 333 411
#     4  11  25  45  66  89 134 175 229 300 344 406
#     4  11  22  41  67  95 127 177 230 277 351 412
#     4   9  19  37  63  89 130 172 210 268 333 408
#     4  10  18  37  62  92 133 171 216 273 336 412
#
# _framework density 20.775755
#
# number of rings (size 3 to 8) (size 9 to 14) (size 15 to 20)
#    0.000    1.750    3.750    1.500    1.750    3.000 
#    0.000    1.875    0.000    0.000    0.000    0.000 
#    0.000    0.000    0.000    0.000    0.000    0.000 
#
# Total GULP energy -89087.868977 kJ/mol
# GULP energy per Si atom -5567.991811 kJ/mol
# Density = 2.072847 g / cm^3
# Si number density = 20.775755 Si / 1000 Ang^3
#
#
#
# Elastic Constant Matrix: (Units=GPa)
#
#
# Indices 1 2 3 4 5 6 
#
# 1 83.3459 33.3394 45.7306 0.0000 -10.6436 0.0000
# 2 33.3394 76.6331 32.9344 0.0000 -12.6676 0.0000
# 3 45.7306 32.9344 114.2725 0.0000 10.2385 0.0000
# 4 0.0000 0.0000 0.0000 14.9984 0.0000 -5.1197
# 5 -10.6436 -12.6676 10.2385 0.0000 37.9076 0.0000
# 6 0.0000 0.0000 0.0000 -5.1197 0.0000 19.1021
#
#
#
# Elastic Compliance Matrix: (Units=1/GPa)
#
#
# Indices 1 2 3 4 5 6 
#
# 1 0.017869 -0.004113 -0.006448 0.000000 0.005384 0.000000
# 2 -0.004113 0.017463 -0.003901 0.000000 0.005734 0.000000
# 3 -0.006448 -0.003901 0.013051 0.000000 -0.006639 0.000000
# 4 0.000000 0.000000 0.000000 0.073388 0.000000 0.019669
# 5 0.005384 0.005734 -0.006639 0.000000 0.031601 0.000000
# 6 0.000000 0.000000 0.000000 0.019669 0.000000 0.057622
#
#
# Mechanical properties :
#
#
# Convention : Reuss Voigt Hill
#
# Bulk Modulus (GPa) = 51.39007 55.36224 53.37616
# Shear Modulus (GPa) = 20.29200 25.21810 22.75505
#
# Velocity S-wave (km/s) = 3.12864 3.48778 3.31308
# Velocity P-wave (km/s) = 6.15146 6.55170 6.35473
#
# Compressibility (1/GPa) = 0.01945901
#
# Stress axis : x y z
#
# Youngs Moduli (GPa) = 55.96329 57.26457 76.62519
#
# Poissons Ratio (x) = 0.23551 0.49408
# Poissons Ratio (y) = 0.23016 0.29891
# Poissons Ratio (z) = 0.36085 0.22338
#
# Static dielectric constant tensor:
#      x y z
#    x 1.793210 0.000000 -0.024930 
#    y 0.000000 1.765250 0.000000 
#    z -0.024930 0.000000 1.781050 
# 
# From -- ./inp_files/41975.got.cif
#   From: 2010.05.17/outbox.cif.g08.bks.cpg/sg5_21_cif.got.tgz:41975.got - 2010.06.03 18:56:24.
