data_PCOD9120738
_publ_section_title
;
Structure prediction by ZEFSAII (Michael W. Deem and Ramdas Pophale) SiO2 
 PCOD9120738
Probable space group: C 2
;
_chemical_formula_sum "Si O2"
_cell_formula_units_Z 20
_cell_length_a 27.808649
_cell_length_b 7.697281
_cell_length_c 4.932671
_cell_angle_alpha 90.000000
_cell_angle_beta 79.200052
_cell_angle_gamma 90.000000
_cell_volume 1037.141385
_symmetry_space_group_name_H-M "C 2"
_symmetry_group_IT_number 5
_symmetry_cell_setting 'monoclinic'
loop_
_space_group_symop_operation_xyz
x,y,z
-x,y,-z
1/2+x,1/2+y,z
1/2-x,1/2+y,-z
loop_
_atom_site_type_symbol
_atom_site_label
_atom_site_fract_x
_atom_site_fract_y
_atom_site_fract_z
Si Si1 0.372333 0.711360 0.159834
Si Si2 0.207902 0.710708 0.373836
Si Si3 0.708332 0.440772 0.877077
Si Si4 0.373425 0.945531 0.626737
Si Si5 0.533134 0.816480 0.714721
O O1 0.342167 0.545202 0.105183
O O2 0.348094 0.810758 0.441157
O O3 0.427848 0.678684 0.203509
O O4 0.374469 0.850056 0.913492
O O5 0.208492 0.774034 0.681177
O O6 0.250753 0.070970 0.739425
O O7 0.156493 0.621394 0.350380
O O8 0.215729 0.876910 0.174080
O O9 0.428676 0.956320 0.451069
O O10 0.500000 0.754827 0.500000
O O11 0.500000 0.876589 0.000000
#
# Coordination Sequence:
#
# PCOD9120738 Si02
#       5
#     4   4   4   4   4
#     4  10  20  36  60  88 117 150 203 237 293 343
#     4  12  24  39  60  87 125 159 196 239 293 351
#     4  12  24  39  60  87 125 159 196 239 293 351
#     4  10  20  36  60  88 117 150 203 237 293 343
#     4  10  18  34  62  92 110 150 202 250 282 344
#
# _framework density 19.283776
#
# number of rings (size 3 to 8) (size 9 to 14) (size 15 to 20)
#    1.200    0.000    2.000    6.000    0.000    0.000 
#    0.000    0.000    0.000    4.800    0.000    0.000 
#    0.000    0.000    0.000    0.000    0.000    0.000 
#
# Total GULP energy -55753.826744 kJ/mol
# GULP energy per Si atom -5575.382674 kJ/mol
# Density = 1.923989 g / cm^3
# Si number density = 19.283776 Si / 1000 Ang^3
#
#
#
# Elastic Constant Matrix: (Units=GPa)
#
#
# Indices 1 2 3 4 5 6 
#
# 1 102.8053 19.7457 11.7726 0.0000 -8.2256 0.0000
# 2 19.7457 34.0422 -5.3943 0.0000 -1.7874 0.0000
# 3 11.7726 -5.3943 79.4546 0.0000 14.4694 0.0000
# 4 0.0000 0.0000 0.0000 37.6860 0.0000 5.0109
# 5 -8.2256 -1.7874 14.4694 0.0000 19.3072 0.0000
# 6 0.0000 0.0000 0.0000 5.0109 0.0000 20.7263
#
#
#
# Elastic Compliance Matrix: (Units=1/GPa)
#
#
# Indices 1 2 3 4 5 6 
#
# 1 0.012097 -0.007208 -0.003588 0.000000 0.007176 0.000000
# 2 -0.007208 0.034025 0.003895 0.000000 -0.002840 0.000000
# 3 -0.003588 0.003895 0.015743 0.000000 -0.012967 0.000000
# 4 0.000000 0.000000 0.000000 0.027416 0.000000 -0.006628
# 5 0.007176 -0.002840 -0.012967 0.000000 0.064306 0.000000
# 6 0.000000 0.000000 0.000000 -0.006628 0.000000 0.049850
#
#
# Mechanical properties :
#
#
# Convention : Reuss Voigt Hill
#
# Bulk Modulus (GPa) = 20.80674 29.83889 25.32282
# Shear Modulus (GPa) = 21.43526 28.22245 24.82886
#
# Velocity S-wave (km/s) = 3.33764 3.82977 3.59214
# Velocity P-wave (km/s) = 5.06619 5.92143 5.51043
#
# Compressibility (1/GPa) = 0.04806135
#
# Stress axis : x y z
#
# Youngs Moduli (GPa) = 82.66731 29.39058 63.51913
#
# Poissons Ratio (x) = 0.21186 0.22794
# Poissons Ratio (y) = 0.59590 -0.24742
# Poissons Ratio (z) = 0.29665 -0.11448
#
# Static dielectric constant tensor:
#      x y z
#    x 1.716810 0.000000 -0.001280 
#    y 0.000000 1.651450 0.000000 
#    z -0.001280 0.000000 1.675860 
# 
# From -- ./inp_files/10668.got.cif
#   From: 2010.05.17/outbox.cif.g08.bks.cpg/sg5_6_cif.got.tgz:10668.got - 2010.06.03 18:56:24.
