data_PCOD9120630
_publ_section_title
;
Structure prediction by ZEFSAII (Michael W. Deem and Ramdas Pophale) SiO2 
 PCOD9120630
Probable space group: C 2
;
_chemical_formula_sum "Si O2"
_cell_formula_units_Z 30
_cell_length_a 14.489841
_cell_length_b 11.283005
_cell_length_c 19.199760
_cell_angle_alpha 90.000000
_cell_angle_beta 19.885796
_cell_angle_gamma 90.000000
_cell_volume 1067.702170
_symmetry_space_group_name_H-M "C 2"
_symmetry_group_IT_number 5
_symmetry_cell_setting 'monoclinic'
loop_
_space_group_symop_operation_xyz
x,y,z
-x,y,-z
1/2+x,1/2+y,z
1/2-x,1/2+y,-z
loop_
_atom_site_type_symbol
_atom_site_label
_atom_site_fract_x
_atom_site_fract_y
_atom_site_fract_z
Si Si1 0.448727 0.349600 0.919805
Si Si2 0.159518 0.829624 0.461472
Si Si3 0.002790 0.086281 0.925358
Si Si4 0.046746 0.088090 0.547000
Si Si5 0.500000 0.980411 0.000000
Si Si6 0.411439 0.075035 0.489994
Si Si7 0.949502 0.329335 0.670249
Si Si8 0.859776 0.806034 0.822967
O O1 0.458360 0.490843 0.898861
O O2 0.713029 0.318811 0.778609
O O3 0.440877 0.306584 0.846729
O O4 0.191765 0.324687 0.153139
O O5 0.279802 0.691297 0.371920
O O6 0.030680 0.826732 0.630843
O O7 0.000000 0.835370 0.500000
O O8 0.242786 0.971676 0.405876
O O9 0.296701 0.142332 0.723537
O O10 0.772957 0.178864 0.088422
O O11 0.000000 0.013548 0.000000
O O12 0.122119 0.209007 0.533979
O O13 0.000000 0.118397 0.500000
O O14 0.758315 0.051613 0.787361
O O15 0.385664 0.900130 0.017696
O O16 0.500000 0.016188 0.500000
O O17 0.402181 0.958345 0.448071
#
# Coordination Sequence:
#
# PCOD9120630 Si02
#       8
#     4   4   4   4   2   4   4   4
#     4  10  21  33  59  88 118 151 202 248 296 355
#     4   9  18  33  55  82 109 148 193 241 295 346
#     4  11  17  36  58  86 116 150 202 250 289 351
#     4  10  20  34  58  84 117 156 190 240 308 364
#     4  10  20  36  58  84 112 152 204 238 304 366
#     4  10  18  33  61  82 105 155 203 237 292 349
#     4  10  19  37  55  84 119 157 194 244 300 362
#     4  11  20  34  60  89 113 156 202 250 296 361
#
# _framework density 28.097722999999998
#
# number of rings (size 3 to 8) (size 9 to 14) (size 15 to 20)
#    0.000    1.867    4.667    2.000    0.000    3.200 
#    0.000    0.000    0.000   49.600    0.000    0.000 
#    0.000    0.000    0.000    0.000    0.000    0.000 
#
# Total GULP energy -83510.086222 kJ/mol
# GULP energy per Si atom -5567.339081 kJ/mol
# Density = 2.803377 g / cm^3
# Si number density = 28.097723 Si / 1000 Ang^3
#
#
#
# Elastic Constant Matrix: (Units=GPa)
#
#
# Indices 1 2 3 4 5 6 
#
# 1 181.0224 47.6944 37.7443 0.0501 37.2956 -0.0078
# 2 47.6944 205.6672 38.1123 0.0662 13.4855 -0.0516
# 3 37.7443 38.1123 76.2982 0.1551 28.4523 -0.0844
# 4 0.0501 0.0662 0.1551 51.3861 -0.0265 13.1512
# 5 37.2956 13.4855 28.4523 -0.0265 31.4733 0.0102
# 6 -0.0078 -0.0516 -0.0844 13.1512 0.0102 39.6063
#
#
#
# Elastic Compliance Matrix: (Units=1/GPa)
#
#
# Indices 1 2 3 4 5 6 
#
# 1 0.007588 -0.001206 0.000014 -0.000012 -0.008487 0.000006
# 2 -0.001206 0.005550 -0.002749 0.000003 0.001535 0.000000
# 3 0.000014 -0.002749 0.021180 -0.000089 -0.017985 0.000076
# 4 -0.000012 0.000003 -0.000089 0.021268 0.000113 -0.007062
# 5 -0.008487 0.001535 -0.017985 0.000113 0.057431 -0.000090
# 6 0.000006 0.000000 0.000076 -0.007062 -0.000090 0.027594
#
#
# Mechanical properties :
#
#
# Convention : Reuss Voigt Hill
#
# Bulk Modulus (GPa) = 37.82631 78.89886 58.36258
# Shear Modulus (GPa) = 31.78539 47.12224 39.45382
#
# Velocity S-wave (km/s) = 3.36705 4.09966 3.75128
# Velocity P-wave (km/s) = 5.34861 7.10991 6.29120
#
# Compressibility (1/GPa) = 0.02643662
#
# Stress axis : x y z
#
# Youngs Moduli (GPa) = 131.79531 180.16417 47.21440
#
# Poissons Ratio (x) = 0.21720 -0.00064
# Poissons Ratio (y) = 0.15889 0.12978
# Poissons Ratio (z) = -0.00179 0.49521
#
# Static dielectric constant tensor:
#      x y z
#    x 2.295490 0.000020 0.032410 
#    y 0.000020 2.240520 -0.000010 
#    z 0.032410 -0.000010 2.671780 
# 
# From -- ./inp_files/23638.got.cif
#   From: 2010.05.17/outbox.cif.g08.bks.cpg/sg5_12_cif.got.tgz:23638.got - 2010.06.03 18:56:24.
