data_PCOD9120104
_publ_section_title
;
Structure prediction by ZEFSAII (Michael W. Deem and Ramdas Pophale) SiO2 
 PCOD9120104
Probable space group: C 2
;
_chemical_formula_sum "Si O2"
_cell_formula_units_Z 28
_cell_length_a 15.541390
_cell_length_b 4.706053
_cell_length_c 23.944108
_cell_angle_alpha 90.000000
_cell_angle_beta 32.411316
_cell_angle_gamma 90.000000
_cell_volume 938.652609
_symmetry_space_group_name_H-M "C 2"
_symmetry_group_IT_number 5
_symmetry_cell_setting 'monoclinic'
loop_
_space_group_symop_operation_xyz
x,y,z
-x,y,-z
1/2+x,1/2+y,z
1/2-x,1/2+y,-z
loop_
_atom_site_type_symbol
_atom_site_label
_atom_site_fract_x
_atom_site_fract_y
_atom_site_fract_z
Si Si1 0.000000 0.390050 0.500000
Si Si2 0.094791 0.683084 0.830917
Si Si3 0.324816 0.246102 0.825568
Si Si4 0.000000 0.855092 0.000000
Si Si5 0.321479 0.665441 0.432624
Si Si6 0.675101 0.999460 0.674471
Si Si7 0.905116 0.562187 0.669122
Si Si8 0.821438 0.080023 0.932639
O O1 0.160863 0.190288 0.421469
O O2 0.033916 0.589948 0.427728
O O3 0.146002 0.453325 0.756121
O O4 0.249928 0.872730 0.750024
O O5 0.972052 0.908718 0.871433
O O6 0.033950 0.655286 0.927713
O O7 0.499958 0.122797 0.750026
O O8 0.353943 0.291992 0.743896
O O9 0.307140 0.520313 0.874970
O O10 0.160798 0.055225 0.921519
O O11 0.184614 0.849711 0.540285
O O12 0.307166 0.725386 0.374976
O O13 0.472187 0.836513 0.371357
O O14 0.815466 0.395691 0.959707
#
# Coordination Sequence:
#
# PCOD9120104 Si02
#       8
#     2   4   4   2   4   4   4   4
#     4  10  16  36  70  92 144 174 228 286 344 402
#     4   9  19  37  68  98 138 180 233 280 348 410
#     4   9  19  36  64  99 136 177 231 279 344 414
#     4  10  16  36  70  92 144 174 228 286 344 402
#     4  11  22  42  70  98 138 184 224 279 348 406
#     4   9  19  36  64  99 136 177 231 279 344 414
#     4   9  19  37  68  98 138 180 233 280 348 410
#     4  11  22  42  70  98 138 184 224 279 348 406
#
# _framework density 29.829991
#
# number of rings (size 3 to 8) (size 9 to 14) (size 15 to 20)
#    0.000    2.286    2.857    0.000    0.000    0.000 
#    0.000   15.714    0.000    0.000    0.000    0.000 
#    0.000    0.000    0.000    0.000    0.000    0.000 
#
# Total GULP energy -78421.296646 kJ/mol
# GULP energy per Si atom -5601.521189 kJ/mol
# Density = 2.976210 g / cm^3
# Si number density = 29.829991 Si / 1000 Ang^3
#
#
#
# Elastic Constant Matrix: (Units=GPa)
#
#
# Indices 1 2 3 4 5 6 
#
# 1 194.1111 49.1921 86.1849 0.0095 50.7699 -0.0847
# 2 49.1921 161.0985 60.6630 0.0956 7.3841 0.0416
# 3 86.1849 60.6630 236.6351 -0.0064 23.6423 0.0062
# 4 0.0095 0.0956 -0.0064 57.5509 0.0075 -0.1175
# 5 50.7699 7.3841 23.6423 0.0075 99.1222 0.0057
# 6 -0.0847 0.0416 0.0062 -0.1175 0.0057 28.6814
#
#
#
# Elastic Compliance Matrix: (Units=1/GPa)
#
#
# Indices 1 2 3 4 5 6 
#
# 1 0.007167 -0.001306 -0.001965 0.000001 -0.003105 0.000024
# 2 -0.001306 0.007110 -0.001394 -0.000012 0.000472 -0.000014
# 3 -0.001965 -0.001394 0.005315 0.000003 -0.000157 -0.000005
# 4 0.000001 -0.000012 0.000003 0.017376 -0.000002 0.000071
# 5 -0.003105 0.000472 -0.000157 -0.000002 0.011681 -0.000012
# 6 0.000024 -0.000014 -0.000005 0.000071 -0.000012 0.034866
#
#
# Mechanical properties :
#
#
# Convention : Reuss Voigt Hill
#
# Bulk Modulus (GPa) = 97.45994 109.32497 103.39246
# Shear Modulus (GPa) = 51.93901 63.45788 57.69844
#
# Velocity S-wave (km/s) = 4.17726 4.61729 4.40277
# Velocity P-wave (km/s) = 7.48390 8.07185 7.78343
#
# Compressibility (1/GPa) = 0.01026063
#
# Stress axis : x y z
#
# Youngs Moduli (GPa) = 139.51895 140.65607 188.15426
#
# Poissons Ratio (x) = 0.18373 0.36980
# Poissons Ratio (y) = 0.18224 0.26228
# Poissons Ratio (z) = 0.27421 0.19607
#
# Static dielectric constant tensor:
#      x y z
#    x 2.435620 -0.000030 -0.119220 
#    y -0.000030 2.176320 0.000000 
#    z -0.119220 0.000000 2.467890 
# 
# From -- ./inp_files/70804.got.cif
#   From: 2010.05.17/outbox.cif.g08.bks.cpg/sg5_36_cif.got.tgz:70804.got - 2010.06.03 18:56:24.
