data_PCOD9120311
_publ_section_title
;
Structure prediction by ZEFSAII (Michael W. Deem and Ramdas Pophale) SiO2 
 PCOD9120311
Probable space group: C 2
;
_chemical_formula_sum "Si O2"
_cell_formula_units_Z 28
_cell_length_a 9.985671
_cell_length_b 16.191319
_cell_length_c 12.955445
_cell_angle_alpha 90.000000
_cell_angle_beta 145.632961
_cell_angle_gamma 90.000000
_cell_volume 1182.414628
_symmetry_space_group_name_H-M "C 2"
_symmetry_group_IT_number 5
_symmetry_cell_setting 'monoclinic'
loop_
_space_group_symop_operation_xyz
x,y,z
-x,y,-z
1/2+x,1/2+y,z
1/2-x,1/2+y,-z
loop_
_atom_site_type_symbol
_atom_site_label
_atom_site_fract_x
_atom_site_fract_y
_atom_site_fract_z
Si Si1 0.033813 0.588660 0.783245
Si Si2 0.265593 0.787217 0.786021
Si Si3 0.265008 0.101629 0.295386
Si Si4 0.936466 0.150254 0.634864
Si Si5 0.121640 0.725335 0.180095
Si Si6 0.766080 0.823727 0.557445
Si Si7 0.230360 0.439051 0.360016
O O1 0.780957 0.607872 0.564192
O O2 0.063055 0.670813 0.869982
O O3 0.966720 0.505014 0.797567
O O4 0.229635 0.572659 0.819753
O O5 0.193456 0.699232 0.695516
O O6 0.305686 0.855354 0.725629
O O7 0.045664 0.818871 0.712125
O O8 0.500000 0.775010 0.000000
O O9 0.500000 0.066130 0.500000
O O10 0.060358 0.104657 0.252058
O O11 0.859764 0.247217 0.582407
O O12 0.183710 0.157428 0.732646
O O13 0.240817 0.796089 0.326654
O O14 0.000000 0.759001 0.000000
O O15 0.697675 0.909932 0.459225
O O16 0.500000 0.465542 0.500000
#
# Coordination Sequence:
#
# PCOD9120311 Si02
#       7
#     4   4   4   4   4   4   4
#     4  10  20  37  61  87 117 157 208 258 303 367
#     4  11  20  32  60  93 120 159 206 263 308 364
#     4  10  17  35  60  85 112 149 206 256 289 370
#     4  10  19  36  60  83 115 159 207 253 299 367
#     4  11  23  35  56  91 128 159 199 264 319 370
#     4  10  19  37  58  84 119 163 215 249 295 371
#     4  10  20  36  60  89 125 164 213 258 305 371
#
# _framework density 23.680357999999998
#
# number of rings (size 3 to 8) (size 9 to 14) (size 15 to 20)
#    0.000    1.714    5.714    3.000    2.000    0.571 
#    0.000    4.286    0.000    0.000    0.000    3.000 
#    0.000    0.000    0.000    0.000    0.000    0.000 
#
# Total GULP energy -78043.371127 kJ/mol
# GULP energy per Si atom -5574.526509 kJ/mol
# Density = 2.362646 g / cm^3
# Si number density = 23.680358 Si / 1000 Ang^3
#
#
#
# Elastic Constant Matrix: (Units=GPa)
#
#
# Indices 1 2 3 4 5 6 
#
# 1 114.7041 5.5860 18.1722 0.0002 -20.2567 0.0002
# 2 5.5860 56.4214 -2.8110 0.0008 -4.8013 0.0004
# 3 18.1722 -2.8110 48.0589 0.0024 -3.9661 0.0016
# 4 0.0002 0.0008 0.0024 5.4406 0.0011 -2.2558
# 5 -20.2567 -4.8013 -3.9661 0.0011 30.5979 0.0006
# 6 0.0002 0.0004 0.0016 -2.2558 0.0006 19.8867
#
#
#
# Elastic Compliance Matrix: (Units=1/GPa)
#
#
# Indices 1 2 3 4 5 6 
#
# 1 0.010418 -0.000664 -0.003455 0.000000 0.006345 0.000000
# 2 -0.000664 0.018086 0.001523 -0.000004 0.002596 -0.000001
# 3 -0.003455 0.001523 0.022272 -0.000012 0.000839 -0.000003
# 4 0.000000 -0.000004 -0.000012 0.192873 -0.000010 0.021878
# 5 0.006345 0.002596 0.000839 -0.000010 0.037399 -0.000003
# 6 0.000000 -0.000001 -0.000003 0.021878 -0.000003 0.052766
#
#
# Mechanical properties :
#
#
# Convention : Reuss Voigt Hill
#
# Bulk Modulus (GPa) = 21.93621 29.00875 25.47248
# Shear Modulus (GPa) = 14.11627 24.40086 19.25856
#
# Velocity S-wave (km/s) = 2.44420 3.21351 2.85489
# Velocity P-wave (km/s) = 4.15320 5.10349 4.65267
#
# Compressibility (1/GPa) = 0.04558673
#
# Stress axis : x y z
#
# Youngs Moduli (GPa) = 95.98520 55.29049 44.89871
#
# Poissons Ratio (x) = 0.03669 0.15510
# Poissons Ratio (y) = 0.06370 -0.06838
# Poissons Ratio (z) = 0.33159 -0.08421
#
# Static dielectric constant tensor:
#      x y z
#    x 2.054400 0.000000 -0.037540 
#    y 0.000000 1.874160 0.000000 
#    z -0.037540 0.000000 1.933150 
# 
# From -- ./inp_files/53363.got.cif
#   From: 2010.05.17/outbox.cif.g08.bks.cpg/sg5_27_cif.got.tgz:53363.got - 2010.06.03 18:56:24.
