data_PCOD9120322
_publ_section_title
;
Structure prediction by ZEFSAII (Michael W. Deem and Ramdas Pophale) SiO2 
 PCOD9120322
Probable space group: C 2
;
_chemical_formula_sum "Si O2"
_cell_formula_units_Z 24
_cell_length_a 9.453681
_cell_length_b 16.237891
_cell_length_c 18.496410
_cell_angle_alpha 90.000000
_cell_angle_beta 28.519821
_cell_angle_gamma 90.000000
_cell_volume 1355.680987
_symmetry_space_group_name_H-M "C 2"
_symmetry_group_IT_number 5
_symmetry_cell_setting 'monoclinic'
loop_
_space_group_symop_operation_xyz
x,y,z
-x,y,-z
1/2+x,1/2+y,z
1/2-x,1/2+y,-z
loop_
_atom_site_type_symbol
_atom_site_label
_atom_site_fract_x
_atom_site_fract_y
_atom_site_fract_z
Si Si1 0.849832 0.488820 0.846016
Si Si2 0.843168 0.645725 0.365873
Si Si3 0.798664 0.477956 0.161516
Si Si4 0.223027 0.403940 0.571721
Si Si5 0.670946 0.329798 0.616679
Si Si6 0.233363 0.559533 0.458959
O O1 0.980065 0.574583 0.755365
O O2 0.996717 0.473641 0.858562
O O3 0.946828 0.415039 0.748375
O O4 0.500000 0.494685 0.000000
O O5 0.500000 0.633994 0.500000
O O6 0.923674 0.739917 0.313124
O O7 0.851477 0.631779 0.448296
O O8 0.580731 0.397857 0.253352
O O9 0.566285 0.553182 0.278274
O O10 0.000000 0.485844 0.000000
O O11 0.500000 0.414298 0.500000
O O12 0.275167 0.328878 0.494309
O O13 0.210941 0.480123 0.521491
O O14 0.000000 0.349233 0.500000
O O15 0.000000 0.554363 0.500000
#
# Coordination Sequence:
#
# PCOD9120322 Si02
#       6
#     4   4   4   4   4   4
#     4  11  22  35  61  85 114 157 191 233 286 345
#     4  10  20  41  60  82 116 155 193 239 290 343
#     4  11  22  36  57  86 118 146 193 242 282 337
#     4  10  17  36  58  81 111 145 198 239 276 332
#     4  10  22  37  62  87 113 152 192 242 293 337
#     4  10  19  34  58  85 108 148 198 240 280 335
#
# _framework density 17.703279999999999
#
# number of rings (size 3 to 8) (size 9 to 14) (size 15 to 20)
#    0.000    1.667    5.000    3.000    7.000    1.333 
#    0.000    0.000    0.000    1.000    0.000    0.000 
#    0.000    0.000    0.000    0.000    0.000    0.000 
#
# Total GULP energy -66821.226203 kJ/mol
# GULP energy per Si atom -5568.435517 kJ/mol
# Density = 1.766299 g / cm^3
# Si number density = 17.703280 Si / 1000 Ang^3
#
#
#
# Elastic Constant Matrix: (Units=GPa)
#
#
# Indices 1 2 3 4 5 6 
#
# 1 143.9834 8.9948 44.9747 -0.0035 -2.5318 0.0313
# 2 8.9948 51.3829 15.0172 -0.0252 -1.8573 0.0567
# 3 44.9747 15.0172 116.6362 0.0204 3.7464 0.0980
# 4 -0.0035 -0.0252 0.0204 16.3924 -0.0255 0.9303
# 5 -2.5318 -1.8573 3.7464 -0.0255 35.6018 -0.0336
# 6 0.0313 0.0567 0.0980 0.9303 -0.0336 5.9599
#
#
#
# Elastic Compliance Matrix: (Units=1/GPa)
#
#
# Indices 1 2 3 4 5 6 
#
# 1 0.007935 -0.000474 -0.003026 0.000005 0.000858 0.000017
# 2 -0.000474 0.020314 -0.002474 0.000045 0.001286 -0.000150
# 3 -0.003026 -0.002474 0.010105 -0.000012 -0.001408 -0.000133
# 4 0.000005 0.000045 -0.000012 0.061549 0.000039 -0.009608
# 5 0.000858 0.001286 -0.001408 0.000039 0.028365 0.000160
# 6 0.000017 -0.000150 -0.000133 -0.009608 0.000160 0.169293
#
#
# Mechanical properties :
#
#
# Convention : Reuss Voigt Hill
#
# Bulk Modulus (GPa) = 37.87031 49.99734 43.93383
# Shear Modulus (GPa) = 15.70786 27.79184 21.74985
#
# Velocity S-wave (km/s) = 2.98197 3.96646 3.50891
# Velocity P-wave (km/s) = 5.77012 7.01999 6.42551
#
# Compressibility (1/GPa) = 0.02640591
#
# Stress axis : x y z
#
# Youngs Moduli (GPa) = 126.01992 49.22616 98.96547
#
# Poissons Ratio (x) = 0.02331 0.29951
# Poissons Ratio (y) = 0.05968 0.24485
# Poissons Ratio (z) = 0.38139 0.12179
#
# Static dielectric constant tensor:
#      x y z
#    x 1.633240 -0.000020 0.039080 
#    y -0.000020 1.648830 -0.000010 
#    z 0.039080 -0.000010 1.635720 
# 
# From -- ./inp_files/15663.got.cif
#   From: 2010.05.17/outbox.cif.g08.bks.cpg/sg5_8_cif.got.tgz:15663.got - 2010.06.03 18:56:24.
