data_PCOD9120956
_publ_section_title
;
Structure prediction by ZEFSAII (Michael W. Deem and Ramdas Pophale) SiO2 
 PCOD9120956
Probable space group: C 2
;
_chemical_formula_sum "Si O2"
_cell_formula_units_Z 32
_cell_length_a 9.914424
_cell_length_b 19.665630
_cell_length_c 16.016554
_cell_angle_alpha 90.000000
_cell_angle_beta 146.006489
_cell_angle_gamma 90.000000
_cell_volume 1745.955440
_symmetry_space_group_name_H-M "C 2"
_symmetry_group_IT_number 5
_symmetry_cell_setting 'monoclinic'
loop_
_space_group_symop_operation_xyz
x,y,z
-x,y,-z
1/2+x,1/2+y,z
1/2-x,1/2+y,-z
loop_
_atom_site_type_symbol
_atom_site_label
_atom_site_fract_x
_atom_site_fract_y
_atom_site_fract_z
Si Si1 0.105842 0.210620 0.257441
Si Si2 0.033727 0.830187 0.148442
Si Si3 0.248554 0.966267 0.575632
Si Si4 0.869631 0.722271 0.555250
Si Si5 0.246939 0.365120 0.571903
Si Si6 0.914449 0.672236 0.051863
Si Si7 0.388049 0.856687 0.182754
Si Si8 0.791020 0.613369 0.649683
O O1 0.185596 0.190665 0.392457
O O2 0.357894 0.215451 0.338138
O O3 0.013413 0.287542 0.218796
O O4 0.879908 0.169500 0.102463
O O5 0.983286 0.749379 0.115445
O O6 0.057877 0.855911 0.254489
O O7 0.268498 0.844137 0.212066
O O8 0.822621 0.868377 0.991362
O O9 0.228505 0.931592 0.473790
O O10 0.430794 0.917885 0.717992
O O11 0.000000 0.964930 0.500000
O O12 0.346299 0.043091 0.630107
O O13 0.787135 0.799243 0.533140
O O14 0.862711 0.679215 0.634820
O O15 0.000000 0.363376 0.500000
O O16 0.063666 0.621511 0.188620
O O17 0.000000 0.665325 0.000000
O O18 0.500000 0.615986 0.500000
#
# Coordination Sequence:
#
# PCOD9120956 Si02
#       8
#     4   4   4   4   4   4   4   4
#     4  10  20  35  58  94 125 161 199 258 310 362
#     4  10  19  33  61  99 118 152 204 258 303 358
#     4  11  24  43  60  85 126 170 204 252 314 371
#     4  11  21  36  61  94 125 158 208 258 312 365
#     4  12  21  36  67  96 121 161 214 256 305 367
#     4  11  20  38  64  92 128 158 205 259 310 371
#     4  10  18  37  58  88 128 155 196 251 309 362
#     4  11  25  41  61  87 123 167 209 256 308 376
#
# _framework density 18.328073
#
# number of rings (size 3 to 8) (size 9 to 14) (size 15 to 20)
#    0.000    1.250    6.250    1.875    0.000    0.500 
#    2.250    8.125    0.000    0.000    0.000    0.000 
#    0.000    0.000    0.000    0.000    0.000    0.000 
#
# Total GULP energy -89173.443505 kJ/mol
# GULP energy per Si atom -5573.340219 kJ/mol
# Density = 1.828636 g / cm^3
# Si number density = 18.328073 Si / 1000 Ang^3
#
#
#
# Elastic Constant Matrix: (Units=GPa)
#
#
# Indices 1 2 3 4 5 6 
#
# 1 58.0041 15.1355 45.3969 0.0000 -8.6891 -0.0008
# 2 15.1355 60.7133 34.4006 0.0000 -10.9553 -0.0002
# 3 45.3969 34.4006 132.6441 0.0016 -12.6514 -0.0006
# 4 0.0000 0.0000 0.0016 15.9661 0.0005 -6.3227
# 5 -8.6891 -10.9553 -12.6514 0.0005 39.0386 -0.0005
# 6 -0.0008 -0.0002 -0.0006 -6.3227 -0.0005 21.5113
#
#
#
# Elastic Compliance Matrix: (Units=1/GPa)
#
#
# Indices 1 2 3 4 5 6 
#
# 1 0.023899 -0.001179 -0.007634 0.000001 0.002515 0.000001
# 2 -0.001179 0.019965 -0.004401 0.000000 0.003914 0.000000
# 3 -0.007634 -0.004401 0.011364 -0.000001 0.000749 0.000000
# 4 0.000001 0.000000 -0.000001 0.070883 -0.000001 0.020834
# 5 0.002515 0.003914 0.000749 -0.000001 0.027516 0.000001
# 6 0.000001 0.000000 0.000000 0.020834 0.000001 0.052611
#
#
# Mechanical properties :
#
#
# Convention : Reuss Voigt Hill
#
# Bulk Modulus (GPa) = 34.72106 49.02525 41.87316
# Shear Modulus (GPa) = 20.63849 25.73177 23.18513
#
# Velocity S-wave (km/s) = 3.35932 3.75100 3.56055
# Velocity P-wave (km/s) = 5.83370 6.75032 6.30868
#
# Compressibility (1/GPa) = 0.02880096
#
# Stress axis : x y z
#
# Youngs Moduli (GPa) = 41.84266 50.08868 87.99414
#
# Poissons Ratio (x) = 0.05904 0.67173
# Poissons Ratio (y) = 0.04932 0.38726
# Poissons Ratio (z) = 0.31942 0.22044
#
# Static dielectric constant tensor:
#      x y z
#    x 1.664510 0.000000 0.009940 
#    y 0.000000 1.598800 0.000000 
#    z 0.009940 0.000000 1.691890 
# 
# From -- ./inp_files/51577.got.cif
#   From: 2010.05.17/outbox.cif.g08.bks.cpg/sg5_26_cif.got.tgz:51577.got - 2010.06.03 18:56:24.
