data_PCOD9120831
_publ_section_title
;
Structure prediction by ZEFSAII (Michael W. Deem and Ramdas Pophale) SiO2 
 PCOD9120831
Probable space group: C 2
;
_chemical_formula_sum "Si O2"
_cell_formula_units_Z 20
_cell_length_a 10.268624
_cell_length_b 14.714348
_cell_length_c 8.662929
_cell_angle_alpha 90.000000
_cell_angle_beta 137.913839
_cell_angle_gamma 90.000000
_cell_volume 877.310159
_symmetry_space_group_name_H-M "C 2"
_symmetry_group_IT_number 5
_symmetry_cell_setting 'monoclinic'
loop_
_space_group_symop_operation_xyz
x,y,z
-x,y,-z
1/2+x,1/2+y,z
1/2-x,1/2+y,-z
loop_
_atom_site_type_symbol
_atom_site_label
_atom_site_fract_x
_atom_site_fract_y
_atom_site_fract_z
Si Si1 0.511210 0.242570 0.192597
Si Si2 0.000000 0.992452 0.500000
Si Si3 0.500000 0.503330 0.000000
Si Si4 0.252230 0.393512 0.034977
Si Si5 0.306556 0.620428 0.582270
Si Si6 0.910611 0.316546 0.593403
O O1 0.317774 0.288294 0.081989
O O2 0.589632 0.155206 0.352548
O O3 0.678141 0.320137 0.368586
O O4 0.500000 0.224018 0.000000
O O5 0.839695 0.934329 0.267059
O O6 0.885678 0.056590 0.517092
O O7 0.633353 0.444503 0.002255
O O8 0.351544 0.566930 0.775730
O O9 0.023741 0.389456 0.796113
O O10 0.425640 0.714974 0.675970
O O11 0.000000 0.318851 0.500000
#
# Coordination Sequence:
#
# PCOD9120831 Si02
#       6
#     4   2   2   4   4   4
#     4  10  19  36  65  80 108 155 198 223 272 352
#     4  10  22  36  56  90 122 142 176 256 282 316
#     4  10  20  36  60  86 122 142 178 252 282 320
#     4  11  20  38  62  81 117 150 191 229 286 329
#     4   9  20  37  59  82 117 148 188 229 284 330
#     4  10  18  35  66  79 106 155 199 215 275 353
#
# _framework density 22.796956000000002
#
# number of rings (size 3 to 8) (size 9 to 14) (size 15 to 20)
#    1.200    0.800    4.000    0.000    0.000    1.600 
#    0.000    6.000    4.400    0.000    0.000    0.000 
#    0.000    0.000    0.000    0.000    0.000    0.000 
#
# Total GULP energy -55811.155912 kJ/mol
# GULP energy per Si atom -5581.115591 kJ/mol
# Density = 2.274507 g / cm^3
# Si number density = 22.796956 Si / 1000 Ang^3
#
#
#
# Elastic Constant Matrix: (Units=GPa)
#
#
# Indices 1 2 3 4 5 6 
#
# 1 31.9160 11.3905 25.5522 0.0000 1.2329 0.0000
# 2 11.3905 78.3594 58.6273 0.0000 -11.1571 0.0000
# 3 25.5522 58.6273 148.5221 0.0000 -5.3079 0.0000
# 4 0.0000 0.0000 0.0000 248.0412 0.0000 -8.7132
# 5 1.2329 -11.1571 -5.3079 0.0000 24.4281 0.0000
# 6 0.0000 0.0000 0.0000 -8.7132 0.0000 -7.8402
#
#
#
# Elastic Compliance Matrix: (Units=1/GPa)
#
#
# Indices 1 2 3 4 5 6 
#
# 1 0.036705 -0.001492 -0.005862 0.000000 -0.003808 0.000000
# 2 -0.001492 0.019355 -0.007120 0.000000 0.007368 0.000000
# 3 -0.005862 -0.007120 0.010528 0.000000 -0.000669 0.000000
# 4 0.000000 0.000000 0.000000 0.003880 0.000000 -0.004312
# 5 -0.003808 0.007368 -0.000669 0.000000 0.044349 0.000000
# 6 0.000000 0.000000 0.000000 -0.004312 0.000000 -0.122755
#
#
# Mechanical properties :
#
#
# Convention : Reuss Voigt Hill
#
# Bulk Modulus (GPa) = 26.56737 49.99306 38.28021
# Shear Modulus (GPa) = 149.00221 63.80765 106.40493
#
# Velocity S-wave (km/s) = 8.09336 5.29625 6.83933
# Velocity P-wave (km/s) = 9.95067 7.70569 8.89926
#
# Compressibility (1/GPa) = 0.03764016
#
# Stress axis : x y z
#
# Youngs Moduli (GPa) = 27.24428 51.66666 94.98283
#
# Poissons Ratio (x) = 0.07707 0.55679
# Poissons Ratio (y) = 0.04064 0.67629
# Poissons Ratio (z) = 0.15971 0.36787
#
# Static dielectric constant tensor:
#      x y z
#    x 1.855270 0.000000 0.056410 
#    y 0.000000 1.821490 0.000000 
#    z 0.056410 0.000000 1.866390 
# 
# From -- ./inp_files/21107.got.cif
#   From: 2010.05.17/outbox.cif.g08.bks.cpg/sg5_11_cif.got.tgz:21107.got - 2010.06.03 18:56:24.
