data_PCOD9120307
_publ_section_title
;
Structure prediction by ZEFSAII (Michael W. Deem and Ramdas Pophale) SiO2 
 PCOD9120307
Probable space group: C 2
;
_chemical_formula_sum "Si O2"
_cell_formula_units_Z 28
_cell_length_a 27.902999
_cell_length_b 12.054989
_cell_length_c 22.414444
_cell_angle_alpha 90.000000
_cell_angle_beta 169.094867
_cell_angle_gamma 90.000000
_cell_volume 1426.358617
_symmetry_space_group_name_H-M "C 2"
_symmetry_group_IT_number 5
_symmetry_cell_setting 'monoclinic'
loop_
_space_group_symop_operation_xyz
x,y,z
-x,y,-z
1/2+x,1/2+y,z
1/2-x,1/2+y,-z
loop_
_atom_site_type_symbol
_atom_site_label
_atom_site_fract_x
_atom_site_fract_y
_atom_site_fract_z
Si Si1 0.558912 0.090930 0.219510
Si Si2 0.264830 0.250089 0.935970
Si Si3 0.273383 0.181034 0.771343
Si Si4 0.069766 0.191381 0.821147
Si Si5 0.631723 0.941528 0.420406
Si Si6 0.636092 0.428873 0.101695
Si Si7 0.609605 0.002010 0.746359
O O1 0.823112 0.113670 0.508911
O O2 0.570157 0.994639 0.281555
O O3 0.497012 0.196628 0.185675
O O4 0.339761 0.089665 0.901810
O O5 0.258179 0.217616 0.997003
O O6 0.244023 0.382085 0.902686
O O7 0.005234 0.189006 0.596455
O O8 0.293947 0.302105 0.827349
O O9 0.500000 0.175706 0.000000
O O10 0.948326 0.312747 0.682714
O O11 0.228492 0.114100 0.060332
O O12 0.489902 0.989875 0.306297
O O13 0.925134 0.963372 0.796616
O O14 0.883286 0.498544 0.421147
O O15 0.500000 0.421428 0.000000
#
# Coordination Sequence:
#
# PCOD9120307 Si02
#       7
#     4   4   4   4   4   4   4
#     4  12  22  33  58  87 121 159 201 251 304 365
#     4  10  21  37  57  88 119 154 203 251 309 359
#     4  10  17  35  58  86 115 151 194 262 304 343
#     4  11  21  37  57  91 126 155 197 256 304 360
#     4  10  20  36  57  91 127 157 201 247 304 366
#     4   8  15  33  59  86 116 149 193 254 300 348
#     4   9  19  36  62  87 121 159 195 253 311 354
#
# _framework density 19.630407000000002
#
# number of rings (size 3 to 8) (size 9 to 14) (size 15 to 20)
#    0.000    2.000    4.286    2.143    2.000    0.000 
#    0.000    0.714    0.000    3.429    0.000    2.000 
#    0.000    0.000    0.000    0.000    0.000    0.000 
#
# Total GULP energy -77950.644951 kJ/mol
# GULP energy per Si atom -5567.903211 kJ/mol
# Density = 1.958573 g / cm^3
# Si number density = 19.630407 Si / 1000 Ang^3
#
#
#
# Elastic Constant Matrix: (Units=GPa)
#
#
# Indices 1 2 3 4 5 6 
#
# 1 71.5634 20.5707 4.1344 0.0049 -0.7782 0.0041
# 2 20.5707 69.9163 36.2823 0.0109 -22.3801 0.0185
# 3 4.1344 36.2823 61.0103 0.0873 -18.2933 0.0241
# 4 0.0049 0.0109 0.0873 22.3933 -0.0059 -7.6367
# 5 -0.7782 -22.3801 -18.2933 -0.0059 38.0101 -0.0028
# 6 0.0041 0.0185 0.0241 -7.6367 -0.0028 22.5604
#
#
#
# Elastic Compliance Matrix: (Units=1/GPa)
#
#
# Indices 1 2 3 4 5 6 
#
# 1 0.015690 -0.006477 0.002035 -0.000010 -0.002513 -0.000003
# 2 -0.006477 0.025261 -0.011878 0.000041 0.009024 0.000008
# 3 0.002035 -0.011878 0.024813 -0.000108 0.004990 -0.000053
# 4 -0.000010 0.000041 -0.000108 0.050485 -0.000019 0.017089
# 5 -0.002513 0.009024 0.004990 -0.000019 0.033972 -0.000015
# 6 -0.000003 0.000008 -0.000053 0.017089 -0.000015 0.050110
#
#
# Mechanical properties :
#
#
# Convention : Reuss Voigt Hill
#
# Bulk Modulus (GPa) = 30.18877 36.05167 33.12022
# Shear Modulus (GPa) = 20.49077 26.02626 23.25851
#
# Velocity S-wave (km/s) = 3.23434 3.64512 3.44586
# Velocity P-wave (km/s) = 5.41848 6.01007 5.72193
#
# Compressibility (1/GPa) = 0.03312490
#
# Stress axis : x y z
#
# Youngs Moduli (GPa) = 63.73287 39.58672 40.30193
#
# Poissons Ratio (x) = 0.25640 -0.08201
# Poissons Ratio (y) = 0.41279 0.47870
# Poissons Ratio (z) = -0.12970 0.47020
#
# Static dielectric constant tensor:
#      x y z
#    x 1.754940 0.000000 0.024840 
#    y 0.000000 1.670430 -0.000010 
#    z 0.024840 -0.000010 1.746800 
# 
# From -- ./inp_files/66696.got.cif
#   From: 2010.05.17/outbox.cif.g08.bks.cpg/sg5_34_cif.got.tgz:66696.got - 2010.06.03 18:56:24.
