data_PCOD9120975
_publ_section_title
;
Structure prediction by ZEFSAII (Michael W. Deem and Ramdas Pophale) SiO2 
 PCOD9120975
Probable space group: C 2
;
_chemical_formula_sum "Si O2"
_cell_formula_units_Z 30
_cell_length_a 15.222550
_cell_length_b 9.705292
_cell_length_c 13.593258
_cell_angle_alpha 90.000000
_cell_angle_beta 130.383175
_cell_angle_gamma 90.000000
_cell_volume 1529.747793
_symmetry_space_group_name_H-M "C 2"
_symmetry_group_IT_number 5
_symmetry_cell_setting 'monoclinic'
loop_
_space_group_symop_operation_xyz
x,y,z
-x,y,-z
1/2+x,1/2+y,z
1/2-x,1/2+y,-z
loop_
_atom_site_type_symbol
_atom_site_label
_atom_site_fract_x
_atom_site_fract_y
_atom_site_fract_z
Si Si1 0.105107 0.509710 0.447044
Si Si2 0.000000 0.270838 0.500000
Si Si3 0.285576 0.681143 0.226476
Si Si4 0.349082 0.470393 0.707680
Si Si5 0.803640 0.980200 0.891103
Si Si6 0.093047 0.680838 0.770628
Si Si7 0.609218 0.144145 0.254012
Si Si8 0.589002 0.486102 0.820909
O O1 0.047146 0.370830 0.446726
O O2 0.222813 0.526960 0.591935
O O3 0.143030 0.530007 0.360207
O O4 0.003373 0.623788 0.375730
O O5 0.108145 0.185436 0.619115
O O6 0.171688 0.620948 0.196532
O O7 0.327630 0.597223 0.164304
O O8 0.261937 0.837219 0.177501
O O9 0.370201 0.502956 0.837459
O O10 0.351401 0.303044 0.693176
O O11 0.454384 0.526649 0.719841
O O12 0.709329 0.098003 0.840987
O O13 0.879751 0.963883 0.042747
O O14 0.106980 0.843207 0.776922
O O15 0.028956 0.649933 0.829571
#
# Coordination Sequence:
#
# PCOD9120975 Si02
#       8
#     4   2   4   4   4   4   4   4
#     4  10  18  37  63  86 121 150 207 241 306 366
#     4  12  20  38  66  86 120 164 204 246 312 374
#     4  11  22  38  64  92 119 160 205 252 304 354
#     4  10  20  37  60  87 118 162 203 243 302 359
#     4  11  20  41  64  85 120 171 207 236 298 379
#     4   9  20  39  60  85 121 159 201 245 308 357
#     4   8  19  35  58  86 119 152 198 245 303 355
#     4  11  24  38  59  93 128 154 204 262 292 345
#
# _framework density 19.611073999999999
#
# number of rings (size 3 to 8) (size 9 to 14) (size 15 to 20)
#    0.800    1.067    4.000    1.200    1.867    0.000 
#    0.000    9.333    0.000    0.000    0.000    0.000 
#    0.000    0.000    0.000    0.000    0.000    0.000 
#
# Total GULP energy -83507.659218 kJ/mol
# GULP energy per Si atom -5567.177281 kJ/mol
# Density = 1.956644 g / cm^3
# Si number density = 19.611074 Si / 1000 Ang^3
#
#
#
# Elastic Constant Matrix: (Units=GPa)
#
#
# Indices 1 2 3 4 5 6 
#
# 1 97.7531 25.1827 0.9250 0.0000 -6.8507 0.0000
# 2 25.1827 29.5706 2.2651 0.0000 -5.8183 0.0000
# 3 0.9250 2.2651 29.2233 0.0000 1.7607 0.0000
# 4 0.0000 0.0000 0.0000 11.7541 0.0000 0.1189
# 5 -6.8507 -5.8183 1.7607 0.0000 26.7568 0.0000
# 6 0.0000 0.0000 0.0000 0.1189 0.0000 12.2246
#
#
#
# Elastic Compliance Matrix: (Units=1/GPa)
#
#
# Indices 1 2 3 4 5 6 
#
# 1 0.013133 -0.011029 0.000383 0.000000 0.000939 0.000000
# 2 -0.011029 0.044894 -0.003563 0.000000 0.007173 0.000000
# 3 0.000383 -0.003563 0.034662 0.000000 -0.002958 0.000000
# 4 0.000000 0.000000 0.000000 0.085085 0.000000 -0.000827
# 5 0.000939 0.007173 -0.002958 0.000000 0.039369 0.000000
# 6 0.000000 0.000000 0.000000 -0.000827 0.000000 0.081810
#
#
# Mechanical properties :
#
#
# Convention : Reuss Voigt Hill
#
# Bulk Modulus (GPa) = 15.55924 23.69917 19.62920
# Shear Modulus (GPa) = 14.33506 18.69204 16.51355
#
# Velocity S-wave (km/s) = 2.70657 3.09064 2.90496
# Velocity P-wave (km/s) = 4.20934 4.98467 4.61332
#
# Compressibility (1/GPa) = 0.06427050
#
# Stress axis : x y z
#
# Youngs Moduli (GPa) = 76.14227 22.27460 28.85044
#
# Poissons Ratio (x) = 0.24567 -0.01104
# Poissons Ratio (y) = 0.83978 0.10279
# Poissons Ratio (z) = -0.02913 0.07936
#
# Static dielectric constant tensor:
#      x y z
#    x 1.713870 0.000000 -0.013450 
#    y 0.000000 1.661140 0.000000 
#    z -0.013450 0.000000 1.713650 
# 
# From -- ./inp_files/42501.got.cif
#   From: 2010.05.17/outbox.cif.g08.bks.cpg/sg5_22_cif.got.tgz:42501.got - 2010.06.03 18:56:24.
