data_PCOD9120432
_publ_section_title
;
Structure prediction by ZEFSAII (Michael W. Deem and Ramdas Pophale) SiO2 
 PCOD9120432
Probable space group: C 2
;
_chemical_formula_sum "Si O2"
_cell_formula_units_Z 30
_cell_length_a 13.282823
_cell_length_b 24.996847
_cell_length_c 12.987762
_cell_angle_alpha 90.000000
_cell_angle_beta 157.360155
_cell_angle_gamma 90.000000
_cell_volume 1659.968640
_symmetry_space_group_name_H-M "C 2"
_symmetry_group_IT_number 5
_symmetry_cell_setting 'monoclinic'
loop_
_space_group_symop_operation_xyz
x,y,z
-x,y,-z
1/2+x,1/2+y,z
1/2-x,1/2+y,-z
loop_
_atom_site_type_symbol
_atom_site_label
_atom_site_fract_x
_atom_site_fract_y
_atom_site_fract_z
Si Si1 0.495757 0.811380 0.273695
Si Si2 0.000000 0.461656 0.000000
Si Si3 0.452823 0.355801 0.838907
Si Si4 0.440037 0.701562 0.562235
Si Si5 0.939251 0.631646 0.061329
Si Si6 0.582212 0.457070 0.307460
Si Si7 0.581484 0.018946 0.868118
Si Si8 0.836560 0.875536 0.435916
O O1 0.682091 0.833680 0.539913
O O2 0.513726 0.748303 0.311479
O O3 0.631387 0.836516 0.299774
O O4 0.201478 0.832322 0.010957
O O5 0.797454 0.422076 0.756435
O O6 0.103330 0.497873 0.006076
O O7 0.423620 0.419484 0.797571
O O8 0.500000 0.339913 0.000000
O O9 0.500000 0.719346 0.500000
O O10 0.148229 0.677743 0.286323
O O11 0.647416 0.654942 0.782915
O O12 0.966500 0.581737 0.163884
O O13 0.000000 0.615535 0.000000
O O14 0.529373 0.411310 0.346733
O O15 0.850013 0.486383 0.592843
O O16 0.357828 0.500837 0.084230
O O17 0.000000 0.846328 0.500000
#
# Coordination Sequence:
#
# PCOD9120432 Si02
#       8
#     4   2   4   4   4   4   4   4
#     4  11  23  35  56  80 108 149 188 221 277 316
#     4  10  18  30  50  74 114 142 172 202 272 320
#     4  11  21  37  55  78 110 144 187 225 263 324
#     4  10  20  35  51  73 105 138 185 234 265 308
#     4  10  20  33  51  76 103 141 182 218 272 334
#     4  10  21  32  49  80 109 141 173 209 264 333
#     4  11  19  32  50  76 111 141 172 208 274 333
#     4  10  20  33  51  78 115 146 173 217 261 344
#
# _framework density 18.072631000000001
#
# number of rings (size 3 to 8) (size 9 to 14) (size 15 to 20)
#    0.000    1.600    2.000    5.200    1.867    1.067 
#    0.000    0.000    0.000    0.000    0.000    3.733 
#    0.000    0.000    0.000    0.000    0.000    0.000 
#
# Total GULP energy -83588.281099 kJ/mol
# GULP energy per Si atom -5572.552073 kJ/mol
# Density = 1.803150 g / cm^3
# Si number density = 18.072631 Si / 1000 Ang^3
#
#
#
# Elastic Constant Matrix: (Units=GPa)
#
#
# Indices 1 2 3 4 5 6 
#
# 1 26.3096 5.2979 -12.1997 -0.0002 2.9225 -0.0018
# 2 5.2979 63.7519 5.2122 -0.0010 3.2295 -0.0005
# 3 -12.1997 5.2122 61.7979 -0.0086 -3.2217 0.0173
# 4 -0.0002 -0.0010 -0.0086 27.5940 -0.0025 -21.8008
# 5 2.9225 3.2295 -3.2217 -0.0025 15.6765 0.0043
# 6 -0.0018 -0.0005 0.0173 -21.8008 0.0043 85.1615
#
#
#
# Elastic Compliance Matrix: (Units=1/GPa)
#
#
# Indices 1 2 3 4 5 6 
#
# 1 0.043433 -0.004037 0.008628 0.000002 -0.005492 0.000000
# 2 -0.004037 0.016370 -0.002339 0.000000 -0.003100 0.000001
# 3 0.008628 -0.002339 0.018219 0.000004 0.002617 -0.000003
# 4 0.000002 0.000000 0.000004 0.045427 0.000004 0.011629
# 5 -0.005492 -0.003100 0.002617 0.000004 0.065990 -0.000003
# 6 0.000000 0.000001 -0.000003 0.011629 -0.000003 0.014719
#
#
# Mechanical properties :
#
#
# Convention : Reuss Voigt Hill
#
# Bulk Modulus (GPa) = 12.11733 16.49780 14.30757
# Shear Modulus (GPa) = 22.01075 35.92301 28.96688
#
# Velocity S-wave (km/s) = 3.49364 4.46320 4.00785
# Velocity P-wave (km/s) = 4.79514 5.97567 5.41766
#
# Compressibility (1/GPa) = 0.08252640
#
# Stress axis : x y z
#
# Youngs Moduli (GPa) = 23.02411 61.08905 54.88810
#
# Poissons Ratio (x) = 0.24659 -0.47359
# Poissons Ratio (y) = 0.09294 0.12839
# Poissons Ratio (z) = -0.19866 0.14290
#
# Static dielectric constant tensor:
#      x y z
#    x 1.542690 0.000000 0.262590 
#    y 0.000000 1.650010 0.000000 
#    z 0.262590 0.000000 1.306060 
# 
# From -- ./inp_files/55072.got.cif
#   From: 2010.05.17/outbox.cif.g08.bks.cpg/sg5_28_cif.got.tgz:55072.got - 2010.06.03 18:56:24.
