data_PCOD9120097
_publ_section_title
;
Structure prediction by ZEFSAII (Michael W. Deem and Ramdas Pophale) SiO2 
 PCOD9120097
Probable space group: C 2
;
_chemical_formula_sum "Si O2"
_cell_formula_units_Z 22
_cell_length_a 11.819360
_cell_length_b 13.040295
_cell_length_c 9.148986
_cell_angle_alpha 90.000000
_cell_angle_beta 130.230415
_cell_angle_gamma 90.000000
_cell_volume 1076.556452
_symmetry_space_group_name_H-M "C 2"
_symmetry_group_IT_number 5
_symmetry_cell_setting 'monoclinic'
loop_
_space_group_symop_operation_xyz
x,y,z
-x,y,-z
1/2+x,1/2+y,z
1/2-x,1/2+y,-z
loop_
_atom_site_type_symbol
_atom_site_label
_atom_site_fract_x
_atom_site_fract_y
_atom_site_fract_z
Si Si1 0.952877 0.398770 0.625170
Si Si2 0.007239 0.023783 0.342750
Si Si3 0.645000 0.298234 0.420283
Si Si4 0.718602 0.094923 0.612645
Si Si5 0.000000 0.817986 0.000000
Si Si6 0.244576 0.970193 0.067194
O O1 0.818980 0.325908 0.555014
O O2 0.880844 0.511372 0.554155
O O3 0.000000 0.370335 0.500000
O O4 0.103628 0.410880 0.841599
O O5 0.066078 0.905404 0.395779
O O6 0.000000 0.065886 0.500000
O O7 0.119732 0.083325 0.328892
O O8 0.843367 0.018841 0.139506
O O9 0.645302 0.204627 0.531317
O O10 0.572670 0.265276 0.203410
O O11 0.725890 0.055537 0.784474
O O12 0.868971 0.890739 0.951287
#
# Coordination Sequence:
#
# PCOD9120097 Si02
#       6
#     4   4   4   4   2   4
#     4   9  17  34  59  84 113 152 196 234 282 350
#     4  10  21  39  57  82 119 154 189 245 293 339
#     4  10  20  35  59  86 118 153 193 244 285 341
#     4  10  19  36  58  85 117 150 193 238 287 347
#     4  10  16  36  62  80 112 160 192 226 292 348
#     4  10  17  38  65  79 109 162 197 227 294 348
#
# _framework density 20.435528999999999
#
# number of rings (size 3 to 8) (size 9 to 14) (size 15 to 20)
#    0.000    2.182    7.273    0.000    0.000    2.909 
#    3.273    8.182    0.000    0.000    0.000    0.000 
#    0.000    0.000    0.000    0.000    0.000    0.000 
#
# Total GULP energy -61336.897895 kJ/mol
# GULP energy per Si atom -5576.081627 kJ/mol
# Density = 2.038902 g / cm^3
# Si number density = 20.435529 Si / 1000 Ang^3
#
#
#
# Elastic Constant Matrix: (Units=GPa)
#
#
# Indices 1 2 3 4 5 6 
#
# 1 66.0192 2.6722 40.4936 0.0000 20.7764 0.0000
# 2 2.6722 73.5609 13.2556 0.0000 6.5730 0.0000
# 3 40.4936 13.2556 127.2918 0.0000 29.1359 0.0000
# 4 0.0000 0.0000 0.0000 15.6895 0.0000 -7.6113
# 5 20.7764 6.5730 29.1359 0.0000 30.7949 0.0000
# 6 0.0000 0.0000 0.0000 -7.6113 0.0000 0.4897
#
#
#
# Elastic Compliance Matrix: (Units=1/GPa)
#
#
# Indices 1 2 3 4 5 6 
#
# 1 0.021051 0.000950 -0.004465 0.000000 -0.010181 0.000000
# 2 0.000950 0.013997 -0.001186 0.000000 -0.002506 0.000000
# 3 -0.004465 -0.001186 0.011044 0.000000 -0.007183 0.000000
# 4 0.000000 0.000000 0.000000 -0.009747 0.000000 -0.151475
# 5 -0.010181 -0.002506 -0.007183 0.000000 0.046673 0.000000
# 6 0.000000 0.000000 0.000000 -0.151475 0.000000 -0.312244
#
#
# Mechanical properties :
#
#
# Convention : Reuss Voigt Hill
#
# Bulk Modulus (GPa) = 27.25598 42.19053 34.72326
# Shear Modulus (GPa) = -24.08579 23.42487 -0.33046
#
# Velocity S-wave (km/s) = -3.43683 3.38935 -0.40257
# Velocity P-wave (km/s) = 1.54356 6.00062 4.10029
#
# Compressibility (1/GPa) = 0.03668919
#
# Stress axis : x y z
#
# Youngs Moduli (GPa) = 47.50260 71.44214 90.54521
#
# Poissons Ratio (x) = -0.06784 0.40433
# Poissons Ratio (y) = -0.04511 0.10739
# Poissons Ratio (z) = 0.21212 0.08474
#
# Static dielectric constant tensor:
#      x y z
#    x 1.768870 0.000000 0.018920 
#    y 0.000000 1.729900 0.000000 
#    z 0.018920 0.000000 1.751220 
# 
# From -- ./inp_files/19850.got.cif
#   From: 2010.05.17/outbox.cif.g08.bks.cpg/sg5_10_cif.got.tgz:19850.got - 2010.06.03 18:56:24.
