data_PCOD9120173
_publ_section_title
;
Structure prediction by ZEFSAII (Michael W. Deem and Ramdas Pophale) SiO2 
 PCOD9120173
Probable space group: C 2
;
_chemical_formula_sum "Si O2"
_cell_formula_units_Z 28
_cell_length_a 15.942554
_cell_length_b 8.732953
_cell_length_c 19.738487
_cell_angle_alpha 90.000000
_cell_angle_beta 27.995452
_cell_angle_gamma 90.000000
_cell_volume 1289.963225
_symmetry_space_group_name_H-M "C 2"
_symmetry_group_IT_number 5
_symmetry_cell_setting 'monoclinic'
loop_
_space_group_symop_operation_xyz
x,y,z
-x,y,-z
1/2+x,1/2+y,z
1/2-x,1/2+y,-z
loop_
_atom_site_type_symbol
_atom_site_label
_atom_site_fract_x
_atom_site_fract_y
_atom_site_fract_z
Si Si1 0.075800 0.542380 0.201722
Si Si2 0.571950 0.246918 0.336986
Si Si3 0.811161 0.834282 0.103814
Si Si4 0.878619 0.042035 0.775106
Si Si5 0.948937 0.835384 0.245717
Si Si6 0.303839 0.786495 0.442822
Si Si7 0.679175 0.963609 0.332521
O O1 0.025194 0.663861 0.180046
O O2 0.856111 0.739832 0.494263
O O3 0.907388 0.434113 0.340016
O O4 0.113597 0.657048 0.237506
O O5 0.622233 0.422156 0.286508
O O6 0.743459 0.927666 0.086631
O O7 0.668443 0.145368 0.324341
O O8 0.787549 0.655474 0.107750
O O9 0.679455 0.877850 0.260142
O O10 0.000000 0.878626 0.000000
O O11 0.903367 0.944890 0.825862
O O12 0.053683 0.151395 0.649047
O O13 0.799131 0.820141 0.413226
O O14 0.848358 0.909217 0.254588
O O15 0.500000 0.922362 0.500000
#
# Coordination Sequence:
#
# PCOD9120173 Si02
#       7
#     4   4   4   4   4   4   4
#     4   8  16  30  52  75  99 143 184 213 263 333
#     4   9  16  28  47  78 111 141 175 217 271 324
#     4  10  21  39  58  77 107 148 188 226 276 335
#     4   9  17  32  52  74 103 149 190 218 261 337
#     4  10  17  30  51  78 109 141 180 226 271 320
#     4   9  14  27  52  77 105 146 187 219 263 333
#     4  11  21  34  54  85 117 142 175 231 281 316
#
# _framework density 21.706046000000001
#
# number of rings (size 3 to 8) (size 9 to 14) (size 15 to 20)
#    0.000    2.857    0.000    6.857    0.000    0.000 
#    0.000   14.286    0.000    0.000    0.000    0.000 
#    0.000    0.000    0.000    0.000    0.000    0.000 
#
# Total GULP energy -78050.929695 kJ/mol
# GULP energy per Si atom -5575.066407 kJ/mol
# Density = 2.165664 g / cm^3
# Si number density = 21.706046 Si / 1000 Ang^3
#
#
#
# Elastic Constant Matrix: (Units=GPa)
#
#
# Indices 1 2 3 4 5 6 
#
# 1 105.2249 54.4287 17.4000 -0.0001 -10.8438 0.0000
# 2 54.4287 148.6358 17.0551 -0.0002 -13.9796 0.0002
# 3 17.4000 17.0551 44.2529 -0.0002 0.3410 0.0004
# 4 -0.0001 -0.0002 -0.0002 6.4531 0.0004 -10.9474
# 5 -10.8438 -13.9796 0.3410 0.0004 33.6011 -0.0002
# 6 0.0000 0.0002 0.0004 -10.9474 -0.0002 42.4079
#
#
#
# Elastic Compliance Matrix: (Units=1/GPa)
#
#
# Indices 1 2 3 4 5 6 
#
# 1 0.012324 -0.003903 -0.003360 0.000000 0.002388 0.000000
# 2 -0.003903 0.008582 -0.001791 0.000000 0.002329 0.000000
# 3 -0.003360 -0.001791 0.024625 0.000001 -0.002079 0.000000
# 4 0.000000 0.000000 0.000001 0.275709 -0.000003 0.071173
# 5 0.002388 0.002329 -0.002079 -0.000003 0.031522 -0.000001
# 6 0.000000 0.000000 0.000000 0.071173 -0.000001 0.041954
#
#
# Mechanical properties :
#
#
# Convention : Reuss Voigt Hill
#
# Bulk Modulus (GPa) = 36.46551 52.87570 44.67060
# Shear Modulus (GPa) = 11.84941 30.44107 21.14524
#
# Velocity S-wave (km/s) = 2.33899 3.74896 3.12455
# Velocity P-wave (km/s) = 4.91230 6.56904 5.80013
#
# Compressibility (1/GPa) = 0.02742317
#
# Stress axis : x y z
#
# Youngs Moduli (GPa) = 81.14356 116.52944 40.60964
#
# Poissons Ratio (x) = 0.45479 0.13645
# Poissons Ratio (y) = 0.31668 0.07272
# Poissons Ratio (z) = 0.27264 0.20867
#
# Static dielectric constant tensor:
#      x y z
#    x 1.835420 0.000000 0.008060 
#    y 0.000000 1.844530 0.000000 
#    z 0.008060 0.000000 1.848820 
# 
# From -- ./inp_files/69049.got.cif
#   From: 2010.05.17/outbox.cif.g08.bks.cpg/sg5_35_cif.got.tgz:69049.got - 2010.06.03 18:56:24.
