data_PCOD9120887
_publ_section_title
;
Structure prediction by ZEFSAII (Michael W. Deem and Ramdas Pophale) SiO2 
 PCOD9120887
Probable space group: C 2
;
_chemical_formula_sum "Si O2"
_cell_formula_units_Z 24
_cell_length_a 21.947582
_cell_length_b 7.544940
_cell_length_c 9.971042
_cell_angle_alpha 90.000000
_cell_angle_beta 47.595618
_cell_angle_gamma 90.000000
_cell_volume 1219.205520
_symmetry_space_group_name_H-M "C 2"
_symmetry_group_IT_number 5
_symmetry_cell_setting 'monoclinic'
loop_
_space_group_symop_operation_xyz
x,y,z
-x,y,-z
1/2+x,1/2+y,z
1/2-x,1/2+y,-z
loop_
_atom_site_type_symbol
_atom_site_label
_atom_site_fract_x
_atom_site_fract_y
_atom_site_fract_z
Si Si1 0.575753 0.839750 0.177835
Si Si2 0.898062 0.308092 0.397984
Si Si3 0.742327 0.428610 0.786685
Si Si4 0.260598 0.065173 0.039354
Si Si5 0.412031 0.544391 0.610190
Si Si6 0.590807 0.604579 0.890757
O O1 0.482906 0.913396 0.301696
O O2 0.580879 0.715454 0.301295
O O3 0.652361 0.970731 0.066698
O O4 0.582892 0.715567 0.038334
O O5 0.821234 0.411889 0.573738
O O6 0.906442 0.124564 0.470231
O O7 0.889513 0.242376 0.258387
O O8 0.750111 0.574032 0.893742
O O9 0.663024 0.466244 0.813163
O O10 0.737504 0.247220 0.879961
O O11 0.176734 0.966980 0.216688
O O12 0.500000 0.446234 0.500000
O O13 0.500000 0.524683 0.000000
#
# Coordination Sequence:
#
# PCOD9120887 Si02
#       6
#     4   4   4   4   4   4
#     4  10  18  36  61  83 115 153 199 229 287 347
#     4   9  20  34  58  84 113 155 187 235 281 355
#     4  11  21  37  61  87 120 149 198 240 290 339
#     4  11  19  34  61  87 113 151 193 245 279 337
#     4   9  17  32  56  82 110 152 191 230 273 349
#     4  10  21  39  59  83 115 160 195 230 293 354
#
# _framework density 19.684950000000001
#
# number of rings (size 3 to 8) (size 9 to 14) (size 15 to 20)
#    0.000    2.000    5.000    0.000    0.000    2.667 
#    0.000    4.167    7.333    0.000    0.000    0.000 
#    0.000    0.000    0.000    0.000    0.000    0.000 
#
# Total GULP energy -66853.934107 kJ/mol
# GULP energy per Si atom -5571.161176 kJ/mol
# Density = 1.964015 g / cm^3
# Si number density = 19.684950 Si / 1000 Ang^3
#
#
#
# Elastic Constant Matrix: (Units=GPa)
#
#
# Indices 1 2 3 4 5 6 
#
# 1 154.3705 33.4493 56.8801 0.0000 -42.9075 0.0000
# 2 33.4493 27.6730 22.1281 0.0000 -15.9277 0.0000
# 3 56.8801 22.1281 110.6404 0.0000 -34.7669 0.0000
# 4 0.0000 0.0000 0.0000 26.6699 0.0000 -7.2925
# 5 -42.9075 -15.9277 -34.7669 0.0000 54.0592 0.0000
# 6 0.0000 0.0000 0.0000 -7.2925 0.0000 30.7354
#
#
#
# Elastic Compliance Matrix: (Units=1/GPa)
#
#
# Indices 1 2 3 4 5 6 
#
# 1 0.010278 -0.008107 -0.002318 0.000000 0.004278 0.000000
# 2 -0.008107 0.053167 -0.004468 0.000000 0.006357 0.000000
# 3 -0.002318 -0.004468 0.012698 0.000000 0.005010 0.000000
# 4 0.000000 0.000000 0.000000 0.040097 0.000000 0.009514
# 5 0.004278 0.006357 0.005010 0.000000 0.026989 0.000000
# 6 0.000000 0.000000 0.000000 0.009514 0.000000 0.034793
#
#
# Mechanical properties :
#
#
# Convention : Reuss Voigt Hill
#
# Bulk Modulus (GPa) = 21.57207 57.51097 39.54152
# Shear Modulus (GPa) = 22.39538 34.30801 28.35169
#
# Velocity S-wave (km/s) = 3.37663 4.17928 3.79921
# Velocity P-wave (km/s) = 5.11709 7.25035 6.27504
#
# Compressibility (1/GPa) = 0.04635623
#
# Stress axis : x y z
#
# Youngs Moduli (GPa) = 97.29658 18.80862 78.75300
#
# Poissons Ratio (x) = 0.15249 0.18255
# Poissons Ratio (y) = 0.78880 0.35188
# Poissons Ratio (z) = 0.22554 0.08404
#
# Static dielectric constant tensor:
#      x y z
#    x 1.736670 0.000000 -0.061320 
#    y 0.000000 1.699710 0.000000 
#    z -0.061320 0.000000 1.725160 
# 
# From -- ./inp_files/26486.got.cif
#   From: 2010.05.17/outbox.cif.g08.bks.cpg/sg5_14_cif.got.tgz:26486.got - 2010.06.03 18:56:24.
