data_PCOD9120525
_publ_section_title
;
Structure prediction by ZEFSAII (Michael W. Deem and Ramdas Pophale) SiO2 
 PCOD9120525
Probable space group: C 2
;
_chemical_formula_sum "Si O2"
_cell_formula_units_Z 28
_cell_length_a 8.435266
_cell_length_b 12.641469
_cell_length_c 21.795205
_cell_angle_alpha 90.000000
_cell_angle_beta 31.114449
_cell_angle_gamma 90.000000
_cell_volume 1200.983769
_symmetry_space_group_name_H-M "C 2"
_symmetry_group_IT_number 5
_symmetry_cell_setting 'monoclinic'
loop_
_space_group_symop_operation_xyz
x,y,z
-x,y,-z
1/2+x,1/2+y,z
1/2-x,1/2+y,-z
loop_
_atom_site_type_symbol
_atom_site_label
_atom_site_fract_x
_atom_site_fract_y
_atom_site_fract_z
Si Si1 0.702102 0.016610 0.875783
Si Si2 0.606208 0.907134 0.713817
Si Si3 0.355995 0.101609 0.876282
Si Si4 0.796863 0.708730 0.337404
Si Si5 0.287447 0.690949 0.285984
Si Si6 0.500000 0.111403 0.500000
Si Si7 0.500000 0.525080 0.500000
Si Si8 0.093183 0.912231 0.653264
O O1 0.489468 0.079256 0.898650
O O2 0.990220 0.090615 0.798010
O O3 0.500000 0.983734 0.000000
O O4 0.832448 0.921517 0.791644
O O5 0.493000 0.788700 0.764925
O O6 0.930454 0.892119 0.642618
O O7 0.415558 0.997507 0.812766
O O8 0.709365 0.949515 0.612416
O O9 0.555393 0.191572 0.777238
O O10 0.000000 0.125285 0.000000
O O11 0.073322 0.698510 0.296301
O O12 0.556012 0.613785 0.428333
O O13 0.682479 0.826249 0.390426
O O14 0.055514 0.677556 0.420492
O O15 0.226051 0.027735 0.598151
#
# Coordination Sequence:
#
# PCOD9120525 Si02
#       8
#     4   4   4   4   4   2   2   4
#     4  10  21  38  57  78 107 140 179 224 271 321
#     4   9  19  34  52  78 110 143 178 218 263 315
#     4  10  21  38  57  78 107 140 179 224 271 321
#     4  10  20  35  56  81 110 144 181 220 265 315
#     4  10  20  35  56  81 110 144 181 220 265 315
#     4  10  18  32  54  82 112 144 178 218 262 312
#     4  10  18  32  54  82 112 144 178 218 262 312
#     4   9  19  34  52  78 110 143 178 218 263 315
#
# _framework density 23.314219999999999
#
# number of rings (size 3 to 8) (size 9 to 14) (size 15 to 20)
#    0.000    2.286    0.000    2.571    0.000    2.286 
#    0.000   11.429    0.000    0.000    0.000    0.000 
#    0.000    0.000    0.000    0.000    0.000    0.000 
#
# Total GULP energy -77954.506007 kJ/mol
# GULP energy per Si atom -5568.179001 kJ/mol
# Density = 2.326116 g / cm^3
# Si number density = 23.314220 Si / 1000 Ang^3
#
#
#
# Elastic Constant Matrix: (Units=GPa)
#
#
# Indices 1 2 3 4 5 6 
#
# 1 56.6806 -0.7786 17.9426 -0.0079 14.4884 0.0127
# 2 -0.7786 69.7830 -9.0029 -0.0070 8.2087 0.0033
# 3 17.9426 -9.0029 113.4155 0.0132 27.8589 0.0065
# 4 -0.0079 -0.0070 0.0132 -3.8397 -0.0062 6.5861
# 5 14.4884 8.2087 27.8589 -0.0062 26.6781 -0.0053
# 6 0.0127 0.0033 0.0065 6.5861 -0.0053 22.6066
#
#
#
# Elastic Compliance Matrix: (Units=1/GPa)
#
#
# Indices 1 2 3 4 5 6 
#
# 1 0.020670 0.001512 -0.000374 -0.000035 -0.011300 -0.000004
# 2 0.001512 0.015835 0.003250 -0.000011 -0.009087 -0.000003
# 3 -0.000374 0.003250 0.012549 0.000032 -0.013901 -0.000016
# 4 -0.000035 -0.000011 0.000032 -0.173657 -0.000041 0.050593
# 5 -0.011300 -0.009087 -0.013901 -0.000041 0.060933 0.000038
# 6 -0.000004 -0.000003 -0.000016 0.050593 0.000038 0.029495
#
#
# Mechanical properties :
#
#
# Convention : Reuss Voigt Hill
#
# Bulk Modulus (GPa) = 17.29247 28.46682 22.87965
# Shear Modulus (GPa) = -211.21741 24.53687 -93.34027
#
# Velocity S-wave (km/s) = -9.52852 3.24766 -6.33425
# Velocity P-wave (km/s) = 10.65944 5.12831 6.60772
#
# Compressibility (1/GPa) = 0.05782863
#
# Stress axis : x y z
#
# Youngs Moduli (GPa) = 48.37833 63.15039 79.68794
#
# Poissons Ratio (x) = -0.09545 0.02984
# Poissons Ratio (y) = -0.07312 -0.25899
# Poissons Ratio (z) = 0.01812 -0.20524
#
# Static dielectric constant tensor:
#      x y z
#    x 1.925440 -0.000020 -0.015620 
#    y -0.000020 2.107010 0.000010 
#    z -0.015620 0.000010 1.912140 
# 
# From -- ./inp_files/64708.got.cif
#   From: 2010.05.17/outbox.cif.g08.bks.cpg/sg5_33_cif.got.tgz:64708.got - 2010.06.03 18:56:24.
