data_PCOD9120035
_publ_section_title
;
Structure prediction by ZEFSAII (Michael W. Deem and Ramdas Pophale) SiO2 
 PCOD9120035
Probable space group: C 2
;
_chemical_formula_sum "Si O2"
_cell_formula_units_Z 28
_cell_length_a 15.629673
_cell_length_b 7.988873
_cell_length_c 20.018560
_cell_angle_alpha 90.000000
_cell_angle_beta 28.201794
_cell_angle_gamma 90.000000
_cell_volume 1181.250685
_symmetry_space_group_name_H-M "C 2"
_symmetry_group_IT_number 5
_symmetry_cell_setting 'monoclinic'
loop_
_space_group_symop_operation_xyz
x,y,z
-x,y,-z
1/2+x,1/2+y,z
1/2-x,1/2+y,-z
loop_
_atom_site_type_symbol
_atom_site_label
_atom_site_fract_x
_atom_site_fract_y
_atom_site_fract_z
Si Si1 0.500000 0.140700 0.000000
Si Si2 0.500000 0.780865 0.500000
Si Si3 0.362805 0.677900 0.389083
Si Si4 0.118860 0.885404 0.720564
Si Si5 0.739910 0.000084 0.732845
Si Si6 0.648564 0.449992 0.853701
Si Si7 0.151667 0.526965 0.645603
Si Si8 0.464984 0.193238 0.603399
O O1 0.447063 0.035906 0.100486
O O2 0.338349 0.277757 0.112253
O O3 0.341993 0.878329 0.568493
O O4 0.370043 0.660276 0.632779
O O5 0.440885 0.541807 0.283409
O O6 0.329144 0.588408 0.482980
O O7 0.433768 0.868409 0.334652
O O8 0.150982 0.698297 0.514295
O O9 0.073544 0.910139 0.830257
O O10 0.059908 0.705352 0.730263
O O11 0.699821 0.948923 0.684469
O O12 0.847080 0.858412 0.697177
O O13 0.833500 0.543849 0.715060
O O14 0.500000 0.548985 0.000000
O O15 0.500000 0.191912 0.500000
#
# Coordination Sequence:
#
# PCOD9120035 Si02
#       8
#     2   2   4   4   4   4   4   4
#     4  10  22  34  58  88 118 164 198 240 314 380
#     4  10  16  32  60  86 112 144 190 260 304 336
#     4  12  23  35  58  94 121 161 205 254 319 372
#     4  11  19  34  60  83 121 151 194 254 303 366
#     4  11  21  38  60  89 121 154 205 257 309 370
#     4  10  20  36  56  91 118 156 195 247 319 365
#     4  11  21  37  55  87 126 161 196 248 317 382
#     4  12  21  36  62  94 124 149 213 273 302 351
#
# _framework density 23.703689000000001
#
# number of rings (size 3 to 8) (size 9 to 14) (size 15 to 20)
#    0.429    0.571    7.857    1.714    1.000    0.000 
#    0.000    0.000    0.000    3.429    0.000    0.000 
#    0.000    0.000    0.000    0.000    0.000    0.000 
#
# Total GULP energy -78023.168203 kJ/mol
# GULP energy per Si atom -5573.083443 kJ/mol
# Density = 2.364974 g / cm^3
# Si number density = 23.703689 Si / 1000 Ang^3
#
#
#
# Elastic Constant Matrix: (Units=GPa)
#
#
# Indices 1 2 3 4 5 6 
#
# 1 51.5625 14.3898 29.7740 -0.0001 23.4394 -0.0002
# 2 14.3898 137.5403 24.6685 -0.0002 15.1117 -0.0001
# 3 29.7740 24.6685 141.5440 -0.0009 41.7211 0.0003
# 4 -0.0001 -0.0002 -0.0009 37.7812 0.0002 4.2862
# 5 23.4394 15.1117 41.7211 0.0002 30.4821 0.0001
# 6 -0.0002 -0.0001 0.0003 4.2862 0.0001 22.8054
#
#
#
# Elastic Compliance Matrix: (Units=1/GPa)
#
#
# Indices 1 2 3 4 5 6 
#
# 1 0.029930 -0.000663 0.000849 0.000000 -0.023848 0.000000
# 2 -0.000663 0.007715 -0.000382 0.000000 -0.002792 0.000000
# 3 0.000849 -0.000382 0.011884 0.000000 -0.016729 0.000000
# 4 0.000000 0.000000 0.000000 0.027045 -0.000001 -0.005083
# 5 -0.023848 -0.002792 -0.016729 -0.000001 0.075426 0.000000
# 6 0.000000 0.000000 0.000000 -0.005083 0.000000 0.044805
#
#
# Mechanical properties :
#
#
# Convention : Reuss Voigt Hill
#
# Bulk Modulus (GPa) = 20.35166 52.03461 36.19313
# Shear Modulus (GPa) = 23.41093 35.66802 29.53947
#
# Velocity S-wave (km/s) = 3.14610 3.88331 3.53398
# Velocity P-wave (km/s) = 4.66923 6.48896 5.65280
#
# Compressibility (1/GPa) = 0.04913605
#
# Stress axis : x y z
#
# Youngs Moduli (GPa) = 33.41176 129.61295 84.14688
#
# Poissons Ratio (x) = 0.08599 -0.07146
# Poissons Ratio (y) = 0.02217 0.03216
# Poissons Ratio (z) = -0.02838 0.04954
#
# Static dielectric constant tensor:
#      x y z
#    x 1.956080 0.000000 0.049070 
#    y 0.000000 2.039760 0.000000 
#    z 0.049070 0.000000 1.936460 
# 
# From -- ./inp_files/66563.got.cif
#   From: 2010.05.17/outbox.cif.g08.bks.cpg/sg5_34_cif.got.tgz:66563.got - 2010.06.03 18:56:24.
