data_PCOD9120554
_publ_section_title
;
Structure prediction by ZEFSAII (Michael W. Deem and Ramdas Pophale) SiO2 
 PCOD9120554
Probable space group: C 2
;
_chemical_formula_sum "Si O2"
_cell_formula_units_Z 28
_cell_length_a 21.256419
_cell_length_b 15.293533
_cell_length_c 9.257956
_cell_angle_alpha 90.000000
_cell_angle_beta 151.007329
_cell_angle_gamma 90.000000
_cell_volume 1458.760628
_symmetry_space_group_name_H-M "C 2"
_symmetry_group_IT_number 5
_symmetry_cell_setting 'monoclinic'
loop_
_space_group_symop_operation_xyz
x,y,z
-x,y,-z
1/2+x,1/2+y,z
1/2-x,1/2+y,-z
loop_
_atom_site_type_symbol
_atom_site_label
_atom_site_fract_x
_atom_site_fract_y
_atom_site_fract_z
Si Si1 0.473346 0.233230 0.669700
Si Si2 0.364143 0.390138 0.268382
Si Si3 0.000000 0.853427 0.000000
Si Si4 0.361945 0.918210 0.991910
Si Si5 0.000000 0.290206 0.500000
Si Si6 0.263208 0.776284 0.209312
Si Si7 0.945979 0.555622 0.733868
Si Si8 0.282508 0.893227 0.510508
O O1 0.402747 0.295058 0.412784
O O2 0.466783 0.291324 0.800003
O O3 0.407172 0.140882 0.566961
O O4 0.628444 0.222473 0.950482
O O5 0.500000 0.433633 0.500000
O O6 0.275614 0.436017 0.208377
O O7 0.283029 0.366242 0.963472
O O8 0.871427 0.905553 0.781493
O O9 0.341921 0.881352 0.789825
O O10 0.435114 0.851220 0.245614
O O11 0.443159 0.005714 0.132869
O O12 0.118061 0.242584 0.651400
O O13 0.304731 0.809706 0.451290
O O14 0.843867 0.479792 0.564521
O O15 0.000000 0.584581 0.000000
#
# Coordination Sequence:
#
# PCOD9120554 Si02
#       8
#     4   4   2   4   2   4   4   4
#     4  10  18  34  54  80 109 145 182 234 279 321
#     4   9  18  34  52  78 106 142 189 227 270 331
#     4  10  18  32  58  82 104 144 184 234 268 330
#     4  10  19  33  54  81 111 145 185 234 271 330
#     4  10  18  34  52  78 114 144 188 228 268 330
#     4   9  19  32  53  79 107 142 189 227 268 333
#     4  10  20  33  54  84 113 140 186 235 281 330
#     4  10  19  34  56  83 109 146 190 229 281 324
#
# _framework density 19.194375000000001
#
# number of rings (size 3 to 8) (size 9 to 14) (size 15 to 20)
#    0.000    2.286    3.571    0.000    0.000    0.000 
#    3.857    0.000    1.571    8.571    0.000    0.000 
#    0.000    0.000    0.000    0.000    0.000    0.000 
#
# Total GULP energy -77979.778561 kJ/mol
# GULP energy per Si atom -5569.984183 kJ/mol
# Density = 1.915069 g / cm^3
# Si number density = 19.194375 Si / 1000 Ang^3
#
#
#
# Elastic Constant Matrix: (Units=GPa)
#
#
# Indices 1 2 3 4 5 6 
#
# 1 125.2359 26.7506 33.1541 0.0000 22.0247 0.0000
# 2 26.7506 40.8899 18.3735 0.0000 6.7922 0.0000
# 3 33.1541 18.3735 54.0196 0.0000 -0.0465 0.0000
# 4 0.0000 0.0000 0.0000 8.8814 0.0000 -3.6231
# 5 22.0247 6.7922 -0.0465 0.0000 53.8117 0.0000
# 6 0.0000 0.0000 0.0000 -3.6231 0.0000 12.2967
#
#
#
# Elastic Compliance Matrix: (Units=1/GPa)
#
#
# Indices 1 2 3 4 5 6 
#
# 1 0.010978 -0.004122 -0.005339 0.000000 -0.003978 0.000000
# 2 -0.004122 0.031152 -0.008067 0.000000 -0.002252 0.000000
# 3 -0.005339 -0.008067 0.024535 0.000000 0.003225 0.000000
# 4 0.000000 0.000000 0.000000 0.127977 0.000000 0.037708
# 5 -0.003978 -0.002252 0.003225 0.000000 0.020498 0.000000
# 6 0.000000 0.000000 0.000000 0.037708 0.000000 0.092433
#
#
# Mechanical properties :
#
#
# Convention : Reuss Voigt Hill
#
# Bulk Modulus (GPa) = 31.63786 41.85574 36.74680
# Shear Modulus (GPa) = 14.15756 24.45578 19.30667
#
# Velocity S-wave (km/s) = 2.71881 3.57334 3.17496
# Velocity P-wave (km/s) = 5.13561 6.23527 5.71197
#
# Compressibility (1/GPa) = 0.03160770
#
# Stress axis : x y z
#
# Youngs Moduli (GPa) = 91.08723 32.10077 40.75735
#
# Poissons Ratio (x) = 0.13233 0.21761
# Poissons Ratio (y) = 0.37549 0.32881
# Poissons Ratio (z) = 0.48634 0.25897
#
# Static dielectric constant tensor:
#      x y z
#    x 1.739100 0.000000 0.012530 
#    y 0.000000 1.615960 0.000000 
#    z 0.012530 0.000000 1.727440 
# 
# From -- ./inp_files/29932.got.cif
#   From: 2010.05.17/outbox.cif.g08.bks.cpg/sg5_15_cif.got.tgz:29932.got - 2010.06.03 18:56:24.
