data_PCOD9120821
_publ_section_title
;
Structure prediction by ZEFSAII (Michael W. Deem and Ramdas Pophale) SiO2 
 PCOD9120821
Probable space group: C 2
;
_chemical_formula_sum "Si O2"
_cell_formula_units_Z 30
_cell_length_a 11.885509
_cell_length_b 19.365363
_cell_length_c 10.925044
_cell_angle_alpha 90.000000
_cell_angle_beta 148.505816
_cell_angle_gamma 90.000000
_cell_volume 1313.650321
_symmetry_space_group_name_H-M "C 2"
_symmetry_group_IT_number 5
_symmetry_cell_setting 'monoclinic'
loop_
_space_group_symop_operation_xyz
x,y,z
-x,y,-z
1/2+x,1/2+y,z
1/2-x,1/2+y,-z
loop_
_atom_site_type_symbol
_atom_site_label
_atom_site_fract_x
_atom_site_fract_y
_atom_site_fract_z
Si Si1 0.640385 0.635870 0.819227
Si Si2 0.923315 0.806573 0.141792
Si Si3 0.056354 0.571265 0.685708
Si Si4 0.466418 0.744347 0.097247
Si Si5 0.000000 0.705184 0.000000
Si Si6 0.297596 0.369951 0.404930
Si Si7 0.844428 0.941002 0.967656
Si Si8 0.848907 0.013018 0.548150
O O1 0.795406 0.661683 0.854787
O O2 0.791220 0.611327 0.075274
O O3 0.495179 0.696088 0.748312
O O4 0.496907 0.574076 0.635809
O O5 0.024264 0.755513 0.137879
O O6 0.113045 0.846726 0.381651
O O7 0.779291 0.766898 0.106790
O O8 0.767659 0.865789 0.940799
O O9 0.839031 0.551290 0.553535
O O10 0.000000 0.603511 0.500000
O O11 0.172646 0.497763 0.769301
O O12 0.611089 0.813415 0.214283
O O13 0.500000 0.704945 0.000000
O O14 0.500000 0.363680 0.500000
O O15 0.251308 0.452191 0.371943
O O16 0.000000 0.926296 0.000000
O O17 0.985250 0.976246 0.204633
#
# Coordination Sequence:
#
# PCOD9120821 Si02
#       8
#     4   4   4   4   2   4   4   4
#     4  10  26  43  65  96 135 180 220 279 334 397
#     4  10  21  41  66  94 131 175 214 280 329 397
#     4  11  22  38  63  97 131 176 224 272 333 399
#     4  11  23  42  65  98 136 172 219 276 340 395
#     4  10  22  46  64  90 130 180 222 262 346 394
#     4  11  23  43  68 102 128 172 229 276 337 397
#     4  10  18  35  63  93 132 165 218 276 323 380
#     4  10  23  41  64  98 131 174 223 269 335 392
#
# _framework density 22.837128
#
# number of rings (size 3 to 8) (size 9 to 14) (size 15 to 20)
#    0.000    1.600    3.333    0.800    1.867    3.200 
#    0.000    5.333    0.000    0.000    0.000    0.000 
#    0.000    0.000    0.000    0.000    0.000    0.000 
#
# Total GULP energy -83664.558878 kJ/mol
# GULP energy per Si atom -5577.637259 kJ/mol
# Density = 2.278515 g / cm^3
# Si number density = 22.837128 Si / 1000 Ang^3
#
#
#
# Elastic Constant Matrix: (Units=GPa)
#
#
# Indices 1 2 3 4 5 6 
#
# 1 150.5566 47.9471 20.8588 0.0000 17.7973 0.0000
# 2 47.9471 109.2086 27.8325 0.0000 9.7638 0.0000
# 3 20.8588 27.8325 54.1928 0.0003 -0.9208 -0.0001
# 4 0.0000 0.0000 0.0003 58.8074 0.0001 -31.9988
# 5 17.7973 9.7638 -0.9208 0.0001 21.5626 0.0000
# 6 0.0000 0.0000 -0.0001 -31.9988 0.0000 74.5128
#
#
#
# Elastic Compliance Matrix: (Units=1/GPa)
#
#
# Indices 1 2 3 4 5 6 
#
# 1 0.008464 -0.002689 -0.001976 0.000000 -0.005853 0.000000
# 2 -0.002689 0.011959 -0.005165 0.000000 -0.003416 0.000000
# 3 -0.001976 -0.005165 0.021949 0.000000 0.004907 0.000000
# 4 0.000000 0.000000 0.000000 0.022190 0.000000 0.009529
# 5 -0.005853 -0.003416 0.004907 0.000000 0.052964 0.000000
# 6 0.000000 0.000000 0.000000 0.009529 0.000000 0.017513
#
#
# Mechanical properties :
#
#
# Convention : Reuss Voigt Hill
#
# Bulk Modulus (GPa) = 44.02987 56.35943 50.19465
# Shear Modulus (GPa) = 30.81280 45.46455 38.13868
#
# Velocity S-wave (km/s) = 3.67719 4.46670 4.09103
# Velocity P-wave (km/s) = 6.11153 7.16480 6.65902
#
# Compressibility (1/GPa) = 0.02271186
#
# Stress axis : x y z
#
# Youngs Moduli (GPa) = 118.14643 83.61758 45.55955
#
# Poissons Ratio (x) = 0.22486 0.09003
# Poissons Ratio (y) = 0.31772 0.23532
# Poissons Ratio (z) = 0.23348 0.43189
#
# Static dielectric constant tensor:
#      x y z
#    x 1.830250 0.000000 -0.062690 
#    y 0.000000 1.929000 0.000000 
#    z -0.062690 0.000000 1.923800 
# 
# From -- ./inp_files/40721.got.cif
#   From: 2010.05.17/outbox.cif.g08.bks.cpg/sg5_21_cif.got.tgz:40721.got - 2010.06.03 18:56:24.
