data_PCOD9120718
_publ_section_title
;
Structure prediction by ZEFSAII (Michael W. Deem and Ramdas Pophale) SiO2 
 PCOD9120718
Probable space group: C 2
;
_chemical_formula_sum "Si O2"
_cell_formula_units_Z 26
_cell_length_a 12.102922
_cell_length_b 14.959951
_cell_length_c 7.976189
_cell_angle_alpha 90.000000
_cell_angle_beta 119.729830
_cell_angle_gamma 90.000000
_cell_volume 1254.071725
_symmetry_space_group_name_H-M "C 2"
_symmetry_group_IT_number 5
_symmetry_cell_setting 'monoclinic'
loop_
_space_group_symop_operation_xyz
x,y,z
-x,y,-z
1/2+x,1/2+y,z
1/2-x,1/2+y,-z
loop_
_atom_site_type_symbol
_atom_site_label
_atom_site_fract_x
_atom_site_fract_y
_atom_site_fract_z
Si Si1 0.813063 0.554330 0.679601
Si Si2 0.904094 0.765960 0.166697
Si Si3 0.500000 0.485428 0.000000
Si Si4 0.766091 0.433641 0.321089
Si Si5 0.603673 0.470455 0.730595
Si Si6 0.075413 0.574017 0.730896
Si Si7 0.190350 0.752257 0.287451
O O1 0.778913 0.493902 0.494506
O O2 0.738176 0.511539 0.776815
O O3 0.761415 0.654908 0.626738
O O4 0.966621 0.563246 0.790323
O O5 0.873577 0.864492 0.213977
O O6 0.858886 0.671232 0.210851
O O7 0.058511 0.764130 0.290405
O O8 0.853146 0.754423 0.939336
O O9 0.380326 0.430690 0.843518
O O10 0.552446 0.521344 0.860389
O O11 0.840416 0.485609 0.231225
O O12 0.792482 0.331203 0.384925
O O13 0.500000 0.477821 0.500000
O O14 0.000000 0.578072 0.500000
#
# Coordination Sequence:
#
# PCOD9120718 Si02
#       7
#     4   4   2   4   4   4   4
#     4  10  23  38  62  92 120 162 209 249 303 376
#     4  10  18  34  60  91 117 157 206 259 292 357
#     4  12  22  38  64  94 124 160 204 264 308 348
#     4  11  20  41  63  88 125 162 202 256 312 357
#     4  12  21  38  65  94 124 160 210 252 307 362
#     4   9  21  37  60  87 122 159 201 251 308 364
#     4  10  19  36  59  88 121 160 204 251 308 353
#
# _framework density 20.732468000000001
#
# number of rings (size 3 to 8) (size 9 to 14) (size 15 to 20)
#    0.000    1.538    4.615    0.462    2.154    2.462 
#    0.000    2.308    3.385    0.000    0.000    0.000 
#    0.000    0.000    0.000    0.000    0.000    0.000 
#
# Total GULP energy -72374.029989 kJ/mol
# GULP energy per Si atom -5567.233076 kJ/mol
# Density = 2.068528 g / cm^3
# Si number density = 20.732468 Si / 1000 Ang^3
#
#
#
# Elastic Constant Matrix: (Units=GPa)
#
#
# Indices 1 2 3 4 5 6 
#
# 1 111.0331 56.3578 2.8768 0.0000 -25.5683 0.0000
# 2 56.3578 180.5700 11.0211 0.0000 -4.8963 0.0000
# 3 2.8768 11.0211 54.4684 0.0000 -20.7786 0.0000
# 4 0.0000 0.0000 0.0000 8.7245 0.0000 -12.7368
# 5 -25.5683 -4.8963 -20.7786 0.0000 22.7452 0.0000
# 6 0.0000 0.0000 0.0000 -12.7368 0.0000 32.2505
#
#
#
# Elastic Compliance Matrix: (Units=1/GPa)
#
#
# Indices 1 2 3 4 5 6 
#
# 1 0.018611 -0.005702 0.011794 0.000000 0.030467 0.000000
# 2 -0.005702 0.007355 -0.004648 0.000000 -0.009073 0.000000
# 3 0.011794 -0.004648 0.035844 0.000000 0.045002 0.000000
# 4 0.000000 0.000000 0.000000 0.270684 0.000000 0.106902
# 5 0.030467 -0.009073 0.045002 0.000000 0.117372 0.000000
# 6 0.000000 0.000000 0.000000 0.106902 0.000000 0.073226
#
#
# Mechanical properties :
#
#
# Convention : Reuss Voigt Hill
#
# Bulk Modulus (GPa) = 15.45687 54.06476 34.76082
# Shear Modulus (GPa) = 9.22896 31.13178 20.18037
#
# Velocity S-wave (km/s) = 2.11214 3.87925 3.12327
# Velocity P-wave (km/s) = 3.66330 6.79696 5.45978
#
# Compressibility (1/GPa) = 0.06469616
#
# Stress axis : x y z
#
# Youngs Moduli (GPa) = 53.73153 135.95314 27.89859
#
# Poissons Ratio (x) = 0.77526 -0.32902
# Poissons Ratio (y) = 0.30640 0.12968
# Poissons Ratio (z) = -0.63368 0.63196
#
# Static dielectric constant tensor:
#      x y z
#    x 1.820750 0.000000 -0.040970 
#    y 0.000000 1.817040 0.000000 
#    z -0.040970 0.000000 1.787710 
# 
# From -- ./inp_files/20495.got.cif
#   From: 2010.05.17/outbox.cif.g08.bks.cpg/sg5_11_cif.got.tgz:20495.got - 2010.06.03 18:56:24.
