data_PCOD9120282
_publ_section_title
;
Structure prediction by ZEFSAII (Michael W. Deem and Ramdas Pophale) SiO2 
 PCOD9120282
Probable space group: C 2
;
_chemical_formula_sum "Si O2"
_cell_formula_units_Z 30
_cell_length_a 18.011776
_cell_length_b 11.769832
_cell_length_c 10.943114
_cell_angle_alpha 90.000000
_cell_angle_beta 30.746556
_cell_angle_gamma 90.000000
_cell_volume 1186.024780
_symmetry_space_group_name_H-M "C 2"
_symmetry_group_IT_number 5
_symmetry_cell_setting 'monoclinic'
loop_
_space_group_symop_operation_xyz
x,y,z
-x,y,-z
1/2+x,1/2+y,z
1/2-x,1/2+y,-z
loop_
_atom_site_type_symbol
_atom_site_label
_atom_site_fract_x
_atom_site_fract_y
_atom_site_fract_z
Si Si1 0.500000 0.015070 0.500000
Si Si2 0.363805 0.433966 0.975525
Si Si3 0.160380 0.889705 0.269555
Si Si4 0.894946 0.348841 0.479568
Si Si5 0.896068 0.505311 0.266757
Si Si6 0.675398 0.607241 0.421124
Si Si7 0.907825 0.695467 0.914610
Si Si8 0.725977 0.663881 0.921493
O O1 0.364629 0.096220 0.672119
O O2 0.519300 0.926233 0.362418
O O3 0.241711 0.390994 0.244061
O O4 0.396041 0.568572 0.940518
O O5 0.318162 0.433070 0.897883
O O6 0.469622 0.324002 0.829932
O O7 0.276425 0.790382 0.130931
O O8 0.000000 0.834739 0.500000
O O9 0.149135 0.998451 0.372899
O O10 0.875665 0.389381 0.369348
O O11 0.930799 0.215493 0.436996
O O12 0.738806 0.555356 0.454687
O O13 0.971914 0.598372 0.248126
O O14 0.000000 0.489020 0.000000
O O15 0.818020 0.669353 0.163767
O O16 0.788651 0.683179 0.972837
#
# Coordination Sequence:
#
# PCOD9120282 Si02
#       8
#     2   4   4   4   4   4   4   4
#     4  10  18  32  62  90 114 160 200 256 306 382
#     4   9  20  34  61  89 125 153 203 264 312 372
#     4  11  22  37  59  93 129 165 208 260 323 365
#     4  10  21  38  61  92 121 160 210 265 320 361
#     4  10  21  40  66  87 118 170 224 249 310 394
#     4  10  22  40  58  91 125 166 207 264 318 369
#     4   9  17  36  61  89 119 154 207 250 312 375
#     4  10  17  34  57  92 124 153 200 251 313 372
#
# _framework density 25.294581999999998
#
# number of rings (size 3 to 8) (size 9 to 14) (size 15 to 20)
#    0.000    2.133    3.333    0.000    0.933    0.000 
#    9.600    2.667    0.000    0.000    0.000    0.000 
#    0.000    0.000    0.000    0.000    0.000    0.000 
#
# Total GULP energy -83544.430830 kJ/mol
# GULP energy per Si atom -5569.628722 kJ/mol
# Density = 2.523701 g / cm^3
# Si number density = 25.294582 Si / 1000 Ang^3
#
#
#
# Elastic Constant Matrix: (Units=GPa)
#
#
# Indices 1 2 3 4 5 6 
#
# 1 62.1711 34.7655 9.7874 0.0000 10.8603 0.0000
# 2 34.7655 232.2490 12.0673 0.0000 17.2068 0.0000
# 3 9.7874 12.0673 47.0933 0.0000 14.0125 0.0000
# 4 0.0000 0.0000 0.0000 33.8625 0.0000 9.7011
# 5 10.8603 17.2068 14.0125 0.0000 20.7955 0.0000
# 6 0.0000 0.0000 0.0000 9.7011 0.0000 14.3476
#
#
#
# Elastic Compliance Matrix: (Units=1/GPa)
#
#
# Indices 1 2 3 4 5 6 
#
# 1 0.018763 -0.002216 -0.001203 0.000000 -0.007155 0.000000
# 2 -0.002216 0.004849 0.000084 0.000000 -0.002912 0.000000
# 3 -0.001203 0.000084 0.026637 0.000000 -0.017391 0.000000
# 4 0.000000 0.000000 0.000000 0.036626 0.000000 -0.024765
# 5 -0.007155 -0.002912 -0.017391 0.000000 0.065951 0.000000
# 6 0.000000 0.000000 0.000000 -0.024765 0.000000 0.086443
#
#
# Mechanical properties :
#
#
# Convention : Reuss Voigt Hill
#
# Bulk Modulus (GPa) = 22.94611 50.52820 36.73715
# Shear Modulus (GPa) = 19.19643 32.79398 25.99521
#
# Velocity S-wave (km/s) = 2.75783 3.60458 3.20925
# Velocity P-wave (km/s) = 4.38544 6.11091 5.31861
#
# Compressibility (1/GPa) = 0.04358037
#
# Stress axis : x y z
#
# Youngs Moduli (GPa) = 53.29625 206.23759 37.54128
#
# Poissons Ratio (x) = 0.45704 0.04515
# Poissons Ratio (y) = 0.11811 -0.00317
# Poissons Ratio (z) = 0.06410 -0.01742
#
# Static dielectric constant tensor:
#      x y z
#    x 2.045680 0.000000 -0.051960 
#    y 0.000000 2.098110 0.000000 
#    z -0.051960 0.000000 2.149520 
# 
# From -- ./inp_files/44684.got.cif
#   From: 2010.05.17/outbox.cif.g08.bks.cpg/sg5_23_cif.got.tgz:44684.got - 2010.06.03 18:56:24.
