data_PCOD9120996
_publ_section_title
;
Structure prediction by ZEFSAII (Michael W. Deem and Ramdas Pophale) SiO2 
 PCOD9120996
Probable space group: C 2
;
_chemical_formula_sum "Si O2"
_cell_formula_units_Z 24
_cell_length_a 11.960643
_cell_length_b 10.110000
_cell_length_c 7.501857
_cell_angle_alpha 90.000000
_cell_angle_beta 87.386601
_cell_angle_gamma 90.000000
_cell_volume 906.196822
_symmetry_space_group_name_H-M "C 2"
_symmetry_group_IT_number 5
_symmetry_cell_setting 'monoclinic'
loop_
_space_group_symop_operation_xyz
x,y,z
-x,y,-z
1/2+x,1/2+y,z
1/2-x,1/2+y,-z
loop_
_atom_site_type_symbol
_atom_site_label
_atom_site_fract_x
_atom_site_fract_y
_atom_site_fract_z
Si Si1 0.927673 0.000000 0.289831
Si Si2 0.842467 0.913980 0.680265
Si Si3 0.737357 0.189299 0.795020
Si Si4 0.522793 0.782391 0.213605
Si Si5 0.016909 0.571827 0.781791
Si Si6 0.724273 0.151267 0.202362
O O1 0.816348 0.035603 0.186632
O O2 0.975601 0.149211 0.302239
O O3 0.879268 0.947926 0.477895
O O4 0.035618 0.912903 0.226537
O O5 0.764339 0.785620 0.686538
O O6 0.780393 0.040026 0.763679
O O7 0.844495 0.280894 0.749459
O O8 0.613543 0.174857 0.720814
O O9 0.715369 0.208781 0.004990
O O10 0.464785 0.919010 0.269741
O O11 0.500000 0.766332 0.000000
O O12 0.894403 0.602001 0.719471
O O13 0.000000 0.572081 0.000000
#
# Coordination Sequence:
#
# PCOD9120996 Si02
#       6
#     4   4   4   4   4   4
#     4  10  22  45  65  91 131 178 213 265 343 371
#     4  10  24  44  64  94 138 166 222 280 311 404
#     4  10  21  39  66  98 128 166 217 270 327 383
#     4  10  18  37  70  94 128 169 217 270 317 400
#     4   9  21  37  60 105 130 157 214 275 328 382
#     4  11  22  42  68  95 133 173 216 273 329 390
#
# _framework density 26.484313
#
# number of rings (size 3 to 8) (size 9 to 14) (size 15 to 20)
#    0.000    2.000    1.667    1.000    4.667    1.333 
#   21.000    0.000    0.000    0.000    0.000    0.000 
#    0.000    0.000    0.000    0.000    0.000    0.000 
#
# Total GULP energy -66990.046677 kJ/mol
# GULP energy per Si atom -5582.503890 kJ/mol
# Density = 2.642403 g / cm^3
# Si number density = 26.484313 Si / 1000 Ang^3
#
#
#
# Elastic Constant Matrix: (Units=GPa)
#
#
# Indices 1 2 3 4 5 6 
#
# 1 172.2470 28.8323 -19.1119 0.0000 6.5043 0.0000
# 2 28.8323 65.5022 8.9934 0.0000 0.2604 0.0000
# 3 -19.1119 8.9934 38.0672 0.0000 -12.5926 0.0000
# 4 0.0000 0.0000 0.0000 26.0024 0.0000 -6.8256
# 5 6.5043 0.2604 -12.5926 0.0000 23.6100 0.0000
# 6 0.0000 0.0000 0.0000 -6.8256 0.0000 47.1059
#
#
#
# Elastic Compliance Matrix: (Units=1/GPa)
#
#
# Indices 1 2 3 4 5 6 
#
# 1 0.006897 -0.003657 0.004507 0.000000 0.000544 0.000000
# 2 -0.003657 0.017853 -0.007025 0.000000 -0.002936 0.000000
# 3 0.004507 -0.007025 0.036192 0.000000 0.018139 0.000000
# 4 0.000000 0.000000 0.000000 0.039979 0.000000 0.005793
# 5 0.000544 -0.002936 0.018139 0.000000 0.051912 0.000000
# 6 0.000000 0.000000 0.000000 0.005793 0.000000 0.022068
#
#
# Mechanical properties :
#
#
# Convention : Reuss Voigt Hill
#
# Bulk Modulus (GPa) = 20.57976 34.80489 27.69233
# Shear Modulus (GPa) = 24.57627 36.48383 30.53005
#
# Velocity S-wave (km/s) = 3.04954 3.71558 3.39891
# Velocity P-wave (km/s) = 4.49300 5.61940 5.08747
#
# Compressibility (1/GPa) = 0.04859143
#
# Stress axis : x y z
#
# Youngs Moduli (GPa) = 144.98531 56.01450 27.63040
#
# Poissons Ratio (x) = 0.20484 -0.12452
# Poissons Ratio (y) = 0.53020 0.19410
# Poissons Ratio (z) = -0.65340 0.39350
#
# Static dielectric constant tensor:
#      x y z
#    x 2.191050 0.000000 0.159990 
#    y 0.000000 2.052560 0.000000 
#    z 0.159990 0.000000 2.064450 
# 
# From -- ./inp_files/19338.got.cif
#   From: 2010.05.17/outbox.cif.g08.bks.cpg/sg5_10_cif.got.tgz:19338.got - 2010.06.03 18:56:24.
