data_PCOD9120696
_publ_section_title
;
Structure prediction by ZEFSAII (Michael W. Deem and Ramdas Pophale) SiO2 
 PCOD9120696
Probable space group: C 2
;
_chemical_formula_sum "Si O2"
_cell_formula_units_Z 26
_cell_length_a 25.778982
_cell_length_b 5.606504
_cell_length_c 8.791318
_cell_angle_alpha 90.000000
_cell_angle_beta 83.297861
_cell_angle_gamma 90.000000
_cell_volume 1261.925920
_symmetry_space_group_name_H-M "C 2"
_symmetry_group_IT_number 5
_symmetry_cell_setting 'monoclinic'
loop_
_space_group_symop_operation_xyz
x,y,z
-x,y,-z
1/2+x,1/2+y,z
1/2-x,1/2+y,-z
loop_
_atom_site_type_symbol
_atom_site_label
_atom_site_fract_x
_atom_site_fract_y
_atom_site_fract_z
Si Si1 0.924560 0.275520 0.534218
Si Si2 0.868471 0.650884 0.351088
Si Si3 0.500000 0.833078 0.000000
Si Si4 0.558033 0.128279 0.219327
Si Si5 0.460936 0.471791 0.258451
Si Si6 0.244258 0.505823 0.599398
Si Si7 0.350385 0.410507 0.680140
O O1 0.897427 0.422957 0.409413
O O2 0.954217 0.456296 0.633288
O O3 0.953068 0.072508 0.430267
O O4 0.881774 0.156975 0.659363
O O5 0.910632 0.804306 0.243833
O O6 0.812293 0.568063 0.310683
O O7 0.855378 0.802893 0.507749
O O8 0.531109 0.674053 0.868681
O O9 0.456754 0.986671 0.926464
O O10 0.515311 0.334099 0.238606
O O11 0.615948 0.236221 0.223661
O O12 0.240568 0.253117 0.501798
O O13 0.288899 0.457552 0.710133
#
# Coordination Sequence:
#
# PCOD9120696 Si02
#       7
#     4   4   2   4   4   4   4
#     4  10  20  37  58  90 126 156 195 258 318 382
#     4   9  19  33  56  89 130 166 200 254 324 386
#     4  12  26  42  56  78 132 174 226 264 316 402
#     4  11  24  39  58  87 128 168 214 262 327 389
#     4  11  24  39  58  87 128 168 214 262 327 389
#     4  10  18  34  58  94 142 170 210 258 334 398
#     4   9  19  33  56  89 130 166 200 254 324 386
#
# _framework density 20.603429999999999
#
# number of rings (size 3 to 8) (size 9 to 14) (size 15 to 20)
#    0.000    1.846    1.538    2.308    0.000   14.769 
#    0.000    0.000    0.000    0.000    0.000    0.000 
#  129.231    0.000    0.000    0.000    0.000    0.000 
#
# Total GULP energy -72489.989353 kJ/mol
# GULP energy per Si atom -5576.153027 kJ/mol
# Density = 2.055654 g / cm^3
# Si number density = 20.603430 Si / 1000 Ang^3
#
#
#
# Elastic Constant Matrix: (Units=GPa)
#
#
# Indices 1 2 3 4 5 6 
#
# 1 167.4442 52.6183 54.5401 0.0000 27.0720 0.0000
# 2 52.6183 98.1452 27.2993 0.0000 17.9831 0.0000
# 3 54.5401 27.2993 48.8718 0.0000 17.8423 0.0000
# 4 0.0000 0.0000 0.0000 38.0297 0.0000 6.4387
# 5 27.0720 17.9831 17.8423 0.0000 14.3631 0.0000
# 6 0.0000 0.0000 0.0000 6.4387 0.0000 20.2281
#
#
#
# Elastic Compliance Matrix: (Units=1/GPa)
#
#
# Indices 1 2 3 4 5 6 
#
# 1 0.010299 -0.002046 -0.007683 0.000000 -0.007306 0.000000
# 2 -0.002046 0.013792 -0.000960 0.000000 -0.012220 0.000000
# 3 -0.007683 -0.000960 0.043637 0.000000 -0.038523 0.000000
# 4 0.000000 0.000000 0.000000 0.027793 0.000000 -0.008847
# 5 -0.007306 -0.012220 -0.038523 0.000000 0.146547 0.000000
# 6 0.000000 0.000000 0.000000 -0.008847 0.000000 0.052252
#
#
# Mechanical properties :
#
#
# Convention : Reuss Voigt Hill
#
# Bulk Modulus (GPa) = 21.57528 64.81963 43.19746
# Shear Modulus (GPa) = 15.09906 26.52441 20.81174
#
# Velocity S-wave (km/s) = 2.71004 3.59190 3.18167
# Velocity P-wave (km/s) = 4.50409 6.98077 5.87444
#
# Compressibility (1/GPa) = 0.04634934
#
# Stress axis : x y z
#
# Youngs Moduli (GPa) = 97.09875 72.50731 22.91657
#
# Poissons Ratio (x) = 0.14833 0.17608
# Poissons Ratio (y) = 0.19863 0.02199
# Poissons Ratio (z) = 0.74605 0.06959
#
# Static dielectric constant tensor:
#      x y z
#    x 1.800540 0.000000 0.004010 
#    y 0.000000 1.860080 0.000000 
#    z 0.004010 0.000000 1.703230 
# 
# From -- ./inp_files/31357.got.cif
#   From: 2010.05.17/outbox.cif.g08.bks.cpg/sg5_16_cif.got.tgz:31357.got - 2010.06.03 18:56:24.
