data_PCOD9120405
_publ_section_title
;
Structure prediction by ZEFSAII (Michael W. Deem and Ramdas Pophale) SiO2 
 PCOD9120405
Probable space group: C 2
;
_chemical_formula_sum "Si O2"
_cell_formula_units_Z 32
_cell_length_a 10.525431
_cell_length_b 18.833583
_cell_length_c 8.101366
_cell_angle_alpha 90.000000
_cell_angle_beta 62.842413
_cell_angle_gamma 90.000000
_cell_volume 1428.898178
_symmetry_space_group_name_H-M "C 2"
_symmetry_group_IT_number 5
_symmetry_cell_setting 'monoclinic'
loop_
_space_group_symop_operation_xyz
x,y,z
-x,y,-z
1/2+x,1/2+y,z
1/2-x,1/2+y,-z
loop_
_atom_site_type_symbol
_atom_site_label
_atom_site_fract_x
_atom_site_fract_y
_atom_site_fract_z
Si Si1 0.630077 0.789050 0.812707
Si Si2 0.453525 0.373165 0.213365
Si Si3 0.943437 0.730859 0.711253
Si Si4 0.070829 0.012309 0.141287
Si Si5 0.212809 0.620381 0.041729
Si Si6 0.346266 0.858811 0.546807
Si Si7 0.358640 0.637673 0.314987
Si Si8 0.837105 0.196710 0.648885
O O1 0.782764 0.766659 0.800457
O O2 0.657814 0.840745 0.643902
O O3 0.571777 0.713969 0.774384
O O4 0.500000 0.816567 0.000000
O O5 0.460261 0.297619 0.297179
O O6 0.553933 0.434524 0.227358
O O7 0.292153 0.401829 0.318176
O O8 0.500000 0.357872 0.000000
O O9 0.933411 0.663203 0.838301
O O10 0.000000 0.708344 0.500000
O O11 0.968068 0.073082 0.277319
O O12 0.232237 0.042012 0.042967
O O13 0.000000 0.004437 0.000000
O O14 0.276981 0.621812 0.191385
O O15 0.281692 0.666936 0.853210
O O16 0.500000 0.889662 0.500000
O O17 0.332083 0.782040 0.646525
O O18 0.265614 0.657902 0.531441
O O19 0.000000 0.179464 0.500000
#
# Coordination Sequence:
#
# PCOD9120405 Si02
#       8
#     4   4   4   4   4   4   4   4
#     4  10  20  34  60  87 118 161 210 269 314 368
#     4  11  23  39  59  89 137 171 206 269 323 395
#     4  11  22  39  59  95 134 166 209 267 343 371
#     4   9  18  35  58  86 119 163 213 256 318 376
#     4  10  19  34  57  82 121 158 209 266 307 373
#     4  10  22  35  54  89 126 158 215 256 313 390
#     4   9  17  30  53  82 117 143 203 261 300 354
#     4  10  18  28  51  89 114 147 204 259 314 349
#
# _framework density 22.394876
#
# number of rings (size 3 to 8) (size 9 to 14) (size 15 to 20)
#    0.000    2.000    2.500    2.625    8.750    0.000 
#    2.250    0.000    0.000   12.000    0.000    2.625 
#    0.000    0.000    0.000    0.000    0.000    0.000 
#
# Total GULP energy -89071.432309 kJ/mol
# GULP energy per Si atom -5566.964519 kJ/mol
# Density = 2.234390 g / cm^3
# Si number density = 22.394876 Si / 1000 Ang^3
#
#
#
# Elastic Constant Matrix: (Units=GPa)
#
#
# Indices 1 2 3 4 5 6 
#
# 1 55.7235 -5.2522 21.5169 0.0000 -15.6642 0.0000
# 2 -5.2522 66.9793 13.3131 0.0000 -8.0770 0.0000
# 3 21.5169 13.3131 119.3877 0.0000 -20.4118 0.0000
# 4 0.0000 0.0000 0.0000 8.0607 0.0000 -9.2052
# 5 -15.6642 -8.0770 -20.4118 0.0000 25.6800 0.0000
# 6 0.0000 0.0000 0.0000 -9.2052 0.0000 14.2978
#
#
#
# Elastic Compliance Matrix: (Units=1/GPa)
#
#
# Indices 1 2 3 4 5 6 
#
# 1 0.022960 0.003870 -0.002276 0.000000 0.013413 0.000000
# 2 0.003870 0.016283 -0.001428 0.000000 0.006347 0.000000
# 3 -0.002276 -0.001428 0.009989 0.000000 0.006102 0.000000
# 4 0.000000 0.000000 0.000000 0.468571 0.000000 0.301676
# 5 0.013413 0.006347 0.006102 0.000000 0.053969 0.000000
# 6 0.000000 0.000000 0.000000 0.301676 0.000000 0.264167
#
#
# Mechanical properties :
#
#
# Convention : Reuss Voigt Hill
#
# Bulk Modulus (GPa) = 20.17620 33.47177 26.82398
# Shear Modulus (GPa) = 5.86766 23.77521 14.82144
#
# Velocity S-wave (km/s) = 1.62043 3.26181 2.57538
# Velocity P-wave (km/s) = 3.53976 5.40042 4.56587
#
# Compressibility (1/GPa) = 0.04956335
#
# Stress axis : x y z
#
# Youngs Moduli (GPa) = 43.55398 61.41484 100.11176
#
# Poissons Ratio (x) = -0.23770 0.22789
# Poissons Ratio (y) = -0.16857 0.14297
# Poissons Ratio (z) = 0.09915 0.08771
#
# Static dielectric constant tensor:
#      x y z
#    x 2.092750 0.000000 0.065570 
#    y 0.000000 1.876520 0.000000 
#    z 0.065570 0.000000 1.869400 
# 
# From -- ./inp_files/21947.got.cif
#   From: 2010.05.17/outbox.cif.g08.bks.cpg/sg5_11_cif.got.tgz:21947.got - 2010.06.03 18:56:24.
