data_PCOD9120666
_publ_section_title
;
Structure prediction by ZEFSAII (Michael W. Deem and Ramdas Pophale) SiO2 
 PCOD9120666
Probable space group: C 2
;
_chemical_formula_sum "Si O2"
_cell_formula_units_Z 26
_cell_length_a 8.585697
_cell_length_b 14.776770
_cell_length_c 16.138783
_cell_angle_alpha 90.000000
_cell_angle_beta 142.080776
_cell_angle_gamma 90.000000
_cell_volume 1258.296592
_symmetry_space_group_name_H-M "C 2"
_symmetry_group_IT_number 5
_symmetry_cell_setting 'monoclinic'
loop_
_space_group_symop_operation_xyz
x,y,z
-x,y,-z
1/2+x,1/2+y,z
1/2-x,1/2+y,-z
loop_
_atom_site_type_symbol
_atom_site_label
_atom_site_fract_x
_atom_site_fract_y
_atom_site_fract_z
Si Si1 0.829455 0.578670 0.566790
Si Si2 0.407638 0.550229 0.779683
Si Si3 0.000000 0.068144 0.000000
Si Si4 0.097148 0.871075 0.297916
Si Si5 0.024586 0.188280 0.710158
Si Si6 0.634026 0.872201 0.422098
Si Si7 0.500511 0.185616 0.797298
O O1 0.639613 0.623314 0.420988
O O2 0.792586 0.473036 0.577045
O O3 0.848070 0.641836 0.655313
O O4 0.109869 0.572277 0.644947
O O5 0.503758 0.471093 0.760160
O O6 0.531744 0.643616 0.803326
O O7 0.449493 0.519117 0.891742
O O8 0.249343 0.127297 0.088671
O O9 0.361918 0.873391 0.356332
O O10 0.166109 0.852256 0.421534
O O11 0.933607 0.788777 0.196620
O O12 0.897733 0.287872 0.652827
O O13 0.305876 0.188762 0.791071
#
# Coordination Sequence:
#
# PCOD9120666 Si02
#       7
#     4   4   2   4   4   4   4
#     4  10  18  34  56  87 121 150 172 230 294 352
#     4  10  21  37  60  81 117 152 194 227 280 334
#     4  10  24  44  54  74 112 164 198 240 272 318
#     4   9  16  33  57  84 108 151 184 228 283 345
#     4  11  19  33  59  90 113 145 187 234 284 345
#     4   9  17  29  54  89 122 142 174 221 299 356
#     4  10  21  37  58  80 116 151 192 232 282 333
#
# _framework density 20.662855
#
# number of rings (size 3 to 8) (size 9 to 14) (size 15 to 20)
#    0.000    2.154    3.077    0.923    0.000    0.615 
#    0.000   13.846    0.000    0.000    0.000    0.000 
#    0.000    0.000    0.000    0.000    0.000    0.000 
#
# Total GULP energy -72458.643855 kJ/mol
# GULP energy per Si atom -5573.741835 kJ/mol
# Density = 2.061583 g / cm^3
# Si number density = 20.662855 Si / 1000 Ang^3
#
#
#
# Elastic Constant Matrix: (Units=GPa)
#
#
# Indices 1 2 3 4 5 6 
#
# 1 32.6112 4.4149 -0.5247 0.0000 -2.9004 0.0000
# 2 4.4149 93.2406 -14.1400 -0.0001 -7.4582 -0.0001
# 3 -0.5247 -14.1400 42.1622 0.0001 -1.5289 0.0000
# 4 0.0000 -0.0001 0.0001 11.8363 0.0001 -4.3851
# 5 -2.9004 -7.4582 -1.5289 0.0001 21.4487 0.0000
# 6 0.0000 -0.0001 0.0000 -4.3851 0.0000 18.5163
#
#
#
# Elastic Compliance Matrix: (Units=1/GPa)
#
#
# Indices 1 2 3 4 5 6 
#
# 1 0.031162 -0.001148 0.000141 0.000000 0.003825 0.000000
# 2 -0.001148 0.011734 0.004074 0.000000 0.004215 0.000000
# 3 0.000141 0.004074 0.025203 0.000000 0.003232 0.000000
# 4 0.000000 0.000000 0.000000 0.092611 0.000000 0.021933
# 5 0.003825 0.004215 0.003232 0.000000 0.048836 0.000000
# 6 0.000000 0.000000 0.000000 0.021933 0.000000 0.059201
#
#
# Mechanical properties :
#
#
# Convention : Reuss Voigt Hill
#
# Bulk Modulus (GPa) = 13.47089 16.39049 14.93069
# Shear Modulus (GPa) = 17.39987 22.24450 19.82219
#
# Velocity S-wave (km/s) = 2.90502 3.28463 3.10064
# Velocity P-wave (km/s) = 4.21731 4.72596 4.47886
#
# Compressibility (1/GPa) = 0.07423415
#
# Stress axis : x y z
#
# Youngs Moduli (GPa) = 32.09019 85.22018 39.67756
#
# Poissons Ratio (x) = 0.09784 -0.00561
# Poissons Ratio (y) = 0.03684 -0.16164
# Poissons Ratio (z) = -0.00454 -0.34718
#
# Static dielectric constant tensor:
#      x y z
#    x 1.760680 0.000000 -0.013950 
#    y 0.000000 1.785110 0.000000 
#    z -0.013950 0.000000 1.736710 
# 
# From -- ./inp_files/35807.got.cif
#   From: 2010.05.17/outbox.cif.g08.bks.cpg/sg5_18_cif.got.tgz:35807.got - 2010.06.03 18:56:24.
