data_PCOD9120052
_publ_section_title
;
Structure prediction by ZEFSAII (Michael W. Deem and Ramdas Pophale) SiO2 
 PCOD9120052
Probable space group: C 2
;
_chemical_formula_sum "Si O2"
_cell_formula_units_Z 28
_cell_length_a 8.248477
_cell_length_b 32.241749
_cell_length_c 5.527665
_cell_angle_alpha 90.000000
_cell_angle_beta 123.056236
_cell_angle_gamma 90.000000
_cell_volume 1232.106824
_symmetry_space_group_name_H-M "C 2"
_symmetry_group_IT_number 5
_symmetry_cell_setting 'monoclinic'
loop_
_space_group_symop_operation_xyz
x,y,z
-x,y,-z
1/2+x,1/2+y,z
1/2-x,1/2+y,-z
loop_
_atom_site_type_symbol
_atom_site_label
_atom_site_fract_x
_atom_site_fract_y
_atom_site_fract_z
Si Si1 0.634612 0.466250 0.309530
Si Si2 0.500000 0.535626 0.500000
Si Si3 0.123377 0.299602 0.351334
Si Si4 0.797975 0.177784 0.075200
Si Si5 0.741044 0.710877 0.449427
Si Si6 0.124523 0.393440 0.347574
Si Si7 0.500000 0.025146 0.500000
Si Si8 0.689154 0.089136 0.034019
O O1 0.491178 0.502965 0.277317
O O2 0.712805 0.428654 0.533102
O O3 0.829034 0.493493 0.433261
O O4 0.500000 0.445200 0.000000
O O5 0.314372 0.564279 0.332394
O O6 0.263681 0.260279 0.475782
O O7 0.203077 0.346393 0.416922
O O8 0.000000 0.296307 0.500000
O O9 0.000000 0.295413 0.000000
O O10 0.704349 0.189265 0.255737
O O11 0.814425 0.128160 0.052237
O O12 0.009147 0.199365 0.252245
O O13 0.688812 0.194546 0.751835
O O14 0.000000 0.399190 0.500000
O O15 0.000000 0.397302 0.000000
O O16 0.605956 0.056050 0.775503
O O17 0.500000 0.107823 0.000000
#
# Coordination Sequence:
#
# PCOD9120052 Si02
#       8
#     4   2   4   4   4   4   2   4
#     4  12  26  44  69  99 135 183 231 285 353 416
#     4  12  26  44  70  94 132 184 230 284 356 410
#     4  10  16  33  59  99 131 171 220 271 329 407
#     4  10  21  33  60  89 129 166 215 278 323 386
#     4  10  17  35  60  97 128 166 223 268 325 409
#     4  10  24  39  68 102 140 175 225 282 342 409
#     4  12  26  46  66  94 136 178 230 292 348 412
#     4  12  27  44  64  96 133 176 230 292 342 409
#
# _framework density 22.725304000000001
#
# number of rings (size 3 to 8) (size 9 to 14) (size 15 to 20)
#    0.000    1.143    6.429    0.857    6.000    2.286 
#    0.000    0.000    0.000    0.857    0.000    0.000 
#    0.000    0.000    0.000    0.000    0.000    0.000 
#
# Total GULP energy -78027.386017 kJ/mol
# GULP energy per Si atom -5573.384716 kJ/mol
# Density = 2.267358 g / cm^3
# Si number density = 22.725304 Si / 1000 Ang^3
#
#
#
# Elastic Constant Matrix: (Units=GPa)
#
#
# Indices 1 2 3 4 5 6 
#
# 1 38.1445 16.5446 26.7403 0.0000 -9.7459 0.0000
# 2 16.5446 176.7623 51.2871 0.0000 4.2113 0.0000
# 3 26.7403 51.2871 147.0550 0.0000 -15.9814 0.0000
# 4 0.0000 0.0000 0.0000 67.0815 0.0000 31.1280
# 5 -9.7459 4.2113 -15.9814 0.0000 42.0733 0.0000
# 6 0.0000 0.0000 0.0000 31.1280 0.0000 67.0997
#
#
#
# Elastic Compliance Matrix: (Units=1/GPa)
#
#
# Indices 1 2 3 4 5 6 
#
# 1 0.031627 -0.001794 -0.004495 0.000000 0.005798 0.000000
# 2 -0.001794 0.006491 -0.002142 0.000000 -0.001879 0.000000
# 3 -0.004495 -0.002142 0.008631 0.000000 0.002452 0.000000
# 4 0.000000 0.000000 0.000000 0.018997 0.000000 -0.008813
# 5 0.005798 -0.001879 0.002452 0.000000 0.026230 0.000000
# 6 0.000000 0.000000 0.000000 -0.008813 0.000000 0.018991
#
#
# Mechanical properties :
#
#
# Convention : Reuss Voigt Hill
#
# Bulk Modulus (GPa) = 33.45934 61.23398 47.34666
# Shear Modulus (GPa) = 36.28637 53.07686 44.68162
#
# Velocity S-wave (km/s) = 4.00026 4.83803 4.43895
# Velocity P-wave (km/s) = 6.00761 7.62971 6.86673
#
# Compressibility (1/GPa) = 0.02988702
#
# Stress axis : x y z
#
# Youngs Moduli (GPa) = 31.61861 154.04804 115.86103
#
# Poissons Ratio (x) = 0.27638 0.52082
# Poissons Ratio (y) = 0.05673 0.24817
# Poissons Ratio (z) = 0.14213 0.32996
#
# Static dielectric constant tensor:
#      x y z
#    x 1.591760 0.000000 0.209640 
#    y 0.000000 1.767860 0.000000 
#    z 0.209640 0.000000 1.548010 
# 
# From -- ./inp_files/4027.got.cif
#   From: 2010.05.17/outbox.cif.g08.bks.cpg/sg5_3_cif.got.tgz:4027.got - 2010.06.03 18:56:24.
