data_PCOD9120194
_publ_section_title
;
Structure prediction by ZEFSAII (Michael W. Deem and Ramdas Pophale) SiO2 
 PCOD9120194
Probable space group: C 2
;
_chemical_formula_sum "Si O2"
_cell_formula_units_Z 22
_cell_length_a 7.912241
_cell_length_b 24.555898
_cell_length_c 5.535436
_cell_angle_alpha 90.000000
_cell_angle_beta 119.252013
_cell_angle_gamma 90.000000
_cell_volume 938.343963
_symmetry_space_group_name_H-M "C 2"
_symmetry_group_IT_number 5
_symmetry_cell_setting 'monoclinic'
loop_
_space_group_symop_operation_xyz
x,y,z
-x,y,-z
1/2+x,1/2+y,z
1/2-x,1/2+y,-z
loop_
_atom_site_type_symbol
_atom_site_label
_atom_site_fract_x
_atom_site_fract_y
_atom_site_fract_z
Si Si1 0.323421 0.956300 0.560904
Si Si2 0.627967 0.240648 0.836194
Si Si3 0.293184 0.357593 0.215305
Si Si4 0.791369 0.577136 0.622383
Si Si5 0.500000 0.428090 0.000000
Si Si6 0.732263 0.120335 0.904412
O O1 0.500000 0.958180 0.500000
O O2 0.329885 0.899376 0.709590
O O3 0.114165 0.959549 0.283746
O O4 0.328506 0.013467 0.700190
O O5 0.500000 0.236730 0.500000
O O6 0.752702 0.295868 0.887548
O O7 0.749791 0.185352 0.919191
O O8 0.500000 0.244155 0.000000
O O9 0.500000 0.354081 0.500000
O O10 0.337880 0.389930 0.003012
O O11 0.705012 0.590863 0.298324
O O12 0.001305 0.606740 0.755271
O O13 0.687528 0.599233 0.786307
#
# Coordination Sequence:
#
# PCOD9120194 Si02
#       6
#     4   4   4   4   2   4
#     4  11  23  39  61  91 135 171 213 266 320 396
#     4  11  17  31  56  84 131 161 210 278 313 374
#     4   9  21  36  55  88 127 168 212 263 321 380
#     4  10  19  31  53  89 126 158 208 260 317 378
#     4  10  22  40  58  88 128 168 218 254 330 378
#     4  10  17  31  51  92 123 157 212 266 316 372
#
# _framework density 23.44556
#
# number of rings (size 3 to 8) (size 9 to 14) (size 15 to 20)
#    0.000    1.818    6.364    0.000    2.545    0.727 
#    0.000    0.000    0.000    0.000    0.000    6.364 
#    0.000    0.000    0.000    0.000    0.000    0.000 
#
# Total GULP energy -61383.011628 kJ/mol
# GULP energy per Si atom -5580.273784 kJ/mol
# Density = 2.339220 g / cm^3
# Si number density = 23.445560 Si / 1000 Ang^3
#
#
#
# Elastic Constant Matrix: (Units=GPa)
#
#
# Indices 1 2 3 4 5 6 
#
# 1 79.7524 29.1361 30.0944 0.0000 -14.2037 0.0000
# 2 29.1361 207.1204 36.1676 0.0000 -14.4481 0.0000
# 3 30.0944 36.1676 146.2338 0.0000 -34.5776 0.0000
# 4 0.0000 0.0000 0.0000 -7.6353 0.0000 -26.9982
# 5 -14.2037 -14.4481 -34.5776 0.0000 35.5140 0.0000
# 6 0.0000 0.0000 0.0000 -26.9982 0.0000 -3.8518
#
#
#
# Elastic Compliance Matrix: (Units=1/GPa)
#
#
# Indices 1 2 3 4 5 6 
#
# 1 0.014356 -0.001470 -0.001786 0.000000 0.003405 0.000000
# 2 -0.001470 0.005229 -0.000814 0.000000 0.000747 0.000000
# 3 -0.001786 -0.000814 0.009301 0.000000 0.008011 0.000000
# 4 0.000000 0.000000 0.000000 0.005507 0.000000 -0.038597
# 5 0.003405 0.000747 0.008011 0.000000 0.037623 0.000000
# 6 0.000000 0.000000 0.000000 -0.038597 0.000000 0.010915
#
#
# Mechanical properties :
#
#
# Convention : Reuss Voigt Hill
#
# Bulk Modulus (GPa) = 48.20085 69.32255 58.76170
# Shear Modulus (GPa) = 51.02691 27.31928 39.17310
#
# Velocity S-wave (km/s) = 4.67025 3.41724 4.09199
# Velocity P-wave (km/s) = 7.04875 6.72322 6.88791
#
# Compressibility (1/GPa) = 0.02074652
#
# Stress axis : x y z
#
# Youngs Moduli (GPa) = 69.65651 191.23437 107.51070
#
# Poissons Ratio (x) = 0.28115 0.19198
# Poissons Ratio (y) = 0.10241 0.08754
# Poissons Ratio (z) = 0.12439 0.15571
#
# Static dielectric constant tensor:
#      x y z
#    x 1.889130 0.000000 -0.018540 
#    y 0.000000 1.861360 0.000000 
#    z -0.018540 0.000000 1.968920 
# 
# From -- ./inp_files/3258.got.cif
#   From: 2010.05.17/outbox.cif.g08.bks.cpg/sg5_2_cif.got.tgz:3258.got - 2010.06.03 18:56:24.
