data_PCOD9120002
_publ_section_title
;
Structure prediction by ZEFSAII (Michael W. Deem and Ramdas Pophale) SiO2 
 PCOD9120002
Probable space group: C 2
;
_chemical_formula_sum "Si O2"
_cell_formula_units_Z 30
_cell_length_a 9.497758
_cell_length_b 15.028984
_cell_length_c 17.863597
_cell_angle_alpha 90.000000
_cell_angle_beta 139.018100
_cell_angle_gamma 90.000000
_cell_volume 1672.263364
_symmetry_space_group_name_H-M "C 2"
_symmetry_group_IT_number 5
_symmetry_cell_setting 'monoclinic'
loop_
_space_group_symop_operation_xyz
x,y,z
-x,y,-z
1/2+x,1/2+y,z
1/2-x,1/2+y,-z
loop_
_atom_site_type_symbol
_atom_site_label
_atom_site_fract_x
_atom_site_fract_y
_atom_site_fract_z
Si Si1 0.380179 0.269650 0.792623
Si Si2 0.181130 0.944411 0.777691
Si Si3 0.200476 0.430096 0.634700
Si Si4 0.231526 0.061457 0.947389
Si Si5 0.000000 0.724183 0.000000
Si Si6 0.807017 0.261934 0.866671
Si Si7 0.573830 0.065436 0.216460
Si Si8 0.257635 0.076747 0.226260
O O1 0.221576 0.344658 0.698234
O O2 0.422744 0.278661 0.897690
O O3 0.606306 0.279466 0.840805
O O4 0.334452 0.165686 0.756859
O O5 0.327809 0.856413 0.835444
O O6 0.926615 0.928668 0.681147
O O7 0.237107 0.998000 0.877046
O O8 0.234647 0.999812 0.725402
O O9 0.188006 0.521961 0.677084
O O10 0.000000 0.421751 0.500000
O O11 0.303764 0.159082 0.946357
O O12 0.994100 0.053249 0.886565
O O13 0.403751 0.046579 0.081355
O O14 0.753136 0.184131 0.786425
O O15 0.000000 0.236796 0.000000
O O16 0.435710 0.053123 0.235670
#
# Coordination Sequence:
#
# PCOD9120002 Si02
#       8
#     4   4   4   4   2   4   4   4
#     4   9  19  34  56  82 114 150 180 222 277 336
#     4  10  19  34  58  81 108 156 189 211 280 338
#     4  10  23  44  57  72 106 152 199 241 279 324
#     4  10  16  30  54  83 125 152 167 212 275 345
#     4  10  16  30  56  88 124 140 182 220 270 354
#     4  10  18  32  52  83 119 150 174 213 284 341
#     4  10  17  34  56  89 117 141 179 228 270 347
#     4  10  21  34  53  80 112 148 187 228 278 317
#
# _framework density 17.939758000000001
#
# number of rings (size 3 to 8) (size 9 to 14) (size 15 to 20)
#    0.000    2.133    2.667    3.600    0.000    0.000 
#   13.200    4.667    0.000    0.000    0.000    0.000 
#    0.000    0.000    0.000    0.000    0.000    0.000 
#
# Total GULP energy -83509.316393 kJ/mol
# GULP energy per Si atom -5567.287760 kJ/mol
# Density = 1.789893 g / cm^3
# Si number density = 17.939758 Si / 1000 Ang^3
#
#
#
# Elastic Constant Matrix: (Units=GPa)
#
#
# Indices 1 2 3 4 5 6 
#
# 1 70.5391 36.4073 18.1283 0.0000 -0.7985 0.0000
# 2 36.4073 94.7693 49.5729 0.0000 -6.0592 0.0000
# 3 18.1283 49.5729 102.8575 0.0001 -2.6815 0.0000
# 4 0.0000 0.0000 0.0001 12.4017 0.0000 0.6099
# 5 -0.7985 -6.0592 -2.6815 0.0000 8.7037 0.0000
# 6 0.0000 0.0000 0.0000 0.6099 0.0000 18.2120
#
#
#
# Elastic Compliance Matrix: (Units=1/GPa)
#
#
# Indices 1 2 3 4 5 6 
#
# 1 0.017775 -0.007160 0.000232 0.000000 -0.003282 0.000000
# 2 -0.007160 0.017537 -0.006945 0.000000 0.009412 0.000000
# 3 0.000232 -0.006945 0.013007 0.000000 -0.000806 0.000000
# 4 0.000000 0.000000 0.000000 0.080767 0.000000 -0.002705
# 5 -0.003282 0.009412 -0.000806 0.000000 0.120896 0.000000
# 6 0.000000 0.000000 0.000000 -0.002705 0.000000 0.054999
#
#
# Mechanical properties :
#
#
# Convention : Reuss Voigt Hill
#
# Bulk Modulus (GPa) = 48.60333 52.93143 50.76738
# Shear Modulus (GPa) = 14.72383 18.80065 16.76224
#
# Velocity S-wave (km/s) = 2.86796 3.24078 3.06005
# Velocity P-wave (km/s) = 6.17400 6.60096 6.39104
#
# Compressibility (1/GPa) = 0.02057472
#
# Stress axis : x y z
#
# Youngs Moduli (GPa) = 56.25819 57.02169 76.87979
#
# Poissons Ratio (x) = 0.40828 -0.01787
# Poissons Ratio (y) = 0.40282 0.53392
# Poissons Ratio (z) = -0.01308 0.39601
#
# Static dielectric constant tensor:
#      x y z
#    x 1.649340 0.000000 0.007880 
#    y 0.000000 1.691200 0.000000 
#    z 0.007880 0.000000 1.584300 
# 
# From -- ./inp_files/59836.got.cif
#   From: 2010.05.17/outbox.cif.g08.bks.cpg/sg5_30_cif.got.tgz:59836.got - 2010.06.03 18:56:24.
