data_PCOD9120171
_publ_section_title
;
Structure prediction by ZEFSAII (Michael W. Deem and Ramdas Pophale) SiO2 
 PCOD9120171
Probable space group: C 2
;
_chemical_formula_sum "Si O2"
_cell_formula_units_Z 28
_cell_length_a 21.654906
_cell_length_b 7.834206
_cell_length_c 9.984328
_cell_angle_alpha 90.000000
_cell_angle_beta 47.085975
_cell_angle_gamma 90.000000
_cell_volume 1240.521744
_symmetry_space_group_name_H-M "C 2"
_symmetry_group_IT_number 5
_symmetry_cell_setting 'monoclinic'
loop_
_space_group_symop_operation_xyz
x,y,z
-x,y,-z
1/2+x,1/2+y,z
1/2-x,1/2+y,-z
loop_
_atom_site_type_symbol
_atom_site_label
_atom_site_fract_x
_atom_site_fract_y
_atom_site_fract_z
Si Si1 0.516076 0.013970 0.689625
Si Si2 0.483071 0.335278 0.172001
Si Si3 0.572162 0.521238 0.281903
Si Si4 0.156693 0.274832 0.516302
Si Si5 0.702987 0.382455 0.488835
Si Si6 0.659968 0.203047 0.296675
Si Si7 0.356913 0.864688 0.774798
O O1 0.479016 0.149261 0.849215
O O2 0.581595 0.121999 0.498913
O O3 0.566651 0.859070 0.682790
O O4 0.444863 0.938241 0.701296
O O5 0.520405 0.460905 0.228611
O O6 0.382913 0.304398 0.326199
O O7 0.500000 0.399960 0.000000
O O8 0.500000 0.568267 0.500000
O O9 0.622615 0.358039 0.265376
O O10 0.635282 0.679502 0.166282
O O11 0.223868 0.369510 0.510963
O O12 0.160651 0.308335 0.351944
O O13 0.175747 0.076864 0.505443
O O14 0.719597 0.284693 0.323495
O O15 0.693072 0.046746 0.156213
#
# Coordination Sequence:
#
# PCOD9120171 Si02
#       7
#     4   4   4   4   4   4   4
#     4  10  19  33  54  84 117 145 196 241 295 336
#     4  11  23  38  58  85 124 159 192 245 298 358
#     4  12  17  32  58  82 109 145 196 246 281 336
#     4  11  20  33  57  93 119 149 194 259 298 344
#     4  11  21  35  55  89 125 152 193 246 308 348
#     4  10  17  30  50  82 113 136 186 244 283 332
#     4  11  19  30  54  88 114 142 192 247 296 342
#
# _framework density 22.571151
#
# number of rings (size 3 to 8) (size 9 to 14) (size 15 to 20)
#    0.000    1.143    5.714    6.857    0.000    0.000 
#    0.000    2.857    0.000    1.714    0.000    0.000 
#    0.000    0.000    0.000    0.000    0.000    0.000 
#
# Total GULP energy -77978.976045 kJ/mol
# GULP energy per Si atom -5569.926860 kJ/mol
# Density = 2.251978 g / cm^3
# Si number density = 22.571151 Si / 1000 Ang^3
#
#
#
# Elastic Constant Matrix: (Units=GPa)
#
#
# Indices 1 2 3 4 5 6 
#
# 1 192.5607 37.2881 34.6853 0.0000 26.1687 0.0000
# 2 37.2881 141.7138 10.8485 0.0000 2.0933 0.0000
# 3 34.6853 10.8485 30.3057 0.0000 5.5650 0.0000
# 4 0.0000 0.0000 0.0000 -7.5010 0.0000 1.6351
# 5 26.1687 2.0933 5.5650 0.0000 15.9924 0.0000
# 6 0.0000 0.0000 0.0000 1.6351 0.0000 48.7042
#
#
#
# Elastic Compliance Matrix: (Units=1/GPa)
#
#
# Indices 1 2 3 4 5 6 
#
# 1 0.008181 -0.001468 -0.006853 0.000000 -0.010810 0.000000
# 2 -0.001468 0.007519 -0.001358 0.000000 0.001891 0.000000
# 3 -0.006853 -0.001358 0.041913 0.000000 -0.003194 0.000000
# 4 0.000000 0.000000 0.000000 -0.132347 0.000000 0.004443
# 5 -0.010810 0.001891 -0.003194 0.000000 0.081082 0.000000
# 6 0.000000 0.000000 0.000000 0.004443 0.000000 0.020383
#
#
# Mechanical properties :
#
#
# Convention : Reuss Voigt Hill
#
# Bulk Modulus (GPa) = 26.14095 58.91377 42.52736
# Shear Modulus (GPa) = 84.97694 30.22302 57.59998
#
# Velocity S-wave (km/s) = 6.14249 3.66322 5.05714
# Velocity P-wave (km/s) = 7.86852 6.63704 7.27887
#
# Compressibility (1/GPa) = 0.03825416
#
# Stress axis : x y z
#
# Youngs Moduli (GPa) = 122.23677 132.99880 23.85914
#
# Poissons Ratio (x) = 0.19528 0.16350
# Poissons Ratio (y) = 0.17948 0.03241
# Poissons Ratio (z) = 0.83763 0.18065
#
# Static dielectric constant tensor:
#      x y z
#    x 1.809630 0.000000 -0.000670 
#    y 0.000000 1.967930 0.000000 
#    z -0.000670 0.000000 1.932250 
# 
# From -- ./inp_files/45846.got.cif
#   From: 2010.05.17/outbox.cif.g08.bks.cpg/sg5_23_cif.got.tgz:45846.got - 2010.06.03 18:56:24.
