data_PCOD9120487
_publ_section_title
;
Structure prediction by ZEFSAII (Michael W. Deem and Ramdas Pophale) SiO2 
 PCOD9120487
Probable space group: C 2
;
_chemical_formula_sum "Si O2"
_cell_formula_units_Z 30
_cell_length_a 15.055959
_cell_length_b 13.679667
_cell_length_c 18.686292
_cell_angle_alpha 90.000000
_cell_angle_beta 20.258703
_cell_angle_gamma 90.000000
_cell_volume 1332.627753
_symmetry_space_group_name_H-M "C 2"
_symmetry_group_IT_number 5
_symmetry_cell_setting 'monoclinic'
loop_
_space_group_symop_operation_xyz
x,y,z
-x,y,-z
1/2+x,1/2+y,z
1/2-x,1/2+y,-z
loop_
_atom_site_type_symbol
_atom_site_label
_atom_site_fract_x
_atom_site_fract_y
_atom_site_fract_z
Si Si1 0.682285 0.884220 0.801414
Si Si2 0.796871 0.214708 0.517939
Si Si3 0.790724 0.107376 0.721769
Si Si4 0.848704 0.882909 0.462859
Si Si5 0.393869 0.300161 0.196022
Si Si6 0.093320 0.545325 0.197763
Si Si7 0.500000 0.458485 0.000000
Si Si8 0.254471 0.903441 0.026489
O O1 0.529229 0.864966 0.844846
O O2 0.974669 0.864728 0.601159
O O3 0.669393 0.002152 0.817299
O O4 0.500000 0.838273 0.000000
O O5 0.799943 0.287224 0.449996
O O6 0.796246 0.279675 0.592193
O O7 0.036930 0.142644 0.342453
O O8 0.534993 0.151516 0.711133
O O9 0.602783 0.195377 0.844200
O O10 0.000000 0.097541 0.500000
O O11 0.649289 0.971271 0.614712
O O12 0.058870 0.902850 0.240800
O O13 0.356710 0.385481 0.165003
O O14 0.646546 0.334633 0.046034
O O15 0.292951 0.522255 0.111249
O O16 0.225349 0.510312 0.024279
#
# Coordination Sequence:
#
# PCOD9120487 Si02
#       8
#     4   4   4   4   4   4   2   4
#     4  10  20  34  55  83 113 153 200 245 299 355
#     4  10  20  37  60  90 120 161 205 254 312 363
#     4  10  18  31  55  84 107 148 197 243 296 353
#     4  10  21  38  59  88 122 160 203 255 303 369
#     4   9  19  34  54  84 121 146 196 247 299 354
#     4  11  21  41  62  89 124 160 203 252 312 373
#     4  10  22  38  60  94 120 164 204 254 312 374
#     4   9  20  37  56  87 118 159 193 248 310 353
#
# _framework density 22.511913
#
# number of rings (size 3 to 8) (size 9 to 14) (size 15 to 20)
#    0.000    2.133    1.333    2.400    0.933    1.067 
#    6.000    4.667    0.000    0.000   10.400    0.000 
#    0.000    0.000    0.000    0.000    0.000    0.000 
#
# Total GULP energy -83690.725399 kJ/mol
# GULP energy per Si atom -5579.381693 kJ/mol
# Density = 2.246067 g / cm^3
# Si number density = 22.511913 Si / 1000 Ang^3
#
#
#
# Elastic Constant Matrix: (Units=GPa)
#
#
# Indices 1 2 3 4 5 6 
#
# 1 112.7150 9.7965 19.9591 -0.0621 -29.3608 -0.0560
# 2 9.7965 52.6917 -6.2012 -0.1092 -2.6839 -0.0060
# 3 19.9591 -6.2012 77.6744 -0.0808 -3.2039 -0.0446
# 4 -0.0621 -0.1092 -0.0808 27.5858 -0.0068 -8.1645
# 5 -29.3608 -2.6839 -3.2039 -0.0068 37.5869 -0.0277
# 6 -0.0560 -0.0060 -0.0446 -8.1645 -0.0277 26.7795
#
#
#
# Elastic Compliance Matrix: (Units=1/GPa)
#
#
# Indices 1 2 3 4 5 6 
#
# 1 0.011872 -0.002090 -0.002851 0.000023 0.008882 0.000036
# 2 -0.002090 0.019612 0.002101 0.000088 -0.000053 0.000030
# 3 -0.002851 0.002101 0.013737 0.000051 -0.000906 0.000032
# 4 0.000023 0.000088 0.000051 0.039847 0.000045 0.012149
# 5 0.008882 -0.000053 -0.000906 0.000045 0.033462 0.000065
# 6 0.000036 0.000030 0.000032 0.012149 0.000065 0.041046
#
#
# Mechanical properties :
#
#
# Convention : Reuss Voigt Hill
#
# Bulk Modulus (GPa) = 25.29115 32.24333 28.76724
# Shear Modulus (GPa) = 28.02114 33.02555 30.52334
#
# Velocity S-wave (km/s) = 3.53189 3.83433 3.68622
# Velocity P-wave (km/s) = 5.28122 5.82724 5.56094
#
# Compressibility (1/GPa) = 0.03953952
#
# Stress axis : x y z
#
# Youngs Moduli (GPa) = 84.23156 50.99006 72.79462
#
# Poissons Ratio (x) = 0.10659 0.20755
# Poissons Ratio (y) = 0.17607 -0.15292
# Poissons Ratio (z) = 0.24015 -0.10712
#
# Static dielectric constant tensor:
#      x y z
#    x 1.908380 0.000020 0.004540 
#    y 0.000020 1.800040 0.000070 
#    z 0.004540 0.000070 1.896740 
# 
# From -- ./inp_files/54801.got.cif
#   From: 2010.05.17/outbox.cif.g08.bks.cpg/sg5_28_cif.got.tgz:54801.got - 2010.06.03 18:56:24.
