data_PCOD9120940
_publ_section_title
;
Structure prediction by ZEFSAII (Michael W. Deem and Ramdas Pophale) SiO2 
 PCOD9120940
Probable space group: C 2
;
_chemical_formula_sum "Si O2"
_cell_formula_units_Z 28
_cell_length_a 14.546972
_cell_length_b 19.987149
_cell_length_c 8.985037
_cell_angle_alpha 90.000000
_cell_angle_beta 153.406896
_cell_angle_gamma 90.000000
_cell_volume 1169.454512
_symmetry_space_group_name_H-M "C 2"
_symmetry_group_IT_number 5
_symmetry_cell_setting 'monoclinic'
loop_
_space_group_symop_operation_xyz
x,y,z
-x,y,-z
1/2+x,1/2+y,z
1/2-x,1/2+y,-z
loop_
_atom_site_type_symbol
_atom_site_label
_atom_site_fract_x
_atom_site_fract_y
_atom_site_fract_z
Si Si1 0.175751 0.791120 0.951421
Si Si2 0.933966 0.006539 0.741917
Si Si3 0.772835 0.117016 0.808817
Si Si4 0.286070 0.768194 0.766374
Si Si5 0.007987 0.527414 0.197787
Si Si6 0.261166 0.644588 0.136111
Si Si7 0.697435 0.939245 0.879058
O O1 0.265319 0.778476 0.914189
O O2 0.928630 0.798559 0.600887
O O3 0.227083 0.723484 0.115656
O O4 0.270437 0.862696 0.121057
O O5 0.693285 0.999512 0.365998
O O6 0.000000 0.977179 0.000000
O O7 0.088932 0.974798 0.849258
O O8 0.002189 0.084387 0.845867
O O9 0.769379 0.187984 0.722954
O O10 0.648622 0.062403 0.533757
O O11 0.702773 0.130674 0.877635
O O12 0.500000 0.790378 0.000000
O O13 0.870441 0.466226 0.058126
O O14 0.868660 0.591577 0.957928
O O15 0.500000 0.630543 0.500000
O O16 0.500000 0.961450 0.500000
#
# Coordination Sequence:
#
# PCOD9120940 Si02
#       7
#     4   4   4   4   4   4   4
#     4  10  24  37  60  86 124 161 198 243 309 359
#     4  10  20  33  63  98 107 144 212 257 296 342
#     4  10  18  36  66  94 111 145 205 258 293 347
#     4  10  20  40  65  88 113 152 209 254 291 361
#     4  11  20  38  67  89 114 158 208 252 292 350
#     4  11  21  38  60  90 126 161 193 246 310 361
#     4  12  21  38  59  88 123 157 199 251 298 359
#
# _framework density 23.942786000000002
#
# number of rings (size 3 to 8) (size 9 to 14) (size 15 to 20)
#    0.000    1.429    5.714    2.143    0.000    1.143 
#    2.571    0.714    0.000    0.000    0.000    0.000 
#    0.000    0.000    0.000    0.000    0.000    0.000 
#
# Total GULP energy -78124.519984 kJ/mol
# GULP energy per Si atom -5580.322856 kJ/mol
# Density = 2.388829 g / cm^3
# Si number density = 23.942786 Si / 1000 Ang^3
#
#
#
# Elastic Constant Matrix: (Units=GPa)
#
#
# Indices 1 2 3 4 5 6 
#
# 1 85.6173 10.1357 41.7006 0.0000 37.4409 0.0000
# 2 10.1357 72.7953 36.1217 0.0000 23.5409 0.0000
# 3 41.7006 36.1217 138.6312 0.0000 53.9743 0.0000
# 4 0.0000 0.0000 0.0000 29.1164 0.0000 3.9699
# 5 37.4409 23.5409 53.9743 0.0000 55.6950 0.0000
# 6 0.0000 0.0000 0.0000 3.9699 0.0000 8.5225
#
#
#
# Elastic Compliance Matrix: (Units=1/GPa)
#
#
# Indices 1 2 3 4 5 6 
#
# 1 0.016833 0.001807 -0.001335 0.000000 -0.010786 0.000000
# 2 0.001807 0.016643 -0.002679 0.000000 -0.005653 0.000000
# 3 -0.001335 -0.002679 0.012081 0.000000 -0.009678 0.000000
# 4 0.000000 0.000000 0.000000 0.036674 0.000000 -0.017083
# 5 -0.010786 -0.005653 -0.009678 0.000000 0.036974 0.000000
# 6 0.000000 0.000000 0.000000 -0.017083 0.000000 0.125294
#
#
# Mechanical properties :
#
#
# Convention : Reuss Voigt Hill
#
# Bulk Modulus (GPa) = 24.30585 52.55112 38.42848
# Shear Modulus (GPa) = 19.03835 32.60585 25.82210
#
# Velocity S-wave (km/s) = 2.82292 3.69429 3.28760
# Velocity P-wave (km/s) = 4.56057 6.33982 5.52233
#
# Compressibility (1/GPa) = 0.04114236
#
# Stress axis : x y z
#
# Youngs Moduli (GPa) = 59.40766 60.08532 82.77482
#
# Poissons Ratio (x) = -0.10855 0.11048
# Poissons Ratio (y) = -0.10732 0.22176
# Poissons Ratio (z) = 0.07929 0.16097
#
# Static dielectric constant tensor:
#      x y z
#    x 2.054510 0.000000 -0.012560 
#    y 0.000000 1.922950 0.000000 
#    z -0.012560 0.000000 1.978110 
# 
# From -- ./inp_files/45169.got.cif
#   From: 2010.05.17/outbox.cif.g08.bks.cpg/sg5_23_cif.got.tgz:45169.got - 2010.06.03 18:56:24.
