data_PCOD9120252
_publ_section_title
;
Structure prediction by ZEFSAII (Michael W. Deem and Ramdas Pophale) SiO2 
 PCOD9120252
Probable space group: C 2
;
_chemical_formula_sum "Si O2"
_cell_formula_units_Z 32
_cell_length_a 21.497191
_cell_length_b 7.796828
_cell_length_c 26.450731
_cell_angle_alpha 90.000000
_cell_angle_beta 160.021235
_cell_angle_gamma 90.000000
_cell_volume 1514.769483
_symmetry_space_group_name_H-M "C 2"
_symmetry_group_IT_number 5
_symmetry_cell_setting 'monoclinic'
loop_
_space_group_symop_operation_xyz
x,y,z
-x,y,-z
1/2+x,1/2+y,z
1/2-x,1/2+y,-z
loop_
_atom_site_type_symbol
_atom_site_label
_atom_site_fract_x
_atom_site_fract_y
_atom_site_fract_z
Si Si1 0.024364 0.928980 0.673636
Si Si2 0.021713 0.060720 0.888784
Si Si3 0.999245 0.481087 0.135104
Si Si4 0.129374 0.557446 0.777672
Si Si5 0.314650 0.566173 0.824509
Si Si6 0.374939 0.931220 0.662947
Si Si7 0.679940 0.968872 0.171839
Si Si8 0.421487 0.577273 0.179699
O O1 0.138115 0.760699 0.775471
O O2 0.151916 0.036773 0.733001
O O3 0.835414 0.883753 0.502778
O O4 0.987699 0.010731 0.699813
O O5 0.024340 0.996755 0.833182
O O6 0.014720 0.271201 0.881098
O O7 0.864274 0.998172 0.806867
O O8 0.209058 0.012567 0.060198
O O9 0.088948 0.528887 0.257131
O O10 0.120671 0.541889 0.180585
O O11 0.794754 0.554140 0.978341
O O12 0.166957 0.485954 0.750019
O O13 0.942574 0.522193 0.663617
O O14 0.272772 0.767414 0.783355
O O15 0.500000 0.560654 0.000000
O O16 0.507837 0.769743 0.769005
O O17 0.500000 0.978612 0.000000
#
# Coordination Sequence:
#
# PCOD9120252 Si02
#       8
#     4   4   4   4   4   4   4   4
#     4  11  21  36  56  80 112 148 179 228 282 324
#     4   9  16  30  55  82 100 133 185 231 259 308
#     4  10  18  34  55  80 106 139 184 230 261 317
#     4  10  17  33  55  75 108 144 178 220 271 323
#     4   7  13  25  49  78  98 127 174 225 261 297
#     4  11  24  33  51  86 117 143 179 224 285 334
#     4   9  15  30  57  79  99 137 190 227 264 316
#     4  11  20  34  56  80 114 143 181 225 273 332
#
# _framework density 21.125326000000001
#
# number of rings (size 3 to 8) (size 9 to 14) (size 15 to 20)
#    0.000    2.250    3.750    2.250    0.000    0.500 
#    0.000    0.000    8.250    2.250    0.000    0.000 
#    0.000    0.000    0.000    0.000    0.000    0.000 
#
# Total GULP energy -89110.713620 kJ/mol
# GULP energy per Si atom -5569.419601 kJ/mol
# Density = 2.107724 g / cm^3
# Si number density = 21.125326 Si / 1000 Ang^3
#
#
#
# Elastic Constant Matrix: (Units=GPa)
#
#
# Indices 1 2 3 4 5 6 
#
# 1 211.4931 21.0944 52.9254 -0.0021 17.8807 0.0002
# 2 21.0944 17.1843 1.1521 0.0032 -0.3345 0.0003
# 3 52.9254 1.1521 54.5776 0.0141 -5.2657 -0.0005
# 4 -0.0021 0.0032 0.0141 9.7235 0.0008 -0.3554
# 5 17.8807 -0.3345 -5.2657 0.0008 21.0577 -0.0005
# 6 0.0002 0.0003 -0.0005 -0.3554 -0.0005 15.0889
#
#
#
# Elastic Compliance Matrix: (Units=1/GPa)
#
#
# Indices 1 2 3 4 5 6 
#
# 1 0.009041 -0.010658 -0.009529 0.000020 -0.010229 0.000000
# 2 -0.010658 0.070848 0.010064 -0.000042 0.012692 -0.000002
# 3 -0.009529 0.010064 0.028842 -0.000049 0.015464 0.000000
# 4 0.000020 -0.000042 -0.000049 0.102933 -0.000034 0.002424
# 5 -0.010229 0.012692 0.015464 -0.000034 0.060243 0.000001
# 6 0.000000 -0.000002 0.000000 0.002424 0.000001 0.066331
#
#
# Mechanical properties :
#
#
# Convention : Reuss Voigt Hill
#
# Bulk Modulus (GPa) = 11.30119 48.17764 29.73942
# Shear Modulus (GPa) = 12.88732 23.04621 17.96676
#
# Velocity S-wave (km/s) = 2.47258 3.30650 2.91947
# Velocity P-wave (km/s) = 3.67597 6.11820 5.04704
#
# Compressibility (1/GPa) = 0.08848623
#
# Stress axis : x y z
#
# Youngs Moduli (GPa) = 110.61085 14.11468 34.67108
#
# Poissons Ratio (x) = 0.15044 0.33038
# Poissons Ratio (y) = 1.17890 -0.34894
# Poissons Ratio (z) = 1.05400 -0.14206
#
# Static dielectric constant tensor:
#      x y z
#    x 1.934400 0.000000 0.038860 
#    y 0.000000 1.840440 0.000000 
#    z 0.038860 0.000000 1.711430 
# 
# From -- ./inp_files/29482.got.cif
#   From: 2010.05.17/outbox.cif.g08.bks.cpg/sg5_15_cif.got.tgz:29482.got - 2010.06.03 18:56:24.
