data_PCOD9120395
_publ_section_title
;
Structure prediction by ZEFSAII (Michael W. Deem and Ramdas Pophale) SiO2 
 PCOD9120395
Probable space group: C 2
;
_chemical_formula_sum "Si O2"
_cell_formula_units_Z 28
_cell_length_a 13.105362
_cell_length_b 9.989475
_cell_length_c 12.564505
_cell_angle_alpha 90.000000
_cell_angle_beta 39.899835
_cell_angle_gamma 90.000000
_cell_volume 1055.110959
_symmetry_space_group_name_H-M "C 2"
_symmetry_group_IT_number 5
_symmetry_cell_setting 'monoclinic'
loop_
_space_group_symop_operation_xyz
x,y,z
-x,y,-z
1/2+x,1/2+y,z
1/2-x,1/2+y,-z
loop_
_atom_site_type_symbol
_atom_site_label
_atom_site_fract_x
_atom_site_fract_y
_atom_site_fract_z
Si Si1 0.352435 0.634780 0.034027
Si Si2 0.690515 0.078127 0.847123
Si Si3 0.682571 0.360800 0.884001
Si Si4 0.828493 0.821255 0.687114
Si Si5 0.467043 0.850769 0.241272
Si Si6 0.256530 0.892541 0.585040
Si Si7 0.347508 0.119446 0.360718
O O1 0.318646 0.481393 0.032155
O O2 0.203533 0.690421 0.218745
O O3 0.587235 0.749154 0.092952
O O4 0.500000 0.624069 0.000000
O O5 0.736209 0.112837 0.687711
O O6 0.789670 0.947694 0.792618
O O7 0.508989 0.012630 0.772895
O O8 0.500000 0.047920 0.000000
O O9 0.758224 0.405638 0.710235
O O10 0.731121 0.212091 0.876942
O O11 0.500000 0.335766 0.000000
O O12 0.692331 0.831706 0.704167
O O13 0.000000 0.824704 0.500000
O O14 0.414096 0.826434 0.405396
O O15 0.127315 0.779153 0.650917
O O16 0.252055 0.038408 0.530052
#
# Coordination Sequence:
#
# PCOD9120395 Si02
#       7
#     4   4   4   4   4   4   4
#     4   9  17  29  48  71  96 124 162 204 241 289
#     4   9  16  31  46  68  98 122 160 205 244 293
#     4   9  18  28  48  77 100 123 158 207 256 297
#     4  10  18  28  45  69  97 133 171 199 240 294
#     4   8  17  29  48  69 100 127 164 204 246 290
#     4   9  17  26  44  74 103 125 158 204 260 290
#     4   8  16  25  41  68 100 122 154 197 250 289
#
# _framework density 26.537493999999999
#
# number of rings (size 3 to 8) (size 9 to 14) (size 15 to 20)
#    0.857    2.286    0.000    2.143    6.000    0.000 
#    0.000    0.714    0.000    0.000    0.000   60.000 
#    0.000    0.000    0.000    0.000    0.000    0.000 
#
# Total GULP energy -78028.584556 kJ/mol
# GULP energy per Si atom -5573.470325 kJ/mol
# Density = 2.647709 g / cm^3
# Si number density = 26.537494 Si / 1000 Ang^3
#
#
#
# Elastic Constant Matrix: (Units=GPa)
#
#
# Indices 1 2 3 4 5 6 
#
# 1 86.5560 10.0431 28.8135 0.0000 -13.3578 0.0000
# 2 10.0431 197.9623 66.2613 0.0000 -9.5947 0.0000
# 3 28.8135 66.2613 126.5480 0.0000 9.9879 0.0000
# 4 0.0000 0.0000 0.0000 33.4387 0.0000 24.1081
# 5 -13.3578 -9.5947 9.9879 0.0000 24.6522 0.0000
# 6 0.0000 0.0000 0.0000 24.1081 0.0000 -6.2670
#
#
#
# Elastic Compliance Matrix: (Units=1/GPa)
#
#
# Indices 1 2 3 4 5 6 
#
# 1 0.014632 0.001401 -0.004890 0.000000 0.010455 0.000000
# 2 0.001401 0.006625 -0.004185 0.000000 0.005034 0.000000
# 3 -0.004890 -0.004185 0.011926 0.000000 -0.009111 0.000000
# 4 0.000000 0.000000 0.000000 0.007925 0.000000 0.030487
# 5 0.010455 0.005034 -0.009111 0.000000 0.051880 0.000000
# 6 0.000000 0.000000 0.000000 0.030487 0.000000 -0.042287
#
#
# Mechanical properties :
#
#
# Convention : Reuss Voigt Hill
#
# Bulk Modulus (GPa) = 56.07102 69.03355 62.55229
# Shear Modulus (GPa) = 69.44852 30.76134 50.10493
#
# Velocity S-wave (km/s) = 5.12121 3.40835 4.34992
# Velocity P-wave (km/s) = 7.49292 6.44664 6.98939
#
# Compressibility (1/GPa) = 0.01783453
#
# Stress axis : x y z
#
# Youngs Moduli (GPa) = 68.34284 150.93759 83.84886
#
# Poissons Ratio (x) = -0.21152 0.41006
# Poissons Ratio (y) = -0.09577 0.35094
# Poissons Ratio (z) = 0.33423 0.63173
#
# Static dielectric constant tensor:
#      x y z
#    x 2.081100 0.000000 0.000880 
#    y 0.000000 2.143770 0.000000 
#    z 0.000880 0.000000 2.184730 
# 
# From -- ./inp_files/67417.got.cif
#   From: 2010.05.17/outbox.cif.g08.bks.cpg/sg5_34_cif.got.tgz:67417.got - 2010.06.03 18:56:24.
