data_PCOD9120841
_publ_section_title
;
Structure prediction by ZEFSAII (Michael W. Deem and Ramdas Pophale) SiO2 
 PCOD9120841
Probable space group: C 2
;
_chemical_formula_sum "Si O2"
_cell_formula_units_Z 26
_cell_length_a 7.065999
_cell_length_b 14.398237
_cell_length_c 14.507174
_cell_angle_alpha 90.000000
_cell_angle_beta 47.956040
_cell_angle_gamma 90.000000
_cell_volume 1096.071566
_symmetry_space_group_name_H-M "C 2"
_symmetry_group_IT_number 5
_symmetry_cell_setting 'monoclinic'
loop_
_space_group_symop_operation_xyz
x,y,z
-x,y,-z
1/2+x,1/2+y,z
1/2-x,1/2+y,-z
loop_
_atom_site_type_symbol
_atom_site_label
_atom_site_fract_x
_atom_site_fract_y
_atom_site_fract_z
Si Si1 0.245519 0.261290 0.316513
Si Si2 0.723239 0.552625 0.361902
Si Si3 0.068206 0.402079 0.831864
Si Si4 0.913929 0.888667 0.899381
Si Si5 0.000000 0.413231 0.500000
Si Si6 0.744454 0.543618 0.704295
Si Si7 0.148292 0.747505 0.355335
O O1 0.149768 0.156261 0.352657
O O2 0.404518 0.299551 0.177491
O O3 0.440018 0.260905 0.341315
O O4 0.031679 0.339028 0.407228
O O5 0.500000 0.514109 0.500000
O O6 0.822350 0.498732 0.240371
O O7 0.971798 0.548647 0.345981
O O8 0.220746 0.381330 0.875499
O O9 0.155552 0.329872 0.726228
O O10 0.769376 0.396138 0.952757
O O11 0.069085 0.983562 0.829000
O O12 0.771550 0.483494 0.601320
O O13 0.694793 0.651586 0.706260
O O14 0.000000 0.746956 0.500000
#
# Coordination Sequence:
#
# PCOD9120841 Si02
#       7
#     4   4   4   4   2   4   4
#     4   9  20  36  58  79 117 149 189 231 290 344
#     4  11  23  36  57  93 115 150 189 246 286 337
#     4  10  22  38  61  82 120 150 198 236 280 345
#     4   9  21  42  59  83 109 165 193 229 290 342
#     4  10  18  36  54  82 112 154 178 232 282 350
#     4  10  22  36  60  84 118 150 192 235 288 342
#     4  10  20  35  56  90 114 149 185 241 289 341
#
# _framework density 23.721080000000001
#
# number of rings (size 3 to 8) (size 9 to 14) (size 15 to 20)
#    0.000    2.154    1.538    0.462    8.615    1.846 
#    0.000    3.077    0.000    0.000    0.000    0.000 
#    0.000    0.000    0.000    0.000    0.000    0.000 
#
# Total GULP energy -72583.794483 kJ/mol
# GULP energy per Si atom -5583.368806 kJ/mol
# Density = 2.366709 g / cm^3
# Si number density = 23.721080 Si / 1000 Ang^3
#
#
#
# Elastic Constant Matrix: (Units=GPa)
#
#
# Indices 1 2 3 4 5 6 
#
# 1 79.0488 -21.2073 -8.3819 0.0000 2.6903 0.0000
# 2 -21.2073 124.2258 37.9872 0.0000 3.9390 0.0000
# 3 -8.3819 37.9872 133.3666 0.0000 -3.5797 0.0000
# 4 0.0000 0.0000 0.0000 22.0074 0.0000 -4.0038
# 5 2.6903 3.9390 -3.5797 0.0000 34.9942 0.0000
# 6 0.0000 0.0000 0.0000 -4.0038 0.0000 15.0426
#
#
#
# Elastic Compliance Matrix: (Units=1/GPa)
#
#
# Indices 1 2 3 4 5 6 
#
# 1 0.013318 0.002265 0.000158 0.000000 -0.001263 0.000000
# 2 0.002265 0.009258 -0.002534 0.000000 -0.001476 0.000000
# 3 0.000158 -0.002534 0.008260 0.000000 0.001118 0.000000
# 4 0.000000 0.000000 0.000000 0.047752 0.000000 0.012710
# 5 -0.001263 -0.001476 0.001118 0.000000 0.028954 0.000000
# 6 0.000000 0.000000 0.000000 0.012710 0.000000 0.069861
#
#
# Mechanical properties :
#
#
# Convention : Reuss Voigt Hill
#
# Bulk Modulus (GPa) = 32.66488 39.27081 35.96784
# Shear Modulus (GPa) = 26.61994 36.29172 31.45583
#
# Velocity S-wave (km/s) = 3.35357 3.91568 3.64548
# Velocity P-wave (km/s) = 5.36615 6.08561 5.73717
#
# Compressibility (1/GPa) = 0.03061392
#
# Stress axis : x y z
#
# Youngs Moduli (GPa) = 75.08707 108.01072 121.06658
#
# Poissons Ratio (x) = -0.24468 -0.01911
# Poissons Ratio (y) = -0.17010 0.30682
# Poissons Ratio (z) = -0.01185 0.27373
#
# Static dielectric constant tensor:
#      x y z
#    x 2.082650 0.000000 0.006160 
#    y 0.000000 1.891370 0.000000 
#    z 0.006160 0.000000 1.867630 
# 
# From -- ./inp_files/35812.got.cif
#   From: 2010.05.17/outbox.cif.g08.bks.cpg/sg5_18_cif.got.tgz:35812.got - 2010.06.03 18:56:24.
