data_PCOD9120296
_publ_section_title
;
Structure prediction by ZEFSAII (Michael W. Deem and Ramdas Pophale) SiO2 
 PCOD9120296
Probable space group: C 2
;
_chemical_formula_sum "Si O2"
_cell_formula_units_Z 22
_cell_length_a 7.467652
_cell_length_b 13.739830
_cell_length_c 13.852265
_cell_angle_alpha 90.000000
_cell_angle_beta 128.141483
_cell_angle_gamma 90.000000
_cell_volume 1117.836696
_symmetry_space_group_name_H-M "C 2"
_symmetry_group_IT_number 5
_symmetry_cell_setting 'monoclinic'
loop_
_space_group_symop_operation_xyz
x,y,z
-x,y,-z
1/2+x,1/2+y,z
1/2-x,1/2+y,-z
loop_
_atom_site_type_symbol
_atom_site_label
_atom_site_fract_x
_atom_site_fract_y
_atom_site_fract_z
Si Si1 0.519379 0.565730 0.120965
Si Si2 0.500000 0.929865 0.500000
Si Si3 0.331987 0.592208 0.530372
Si Si4 0.835521 0.853445 0.762409
Si Si5 0.725469 0.660417 0.799951
Si Si6 0.473496 0.181749 0.273649
O O1 0.577804 0.456766 0.174041
O O2 0.304258 0.605796 0.109510
O O3 0.731770 0.636449 0.215169
O O4 0.500000 0.567992 0.000000
O O5 0.611370 0.867932 0.622272
O O6 0.698494 0.000323 0.527688
O O7 0.500000 0.561990 0.500000
O O8 0.490444 0.641519 0.663353
O O9 0.145098 0.662410 0.419056
O O10 0.773040 0.775693 0.824768
O O11 0.014488 0.794094 0.754974
O O12 0.917367 0.628931 0.785487
#
# Coordination Sequence:
#
# PCOD9120296 Si02
#       6
#     4   2   4   4   4   4
#     4  12  24  42  63  85 120 172 214 250 296 346
#     4  12  18  36  66  92 126 156 188 256 304 376
#     4  10  17  34  65  90 124 162 185 240 323 366
#     4  10  22  40  65  89 124 154 201 252 311 356
#     4   9  21  41  62  90 126 155 200 252 308 367
#     4   9  21  41  62  90 126 155 200 252 308 367
#
# _framework density 19.680871
#
# number of rings (size 3 to 8) (size 9 to 14) (size 15 to 20)
#    1.091    0.727    3.636    1.091    0.000    2.182 
#    6.545    0.000    0.000    0.000    0.000    0.000 
#    0.000    0.000    0.000    0.000    0.000    0.000 
#
# Total GULP energy -61300.098634 kJ/mol
# GULP energy per Si atom -5572.736239 kJ/mol
# Density = 1.963608 g / cm^3
# Si number density = 19.680871 Si / 1000 Ang^3
#
#
#
# Elastic Constant Matrix: (Units=GPa)
#
#
# Indices 1 2 3 4 5 6 
#
# 1 68.3098 19.5515 8.8420 0.0000 -8.7373 0.0000
# 2 19.5515 87.4335 0.8090 0.0000 -4.7197 0.0000
# 3 8.8420 0.8090 35.3115 0.0000 -18.3903 0.0000
# 4 0.0000 0.0000 0.0000 1.1468 0.0000 -13.6530
# 5 -8.7373 -4.7197 -18.3903 0.0000 30.5946 0.0000
# 6 0.0000 0.0000 0.0000 -13.6530 0.0000 4.4153
#
#
#
# Elastic Compliance Matrix: (Units=1/GPa)
#
#
# Indices 1 2 3 4 5 6 
#
# 1 0.016306 -0.003487 -0.002705 0.000000 0.002493 0.000000
# 2 -0.003487 0.012301 0.001545 0.000000 0.001830 0.000000
# 3 -0.002705 0.001545 0.041754 0.000000 0.024564 0.000000
# 4 0.000000 0.000000 0.000000 -0.024348 0.000000 -0.075289
# 5 0.002493 0.001830 0.024564 0.000000 0.048445 0.000000
# 6 0.000000 0.000000 0.000000 -0.075289 0.000000 -0.006324
#
#
# Mechanical properties :
#
#
# Convention : Reuss Voigt Hill
#
# Bulk Modulus (GPa) = 16.37519 27.71774 22.04646
# Shear Modulus (GPa) = 42.45014 18.02150 30.23582
#
# Velocity S-wave (km/s) = 4.64931 3.02931 3.92382
# Velocity P-wave (km/s) = 6.09589 5.13321 5.63514
#
# Compressibility (1/GPa) = 0.06106799
#
# Stress axis : x y z
#
# Youngs Moduli (GPa) = 61.32665 81.29119 23.94957
#
# Poissons Ratio (x) = 0.28344 0.06478
# Poissons Ratio (y) = 0.21383 -0.03699
# Poissons Ratio (z) = 0.16588 -0.12555
#
# Static dielectric constant tensor:
#      x y z
#    x 1.690090 0.000000 -0.018110 
#    y 0.000000 1.667100 0.000000 
#    z -0.018110 0.000000 1.724710 
# 
# From -- ./inp_files/35542.got.cif
#   From: 2010.05.17/outbox.cif.g08.bks.cpg/sg5_18_cif.got.tgz:35542.got - 2010.06.03 18:56:24.
