data_PCOD9120995
_publ_section_title
;
Structure prediction by ZEFSAII (Michael W. Deem and Ramdas Pophale) SiO2 
 PCOD9120995
Probable space group: C 2
;
_chemical_formula_sum "Si O2"
_cell_formula_units_Z 28
_cell_length_a 12.965517
_cell_length_b 13.901320
_cell_length_c 7.636438
_cell_angle_alpha 90.000000
_cell_angle_beta 72.726017
_cell_angle_gamma 90.000000
_cell_volume 1314.294416
_symmetry_space_group_name_H-M "C 2"
_symmetry_group_IT_number 5
_symmetry_cell_setting 'monoclinic'
loop_
_space_group_symop_operation_xyz
x,y,z
-x,y,-z
1/2+x,1/2+y,z
1/2-x,1/2+y,-z
loop_
_atom_site_type_symbol
_atom_site_label
_atom_site_fract_x
_atom_site_fract_y
_atom_site_fract_z
Si Si1 0.819895 0.001780 0.329049
Si Si2 0.026116 0.350477 0.778836
Si Si3 0.683766 0.475744 0.085883
Si Si4 0.413786 0.036400 0.903244
Si Si5 0.484808 0.639873 0.796432
Si Si6 0.213977 0.843540 0.376535
Si Si7 0.126156 0.635624 0.399529
O O1 0.909031 0.083472 0.320243
O O2 0.703375 0.049865 0.423840
O O3 0.831117 0.912758 0.450801
O O4 0.830482 0.970271 0.118433
O O5 0.977396 0.249526 0.733373
O O6 0.154842 0.346787 0.687265
O O7 0.967404 0.450759 0.757601
O O8 0.000000 0.351197 0.000000
O O9 0.614298 0.567405 0.183343
O O10 0.665200 0.383151 0.216745
O O11 0.810007 0.494463 0.050694
O O12 0.368764 0.123024 0.812025
O O13 0.500000 0.068742 0.000000
O O14 0.500000 0.647249 0.000000
O O15 0.175639 0.735986 0.429466
O O16 0.000000 0.629046 0.500000
#
# Coordination Sequence:
#
# PCOD9120995 Si02
#       7
#     4   4   4   4   4   4   4
#     4  10  23  44  66  94 134 169 216 272 325 385
#     4  10  18  37  70  92 123 173 215 269 323 372
#     4  10  22  39  68  97 125 174 214 266 329 379
#     4  10  20  39  64  96 128 169 219 265 322 384
#     4   9  19  38  65  94 131 168 214 273 323 381
#     4  12  23  42  68  93 132 171 216 270 324 392
#     4  11  25  42  63  96 133 174 213 268 336 385
#
# _framework density 21.304207000000002
#
# number of rings (size 3 to 8) (size 9 to 14) (size 15 to 20)
#    0.000    1.714    4.286    0.857    4.000    0.000 
#    2.571    2.857    6.286    0.000    0.000    0.000 
#    0.000    0.000    0.000    0.000    0.000    0.000 
#
# Total GULP energy -78098.720363 kJ/mol
# GULP energy per Si atom -5578.480026 kJ/mol
# Density = 2.125572 g / cm^3
# Si number density = 21.304207 Si / 1000 Ang^3
#
#
#
# Elastic Constant Matrix: (Units=GPa)
#
#
# Indices 1 2 3 4 5 6 
#
# 1 67.1133 26.4691 6.5560 0.0000 -20.8360 0.0000
# 2 26.4691 99.2194 20.8466 0.0000 5.8010 0.0000
# 3 6.5560 20.8466 50.2436 0.0000 -8.9647 0.0000
# 4 0.0000 0.0000 0.0000 20.3626 0.0000 9.3867
# 5 -20.8360 5.8010 -8.9647 0.0000 27.2012 0.0000
# 6 0.0000 0.0000 0.0000 9.3867 0.0000 20.5856
#
#
#
# Elastic Compliance Matrix: (Units=1/GPa)
#
#
# Indices 1 2 3 4 5 6 
#
# 1 0.024960 -0.008909 0.004451 0.000000 0.022486 0.000000
# 2 -0.008909 0.014670 -0.007119 0.000000 -0.012299 0.000000
# 3 0.004451 -0.007119 0.024602 0.000000 0.013036 0.000000
# 4 0.000000 0.000000 0.000000 0.062180 0.000000 -0.028353
# 5 0.022486 -0.012299 0.013036 0.000000 0.060906 0.000000
# 6 0.000000 0.000000 0.000000 -0.028353 0.000000 0.061506
#
#
# Mechanical properties :
#
#
# Convention : Reuss Voigt Hill
#
# Bulk Modulus (GPa) = 24.34275 36.03552 30.18914
# Shear Modulus (GPa) = 17.50281 24.47685 20.98983
#
# Velocity S-wave (km/s) = 2.86941 3.39325 3.14226
# Velocity P-wave (km/s) = 4.73593 5.68363 5.23129
#
# Compressibility (1/GPa) = 0.04107999
#
# Stress axis : x y z
#
# Youngs Moduli (GPa) = 40.06441 68.16648 40.64750
#
# Poissons Ratio (x) = 0.60727 -0.18094
# Poissons Ratio (y) = 0.35692 0.28936
# Poissons Ratio (z) = -0.17835 0.48526
#
# Static dielectric constant tensor:
#      x y z
#    x 1.770090 0.000000 0.006380 
#    y 0.000000 1.767590 0.000000 
#    z 0.006380 0.000000 1.887710 
# 
# From -- ./inp_files/23766.got.cif
#   From: 2010.05.17/outbox.cif.g08.bks.cpg/sg5_12_cif.got.tgz:23766.got - 2010.06.03 18:56:24.
