data_PCOD9120902
_publ_section_title
;
Structure prediction by ZEFSAII (Michael W. Deem and Ramdas Pophale) SiO2 
 PCOD9120902
Probable space group: C 2
;
_chemical_formula_sum "Si O2"
_cell_formula_units_Z 30
_cell_length_a 16.921985
_cell_length_b 9.377740
_cell_length_c 9.698933
_cell_angle_alpha 90.000000
_cell_angle_beta 60.843261
_cell_angle_gamma 90.000000
_cell_volume 1344.101395
_symmetry_space_group_name_H-M "C 2"
_symmetry_group_IT_number 5
_symmetry_cell_setting 'monoclinic'
loop_
_space_group_symop_operation_xyz
x,y,z
-x,y,-z
1/2+x,1/2+y,z
1/2-x,1/2+y,-z
loop_
_atom_site_type_symbol
_atom_site_label
_atom_site_fract_x
_atom_site_fract_y
_atom_site_fract_z
Si Si1 0.831814 0.890160 0.140715
Si Si2 0.590357 0.656696 0.758006
Si Si3 0.000000 0.679587 0.000000
Si Si4 0.710638 0.262174 0.110845
Si Si5 0.415123 0.016898 0.853130
Si Si6 0.197992 0.171121 0.383013
Si Si7 0.898727 0.196747 0.811064
Si Si8 0.683461 0.924374 0.788076
O O1 0.747591 0.817715 0.293683
O O2 0.864062 0.035201 0.185899
O O3 0.914357 0.780512 0.081351
O O4 0.811396 0.875272 0.993368
O O5 0.641321 0.671179 0.569498
O O6 0.484435 0.628557 0.816080
O O7 0.607279 0.812278 0.809234
O O8 0.999468 0.584326 0.862087
O O9 0.635287 0.140574 0.186787
O O10 0.729745 0.330691 0.241473
O O11 0.806612 0.197609 0.978171
O O12 0.426026 0.865129 0.772333
O O13 0.349615 0.991131 0.040220
O O14 0.130815 0.136828 0.311800
O O15 0.276531 0.052501 0.333632
#
# Coordination Sequence:
#
# PCOD9120902 Si02
#       8
#     4   4   2   4   4   4   4   4
#     4  10  23  40  64  94 127 163 204 261 319 363
#     4  12  26  39  64  95 128 164 217 256 290 378
#     4  10  18  36  62  92 132 148 200 272 322 354
#     4   9  21  38  65  91 128 158 200 262 322 375
#     4  10  19  38  62  94 127 156 197 265 321 371
#     4  11  23  47  61  84 133 178 205 245 310 379
#     4  10  22  38  66  91 123 162 212 253 315 351
#     4  11  22  38  66  91 120 168 208 248 318 368
#
# _framework density 22.319745000000001
#
# number of rings (size 3 to 8) (size 9 to 14) (size 15 to 20)
#    0.000    1.600    4.000    2.000    5.600    5.867 
#    0.000    0.000    0.000    0.000    0.000    0.000 
#    0.000    0.000    0.000    0.000    0.000    0.000 
#
# Total GULP energy -83762.898709 kJ/mol
# GULP energy per Si atom -5584.193247 kJ/mol
# Density = 2.226894 g / cm^3
# Si number density = 22.319745 Si / 1000 Ang^3
#
#
#
# Elastic Constant Matrix: (Units=GPa)
#
#
# Indices 1 2 3 4 5 6 
#
# 1 124.8040 31.9061 5.3917 0.0000 -7.1989 0.0000
# 2 31.9061 94.1991 1.2011 0.0000 0.9422 0.0000
# 3 5.3917 1.2011 32.7820 0.0000 0.3216 0.0000
# 4 0.0000 0.0000 0.0000 14.0633 0.0000 -1.1601
# 5 -7.1989 0.9422 0.3216 0.0000 16.8045 0.0000
# 6 0.0000 0.0000 0.0000 -1.1601 0.0000 46.1035
#
#
#
# Elastic Compliance Matrix: (Units=1/GPa)
#
#
# Indices 1 2 3 4 5 6 
#
# 1 0.009105 -0.003107 -0.001424 0.000000 0.004102 0.000000
# 2 -0.003107 0.011687 0.000102 0.000000 -0.001988 0.000000
# 3 -0.001424 0.000102 0.030747 0.000000 -0.001204 0.000000
# 4 0.000000 0.000000 0.000000 0.071255 0.000000 0.001793
# 5 0.004102 -0.001988 -0.001204 0.000000 0.061400 0.000000
# 6 0.000000 0.000000 0.000000 0.001793 0.000000 0.021735
#
#
# Mechanical properties :
#
#
# Convention : Reuss Voigt Hill
#
# Bulk Modulus (GPa) = 23.42930 36.53143 29.98036
# Shear Modulus (GPa) = 21.83289 29.61335 25.72312
#
# Velocity S-wave (km/s) = 3.13099 3.64645 3.39851
# Velocity P-wave (km/s) = 4.85703 5.84223 5.37226
#
# Compressibility (1/GPa) = 0.04268160
#
# Stress axis : x y z
#
# Youngs Moduli (GPa) = 109.83051 85.56741 32.52371
#
# Poissons Ratio (x) = 0.26584 0.04631
# Poissons Ratio (y) = 0.34122 -0.00333
# Poissons Ratio (z) = 0.15639 -0.00875
#
# Static dielectric constant tensor:
#      x y z
#    x 1.935020 0.000000 0.021410 
#    y 0.000000 1.932990 0.000000 
#    z 0.021410 0.000000 1.774910 
# 
# From -- ./inp_files/44298.got.cif
#   From: 2010.05.17/outbox.cif.g08.bks.cpg/sg5_23_cif.got.tgz:44298.got - 2010.06.03 18:56:24.
