data_PCOD9120399
_publ_section_title
;
Structure prediction by ZEFSAII (Michael W. Deem and Ramdas Pophale) SiO2 
 PCOD9120399
Probable space group: C 2
;
_chemical_formula_sum "Si O2"
_cell_formula_units_Z 24
_cell_length_a 18.806411
_cell_length_b 9.185571
_cell_length_c 13.061172
_cell_angle_alpha 90.000000
_cell_angle_beta 23.020382
_cell_angle_gamma 90.000000
_cell_volume 882.340114
_symmetry_space_group_name_H-M "C 2"
_symmetry_group_IT_number 5
_symmetry_cell_setting 'monoclinic'
loop_
_space_group_symop_operation_xyz
x,y,z
-x,y,-z
1/2+x,1/2+y,z
1/2-x,1/2+y,-z
loop_
_atom_site_type_symbol
_atom_site_label
_atom_site_fract_x
_atom_site_fract_y
_atom_site_fract_z
Si Si1 0.000000 0.742311 0.500000
Si Si2 0.640776 0.489597 0.161895
Si Si3 0.166211 0.754686 0.832928
Si Si4 0.988409 0.548877 0.240700
Si Si5 0.703223 0.702626 0.758154
Si Si6 0.500000 0.743255 0.500000
Si Si7 0.718920 0.482877 0.445690
O O1 0.079884 0.847746 0.306522
O O2 0.182726 0.660653 0.292763
O O3 0.576964 0.632562 0.310665
O O4 0.500171 0.478051 0.252460
O O5 0.859425 0.493184 0.881057
O O6 0.337540 0.828320 0.659962
O O7 0.236994 0.645157 0.650868
O O8 0.000000 0.838019 0.000000
O O9 0.090605 0.647388 0.021484
O O10 0.838180 0.647409 0.492564
O O11 0.855977 0.438440 0.355028
O O12 0.718911 0.878252 0.729892
O O13 0.500000 0.661829 0.000000
#
# Coordination Sequence:
#
# PCOD9120399 Si02
#       7
#     2   4   4   4   4   2   4
#     4   9  18  34  54  74 102 135 170 221 264 298
#     4   8  14  27  47  69  92 124 161 204 257 296
#     4   8  13  24  43  66  90 117 150 195 247 287
#     4  10  18  28  48  76 102 131 167 209 256 306
#     4  11  21  32  50  78 108 137 173 214 255 305
#     4   7  10  18  36  60  82 105 138 181 232 280
#     4   9  17  32  53  74 101 130 164 215 262 303
#
# _framework density 27.200393999999999
#
# number of rings (size 3 to 8) (size 9 to 14) (size 15 to 20)
#    0.000    3.000    0.000    5.500    0.000    1.333 
#    0.000    0.000    0.000    3.000    0.000   18.667 
#    0.000    0.000    0.000    0.000    0.000    0.000 
#
# Total GULP energy -66960.486265 kJ/mol
# GULP energy per Si atom -5580.040522 kJ/mol
# Density = 2.713848 g / cm^3
# Si number density = 27.200394 Si / 1000 Ang^3
#
#
#
# Elastic Constant Matrix: (Units=GPa)
#
#
# Indices 1 2 3 4 5 6 
#
# 1 139.8402 16.6317 92.5422 0.0000 -97.6083 0.0000
# 2 16.6317 86.5227 32.3180 0.0000 -14.0723 0.0000
# 3 92.5422 32.3180 190.2572 0.0000 -85.9285 0.0000
# 4 0.0000 0.0000 0.0000 16.5162 0.0000 9.4738
# 5 -97.6083 -14.0723 -85.9285 0.0000 90.8938 0.0000
# 6 0.0000 0.0000 0.0000 9.4738 0.0000 -26.2265
#
#
#
# Elastic Compliance Matrix: (Units=1/GPa)
#
#
# Indices 1 2 3 4 5 6 
#
# 1 0.028576 -0.000520 0.000021 0.000000 0.030627 0.000000
# 2 -0.000520 0.012351 -0.002153 0.000000 -0.000681 0.000000
# 3 0.000021 -0.002153 0.009548 0.000000 0.008715 0.000000
# 4 0.000000 0.000000 0.000000 0.050154 0.000000 0.018117
# 5 0.030627 -0.000681 0.008715 0.000000 0.052025 0.000000
# 6 0.000000 0.000000 0.000000 0.018117 0.000000 -0.031585
#
#
# Mechanical properties :
#
#
# Convention : Reuss Voigt Hill
#
# Bulk Modulus (GPa) = 22.13766 77.73375 49.93571
# Shear Modulus (GPa) = 35.35330 34.57860 34.96595
#
# Velocity S-wave (km/s) = 3.60909 3.56933 3.58927
# Velocity P-wave (km/s) = 5.05211 6.75478 5.96451
#
# Compressibility (1/GPa) = 0.04517189
#
# Stress axis : x y z
#
# Youngs Moduli (GPa) = 34.99403 80.96576 104.73604
#
# Poissons Ratio (x) = 0.04207 -0.00219
# Poissons Ratio (y) = 0.01818 0.22548
# Poissons Ratio (z) = -0.00073 0.17431
#
# Static dielectric constant tensor:
#      x y z
#    x 2.334780 0.000000 -0.034870 
#    y 0.000000 2.072750 0.000000 
#    z -0.034870 0.000000 2.169590 
# 
# From -- ./inp_files/19376.got.cif
#   From: 2010.05.17/outbox.cif.g08.bks.cpg/sg5_10_cif.got.tgz:19376.got - 2010.06.03 18:56:24.
