data_PCOD9120150
_publ_section_title
;
Structure prediction by ZEFSAII (Michael W. Deem and Ramdas Pophale) SiO2 
 PCOD9120150
Probable space group: C 2
;
_chemical_formula_sum "Si O2"
_cell_formula_units_Z 30
_cell_length_a 12.350609
_cell_length_b 10.041408
_cell_length_c 15.451934
_cell_angle_alpha 90.000000
_cell_angle_beta 128.339636
_cell_angle_gamma 90.000000
_cell_volume 1503.053054
_symmetry_space_group_name_H-M "C 2"
_symmetry_group_IT_number 5
_symmetry_cell_setting 'monoclinic'
loop_
_space_group_symop_operation_xyz
x,y,z
-x,y,-z
1/2+x,1/2+y,z
1/2-x,1/2+y,-z
loop_
_atom_site_type_symbol
_atom_site_label
_atom_site_fract_x
_atom_site_fract_y
_atom_site_fract_z
Si Si1 0.281664 0.347000 0.823659
Si Si2 0.595521 0.410163 0.379269
Si Si3 0.851539 0.505865 0.398463
Si Si4 0.510113 0.233478 0.821035
Si Si5 0.817607 0.048189 0.194960
Si Si6 0.000000 0.769044 0.500000
Si Si7 0.259394 0.885313 0.000036
Si Si8 0.042586 0.469315 0.116154
O O1 0.202584 0.440562 0.716634
O O2 0.431311 0.317736 0.856739
O O3 0.215572 0.199159 0.797464
O O4 0.277943 0.400586 0.918674
O O5 0.738743 0.472053 0.416641
O O6 0.559049 0.282767 0.301096
O O7 0.471996 0.511394 0.295545
O O8 0.575647 0.360075 0.466713
O O9 0.886602 0.663224 0.406790
O O10 0.000000 0.446603 0.500000
O O11 0.485022 0.080191 0.826141
O O12 0.668939 0.271016 0.910195
O O13 0.706315 0.952893 0.189857
O O14 0.785277 0.013834 0.078967
O O15 0.424081 0.860854 0.072329
O O16 0.000000 0.527125 0.000000
#
# Coordination Sequence:
#
# PCOD9120150 Si02
#       8
#     4   4   4   4   4   2   4   4
#     4  10  19  37  59  87 118 163 211 257 305 381
#     4  10  21  43  65  86 125 165 202 269 325 369
#     4   9  23  44  63  92 126 163 216 261 325 376
#     4   9  18  33  57  79 115 158 200 243 306 372
#     4   9  20  37  55  91 118 157 216 246 313 388
#     4  10  24  46  64  96 126 160 216 274 316 380
#     4  10  17  28  55  84 119 155 192 250 308 362
#     4   9  17  30  50  80 120 153 199 244 284 370
#
# _framework density 19.959375000000001
#
# number of rings (size 3 to 8) (size 9 to 14) (size 15 to 20)
#    0.400    2.133    0.000    2.800    1.867    1.067 
#   13.200    0.000    0.000    3.200    0.000    0.000 
#    0.000    0.000    0.000    0.000    0.000    0.000 
#
# Total GULP energy -83540.572046 kJ/mol
# GULP energy per Si atom -5569.371470 kJ/mol
# Density = 1.991395 g / cm^3
# Si number density = 19.959375 Si / 1000 Ang^3
#
#
#
# Elastic Constant Matrix: (Units=GPa)
#
#
# Indices 1 2 3 4 5 6 
#
# 1 121.6712 20.6380 35.4285 0.0000 20.1444 0.0000
# 2 20.6380 28.1735 7.9301 0.0000 2.9038 0.0000
# 3 35.4285 7.9301 42.2436 0.0000 4.5678 0.0000
# 4 0.0000 0.0000 0.0000 17.4719 0.0000 -2.1228
# 5 20.1444 2.9038 4.5678 0.0000 41.2039 0.0000
# 6 0.0000 0.0000 0.0000 -2.1228 0.0000 29.3315
#
#
#
# Elastic Compliance Matrix: (Units=1/GPa)
#
#
# Indices 1 2 3 4 5 6 
#
# 1 0.012674 -0.006278 -0.008936 0.000000 -0.004763 0.000000
# 2 -0.006278 0.040729 -0.002431 0.000000 0.000469 0.000000
# 3 -0.008936 -0.002431 0.031510 0.000000 0.001047 0.000000
# 4 0.000000 0.000000 0.000000 0.057743 0.000000 0.004179
# 5 -0.004763 0.000469 0.001047 0.000000 0.026449 0.000000
# 6 0.000000 0.000000 0.000000 0.004179 0.000000 0.034395
#
#
# Mechanical properties :
#
#
# Convention : Reuss Voigt Hill
#
# Bulk Modulus (GPa) = 20.15204 35.56460 27.85832
# Shear Modulus (GPa) = 19.58229 26.14091 22.86160
#
# Velocity S-wave (km/s) = 3.13566 3.62291 3.38806
# Velocity P-wave (km/s) = 4.81957 5.94625 5.41231
#
# Compressibility (1/GPa) = 0.04962277
#
# Stress axis : x y z
#
# Youngs Moduli (GPa) = 78.89880 24.55228 31.73614
#
# Poissons Ratio (x) = 0.15414 0.28360
# Poissons Ratio (y) = 0.49534 0.07716
# Poissons Ratio (z) = 0.70505 0.05969
#
# Static dielectric constant tensor:
#      x y z
#    x 1.756890 0.000000 0.000950 
#    y 0.000000 1.710180 0.000000 
#    z 0.000950 0.000000 1.707840 
# 
# From -- ./inp_files/52753.got.cif
#   From: 2010.05.17/outbox.cif.g08.bks.cpg/sg5_27_cif.got.tgz:52753.got - 2010.06.03 18:56:24.
