data_PCOD9120679
_publ_section_title
;
Structure prediction by ZEFSAII (Michael W. Deem and Ramdas Pophale) SiO2 
 PCOD9120679
Probable space group: C 2
;
_chemical_formula_sum "Si O2"
_cell_formula_units_Z 24
_cell_length_a 8.298924
_cell_length_b 15.751871
_cell_length_c 16.067151
_cell_angle_alpha 90.000000
_cell_angle_beta 146.873792
_cell_angle_gamma 90.000000
_cell_volume 1147.812966
_symmetry_space_group_name_H-M "C 2"
_symmetry_group_IT_number 5
_symmetry_cell_setting 'monoclinic'
loop_
_space_group_symop_operation_xyz
x,y,z
-x,y,-z
1/2+x,1/2+y,z
1/2-x,1/2+y,-z
loop_
_atom_site_type_symbol
_atom_site_label
_atom_site_fract_x
_atom_site_fract_y
_atom_site_fract_z
Si Si1 0.828003 0.993450 0.598385
Si Si2 0.812375 0.201157 0.845144
Si Si3 0.585261 0.375033 0.833852
Si Si4 0.174420 0.667893 0.488377
Si Si5 0.572948 0.850952 0.381797
Si Si6 0.324411 0.821459 0.101748
O O1 0.500000 0.998708 0.500000
O O2 0.063665 0.955911 0.764833
O O3 0.784374 0.923045 0.508661
O O4 0.886096 0.087259 0.589752
O O5 0.677337 0.288155 0.826665
O O6 0.554961 0.152452 0.686067
O O7 0.040464 0.234205 0.874260
O O8 0.000000 0.158191 0.000000
O O9 0.251346 0.364215 0.720877
O O10 0.783302 0.380188 0.002453
O O11 0.325182 0.758686 0.543318
O O12 0.000000 0.676607 0.500000
O O13 0.535346 0.853076 0.266189
O O14 0.000000 0.809099 0.000000
#
# Coordination Sequence:
#
# PCOD9120679 Si02
#       6
#     4   4   4   4   4   4
#     4   9  19  33  53  83 112 148 185 225 282 330
#     4  10  19  33  56  83 112 146 187 229 287 333
#     4   9  18  34  57  78 112 148 182 227 283 337
#     4  11  20  33  57  87 113 148 190 234 282 334
#     4  10  18  34  58  81 109 146 191 233 279 326
#     4   9  18  32  57  85 105 148 189 228 281 334
#
# _framework density 20.909329
#
# number of rings (size 3 to 8) (size 9 to 14) (size 15 to 20)
#    0.000    2.333    3.333    0.000    0.000    0.000 
#    0.000    5.833   11.000    7.000    0.000    0.000 
#    0.000    0.000    0.000    0.000    0.000    0.000 
#
# Total GULP energy -66942.624146 kJ/mol
# GULP energy per Si atom -5578.552012 kJ/mol
# Density = 2.086174 g / cm^3
# Si number density = 20.909329 Si / 1000 Ang^3
#
#
#
# Elastic Constant Matrix: (Units=GPa)
#
#
# Indices 1 2 3 4 5 6 
#
# 1 36.6544 -3.6869 14.7636 0.0017 -9.0462 0.0009
# 2 -3.6869 82.8262 32.9306 0.0011 -9.3752 0.0017
# 3 14.7636 32.9306 129.5888 0.0038 -27.0097 0.0041
# 4 0.0017 0.0011 0.0038 25.2152 0.0019 0.5677
# 5 -9.0462 -9.3752 -27.0097 0.0019 25.9690 0.0012
# 6 0.0009 0.0017 0.0041 0.5677 0.0012 7.4319
#
#
#
# Elastic Compliance Matrix: (Units=1/GPa)
#
#
# Indices 1 2 3 4 5 6 
#
# 1 0.030941 0.003412 -0.002412 -0.000002 0.009502 -0.000004
# 2 0.003412 0.013863 -0.003346 0.000000 0.002713 -0.000002
# 3 -0.002412 -0.003346 0.010744 -0.000002 0.009126 -0.000006
# 4 -0.000002 0.000000 -0.000002 0.039727 -0.000006 -0.003035
# 5 0.009502 0.002713 0.009126 -0.000006 0.052289 -0.000015
# 6 -0.000004 -0.000002 -0.000006 -0.003035 -0.000015 0.134787
#
#
# Mechanical properties :
#
#
# Convention : Reuss Voigt Hill
#
# Bulk Modulus (GPa) = 19.66328 37.45377 28.55852
# Shear Modulus (GPa) = 16.44763 25.39402 20.92083
#
# Velocity S-wave (km/s) = 2.80771 3.48872 3.16658
# Velocity P-wave (km/s) = 4.46492 5.84633 5.20169
#
# Compressibility (1/GPa) = 0.05085623
#
# Stress axis : x y z
#
# Youngs Moduli (GPa) = 32.31923 72.13583 93.07594
#
# Poissons Ratio (x) = -0.24610 0.22446
# Poissons Ratio (y) = -0.11026 0.31143
# Poissons Ratio (z) = 0.07794 0.24136
#
# Static dielectric constant tensor:
#      x y z
#    x 1.790510 0.000000 -0.020960 
#    y 0.000000 1.735270 0.000000 
#    z -0.020960 0.000000 1.787770 
# 
# From -- ./inp_files/51005.got.cif
#   From: 2010.05.17/outbox.cif.g08.bks.cpg/sg5_26_cif.got.tgz:51005.got - 2010.06.03 18:56:24.
