data_PCOD9120651
_publ_section_title
;
Structure prediction by ZEFSAII (Michael W. Deem and Ramdas Pophale) SiO2 
 PCOD9120651
Probable space group: C 2
;
_chemical_formula_sum "Si O2"
_cell_formula_units_Z 20
_cell_length_a 11.141187
_cell_length_b 9.020390
_cell_length_c 12.582622
_cell_angle_alpha 90.000000
_cell_angle_beta 34.983060
_cell_angle_gamma 90.000000
_cell_volume 724.996306
_symmetry_space_group_name_H-M "C 2"
_symmetry_group_IT_number 5
_symmetry_cell_setting 'monoclinic'
loop_
_space_group_symop_operation_xyz
x,y,z
-x,y,-z
1/2+x,1/2+y,z
1/2-x,1/2+y,-z
loop_
_atom_site_type_symbol
_atom_site_label
_atom_site_fract_x
_atom_site_fract_y
_atom_site_fract_z
Si Si1 0.274980 0.525310 0.626698
Si Si2 0.897247 0.902427 0.326654
Si Si3 0.145226 0.424233 0.066445
Si Si4 0.265113 0.399569 0.204312
Si Si5 0.716044 0.245736 0.222655
O O1 0.500000 0.590085 0.500000
O O2 0.294551 0.508397 0.486542
O O3 0.278874 0.365884 0.687371
O O4 0.026794 0.551384 0.830420
O O5 0.990041 0.770946 0.331194
O O6 0.752373 0.848497 0.335814
O O7 0.112775 0.975617 0.124087
O O8 0.128153 0.363607 0.199430
O O9 0.137525 0.297586 0.982320
O O10 0.247453 0.577244 0.228864
O O11 0.500000 0.356136 0.000000
#
# Coordination Sequence:
#
# PCOD9120651 Si02
#       5
#     4   4   4   4   4
#     4  10  18  34  55  80 116 149 188 246 280 337
#     4   8  20  34  53  85 119 141 192 245 280 342
#     4   9  19  33  55  84 115 149 192 239 286 340
#     4  10  18  36  62  86 115 156 194 235 294 348
#     4   9  19  35  63  82 114 153 192 236 294 343
#
# _framework density 27.586347
#
# number of rings (size 3 to 8) (size 9 to 14) (size 15 to 20)
#    1.200    1.600    0.000    1.800    0.000    0.800 
#   10.800    0.000    8.800    0.000    0.000    0.000 
#    0.000    0.000    0.000    0.000    0.000    0.000 
#
# Total GULP energy -55730.406885 kJ/mol
# GULP energy per Si atom -5573.040688 kJ/mol
# Density = 2.752356 g / cm^3
# Si number density = 27.586347 Si / 1000 Ang^3
#
#
#
# Elastic Constant Matrix: (Units=GPa)
#
#
# Indices 1 2 3 4 5 6 
#
# 1 153.1524 13.7338 64.0328 -0.0005 13.4368 0.0000
# 2 13.7338 52.3853 13.1411 -0.0005 -11.0320 0.0007
# 3 64.0328 13.1411 122.3241 -0.0005 -9.5180 0.0014
# 4 -0.0005 -0.0005 -0.0005 8.0695 0.0006 -17.9664
# 5 13.4368 -11.0320 -9.5180 0.0006 67.7372 -0.0007
# 6 0.0000 0.0007 0.0014 -17.9664 -0.0007 -5.6932
#
#
#
# Elastic Compliance Matrix: (Units=1/GPa)
#
#
# Indices 1 2 3 4 5 6 
#
# 1 0.008873 -0.001723 -0.004669 0.000000 -0.002697 0.000000
# 2 -0.001723 0.020545 -0.001030 0.000001 0.003543 0.000000
# 3 -0.004669 -0.001030 0.010908 0.000001 0.002291 0.000000
# 4 0.000000 0.000001 0.000001 0.015440 0.000000 -0.048725
# 5 -0.002697 0.003543 0.002291 0.000000 0.016197 0.000000
# 6 0.000000 0.000000 0.000000 -0.048725 0.000000 -0.021884
#
#
# Mechanical properties :
#
#
# Convention : Reuss Voigt Hill
#
# Bulk Modulus (GPa) = 39.24216 56.63080 47.93648
# Shear Modulus (GPa) = 68.10444 29.81965 48.96205
#
# Velocity S-wave (km/s) = 4.97407 3.29136 4.21749
# Velocity P-wave (km/s) = 6.87347 5.91753 6.41333
#
# Compressibility (1/GPa) = 0.02548279
#
# Stress axis : x y z
#
# Youngs Moduli (GPa) = 112.70412 48.67264 91.67435
#
# Poissons Ratio (x) = 0.08385 0.42806
# Poissons Ratio (y) = 0.19416 0.09439
# Poissons Ratio (z) = 0.52626 0.05012
#
# Static dielectric constant tensor:
#      x y z
#    x 2.250410 0.000000 -0.106140 
#    y 0.000000 2.184720 0.000000 
#    z -0.106140 0.000000 2.216220 
# 
# From -- ./inp_files/18761.got.cif
#   From: 2010.05.17/outbox.cif.g08.bks.cpg/sg5_10_cif.got.tgz:18761.got - 2010.06.03 18:56:24.
