data_PCOD9120138
_publ_section_title
;
Structure prediction by ZEFSAII (Michael W. Deem and Ramdas Pophale) SiO2 
 PCOD9120138
Probable space group: C 2
;
_chemical_formula_sum "Si O2"
_cell_formula_units_Z 32
_cell_length_a 28.291147
_cell_length_b 7.250697
_cell_length_c 8.526835
_cell_angle_alpha 90.000000
_cell_angle_beta 128.804448
_cell_angle_gamma 90.000000
_cell_volume 1363.066030
_symmetry_space_group_name_H-M "C 2"
_symmetry_group_IT_number 5
_symmetry_cell_setting 'monoclinic'
loop_
_space_group_symop_operation_xyz
x,y,z
-x,y,-z
1/2+x,1/2+y,z
1/2-x,1/2+y,-z
loop_
_atom_site_type_symbol
_atom_site_label
_atom_site_fract_x
_atom_site_fract_y
_atom_site_fract_z
Si Si1 0.562477 0.494540 0.089736
Si Si2 0.186497 0.987071 0.480692
Si Si3 0.559799 0.899942 0.209569
Si Si4 0.309958 0.017623 0.230900
Si Si5 0.059051 0.119133 0.723152
Si Si6 0.180522 0.081342 0.807883
Si Si7 0.562834 0.019406 0.581908
Si Si8 0.688640 0.923357 0.421728
O O1 0.628738 0.410031 0.264059
O O2 0.560179 0.676540 0.197408
O O3 0.500000 0.389106 0.000000
O O4 0.557386 0.565706 0.901281
O O5 0.254530 0.938476 0.572916
O O6 0.177167 0.960264 0.644764
O O7 0.186103 0.206918 0.453290
O O8 0.560033 0.957523 0.392148
O O9 0.619009 0.966344 0.236957
O O10 0.500000 0.964028 0.000000
O O11 0.322969 0.798563 0.239884
O O12 0.369670 0.106341 0.274766
O O13 0.301419 0.041715 0.399575
O O14 0.246205 0.057627 0.019686
O O15 0.122313 0.040978 0.791143
O O16 0.062221 0.339983 0.695261
O O17 0.000000 0.059675 0.500000
O O18 0.500000 0.119791 0.500000
#
# Coordination Sequence:
#
# PCOD9120138 Si02
#       8
#     4   4   4   4   4   4   4   4
#     4  10  17  27  45  68  95 124 157 198 241 282
#     4  10  20  33  50  73  99 128 163 200 240 287
#     4   9  16  27  44  68  96 123 158 200 239 281
#     4   9  19  33  48  71 100 127 159 200 242 288
#     4  10  17  27  45  68  95 124 157 198 241 282
#     4  10  20  33  50  73  99 128 163 200 240 287
#     4   9  16  27  44  68  96 123 158 200 239 281
#     4   9  19  33  48  71 100 127 159 200 242 288
#
# _framework density 23.476483999999999
#
# number of rings (size 3 to 8) (size 9 to 14) (size 15 to 20)
#    0.000    2.500    0.000    6.750    0.000    6.000 
#    0.000    0.000    0.000    1.500    0.000    3.500 
#    0.000    0.000    0.000    0.000    0.000    0.000 
#
# Total GULP energy -89286.551731 kJ/mol
# GULP energy per Si atom -5580.409483 kJ/mol
# Density = 2.342305 g / cm^3
# Si number density = 23.476484 Si / 1000 Ang^3
#
#
#
# Elastic Constant Matrix: (Units=GPa)
#
#
# Indices 1 2 3 4 5 6 
#
# 1 212.0438 4.8976 67.6211 0.0000 47.6297 0.0000
# 2 4.8976 52.0971 -13.8813 0.0000 10.1654 0.0000
# 3 67.6211 -13.8813 132.1085 0.0000 44.3333 0.0000
# 4 0.0000 0.0000 0.0000 -27.7942 0.0000 7.9891
# 5 47.6297 10.1654 44.3333 0.0000 46.9033 0.0000
# 6 0.0000 0.0000 0.0000 7.9891 0.0000 17.6839
#
#
#
# Elastic Compliance Matrix: (Units=1/GPa)
#
#
# Indices 1 2 3 4 5 6 
#
# 1 0.006329 -0.000067 -0.001603 0.000000 -0.004897 0.000000
# 2 -0.000067 0.022844 0.005965 0.000000 -0.010522 0.000000
# 3 -0.001603 0.005965 0.013041 0.000000 -0.011991 0.000000
# 4 0.000000 0.000000 0.000000 -0.031844 0.000000 0.014386
# 5 -0.004897 -0.010522 -0.011991 0.000000 0.039908 0.000000
# 6 0.000000 0.000000 0.000000 0.014386 0.000000 0.050049
#
#
# Mechanical properties :
#
#
# Convention : Reuss Voigt Hill
#
# Bulk Modulus (GPa) = 19.68320 57.05827 38.37074
# Shear Modulus (GPa) = 46.01054 29.86607 37.93831
#
# Velocity S-wave (km/s) = 4.43183 3.57062 4.02433
# Velocity P-wave (km/s) = 5.88138 6.43089 6.16226
#
# Compressibility (1/GPa) = 0.05080474
#
# Stress axis : x y z
#
# Youngs Moduli (GPa) = 158.00870 43.77583 76.68145
#
# Poissons Ratio (x) = 0.00291 0.12292
# Poissons Ratio (y) = 0.01051 -0.45743
# Poissons Ratio (z) = 0.25329 -0.26113
#
# Static dielectric constant tensor:
#      x y z
#    x 1.935770 0.000000 0.059540 
#    y 0.000000 1.973960 0.000000 
#    z 0.059540 0.000000 1.906270 
# 
# From -- ./inp_files/30878.got.cif
#   From: 2010.05.17/outbox.cif.g08.bks.cpg/sg5_16_cif.got.tgz:30878.got - 2010.06.03 18:56:24.
