data_PCOD9120676
_publ_section_title
;
Structure prediction by ZEFSAII (Michael W. Deem and Ramdas Pophale) SiO2 
 PCOD9120676
Probable space group: C 2
;
_chemical_formula_sum "Si O2"
_cell_formula_units_Z 22
_cell_length_a 9.085913
_cell_length_b 10.836237
_cell_length_c 10.226810
_cell_angle_alpha 90.000000
_cell_angle_beta 73.608101
_cell_angle_gamma 90.000000
_cell_volume 965.975463
_symmetry_space_group_name_H-M "C 2"
_symmetry_group_IT_number 5
_symmetry_cell_setting 'monoclinic'
loop_
_space_group_symop_operation_xyz
x,y,z
-x,y,-z
1/2+x,1/2+y,z
1/2-x,1/2+y,-z
loop_
_atom_site_type_symbol
_atom_site_label
_atom_site_fract_x
_atom_site_fract_y
_atom_site_fract_z
Si Si1 0.650992 0.867720 0.242790
Si Si2 0.683417 0.815512 0.727867
Si Si3 0.129136 0.076886 0.860852
Si Si4 0.693761 0.241441 0.581838
Si Si5 0.531861 0.476353 0.350065
Si Si6 0.000000 0.532978 0.500000
O O1 0.495409 0.842187 0.205178
O O2 0.722112 0.749157 0.299389
O O3 0.771573 0.953830 0.136911
O O4 0.603174 0.951993 0.379095
O O5 0.728221 0.699735 0.808177
O O6 0.704347 0.776445 0.570335
O O7 0.795073 0.931726 0.716946
O O8 0.040327 0.053267 0.747457
O O9 0.000000 0.096903 0.000000
O O10 0.564835 0.348277 0.621468
O O11 0.608161 0.116996 0.563293
O O12 0.500000 0.535198 0.500000
#
# Coordination Sequence:
#
# PCOD9120676 Si02
#       6
#     4   4   4   4   4   2
#     4  11  23  36  60  93 122 159 206 253 307 360
#     4  11  20  38  60  90 117 158 207 252 297 360
#     4  11  25  42  60  87 128 170 199 244 310 372
#     4  10  18  34  57  93 125 154 191 255 312 353
#     4   9  20  39  64  92 122 158 201 258 307 353
#     4  12  18  34  60  86 130 154 196 260 314 350
#
# _framework density 22.774906000000001
#
# number of rings (size 3 to 8) (size 9 to 14) (size 15 to 20)
#    0.000    1.455    6.364    0.000    0.000    4.364 
#    0.000    0.000    0.000    0.000    0.000    0.000 
#    0.000    0.000    0.000    0.000    0.000    0.000 
#
# Total GULP energy -61544.502097 kJ/mol
# GULP energy per Si atom -5594.954736 kJ/mol
# Density = 2.272307 g / cm^3
# Si number density = 22.774906 Si / 1000 Ang^3
#
#
#
# Elastic Constant Matrix: (Units=GPa)
#
#
# Indices 1 2 3 4 5 6 
#
# 1 96.1510 15.2689 -4.9449 0.0000 -7.1989 0.0000
# 2 15.2689 72.1308 13.3851 0.0000 -3.8715 0.0000
# 3 -4.9449 13.3851 54.3093 0.0000 -15.6576 0.0000
# 4 0.0000 0.0000 0.0000 20.7878 0.0000 -6.6757
# 5 -7.1989 -3.8715 -15.6576 0.0000 20.6797 0.0000
# 6 0.0000 0.0000 0.0000 -6.6757 0.0000 36.5453
#
#
#
# Elastic Compliance Matrix: (Units=1/GPa)
#
#
# Indices 1 2 3 4 5 6 
#
# 1 0.011474 -0.002747 0.003486 0.000000 0.006119 0.000000
# 2 -0.002747 0.015186 -0.004412 0.000000 -0.001454 0.000000
# 3 0.003486 -0.004412 0.025495 0.000000 0.019691 0.000000
# 4 0.000000 0.000000 0.000000 0.051103 0.000000 0.009335
# 5 0.006119 -0.001454 0.019691 0.000000 0.065124 0.000000
# 6 0.000000 0.000000 0.000000 0.009335 0.000000 0.029068
#
#
# Mechanical properties :
#
#
# Convention : Reuss Voigt Hill
#
# Bulk Modulus (GPa) = 22.31737 30.00105 26.15921
# Shear Modulus (GPa) = 22.75494 28.86135 25.80815
#
# Velocity S-wave (km/s) = 3.16432 3.56370 3.36993
# Velocity P-wave (km/s) = 4.81362 5.48951 5.16264
#
# Compressibility (1/GPa) = 0.04480814
#
# Stress axis : x y z
#
# Youngs Moduli (GPa) = 87.15329 65.85024 39.22367
#
# Poissons Ratio (x) = 0.18091 -0.13674
# Poissons Ratio (y) = 0.23944 0.17306
# Poissons Ratio (z) = -0.30382 0.29054
#
# Static dielectric constant tensor:
#      x y z
#    x 1.921840 0.000000 0.001780 
#    y 0.000000 1.894030 0.000000 
#    z 0.001780 0.000000 1.797540 
# 
# From -- ./inp_files/35166.got.cif
#   From: 2010.05.17/outbox.cif.g08.bks.cpg/sg5_18_cif.got.tgz:35166.got - 2010.06.03 18:56:24.
