data_PCOD9120338
_publ_section_title
;
Structure prediction by ZEFSAII (Michael W. Deem and Ramdas Pophale) SiO2 
 PCOD9120338
Probable space group: C 2
;
_chemical_formula_sum "Si O2"
_cell_formula_units_Z 24
_cell_length_a 12.224047
_cell_length_b 14.295654
_cell_length_c 14.679376
_cell_angle_alpha 90.000000
_cell_angle_beta 149.544028
_cell_angle_gamma 90.000000
_cell_volume 1300.254769
_symmetry_space_group_name_H-M "C 2"
_symmetry_group_IT_number 5
_symmetry_cell_setting 'monoclinic'
loop_
_space_group_symop_operation_xyz
x,y,z
-x,y,-z
1/2+x,1/2+y,z
1/2-x,1/2+y,-z
loop_
_atom_site_type_symbol
_atom_site_label
_atom_site_fract_x
_atom_site_fract_y
_atom_site_fract_z
Si Si1 0.556174 0.818640 0.820601
Si Si2 0.079197 0.216008 0.457448
Si Si3 0.837312 0.024424 0.269747
Si Si4 0.774794 0.322420 0.784015
Si Si5 0.424622 0.027962 0.101823
Si Si6 0.413225 0.215764 0.192676
O O1 0.529972 0.773610 0.703060
O O2 0.354842 0.792207 0.742360
O O3 0.558003 0.930627 0.832289
O O4 0.772406 0.779506 0.023274
O O5 0.333335 0.231686 0.633107
O O6 0.000000 0.246663 0.500000
O O7 0.014863 0.105557 0.403116
O O8 0.874212 0.914994 0.319176
O O9 0.644619 0.049139 0.202651
O O10 0.751408 0.024014 0.104746
O O11 0.667578 0.241432 0.765075
O O12 0.000000 0.349092 0.000000
O O13 0.372782 0.110258 0.133362
#
# Coordination Sequence:
#
# PCOD9120338 Si02
#       6
#     4   4   4   4   4   4
#     4  10  22  41  64  88 124 159 209 258 301 363
#     4  12  25  36  61  96 126 164 198 253 313 368
#     4  10  17  36  63  93 114 148 217 256 291 348
#     4   9  18  38  66  91 113 159 207 256 303 356
#     4  10  18  37  66  88 115 164 204 259 300 351
#     4  11  21  37  63  92 125 156 203 253 317 358
#
# _framework density 18.457920999999999
#
# number of rings (size 3 to 8) (size 9 to 14) (size 15 to 20)
#    0.000    1.667    8.333    0.000    0.000    2.667 
#    0.000    0.000   18.333    0.000    0.000    0.000 
#    0.000    0.000    0.000    0.000    0.000    0.000 
#
# Total GULP energy -66945.823382 kJ/mol
# GULP energy per Si atom -5578.818615 kJ/mol
# Density = 1.841591 g / cm^3
# Si number density = 18.457921 Si / 1000 Ang^3
#
#
#
# Elastic Constant Matrix: (Units=GPa)
#
#
# Indices 1 2 3 4 5 6 
#
# 1 101.0590 56.4071 33.4235 0.0006 -9.9388 0.0004
# 2 56.4071 96.9685 26.0320 0.0012 4.0252 0.0000
# 3 33.4235 26.0320 78.0636 0.0035 -2.0496 -0.0001
# 4 0.0006 0.0012 0.0035 9.2504 0.0048 9.9112
# 5 -9.9388 4.0252 -2.0496 0.0048 28.5208 0.0012
# 6 0.0004 0.0000 -0.0001 9.9112 0.0012 33.3467
#
#
#
# Elastic Compliance Matrix: (Units=1/GPa)
#
#
# Indices 1 2 3 4 5 6 
#
# 1 0.016984 -0.009076 -0.004064 -0.000002 0.006907 0.000000
# 2 -0.009076 0.016277 -0.001689 0.000002 -0.005581 0.000000
# 3 -0.004064 -0.001689 0.015111 -0.000008 -0.000092 0.000002
# 4 -0.000002 0.000002 -0.000008 0.158615 -0.000026 -0.047143
# 5 0.006907 -0.005581 -0.000092 -0.000026 0.038250 0.000006
# 6 0.000000 0.000000 0.000002 -0.047143 0.000006 0.044000
#
#
# Mechanical properties :
#
#
# Convention : Reuss Voigt Hill
#
# Bulk Modulus (GPa) = 53.43201 56.42402 54.92801
# Shear Modulus (GPa) = 15.37837 24.90548 20.14192
#
# Velocity S-wave (km/s) = 2.88958 3.67728 3.30697
# Velocity P-wave (km/s) = 6.33591 6.97605 6.66367
#
# Compressibility (1/GPa) = 0.01871537
#
# Stress axis : x y z
#
# Youngs Moduli (GPa) = 58.87808 61.43673 66.17753
#
# Poissons Ratio (x) = 0.55757 0.26896
# Poissons Ratio (y) = 0.53435 0.11175
# Poissons Ratio (z) = 0.23929 0.10375
#
# Static dielectric constant tensor:
#      x y z
#    x 1.616830 0.000000 -0.007100 
#    y 0.000000 1.636240 0.000000 
#    z -0.007100 0.000000 1.691770 
# 
# From -- ./inp_files/53100.got.cif
#   From: 2010.05.17/outbox.cif.g08.bks.cpg/sg5_27_cif.got.tgz:53100.got - 2010.06.03 18:56:24.
