data_PCOD9120632
_publ_section_title
;
Structure prediction by ZEFSAII (Michael W. Deem and Ramdas Pophale) SiO2 
 PCOD9120632
Probable space group: C 2
;
_chemical_formula_sum "Si O2"
_cell_formula_units_Z 30
_cell_length_a 15.892026
_cell_length_b 8.920778
_cell_length_c 9.324151
_cell_angle_alpha 90.000000
_cell_angle_beta 105.772611
_cell_angle_gamma 90.000000
_cell_volume 1272.106476
_symmetry_space_group_name_H-M "C 2"
_symmetry_group_IT_number 5
_symmetry_cell_setting 'monoclinic'
loop_
_space_group_symop_operation_xyz
x,y,z
-x,y,-z
1/2+x,1/2+y,z
1/2-x,1/2+y,-z
loop_
_atom_site_type_symbol
_atom_site_label
_atom_site_fract_x
_atom_site_fract_y
_atom_site_fract_z
Si Si1 0.206063 0.222880 0.058587
Si Si2 0.586916 0.479203 0.476878
Si Si3 0.564986 0.590091 0.151255
Si Si4 0.811498 0.713763 0.827921
Si Si5 0.500000 0.161484 0.000000
Si Si6 0.359837 0.807930 0.401867
Si Si7 0.275279 0.908989 0.650274
Si Si8 0.544139 0.884665 0.823972
O O1 0.157784 0.086985 0.115145
O O2 0.236611 0.317309 0.208443
O O3 0.274177 0.177934 0.969799
O O4 0.129025 0.314037 0.942525
O O5 0.500000 0.405695 0.500000
O O6 0.568108 0.510458 0.303117
O O7 0.604455 0.636954 0.568915
O O8 0.679333 0.400648 0.536284
O O9 0.531129 0.761197 0.173752
O O10 0.500000 0.535876 0.000000
O O11 0.913318 0.747232 0.904833
O O12 0.734782 0.813959 0.721268
O O13 0.806458 0.570103 0.720825
O O14 0.524409 0.044757 0.883400
O O15 0.341022 0.858883 0.555148
O O16 0.429249 0.889190 0.330688
#
# Coordination Sequence:
#
# PCOD9120632 Si02
#       8
#     4   4   4   4   2   4   4   4
#     4  10  19  39  62  87 125 164 198 255 316 357
#     4  11  22  37  60  91 125 161 204 259 308 368
#     4  10  18  33  62  92 118 148 209 262 308 348
#     4  10  24  40  63  93 122 166 209 258 307 374
#     4  12  20  40  64  90 124 154 226 258 294 366
#     4  10  22  40  63  90 132 160 202 256 327 364
#     4  11  22  42  64  90 129 164 209 257 310 375
#     4  10  18  34  66  94 115 157 210 269 308 349
#
# _framework density 23.582930999999999
#
# number of rings (size 3 to 8) (size 9 to 14) (size 15 to 20)
#    0.000    1.600    6.000    0.000    1.867    1.067 
#    2.400    0.000    0.000    0.000    0.000    0.000 
#    0.000    0.000    0.000    0.000    0.000    0.000 
#
# Total GULP energy -83789.924994 kJ/mol
# GULP energy per Si atom -5585.995000 kJ/mol
# Density = 2.352926 g / cm^3
# Si number density = 23.582931 Si / 1000 Ang^3
#
#
#
# Elastic Constant Matrix: (Units=GPa)
#
#
# Indices 1 2 3 4 5 6 
#
# 1 124.7297 13.3113 49.3329 0.0000 -5.2282 0.0000
# 2 13.3113 25.8743 7.7537 0.0000 -0.5950 0.0000
# 3 49.3329 7.7537 145.0270 0.0000 2.6751 0.0000
# 4 0.0000 0.0000 0.0000 29.7377 0.0000 5.2051
# 5 -5.2282 -0.5950 2.6751 0.0000 53.3650 0.0000
# 6 0.0000 0.0000 0.0000 5.2051 0.0000 18.1556
#
#
#
# Elastic Compliance Matrix: (Units=1/GPa)
#
#
# Indices 1 2 3 4 5 6 
#
# 1 0.009724 -0.004046 -0.003111 0.000000 0.001064 0.000000
# 2 -0.004046 0.040977 -0.000816 0.000000 0.000101 0.000000
# 3 -0.003111 -0.000816 0.008010 0.000000 -0.000715 0.000000
# 4 0.000000 0.000000 0.000000 0.035404 0.000000 -0.010150
# 5 0.001064 0.000101 -0.000715 0.000000 0.018880 0.000000
# 6 0.000000 0.000000 0.000000 -0.010150 0.000000 0.057989
#
#
# Mechanical properties :
#
#
# Convention : Reuss Voigt Hill
#
# Bulk Modulus (GPa) = 23.38384 48.49187 35.93786
# Shear Modulus (GPa) = 24.85256 35.26720 30.05988
#
# Velocity S-wave (km/s) = 3.24981 3.87131 3.57409
# Velocity P-wave (km/s) = 4.90089 6.37100 5.68368
#
# Compressibility (1/GPa) = 0.04276457
#
# Stress axis : x y z
#
# Youngs Moduli (GPa) = 102.83597 24.40401 124.83767
#
# Poissons Ratio (x) = 0.09874 0.38839
# Poissons Ratio (y) = 0.41607 0.10191
# Poissons Ratio (z) = 0.31994 0.01992
#
# Static dielectric constant tensor:
#      x y z
#    x 1.909690 0.000000 0.039620 
#    y 0.000000 1.970300 0.000000 
#    z 0.039620 0.000000 1.888460 
# 
# From -- ./inp_files/23909.got.cif
#   From: 2010.05.17/outbox.cif.g08.bks.cpg/sg5_12_cif.got.tgz:23909.got - 2010.06.03 18:56:24.
