data_PCOD9120997
_publ_section_title
;
Structure prediction by ZEFSAII (Michael W. Deem and Ramdas Pophale) SiO2 
 PCOD9120997
Probable space group: C 2
;
_chemical_formula_sum "Si O2"
_cell_formula_units_Z 18
_cell_length_a 7.887680
_cell_length_b 17.176918
_cell_length_c 8.004766
_cell_angle_alpha 90.000000
_cell_angle_beta 50.090826
_cell_angle_gamma 90.000000
_cell_volume 831.905281
_symmetry_space_group_name_H-M "C 2"
_symmetry_group_IT_number 5
_symmetry_cell_setting 'monoclinic'
loop_
_space_group_symop_operation_xyz
x,y,z
-x,y,-z
1/2+x,1/2+y,z
1/2-x,1/2+y,-z
loop_
_atom_site_type_symbol
_atom_site_label
_atom_site_fract_x
_atom_site_fract_y
_atom_site_fract_z
Si Si1 0.500000 0.700280 0.500000
Si Si2 0.883263 0.602028 0.409053
Si Si3 0.500000 0.035219 0.000000
Si Si4 0.000000 0.454711 0.500000
Si Si5 0.146046 0.330385 0.165142
Si Si6 0.709254 0.387159 0.250604
O O1 0.667243 0.647763 0.497662
O O2 0.634347 0.754214 0.285005
O O3 0.000000 0.637820 0.500000
O O4 0.847288 0.512984 0.491330
O O5 0.021066 0.588317 0.151485
O O6 0.702942 0.974065 0.850943
O O7 0.152628 0.402164 0.288673
O O8 0.907546 0.344650 0.226610
O O9 0.318102 0.340213 0.906229
O O10 0.500000 0.388442 0.500000
#
# Coordination Sequence:
#
# PCOD9120997 Si02
#       6
#     2   4   2   2   4   4
#     4  11  24  42  68  97 144 182 220 271 366 394
#     4  10  21  42  68  98 140 178 221 284 337 409
#     4  10  20  40  68 106 138 166 234 296 318 418
#     4   9  16  40  68  85 140 170 222 291 316 380
#     4   9  20  41  62  99 131 175 231 287 316 421
#     4  10  18  37  72  95 129 176 235 281 340 388
#
# _framework density 21.637077999999999
#
# number of rings (size 3 to 8) (size 9 to 14) (size 15 to 20)
#    0.667    1.778    4.444    0.000    1.556    0.889 
#   12.000    3.333   12.222    0.000    0.000    0.000 
#    0.000    0.000    0.000    0.000    0.000    0.000 
#
# Total GULP energy -50199.054620 kJ/mol
# GULP energy per Si atom -5577.672736 kJ/mol
# Density = 2.158783 g / cm^3
# Si number density = 21.637078 Si / 1000 Ang^3
#
#
#
# Elastic Constant Matrix: (Units=GPa)
#
#
# Indices 1 2 3 4 5 6 
#
# 1 106.4729 54.0965 50.8052 0.0000 27.1012 0.0000
# 2 54.0965 92.4669 43.6261 0.0000 9.8846 0.0000
# 3 50.8052 43.6261 183.0972 0.0000 19.5683 0.0000
# 4 0.0000 0.0000 0.0000 17.5024 0.0000 9.2128
# 5 27.1012 9.8846 19.5683 0.0000 39.1039 0.0000
# 6 0.0000 0.0000 0.0000 9.2128 0.0000 17.3224
#
#
#
# Elastic Compliance Matrix: (Units=1/GPa)
#
#
# Indices 1 2 3 4 5 6 
#
# 1 0.016380 -0.007841 -0.001770 0.000000 -0.008485 0.000000
# 2 -0.007841 0.016048 -0.001897 0.000000 0.002327 0.000000
# 3 -0.001770 -0.001897 0.006574 0.000000 -0.001583 0.000000
# 4 0.000000 0.000000 0.000000 0.079349 0.000000 -0.042201
# 5 -0.008485 0.002327 -0.001583 0.000000 0.031657 0.000000
# 6 0.000000 0.000000 0.000000 -0.042201 0.000000 0.080173
#
#
# Mechanical properties :
#
#
# Convention : Reuss Voigt Hill
#
# Bulk Modulus (GPa) = 62.55213 75.45475 69.00344
# Shear Modulus (GPa) = 19.34045 30.35302 24.84674
#
# Velocity S-wave (km/s) = 2.99299 3.74949 3.39239
# Velocity P-wave (km/s) = 6.39659 7.32759 6.87786
#
# Compressibility (1/GPa) = 0.01598667
#
# Stress axis : x y z
#
# Youngs Moduli (GPa) = 61.04991 62.31304 152.11668
#
# Poissons Ratio (x) = 0.48858 0.26926
# Poissons Ratio (y) = 0.47868 0.28853
# Poissons Ratio (z) = 0.10806 0.11819
#
# Static dielectric constant tensor:
#      x y z
#    x 1.844970 0.000000 0.038130 
#    y 0.000000 1.792430 0.000000 
#    z 0.038130 0.000000 1.821120 
# 
# From -- ./inp_files/15285.got.cif
#   From: 2010.05.17/outbox.cif.g08.bks.cpg/sg5_8_cif.got.tgz:15285.got - 2010.06.03 18:56:24.
