data_PCOD9120737
_publ_section_title
;
Structure prediction by ZEFSAII (Michael W. Deem and Ramdas Pophale) SiO2 
 PCOD9120737
Probable space group: C 2
;
_chemical_formula_sum "Si O2"
_cell_formula_units_Z 24
_cell_length_a 9.145312
_cell_length_b 20.189253
_cell_length_c 10.788577
_cell_angle_alpha 90.000000
_cell_angle_beta 143.648503
_cell_angle_gamma 90.000000
_cell_volume 1180.715327
_symmetry_space_group_name_H-M "C 2"
_symmetry_group_IT_number 5
_symmetry_cell_setting 'monoclinic'
loop_
_space_group_symop_operation_xyz
x,y,z
-x,y,-z
1/2+x,1/2+y,z
1/2-x,1/2+y,-z
loop_
_atom_site_type_symbol
_atom_site_label
_atom_site_fract_x
_atom_site_fract_y
_atom_site_fract_z
Si Si1 0.500000 0.403070 0.500000
Si Si2 0.000000 0.549391 0.000000
Si Si3 0.046788 0.998560 0.321118
Si Si4 0.958025 0.314592 0.840430
Si Si5 0.296320 0.762164 0.469423
Si Si6 0.531315 0.375265 0.877142
Si Si7 0.262577 0.115104 0.606291
O O1 0.626001 0.450197 0.486218
O O2 0.714085 0.357314 0.697071
O O3 0.743493 0.511718 0.850059
O O4 0.950880 0.589752 0.839489
O O5 0.205755 0.064916 0.453132
O O6 0.058570 0.950379 0.211085
O O7 0.911701 0.273649 0.683715
O O8 0.000000 0.277756 0.000000
O O9 0.184859 0.363213 0.964648
O O10 0.500000 0.760926 0.500000
O O11 0.172919 0.689804 0.386670
O O12 0.121489 0.822637 0.309748
O O13 0.500000 0.359205 0.000000
O O14 0.000000 0.116214 0.500000
#
# Coordination Sequence:
#
# PCOD9120737 Si02
#       7
#     2   2   4   4   4   4   4
#     4  12  20  36  62  98 118 152 206 268 310 370
#     4  10  18  34  62  90 116 164 216 264 312 376
#     4  11  20  36  58  92 125 155 212 263 314 370
#     4  12  23  39  66  94 128 168 212 263 319 383
#     4  11  23  41  60  94 133 169 215 266 320 384
#     4  12  25  38  63  97 133 173 211 264 328 384
#     4   9  21  35  60  88 125 165 211 265 312 377
#
# _framework density 20.326661000000001
#
# number of rings (size 3 to 8) (size 9 to 14) (size 15 to 20)
#    0.000    1.000    7.500    1.000    1.167    1.333 
#    0.000    0.833    0.000    2.000    0.000    0.000 
#    0.000    0.000    0.000    0.000    0.000    0.000 
#
# Total GULP energy -66903.711970 kJ/mol
# GULP energy per Si atom -5575.309331 kJ/mol
# Density = 2.028040 g / cm^3
# Si number density = 20.326661 Si / 1000 Ang^3
#
#
#
# Elastic Constant Matrix: (Units=GPa)
#
#
# Indices 1 2 3 4 5 6 
#
# 1 60.9166 17.1454 33.1129 0.0000 -19.8620 0.0000
# 2 17.1454 125.6858 55.1337 0.0000 -9.1683 0.0000
# 3 33.1129 55.1337 123.2781 0.0000 -23.9298 0.0000
# 4 0.0000 0.0000 0.0000 9.5506 0.0000 -2.3467
# 5 -19.8620 -9.1683 -23.9298 0.0000 38.6231 0.0000
# 6 0.0000 0.0000 0.0000 -2.3467 0.0000 11.7926
#
#
#
# Elastic Compliance Matrix: (Units=1/GPa)
#
#
# Indices 1 2 3 4 5 6 
#
# 1 0.021448 -0.000625 -0.003830 0.000000 0.008508 0.000000
# 2 -0.000625 0.009923 -0.004405 0.000000 -0.000695 0.000000
# 3 -0.003830 -0.004405 0.011964 0.000000 0.004398 0.000000
# 4 0.000000 0.000000 0.000000 0.110089 0.000000 0.021908
# 5 0.008508 -0.000695 0.004398 0.000000 0.032826 0.000000
# 6 0.000000 0.000000 0.000000 0.021908 0.000000 0.089159
#
#
# Mechanical properties :
#
#
# Convention : Reuss Voigt Hill
#
# Bulk Modulus (GPa) = 39.03928 57.85161 48.44544
# Shear Modulus (GPa) = 16.57454 25.62580 21.10017
#
# Velocity S-wave (km/s) = 2.85863 3.55448 3.22538
# Velocity P-wave (km/s) = 5.49030 6.73562 6.14459
#
# Compressibility (1/GPa) = 0.02561523
#
# Stress axis : x y z
#
# Youngs Moduli (GPa) = 46.62492 100.77368 83.58345
#
# Poissons Ratio (x) = 0.06300 0.32011
# Poissons Ratio (y) = 0.02915 0.36818
# Poissons Ratio (z) = 0.17856 0.44391
#
# Static dielectric constant tensor:
#      x y z
#    x 1.743660 0.000000 -0.033570 
#    y 0.000000 1.742660 0.000000 
#    z -0.033570 0.000000 1.762400 
# 
# From -- ./inp_files/40422.got.cif
#   From: 2010.05.17/outbox.cif.g08.bks.cpg/sg5_21_cif.got.tgz:40422.got - 2010.06.03 18:56:24.
