data_PCOD9120159
_publ_section_title
;
Structure prediction by ZEFSAII (Michael W. Deem and Ramdas Pophale) SiO2 
 PCOD9120159
Probable space group: C 2
;
_chemical_formula_sum "Si O2"
_cell_formula_units_Z 32
_cell_length_a 19.178278
_cell_length_b 9.277962
_cell_length_c 8.200093
_cell_angle_alpha 90.000000
_cell_angle_beta 118.223763
_cell_angle_gamma 90.000000
_cell_volume 1285.611713
_symmetry_space_group_name_H-M "C 2"
_symmetry_group_IT_number 5
_symmetry_cell_setting 'monoclinic'
loop_
_space_group_symop_operation_xyz
x,y,z
-x,y,-z
1/2+x,1/2+y,z
1/2-x,1/2+y,-z
loop_
_atom_site_type_symbol
_atom_site_label
_atom_site_fract_x
_atom_site_fract_y
_atom_site_fract_z
Si Si1 0.317373 0.017720 0.867013
Si Si2 0.148715 0.113288 0.608548
Si Si3 0.025648 0.924166 0.287182
Si Si4 0.454700 0.858765 0.100728
Si Si5 0.781034 0.217156 0.662772
Si Si6 0.879818 0.665064 0.630944
Si Si7 0.392782 0.542992 0.952886
Si Si8 0.925450 0.394769 0.500296
O O1 0.225503 0.059034 0.795217
O O2 0.356444 0.137656 0.792881
O O3 0.313438 0.869845 0.758517
O O4 0.383018 0.966482 0.071496
O O5 0.184714 0.163324 0.472475
O O6 0.115209 0.264731 0.641073
O O7 0.075656 0.006888 0.483442
O O8 0.040794 0.753542 0.310292
O O9 0.071407 0.971517 0.170439
O O10 0.933554 0.961763 0.150325
O O11 0.524752 0.819703 0.300674
O O12 0.500000 0.934502 0.000000
O O13 0.425494 0.704120 0.010272
O O14 0.690258 0.253209 0.529728
O O15 0.802015 0.086247 0.811444
O O16 0.874481 0.515013 0.528980
O O17 0.000000 0.471562 0.500000
#
# Coordination Sequence:
#
# PCOD9120159 Si02
#       8
#     4   4   4   4   4   4   4   4
#     4  10  19  31  62  92 119 151 200 267 318 354
#     4  10  18  35  55  87 115 158 209 247 301 376
#     4  10  17  29  52  85 121 150 192 253 303 357
#     4  11  17  36  63  93 119 157 206 264 309 361
#     4   9  17  31  56  90 122 149 192 263 323 353
#     4  11  21  33  54  92 126 151 197 264 314 359
#     4   9  17  29  54  87 121 152 188 250 316 369
#     4  12  25  41  62  85 128 178 210 241 307 392
#
# _framework density 24.890872000000002
#
# number of rings (size 3 to 8) (size 9 to 14) (size 15 to 20)
#    0.000    1.750    6.250    0.750    0.000    2.000 
#    0.000    0.625    5.500    0.000    0.000    0.000 
#    0.000    0.000    0.000    0.000    0.000    0.000 
#
# Total GULP energy -89122.744078 kJ/mol
# GULP energy per Si atom -5570.171505 kJ/mol
# Density = 2.483422 g / cm^3
# Si number density = 24.890872 Si / 1000 Ang^3
#
#
#
# Elastic Constant Matrix: (Units=GPa)
#
#
# Indices 1 2 3 4 5 6 
#
# 1 35.8173 2.2050 19.2701 0.0000 10.7451 0.0000
# 2 2.2050 76.6480 28.0681 0.0000 13.0296 0.0000
# 3 19.2701 28.0681 86.4609 0.0000 25.7375 0.0000
# 4 0.0000 0.0000 0.0000 35.1693 0.0000 11.3347
# 5 10.7451 13.0296 25.7375 0.0000 32.8967 0.0000
# 6 0.0000 0.0000 0.0000 11.3347 0.0000 11.2277
#
#
#
# Elastic Compliance Matrix: (Units=1/GPa)
#
#
# Indices 1 2 3 4 5 6 
#
# 1 0.033160 0.002476 -0.006099 0.000000 -0.007040 0.000000
# 2 0.002476 0.015184 -0.004498 0.000000 -0.003304 0.000000
# 3 -0.006099 -0.004498 0.017288 0.000000 -0.009753 0.000000
# 4 0.000000 0.000000 0.000000 0.042147 0.000000 -0.042549
# 5 -0.007040 -0.003304 -0.009753 0.000000 0.041637 0.000000
# 6 0.000000 0.000000 0.000000 -0.042549 0.000000 0.132020
#
#
# Mechanical properties :
#
#
# Convention : Reuss Voigt Hill
#
# Bulk Modulus (GPa) = 20.24598 33.11250 26.67924
# Shear Modulus (GPa) = 15.91643 25.81761 20.86702
#
# Velocity S-wave (km/s) = 2.53148 3.22410 2.89855
# Velocity P-wave (km/s) = 4.08608 5.21457 4.68443
#
# Compressibility (1/GPa) = 0.04939253
#
# Stress axis : x y z
#
# Youngs Moduli (GPa) = 30.15656 65.85846 57.84238
#
# Poissons Ratio (x) = -0.16308 0.35276
# Poissons Ratio (y) = -0.07467 0.26015
# Poissons Ratio (z) = 0.18392 0.29620
#
# Static dielectric constant tensor:
#      x y z
#    x 2.062340 0.000000 -0.001110 
#    y 0.000000 1.929270 0.000000 
#    z -0.001110 0.000000 2.163460 
# 
# From -- ./inp_files/46146.got.cif
#   From: 2010.05.17/outbox.cif.g08.bks.cpg/sg5_24_cif.got.tgz:46146.got - 2010.06.03 18:56:24.
