data_PCOD9120796
_publ_section_title
;
Structure prediction by ZEFSAII (Michael W. Deem and Ramdas Pophale) SiO2 
 PCOD9120796
Probable space group: C 2
;
_chemical_formula_sum "Si O2"
_cell_formula_units_Z 24
_cell_length_a 13.497032
_cell_length_b 11.554648
_cell_length_c 12.407792
_cell_angle_alpha 90.000000
_cell_angle_beta 149.189564
_cell_angle_gamma 90.000000
_cell_volume 991.125136
_symmetry_space_group_name_H-M "C 2"
_symmetry_group_IT_number 5
_symmetry_cell_setting 'monoclinic'
loop_
_space_group_symop_operation_xyz
x,y,z
-x,y,-z
1/2+x,1/2+y,z
1/2-x,1/2+y,-z
loop_
_atom_site_type_symbol
_atom_site_label
_atom_site_fract_x
_atom_site_fract_y
_atom_site_fract_z
Si Si1 0.434279 0.085010 0.131120
Si Si2 0.841966 0.519877 0.442346
Si Si3 0.422876 0.377623 0.571104
Si Si4 0.254565 0.761455 0.401842
Si Si5 0.507021 0.608930 0.768324
Si Si6 0.194640 0.383674 0.153501
O O1 0.570010 0.181899 0.201391
O O2 0.555154 0.031289 0.343843
O O3 0.375615 0.985919 0.990675
O O4 0.233200 0.133935 0.992112
O O5 0.788377 0.383128 0.373942
O O6 0.646446 0.596898 0.275649
O O7 0.000000 0.553576 0.500000
O O8 0.292098 0.296318 0.518396
O O9 0.493611 0.477462 0.715009
O O10 0.296608 0.430061 0.357193
O O11 0.620481 0.317059 0.719422
O O12 0.439886 0.682866 0.600168
O O13 0.000000 0.316982 0.000000
#
# Coordination Sequence:
#
# PCOD9120796 Si02
#       6
#     4   4   4   4   4   4
#     4  10  22  40  65  89 125 168 209 253 315 376
#     4  10  22  42  65  88 130 168 205 261 321 371
#     4   9  20  36  60  87 125 158 200 252 316 361
#     4  10  20  39  62  91 122 164 207 263 307 374
#     4   9  20  40  64  86 128 164 206 257 313 369
#     4  10  18  35  60  85 115 158 199 247 303 362
#
# _framework density 24.214904000000001
#
# number of rings (size 3 to 8) (size 9 to 14) (size 15 to 20)
#    0.000    2.333    0.000    3.000    0.000    6.000 
#   24.000    0.000   14.667    0.000    0.000    0.000 
#    0.000    0.000    0.000    0.000    0.000    0.000 
#
# Total GULP energy -66852.182669 kJ/mol
# GULP energy per Si atom -5571.015222 kJ/mol
# Density = 2.415979 g / cm^3
# Si number density = 24.214904 Si / 1000 Ang^3
#
#
#
# Elastic Constant Matrix: (Units=GPa)
#
#
# Indices 1 2 3 4 5 6 
#
# 1 65.3008 -9.2567 39.3924 0.0002 2.4346 0.0000
# 2 -9.2567 76.9904 22.3307 0.0002 -9.1729 0.0001
# 3 39.3924 22.3307 132.3351 0.0003 26.0725 0.0002
# 4 0.0002 0.0002 0.0003 3.7796 0.0002 -24.7375
# 5 2.4346 -9.1729 26.0725 0.0002 43.3164 0.0001
# 6 0.0000 0.0001 0.0002 -24.7375 0.0001 -3.6456
#
#
#
# Elastic Compliance Matrix: (Units=1/GPa)
#
#
# Indices 1 2 3 4 5 6 
#
# 1 0.020747 0.005398 -0.008035 0.000000 0.004813 0.000000
# 2 0.005398 0.016025 -0.005582 0.000000 0.006450 0.000000
# 3 -0.008035 -0.005582 0.012519 0.000000 -0.008266 0.000000
# 4 0.000000 0.000000 0.000000 0.005826 0.000000 -0.039534
# 5 0.004813 0.006450 -0.008266 0.000000 0.029156 0.000000
# 6 0.000000 0.000000 0.000000 -0.039534 0.000000 -0.006040
#
#
# Mechanical properties :
#
#
# Convention : Reuss Voigt Hill
#
# Bulk Modulus (GPa) = 30.43801 42.17323 36.30562
# Shear Modulus (GPa) = 47.33921 23.50075 35.41998
#
# Velocity S-wave (km/s) = 4.42629 3.11868 3.82872
# Velocity P-wave (km/s) = 6.22254 5.51564 5.87972
#
# Compressibility (1/GPa) = 0.03285366
#
# Stress axis : x y z
#
# Youngs Moduli (GPa) = 48.20070 62.40193 79.88030
#
# Poissons Ratio (x) = -0.33687 0.64184
# Poissons Ratio (y) = -0.26021 0.44588
# Poissons Ratio (z) = 0.38729 0.34832
#
# Static dielectric constant tensor:
#      x y z
#    x 2.104390 0.000000 0.089180 
#    y 0.000000 1.937710 0.000000 
#    z 0.089180 0.000000 1.942840 
# 
# From -- ./inp_files/54412.got.cif
#   From: 2010.05.17/outbox.cif.g08.bks.cpg/sg5_28_cif.got.tgz:54412.got - 2010.06.03 18:56:24.
