data_PCOD9120067
_publ_section_title
;
Structure prediction by ZEFSAII (Michael W. Deem and Ramdas Pophale) SiO2 
 PCOD9120067
Probable space group: C 2
;
_chemical_formula_sum "Si O2"
_cell_formula_units_Z 30
_cell_length_a 17.975131
_cell_length_b 12.749510
_cell_length_c 13.487303
_cell_angle_alpha 90.000000
_cell_angle_beta 27.806089
_cell_angle_gamma 90.000000
_cell_volume 1441.864008
_symmetry_space_group_name_H-M "C 2"
_symmetry_group_IT_number 5
_symmetry_cell_setting 'monoclinic'
loop_
_space_group_symop_operation_xyz
x,y,z
-x,y,-z
1/2+x,1/2+y,z
1/2-x,1/2+y,-z
loop_
_atom_site_type_symbol
_atom_site_label
_atom_site_fract_x
_atom_site_fract_y
_atom_site_fract_z
Si Si1 0.180357 0.277030 0.795179
Si Si2 0.500000 0.258486 0.500000
Si Si3 0.414814 0.095218 0.776196
Si Si4 0.498655 0.858520 0.351075
Si Si5 0.777369 0.845301 0.163474
Si Si6 0.888976 0.074112 0.988508
Si Si7 0.337517 0.706199 0.397996
Si Si8 0.986244 0.654850 0.121654
O O1 0.335475 0.321182 0.670529
O O2 0.228346 0.255990 0.625295
O O3 0.153399 0.165466 0.883054
O O4 0.000000 0.324524 0.000000
O O5 0.474804 0.182846 0.626237
O O6 0.443064 0.111353 0.858973
O O7 0.499821 0.984322 0.655247
O O8 0.230004 0.083862 0.964357
O O9 0.673677 0.830278 0.185536
O O10 0.357344 0.833532 0.594331
O O11 0.457973 0.791452 0.302428
O O12 0.913327 0.760543 0.011452
O O13 0.854671 0.960541 0.073373
O O14 0.065906 0.101722 0.745053
O O15 0.196513 0.678776 0.637951
O O16 0.000000 0.595567 0.000000
#
# Coordination Sequence:
#
# PCOD9120067 Si02
#       8
#     4   2   4   4   4   4   4   4
#     4   9  18  32  55  88 115 148 195 247 315 355
#     4  10  16  34  60  86 116 148 204 260 302 354
#     4  10  20  37  62  88 118 158 204 254 312 361
#     4  10  20  38  63  88 118 159 205 260 304 359
#     4  10  21  38  61  91 119 152 211 262 303 354
#     4   9  20  38  64  90 111 152 206 266 308 352
#     4  11  21  36  55  89 125 161 194 247 313 368
#     4  12  24  37  53  90 131 164 196 240 308 381
#
# _framework density 20.806401000000001
#
# number of rings (size 3 to 8) (size 9 to 14) (size 15 to 20)
#    0.000    1.867    2.667    3.200    0.000    2.667 
#    0.000    2.000    0.000    0.000    0.000    0.000 
#    0.000    0.000    0.000    0.000    0.000    0.000 
#
# Total GULP energy -83638.269284 kJ/mol
# GULP energy per Si atom -5575.884619 kJ/mol
# Density = 2.075905 g / cm^3
# Si number density = 20.806401 Si / 1000 Ang^3
#
#
#
# Elastic Constant Matrix: (Units=GPa)
#
#
# Indices 1 2 3 4 5 6 
#
# 1 140.6888 11.1708 23.9786 0.0000 4.5386 0.0001
# 2 11.1708 17.0692 -3.9330 0.0000 -9.3001 0.0001
# 3 23.9786 -3.9330 86.3844 0.0000 -8.2968 0.0001
# 4 0.0000 0.0000 0.0000 33.5153 0.0000 38.7698
# 5 4.5386 -9.3001 -8.2968 0.0000 42.5256 -0.0001
# 6 0.0001 0.0001 0.0001 38.7698 -0.0001 195.4962
#
#
#
# Elastic Compliance Matrix: (Units=1/GPa)
#
#
# Indices 1 2 3 4 5 6 
#
# 1 0.008346 -0.007892 -0.002983 0.000000 -0.003199 0.000000
# 2 -0.007892 0.075743 0.007451 0.000000 0.018860 0.000000
# 3 -0.002983 0.007451 0.013178 0.000000 0.004519 0.000000
# 4 0.000000 0.000000 0.000000 0.038720 0.000000 -0.007679
# 5 -0.003199 0.018860 0.004519 0.000000 0.028863 0.000000
# 6 0.000000 0.000000 0.000000 -0.007679 0.000000 0.006638
#
#
# Mechanical properties :
#
#
# Convention : Reuss Voigt Hill
#
# Bulk Modulus (GPa) = 11.05990 34.06391 22.56191
# Shear Modulus (GPa) = 23.98360 68.50249 46.24304
#
# Velocity S-wave (km/s) = 3.39883 5.74415 4.71950
# Velocity P-wave (km/s) = 4.55301 7.77181 6.36910
#
# Compressibility (1/GPa) = 0.09041670
#
# Stress axis : x y z
#
# Youngs Moduli (GPa) = 119.81494 13.20257 75.88690
#
# Poissons Ratio (x) = 0.10420 0.22639
# Poissons Ratio (y) = 0.94562 -0.56541
# Poissons Ratio (z) = 0.35744 -0.09837
#
# Static dielectric constant tensor:
#      x y z
#    x 1.833720 0.000000 0.005660 
#    y 0.000000 1.712510 0.000000 
#    z 0.005660 0.000000 1.768290 
# 
# From -- ./inp_files/44896.got.cif
#   From: 2010.05.17/outbox.cif.g08.bks.cpg/sg5_23_cif.got.tgz:44896.got - 2010.06.03 18:56:24.
