data_PCOD9120443
_publ_section_title
;
Structure prediction by ZEFSAII (Michael W. Deem and Ramdas Pophale) SiO2 
 PCOD9120443
Probable space group: C 2
;
_chemical_formula_sum "Si O2"
_cell_formula_units_Z 26
_cell_length_a 13.083147
_cell_length_b 11.827895
_cell_length_c 9.555021
_cell_angle_alpha 90.000000
_cell_angle_beta 124.908231
_cell_angle_gamma 90.000000
_cell_volume 1212.556767
_symmetry_space_group_name_H-M "C 2"
_symmetry_group_IT_number 5
_symmetry_cell_setting 'monoclinic'
loop_
_space_group_symop_operation_xyz
x,y,z
-x,y,-z
1/2+x,1/2+y,z
1/2-x,1/2+y,-z
loop_
_atom_site_type_symbol
_atom_site_label
_atom_site_fract_x
_atom_site_fract_y
_atom_site_fract_z
Si Si1 0.500000 0.760650 0.000000
Si Si2 0.110377 0.885572 0.904636
Si Si3 0.385187 0.143423 0.523059
Si Si4 0.308666 0.945839 0.811147
Si Si5 0.204329 0.076638 0.152765
Si Si6 0.576208 0.121449 0.892723
Si Si7 0.898951 0.905569 0.545117
O O1 0.589355 0.850376 0.150398
O O2 0.603440 0.671344 0.029592
O O3 0.217167 0.895434 0.865251
O O4 0.082600 0.755962 0.918198
O O5 0.983582 0.940088 0.742318
O O6 0.153245 0.954406 0.072655
O O7 0.500000 0.141511 0.500000
O O8 0.264229 0.091359 0.353146
O O9 0.447503 0.092691 0.711462
O O10 0.357661 0.275286 0.531310
O O11 0.216901 0.971385 0.610722
O O12 0.377106 0.050507 0.938438
O O13 0.319049 0.095572 0.139610
O O14 0.000000 0.903858 0.500000
#
# Coordination Sequence:
#
# PCOD9120443 Si02
#       7
#     2   4   4   4   4   4   4
#     4  12  20  32  48  84 102 136 152 216 258 300
#     4   9  17  32  55  76  95 133 177 205 236 295
#     4   8  13  27  50  72  93 129 174 203 232 294
#     4  10  18  30  53  76 106 128 166 209 251 295
#     4  10  18  30  53  76 106 128 166 209 251 295
#     4   9  17  32  55  76  95 133 177 205 236 295
#     4   8  13  27  50  72  93 129 174 203 232 294
#
# _framework density 21.442294
#
# number of rings (size 3 to 8) (size 9 to 14) (size 15 to 20)
#    0.000    2.769    3.077    1.846    0.000    0.000 
#    0.000    2.308    3.385    4.615    0.000    0.000 
#    0.000    0.000    0.000    0.000    0.000    0.000 
#
# Total GULP energy -72411.307713 kJ/mol
# GULP energy per Si atom -5570.100593 kJ/mol
# Density = 2.139349 g / cm^3
# Si number density = 21.442294 Si / 1000 Ang^3
#
#
#
# Elastic Constant Matrix: (Units=GPa)
#
#
# Indices 1 2 3 4 5 6 
#
# 1 64.2613 5.4012 49.9434 0.0000 8.6152 0.0000
# 2 5.4012 89.5311 73.4236 0.0000 12.0439 0.0000
# 3 49.9434 73.4236 189.3641 0.0000 25.6155 0.0000
# 4 0.0000 0.0000 0.0000 36.0754 0.0000 9.0289
# 5 8.6152 12.0439 25.6155 0.0000 37.1609 0.0000
# 6 0.0000 0.0000 0.0000 9.0289 0.0000 15.0510
#
#
#
# Elastic Compliance Matrix: (Units=1/GPa)
#
#
# Indices 1 2 3 4 5 6 
#
# 1 0.020950 0.004841 -0.007205 0.000000 -0.001459 0.000000
# 2 0.004841 0.017531 -0.007890 0.000000 -0.001366 0.000000
# 3 -0.007205 -0.007890 0.010663 0.000000 -0.003122 0.000000
# 4 0.000000 0.000000 0.000000 0.032617 0.000000 -0.019566
# 5 -0.001459 -0.001366 -0.003122 0.000000 0.029843 0.000000
# 6 0.000000 0.000000 0.000000 -0.019566 0.000000 0.078179
#
#
# Mechanical properties :
#
#
# Convention : Reuss Voigt Hill
#
# Bulk Modulus (GPa) = 34.91991 66.74365 50.83178
# Shear Modulus (GPa) = 22.74435 31.95001 27.34718
#
# Velocity S-wave (km/s) = 3.26041 3.86430 3.57513
# Velocity P-wave (km/s) = 5.52219 7.14878 6.38747
#
# Compressibility (1/GPa) = 0.02863696
#
# Stress axis : x y z
#
# Youngs Moduli (GPa) = 47.73269 57.04128 93.78569
#
# Poissons Ratio (x) = -0.27616 0.67574
# Poissons Ratio (y) = -0.23109 0.73993
# Poissons Ratio (z) = 0.34392 0.45003
#
# Static dielectric constant tensor:
#      x y z
#    x 1.842710 0.000000 -0.005420 
#    y 0.000000 1.768840 0.000000 
#    z -0.005420 0.000000 1.808710 
# 
# From -- ./inp_files/42510.got.cif
#   From: 2010.05.17/outbox.cif.g08.bks.cpg/sg5_22_cif.got.tgz:42510.got - 2010.06.03 18:56:24.
