data_PCOD9120830
_publ_section_title
;
Structure prediction by ZEFSAII (Michael W. Deem and Ramdas Pophale) SiO2 
 PCOD9120830
Probable space group: C 2
;
_chemical_formula_sum "Si O2"
_cell_formula_units_Z 28
_cell_length_a 15.145762
_cell_length_b 11.866658
_cell_length_c 7.160747
_cell_angle_alpha 90.000000
_cell_angle_beta 50.042311
_cell_angle_gamma 90.000000
_cell_volume 986.508333
_symmetry_space_group_name_H-M "C 2"
_symmetry_group_IT_number 5
_symmetry_cell_setting 'monoclinic'
loop_
_space_group_symop_operation_xyz
x,y,z
-x,y,-z
1/2+x,1/2+y,z
1/2-x,1/2+y,-z
loop_
_atom_site_type_symbol
_atom_site_label
_atom_site_fract_x
_atom_site_fract_y
_atom_site_fract_z
Si Si1 0.711122 0.997550 0.672327
Si Si2 0.473643 0.384174 0.808950
Si Si3 0.129636 0.540319 0.367837
Si Si4 0.205953 0.714301 0.831076
Si Si5 0.029615 0.112582 0.744156
Si Si6 0.796490 0.771479 0.603867
Si Si7 0.401502 0.825350 0.765214
O O1 0.706759 0.871809 0.767936
O O2 0.649515 0.995302 0.554749
O O3 0.653006 0.090694 0.881908
O O4 0.840622 0.054901 0.463852
O O5 0.451878 0.510337 0.768456
O O6 0.581002 0.331439 0.555169
O O7 0.500000 0.385534 0.000000
O O8 0.373556 0.294874 0.941360
O O9 0.206716 0.655976 0.279300
O O10 0.172201 0.443232 0.167803
O O11 0.000000 0.584094 0.500000
O O12 0.216616 0.752132 0.600547
O O13 0.327409 0.730194 0.761618
O O14 0.986497 0.239929 0.764088
O O15 0.000000 0.107067 0.000000
O O16 0.500000 0.877295 0.500000
#
# Coordination Sequence:
#
# PCOD9120830 Si02
#       7
#     4   4   4   4   4   4   4
#     4  10  19  38  68  96 128 175 230 268 329 406
#     4   8  17  35  61  90 127 171 214 270 327 394
#     4  10  22  36  60  91 131 179 210 276 329 390
#     4  10  18  35  65  95 131 168 212 279 337 379
#     4  10  21  38  65 100 128 176 226 277 328 400
#     4   9  18  37  60  95 127 172 221 261 331 404
#     4  11  21  38  61  98 131 168 219 281 332 386
#
# _framework density 28.382933999999999
#
# number of rings (size 3 to 8) (size 9 to 14) (size 15 to 20)
#    0.000    2.286    2.857    0.857    0.000    0.000 
#    7.714    0.000    0.000   30.857    0.000    0.000 
#    0.000    0.000    0.000    0.000    0.000    0.000 
#
# Total GULP energy -77983.579395 kJ/mol
# GULP energy per Si atom -5570.255671 kJ/mol
# Density = 2.831833 g / cm^3
# Si number density = 28.382934 Si / 1000 Ang^3
#
#
#
# Elastic Constant Matrix: (Units=GPa)
#
#
# Indices 1 2 3 4 5 6 
#
# 1 107.7055 31.0013 1.8248 0.0000 3.7203 0.0000
# 2 31.0013 203.9644 11.2503 0.0000 9.6636 0.0000
# 3 1.8248 11.2503 19.2166 0.0000 6.9050 0.0000
# 4 0.0000 0.0000 0.0000 -27.6797 0.0000 -17.9858
# 5 3.7203 9.6636 6.9050 0.0000 34.0622 0.0000
# 6 0.0000 0.0000 0.0000 -17.9858 0.0000 37.9166
#
#
#
# Elastic Compliance Matrix: (Units=1/GPa)
#
#
# Indices 1 2 3 4 5 6 
#
# 1 0.009724 -0.001455 0.000175 0.000000 -0.000685 0.000000
# 2 -0.001455 0.005310 -0.002682 0.000000 -0.000804 0.000000
# 3 0.000175 -0.002682 0.057515 0.000000 -0.010918 0.000000
# 4 0.000000 0.000000 0.000000 -0.027616 0.000000 -0.013100
# 5 -0.000685 -0.000804 -0.010918 0.000000 0.031874 0.000000
# 6 0.000000 0.000000 0.000000 -0.013100 0.000000 0.020160
#
#
# Mechanical properties :
#
#
# Convention : Reuss Voigt Hill
#
# Bulk Modulus (GPa) = 15.47410 46.55992 31.01701
# Shear Modulus (GPa) = 39.54664 27.98050 33.76357
#
# Velocity S-wave (km/s) = 3.73678 3.14319 3.45276
# Velocity P-wave (km/s) = 4.90731 5.44175 5.18143
#
# Compressibility (1/GPa) = 0.06462411
#
# Stress axis : x y z
#
# Youngs Moduli (GPa) = 102.83707 188.32383 17.38689
#
# Poissons Ratio (x) = 0.27405 -0.00304
# Poissons Ratio (y) = 0.14965 0.04663
# Poissons Ratio (z) = -0.01795 0.50502
#
# Static dielectric constant tensor:
#      x y z
#    x 2.297740 0.000000 -0.067970 
#    y 0.000000 2.469030 0.000000 
#    z -0.067970 0.000000 2.955860 
# 
# From -- ./inp_files/23789.got.cif
#   From: 2010.05.17/outbox.cif.g08.bks.cpg/sg5_12_cif.got.tgz:23789.got - 2010.06.03 18:56:24.
