data_PCOD9120293
_publ_section_title
;
Structure prediction by ZEFSAII (Michael W. Deem and Ramdas Pophale) SiO2 
 PCOD9120293
Probable space group: C 2
;
_chemical_formula_sum "Si O2"
_cell_formula_units_Z 22
_cell_length_a 8.147541
_cell_length_b 16.389932
_cell_length_c 8.951222
_cell_angle_alpha 90.000000
_cell_angle_beta 91.699278
_cell_angle_gamma 90.000000
_cell_volume 1194.799424
_symmetry_space_group_name_H-M "C 2"
_symmetry_group_IT_number 5
_symmetry_cell_setting 'monoclinic'
loop_
_space_group_symop_operation_xyz
x,y,z
-x,y,-z
1/2+x,1/2+y,z
1/2-x,1/2+y,-z
loop_
_atom_site_type_symbol
_atom_site_label
_atom_site_fract_x
_atom_site_fract_y
_atom_site_fract_z
Si Si1 0.532127 0.052090 0.668876
Si Si2 0.500000 0.895811 0.500000
Si Si3 0.000000 0.132249 0.000000
Si Si4 0.676536 0.528981 0.749301
Si Si5 0.771694 0.190358 0.752579
Si Si6 0.500000 0.631416 0.500000
Si Si7 0.150523 0.850767 0.622934
O O1 0.500000 0.087986 0.500000
O O2 0.368983 0.048368 0.762477
O O3 0.670580 0.106146 0.745204
O O4 0.566862 0.957898 0.630136
O O5 0.332780 0.854423 0.551376
O O6 0.916900 0.073057 0.119579
O O7 0.128247 0.188994 0.091469
O O8 0.620299 0.572856 0.594944
O O9 0.642438 0.433206 0.722390
O O10 0.900583 0.182583 0.619108
O O11 0.656612 0.267839 0.719295
O O12 0.000000 0.850111 0.500000
#
# Coordination Sequence:
#
# PCOD9120293 Si02
#       7
#     4   2   2   4   4   2   4
#     4   9  17  34  63  88 113 148 200 254 282 351
#     4   8  19  36  55 100 118 144 192 254 313 340
#     4  10  26  40  58  80 126 172 194 230 292 384
#     4  10  20  39  60  88 117 157 201 237 298 356
#     4  11  21  37  58  91 120 155 201 244 305 347
#     4  10  17  34  63  84 118 154 196 248 285 356
#     4  11  21  35  65  96 119 148 198 266 300 341
#
# _framework density 18.413132000000001
#
# number of rings (size 3 to 8) (size 9 to 14) (size 15 to 20)
#    0.545    1.455    2.727    1.091    2.545    0.727 
#    0.000    5.455    0.000    0.000    0.000    0.000 
#    0.000    0.000    0.000    0.000    0.000    0.000 
#
# Total GULP energy -61245.362826 kJ/mol
# GULP energy per Si atom -5567.760257 kJ/mol
# Density = 1.837122 g / cm^3
# Si number density = 18.413132 Si / 1000 Ang^3
#
#
#
# Elastic Constant Matrix: (Units=GPa)
#
#
# Indices 1 2 3 4 5 6 
#
# 1 74.2103 36.9917 26.3825 0.0000 11.7785 0.0000
# 2 36.9917 84.8929 20.1491 0.0000 12.2096 0.0000
# 3 26.3825 20.1491 67.7365 0.0000 13.8342 0.0000
# 4 0.0000 0.0000 0.0000 1.5252 0.0000 -2.4390
# 5 11.7785 12.2096 13.8342 0.0000 28.0275 0.0000
# 6 0.0000 0.0000 0.0000 -2.4390 0.0000 17.8799
#
#
#
# Elastic Compliance Matrix: (Units=1/GPa)
#
#
# Indices 1 2 3 4 5 6 
#
# 1 0.018977 -0.006738 -0.004846 0.000000 -0.002648 0.000000
# 2 -0.006738 0.015499 -0.001318 0.000000 -0.003269 0.000000
# 3 -0.004846 -0.001318 0.018360 0.000000 -0.006452 0.000000
# 4 0.000000 0.000000 0.000000 0.838616 0.000000 0.114397
# 5 -0.002648 -0.003269 -0.006452 0.000000 0.041401 0.000000
# 6 0.000000 0.000000 0.000000 0.114397 0.000000 0.071534
#
#
# Mechanical properties :
#
#
# Convention : Reuss Voigt Hill
#
# Bulk Modulus (GPa) = 36.99436 43.76516 40.37976
# Shear Modulus (GPa) = 4.81138 19.04094 11.92616
#
# Velocity S-wave (km/s) = 1.61824 3.21922 2.54775
# Velocity P-wave (km/s) = 4.86071 6.13498 5.53464
#
# Compressibility (1/GPa) = 0.02703115
#
# Stress axis : x y z
#
# Youngs Moduli (GPa) = 52.69503 64.52135 54.46503
#
# Poissons Ratio (x) = 0.43475 0.26395
# Poissons Ratio (y) = 0.35507 0.07179
# Poissons Ratio (z) = 0.25537 0.08505
#
# Static dielectric constant tensor:
#      x y z
#    x 1.666460 0.000000 -0.002060 
#    y 0.000000 1.640340 0.000000 
#    z -0.002060 0.000000 1.663040 
# 
# From -- ./inp_files/14856.got.cif
#   From: 2010.05.17/outbox.cif.g08.bks.cpg/sg5_8_cif.got.tgz:14856.got - 2010.06.03 18:56:24.
