data_PCOD9120423
_publ_section_title
;
Structure prediction by ZEFSAII (Michael W. Deem and Ramdas Pophale) SiO2 
 PCOD9120423
Probable space group: C 2
;
_chemical_formula_sum "Si O2"
_cell_formula_units_Z 30
_cell_length_a 14.579141
_cell_length_b 21.562992
_cell_length_c 15.350750
_cell_angle_alpha 90.000000
_cell_angle_beta 20.019774
_cell_angle_gamma 90.000000
_cell_volume 1652.090464
_symmetry_space_group_name_H-M "C 2"
_symmetry_group_IT_number 5
_symmetry_cell_setting 'monoclinic'
loop_
_space_group_symop_operation_xyz
x,y,z
-x,y,-z
1/2+x,1/2+y,z
1/2-x,1/2+y,-z
loop_
_atom_site_type_symbol
_atom_site_label
_atom_site_fract_x
_atom_site_fract_y
_atom_site_fract_z
Si Si1 0.000000 0.097631 0.000000
Si Si2 0.124838 0.810525 0.478530
Si Si3 0.808915 0.558993 0.443037
Si Si4 0.231992 0.276459 0.984838
Si Si5 0.381505 0.986441 0.688740
Si Si6 0.174502 0.936529 0.511513
Si Si7 0.781636 0.901892 0.019210
Si Si8 0.849510 0.135881 0.943113
O O1 0.052745 0.134662 0.042215
O O2 0.760052 0.048183 0.220945
O O3 0.087367 0.885123 0.519513
O O4 0.000000 0.787473 0.500000
O O5 0.955857 0.783228 0.709987
O O6 0.437545 0.793575 0.209284
O O7 0.697218 0.509678 0.472601
O O8 0.584582 0.605685 0.676660
O O9 0.893232 0.514452 0.448504
O O10 0.082865 0.593845 0.174510
O O11 0.303801 0.327308 0.994944
O O12 0.214817 0.205416 0.027800
O O13 0.500000 0.951514 0.500000
O O14 0.193215 0.941958 0.915107
O O15 0.475354 0.915047 0.265661
O O16 0.976120 0.927009 0.770487
#
# Coordination Sequence:
#
# PCOD9120423 Si02
#       8
#     2   4   4   4   4   4   4   4
#     4  10  20  28  42  72 100 130 150 198 242 298
#     4  10  20  33  52  72  96 128 165 209 241 281
#     4  10  19  32  47  69  96 130 156 199 240 293
#     4  10  21  36  46  70 100 138 171 192 234 294
#     4  10  18  30  46  71 100 121 161 201 252 284
#     4   9  17  33  49  69  93 123 164 204 248 280
#     4   9  19  31  51  64  95 133 163 206 237 283
#     4  11  21  31  46  67 101 134 165 184 236 298
#
# _framework density 18.158812999999999
#
# number of rings (size 3 to 8) (size 9 to 14) (size 15 to 20)
#    0.000    2.133    1.333    3.600    3.733    0.000 
#    0.000    0.000    0.000    0.000    0.000    0.933 
#    0.000    0.000    0.000    0.000    0.000    0.000 
#
# Total GULP energy -83530.487264 kJ/mol
# GULP energy per Si atom -5568.699151 kJ/mol
# Density = 1.811748 g / cm^3
# Si number density = 18.158813 Si / 1000 Ang^3
#
#
#
# Elastic Constant Matrix: (Units=GPa)
#
#
# Indices 1 2 3 4 5 6 
#
# 1 9.9671 6.9195 5.6299 -0.0812 3.0827 -0.0535
# 2 6.9195 114.9408 23.4098 -0.4227 -12.3765 0.3178
# 3 5.6299 23.4098 122.7083 -0.3892 -22.9240 0.2574
# 4 -0.0812 -0.4227 -0.3892 21.0538 0.1048 2.7356
# 5 3.0827 -12.3765 -22.9240 0.1048 22.7963 0.0693
# 6 -0.0535 0.3178 0.2574 2.7356 0.0693 10.8780
#
#
#
# Elastic Compliance Matrix: (Units=1/GPa)
#
#
# Indices 1 2 3 4 5 6 
#
# 1 0.121361 -0.008659 -0.009682 0.000106 -0.030854 0.001248
# 2 -0.008659 0.009964 -0.000336 0.000183 0.006243 -0.000411
# 3 -0.009682 -0.000336 0.010921 0.000151 0.012110 -0.000411
# 4 0.000106 0.000183 0.000151 0.049110 0.000049 -0.012359
# 5 -0.030854 0.006243 0.012110 0.000049 0.063610 -0.001038
# 6 0.001248 -0.000411 -0.000411 -0.012359 -0.001038 0.095071
#
#
# Mechanical properties :
#
#
# Convention : Reuss Voigt Hill
#
# Bulk Modulus (GPa) = 9.53368 35.50385 22.51877
# Shear Modulus (GPa) = 11.83838 25.05609 18.44723
#
# Velocity S-wave (km/s) = 2.55607 3.71864 3.19075
# Velocity P-wave (km/s) = 3.73804 6.16701 5.09926
#
# Compressibility (1/GPa) = 0.10489125
#
# Stress axis : x y z
#
# Youngs Moduli (GPa) = 8.23990 100.36249 91.56313
#
# Poissons Ratio (x) = 0.86907 0.88655
# Poissons Ratio (y) = 0.07135 0.03075
# Poissons Ratio (z) = 0.07978 0.03370
#
# Static dielectric constant tensor:
#      x y z
#    x 1.659400 0.000010 -0.016690 
#    y 0.000010 1.663440 -0.000030 
#    z -0.016690 -0.000030 1.640730 
# 
# From -- ./inp_files/7497.got.cif
#   From: 2010.05.17/outbox.cif.g08.bks.cpg/sg5_4_cif.got.tgz:7497.got - 2010.06.03 18:56:24.
