data_PCOD9120146
_publ_section_title
;
Structure prediction by ZEFSAII (Michael W. Deem and Ramdas Pophale) SiO2 
 PCOD9120146
Probable space group: C 2
;
_chemical_formula_sum "Si O2"
_cell_formula_units_Z 30
_cell_length_a 21.267821
_cell_length_b 5.183987
_cell_length_c 12.273647
_cell_angle_alpha 90.000000
_cell_angle_beta 70.028772
_cell_angle_gamma 90.000000
_cell_volume 1271.820031
_symmetry_space_group_name_H-M "C 2"
_symmetry_group_IT_number 5
_symmetry_cell_setting 'monoclinic'
loop_
_space_group_symop_operation_xyz
x,y,z
-x,y,-z
1/2+x,1/2+y,z
1/2-x,1/2+y,-z
loop_
_atom_site_type_symbol
_atom_site_label
_atom_site_fract_x
_atom_site_fract_y
_atom_site_fract_z
Si Si1 0.611026 0.995900 0.991196
Si Si2 0.294158 0.537094 0.717505
Si Si3 0.353771 0.493839 0.906014
Si Si4 0.866282 0.536526 0.585926
Si Si5 0.712891 0.014189 0.567149
Si Si6 0.538173 0.975242 0.817021
Si Si7 0.000000 0.259753 0.500000
Si Si8 0.994846 0.976889 0.281008
O O1 0.645120 0.735453 0.013313
O O2 0.648264 0.237146 0.021638
O O3 0.535770 0.990558 0.085836
O O4 0.594143 0.024183 0.874355
O O5 0.298351 0.505429 0.844313
O O6 0.320047 0.823733 0.673707
O O7 0.226321 0.495962 0.688056
O O8 0.344716 0.319613 0.637990
O O9 0.426381 0.492100 0.799775
O O10 0.854503 0.499832 0.463115
O O11 0.940105 0.446998 0.570142
O O12 0.756238 0.783884 0.490031
O O13 0.533401 0.197795 0.730133
O O14 0.543530 0.686760 0.769853
O O15 0.015759 0.073386 0.591058
#
# Coordination Sequence:
#
# PCOD9120146 Si02
#       8
#     4   4   4   4   4   4   2   4
#     4   9  17  28  48  66  89 118 157 198 249 300
#     4  10  18  32  49  69  98 126 165 209 253 291
#     4  10  17  28  46  71  92 118 156 202 248 291
#     4  10  21  32  47  66  97 137 173 204 236 285
#     4   8  16  31  48  65  87 128 168 204 248 288
#     4   9  18  33  44  62  89 127 162 195 240 293
#     4  12  24  34  48  72 104 142 180 202 228 288
#     4  10  21  30  44  62  95 131 168 194 229 279
#
# _framework density 23.588242999999999
#
# number of rings (size 3 to 8) (size 9 to 14) (size 15 to 20)
#    0.000    2.400    1.333    1.600    3.733    5.333 
#    0.000    0.000    0.000    0.000    0.000    0.000 
#    0.000    4.267    0.000    0.267    0.000    0.133 
#
# Total GULP energy -83849.852091 kJ/mol
# GULP energy per Si atom -5589.990139 kJ/mol
# Density = 2.353456 g / cm^3
# Si number density = 23.588243 Si / 1000 Ang^3
#
#
#
# Elastic Constant Matrix: (Units=GPa)
#
#
# Indices 1 2 3 4 5 6 
#
# 1 31.6004 27.7394 64.0386 0.0000 9.9185 0.0000
# 2 27.7394 106.0992 1.0907 0.0000 5.8162 0.0000
# 3 64.0386 1.0907 67.5546 0.0000 48.4993 0.0000
# 4 0.0000 0.0000 0.0000 29.4577 0.0000 11.3053
# 5 9.9185 5.8162 48.4993 0.0000 51.7341 0.0000
# 6 0.0000 0.0000 0.0000 11.3053 0.0000 13.2681
#
#
#
# Elastic Compliance Matrix: (Units=1/GPa)
#
#
# Indices 1 2 3 4 5 6 
#
# 1 -0.008378 0.002999 0.021355 0.000000 -0.018751 0.000000
# 2 0.002999 0.008488 -0.005755 0.000000 0.003866 0.000000
# 3 0.021355 -0.005755 -0.008787 0.000000 0.004790 0.000000
# 4 0.000000 0.000000 0.000000 0.050442 0.000000 -0.042980
# 5 -0.018751 0.003866 0.004790 0.000000 0.017999 0.000000
# 6 0.000000 0.000000 0.000000 -0.042980 0.000000 0.111990
#
#
# Mechanical properties :
#
#
# Convention : Reuss Voigt Hill
#
# Bulk Modulus (GPa) = 35.06275 43.44350 39.25313
# Shear Modulus (GPa) = 34.70644 26.38435 30.54540
#
# Velocity S-wave (km/s) = 3.83997 3.34808 3.60243
# Velocity P-wave (km/s) = 5.87855 5.77959 5.82928
#
# Compressibility (1/GPa) = 0.02852029
#
# Stress axis : x y z
#
# Youngs Moduli (GPa) = -119.36325 117.80860 -113.81003
#
# Poissons Ratio (x) = -0.35327 2.43040
# Poissons Ratio (y) = 0.35794 -0.65503
# Poissons Ratio (z) = 2.54899 0.67804
#
# Static dielectric constant tensor:
#      x y z
#    x 1.925400 0.000000 -0.011550 
#    y 0.000000 1.808620 0.000000 
#    z -0.011550 0.000000 1.909270 
# 
# From -- ./inp_files/47715.got.cif
#   From: 2010.05.17/outbox.cif.g08.bks.cpg/sg5_24_cif.got.tgz:47715.got - 2010.06.03 18:56:24.
