data_PCOD9120062
_publ_section_title
;
Structure prediction by ZEFSAII (Michael W. Deem and Ramdas Pophale) SiO2 
 PCOD9120062
Probable space group: C 2
;
_chemical_formula_sum "Si O2"
_cell_formula_units_Z 30
_cell_length_a 12.531171
_cell_length_b 8.970111
_cell_length_c 22.888094
_cell_angle_alpha 90.000000
_cell_angle_beta 150.515199
_cell_angle_gamma 90.000000
_cell_volume 1266.293087
_symmetry_space_group_name_H-M "C 2"
_symmetry_group_IT_number 5
_symmetry_cell_setting 'monoclinic'
loop_
_space_group_symop_operation_xyz
x,y,z
-x,y,-z
1/2+x,1/2+y,z
1/2-x,1/2+y,-z
loop_
_atom_site_type_symbol
_atom_site_label
_atom_site_fract_x
_atom_site_fract_y
_atom_site_fract_z
Si Si1 0.690161 0.400260 0.288444
Si Si2 0.000000 0.992623 0.500000
Si Si3 0.922915 0.157431 0.160447
Si Si4 0.516867 0.246202 0.325919
Si Si5 0.099435 0.674134 0.910358
Si Si6 0.275392 0.524205 0.198228
Si Si7 0.567795 0.707266 0.421577
Si Si8 0.006017 0.465102 0.249396
O O1 0.656485 0.577119 0.272504
O O2 0.647601 0.322068 0.331949
O O3 0.503515 0.330998 0.157593
O O4 0.912970 0.342960 0.366827
O O5 0.042331 0.093788 0.463376
O O6 0.236899 0.925434 0.626072
O O7 0.789870 0.038109 0.135937
O O8 0.895553 0.308787 0.183986
O O9 0.828343 0.182098 0.051187
O O10 0.313764 0.354666 0.236155
O O11 0.681937 0.252755 0.458751
O O12 0.464012 0.076111 0.283628
O O13 0.936652 0.599385 0.878564
O O14 0.070452 0.569460 0.840460
O O15 0.473795 0.619398 0.321612
#
# Coordination Sequence:
#
# PCOD9120062 Si02
#       8
#     4   2   4   4   4   4   4   4
#     4   9  17  34  56  80 105 151 194 223 282 345
#     4  10  16  36  60  78 114 148 186 232 290 350
#     4  11  22  34  54  90 116 143 192 248 282 337
#     4   9  18  34  58  80 113 145 189 232 287 347
#     4  10  19  39  60  74 113 157 197 229 281 342
#     4  10  21  35  54  84 110 152 195 225 297 342
#     4  10  16  34  60  77 111 155 185 232 290 346
#     4  10  20  37  60  85 112 154 191 237 291 337
#
# _framework density 23.691199000000001
#
# number of rings (size 3 to 8) (size 9 to 14) (size 15 to 20)
#    0.000    2.133    5.333    1.200    0.000    2.133 
#    4.800    2.667    0.000    4.800    0.000    0.000 
#    0.000    0.000    0.000    0.000    0.000    0.000 
#
# Total GULP energy -83711.963521 kJ/mol
# GULP energy per Si atom -5580.797568 kJ/mol
# Density = 2.363728 g / cm^3
# Si number density = 23.691199 Si / 1000 Ang^3
#
#
#
# Elastic Constant Matrix: (Units=GPa)
#
#
# Indices 1 2 3 4 5 6 
#
# 1 27.9565 2.0368 5.8304 0.0000 -8.8571 0.0000
# 2 2.0368 98.3196 31.4614 0.0000 4.5116 0.0000
# 3 5.8304 31.4614 96.2863 0.0000 -22.0610 0.0000
# 4 0.0000 0.0000 0.0000 3.1519 0.0000 4.6518
# 5 -8.8571 4.5116 -22.0610 0.0000 23.3491 0.0000
# 6 0.0000 0.0000 0.0000 4.6518 0.0000 27.1861
#
#
#
# Elastic Compliance Matrix: (Units=1/GPa)
#
#
# Indices 1 2 3 4 5 6 
#
# 1 0.041310 -0.002539 0.002592 -0.000001 0.018610 0.000000
# 2 -0.002539 0.012574 -0.006039 0.000000 -0.009099 0.000000
# 3 0.002592 -0.006039 0.016202 0.000000 0.017459 0.000000
# 4 -0.000001 0.000000 0.000000 0.424455 -0.000001 -0.072628
# 5 0.018610 -0.009099 0.017459 -0.000001 0.068141 0.000000
# 6 0.000000 0.000000 0.000000 -0.072628 0.000000 0.049211
#
#
# Mechanical properties :
#
#
# Convention : Reuss Voigt Hill
#
# Bulk Modulus (GPa) = 17.20781 33.46886 25.33833
# Shear Modulus (GPa) = 7.77318 22.95300 15.36309
#
# Velocity S-wave (km/s) = 1.81333 3.11600 2.54928
# Velocity P-wave (km/s) = 3.41517 5.20612 4.40267
#
# Compressibility (1/GPa) = 0.05811314
#
# Stress axis : x y z
#
# Youngs Moduli (GPa) = 24.20705 79.53172 61.71997
#
# Poissons Ratio (x) = 0.20195 -0.15999
# Poissons Ratio (y) = 0.06147 0.37275
# Poissons Ratio (z) = -0.06275 0.48032
#
# Static dielectric constant tensor:
#      x y z
#    x 1.932990 0.000000 0.007510 
#    y 0.000000 1.940700 0.000000 
#    z 0.007510 0.000000 1.964330 
# 
# From -- ./inp_files/57630.got.cif
#   From: 2010.05.17/outbox.cif.g08.bks.cpg/sg5_29_cif.got.tgz:57630.got - 2010.06.03 18:56:24.
