data_PCOD9120711
_publ_section_title
;
Structure prediction by ZEFSAII (Michael W. Deem and Ramdas Pophale) SiO2 
 PCOD9120711
Probable space group: C 2
;
_chemical_formula_sum "Si O2"
_cell_formula_units_Z 26
_cell_length_a 10.740543
_cell_length_b 16.002437
_cell_length_c 8.773099
_cell_angle_alpha 90.000000
_cell_angle_beta 114.702834
_cell_angle_gamma 90.000000
_cell_volume 1369.885770
_symmetry_space_group_name_H-M "C 2"
_symmetry_group_IT_number 5
_symmetry_cell_setting 'monoclinic'
loop_
_space_group_symop_operation_xyz
x,y,z
-x,y,-z
1/2+x,1/2+y,z
1/2-x,1/2+y,-z
loop_
_atom_site_type_symbol
_atom_site_label
_atom_site_fract_x
_atom_site_fract_y
_atom_site_fract_z
Si Si1 0.222128 0.456000 0.381707
Si Si2 0.837709 0.124735 0.394539
Si Si3 0.293923 0.798566 0.205136
Si Si4 0.237322 0.819163 0.833644
Si Si5 0.924291 0.854533 0.686293
Si Si6 0.351549 0.191397 0.445271
Si Si7 0.000000 0.414911 0.500000
O O1 0.267160 0.537684 0.312721
O O2 0.190296 0.379628 0.250916
O O3 0.349889 0.428353 0.555423
O O4 0.094998 0.465432 0.431513
O O5 0.807916 0.202809 0.268137
O O6 0.762899 0.144091 0.517443
O O7 0.000000 0.117007 0.500000
O O8 0.149397 0.835558 0.191971
O O9 0.403853 0.853588 0.352461
O O10 0.306563 0.808624 0.031626
O O11 0.209540 0.729444 0.740865
O O12 0.086521 0.860200 0.778629
O O13 0.889203 0.773077 0.566025
O O14 0.500000 0.148834 0.500000
#
# Coordination Sequence:
#
# PCOD9120711 Si02
#       7
#     4   4   4   4   4   4   2
#     4  10  21  36  61  85 115 156 199 249 297 351
#     4  11  21  36  58  87 121 154 194 253 300 348
#     4  10  20  35  60  85 118 158 200 242 291 358
#     4  10  18  34  60  87 113 152 201 245 288 362
#     4   8  16  34  57  83 108 150 196 235 290 360
#     4   8  17  33  56  81 111 155 197 230 289 361
#     4  10  22  42  56  82 116 170 206 228 298 370
#
# _framework density 18.979685
#
# number of rings (size 3 to 8) (size 9 to 14) (size 15 to 20)
#    0.000    2.462    0.769    3.692    1.077    0.615 
#    0.000    3.077   10.154    0.000    0.000    0.000 
#    0.000    0.000    0.000    0.000    0.000    0.000 
#
# Total GULP energy -72485.108092 kJ/mol
# GULP energy per Si atom -5575.777546 kJ/mol
# Density = 1.893649 g / cm^3
# Si number density = 18.979685 Si / 1000 Ang^3
#
#
#
# Elastic Constant Matrix: (Units=GPa)
#
#
# Indices 1 2 3 4 5 6 
#
# 1 117.8997 23.1945 21.6350 0.0000 -4.5867 0.0000
# 2 23.1945 66.2438 10.1263 0.0000 -1.9544 0.0000
# 3 21.6350 10.1263 85.4434 0.0000 -19.3142 0.0000
# 4 0.0000 0.0000 0.0000 11.8145 0.0000 -6.6644
# 5 -4.5867 -1.9544 -19.3142 0.0000 19.9502 0.0000
# 6 0.0000 0.0000 0.0000 -6.6644 0.0000 26.4376
#
#
#
# Elastic Compliance Matrix: (Units=1/GPa)
#
#
# Indices 1 2 3 4 5 6 
#
# 1 0.009445 -0.002995 -0.002064 0.000000 -0.000120 0.000000
# 2 -0.002995 0.016326 -0.001242 0.000000 -0.000292 0.000000
# 3 -0.002064 -0.001242 0.015667 0.000000 0.014572 0.000000
# 4 0.000000 0.000000 0.000000 0.098672 0.000000 0.024873
# 5 -0.000120 -0.000292 0.014572 0.000000 0.064176 0.000000
# 6 0.000000 0.000000 0.000000 0.024873 0.000000 0.044095
#
#
# Mechanical properties :
#
#
# Convention : Reuss Voigt Hill
#
# Bulk Modulus (GPa) = 34.67940 42.16648 38.42294
# Shear Modulus (GPa) = 18.47773 25.94920 22.21346
#
# Velocity S-wave (km/s) = 3.12357 3.70159 3.42479
# Velocity P-wave (km/s) = 5.59646 6.36662 5.99393
#
# Compressibility (1/GPa) = 0.02883556
#
# Stress axis : x y z
#
# Youngs Moduli (GPa) = 105.87553 61.25284 63.82699
#
# Poissons Ratio (x) = 0.18346 0.13172
# Poissons Ratio (y) = 0.31711 0.07930
# Poissons Ratio (z) = 0.21849 0.07611
#
# Static dielectric constant tensor:
#      x y z
#    x 1.716360 0.000000 -0.017770 
#    y 0.000000 1.678240 0.000000 
#    z -0.017770 0.000000 1.636950 
# 
# From -- ./inp_files/20464.got.cif
#   From: 2010.05.17/outbox.cif.g08.bks.cpg/sg5_11_cif.got.tgz:20464.got - 2010.06.03 18:56:24.
