data_PCOD9120363
_publ_section_title
;
Structure prediction by ZEFSAII (Michael W. Deem and Ramdas Pophale) SiO2 
 PCOD9120363
Probable space group: C 2
;
_chemical_formula_sum "Si O2"
_cell_formula_units_Z 22
_cell_length_a 17.887246
_cell_length_b 9.197208
_cell_length_c 5.648522
_cell_angle_alpha 90.000000
_cell_angle_beta 73.101100
_cell_angle_gamma 90.000000
_cell_volume 889.127778
_symmetry_space_group_name_H-M "C 2"
_symmetry_group_IT_number 5
_symmetry_cell_setting 'monoclinic'
loop_
_space_group_symop_operation_xyz
x,y,z
-x,y,-z
1/2+x,1/2+y,z
1/2-x,1/2+y,-z
loop_
_atom_site_type_symbol
_atom_site_label
_atom_site_fract_x
_atom_site_fract_y
_atom_site_fract_z
Si Si1 0.269698 0.250000 0.799290
Si Si2 0.000000 0.343594 0.500000
Si Si3 0.500000 0.677900 0.000000
Si Si4 0.355114 0.965877 0.922023
Si Si5 0.106385 0.932985 0.068371
Si Si6 0.500000 0.276249 0.500000
Si Si7 0.636514 0.177799 0.682175
O O1 0.328754 0.388298 0.794154
O O2 0.279257 0.197452 0.519626
O O3 0.298128 0.099799 0.896030
O O4 0.191725 0.320091 0.971691
O O5 0.981000 0.256858 0.270462
O O6 0.922878 0.426465 0.673815
O O7 0.577985 0.584325 0.991431
O O8 0.384092 0.038794 0.140388
O O9 0.028166 0.874562 0.261564
O O10 0.129243 0.821819 0.843686
O O11 0.571796 0.188310 0.537947
#
# Coordination Sequence:
#
# PCOD9120363 Si02
#       7
#     4   2   2   4   4   2   4
#     4  10  26  48  80 109 166 213 284 336 420 498
#     4  12  33  53  82 120 174 220 276 358 426 486
#     4  12  26  50  80 120 174 214 280 346 418 498
#     4  11  28  54  76 119 162 223 277 349 418 503
#     4  10  21  40  73 116 154 217 264 336 405 505
#     4  10  17  37  70 118 158 204 274 332 402 494
#     4  10  22  41  76 115 155 215 277 335 409 503
#
# _framework density 24.743347
#
# number of rings (size 3 to 8) (size 9 to 14) (size 15 to 20)
#    0.000    1.455    1.818    0.545    7.636   10.909 
#    0.000    0.000    0.000    0.000    0.000    0.000 
#    0.000    0.000    0.000    0.000    0.000    0.000 
#
# Total GULP energy -61281.121470 kJ/mol
# GULP energy per Si atom -5571.011043 kJ/mol
# Density = 2.468703 g / cm^3
# Si number density = 24.743347 Si / 1000 Ang^3
#
#
#
# Elastic Constant Matrix: (Units=GPa)
#
#
# Indices 1 2 3 4 5 6 
#
# 1 41.8152 66.9076 52.1825 0.0000 -24.3423 0.0000
# 2 66.9076 155.5417 94.7509 0.0000 -16.3594 0.0000
# 3 52.1825 94.7509 198.4940 0.0000 -15.7178 0.0000
# 4 0.0000 0.0000 0.0000 73.7905 0.0000 7.9598
# 5 -24.3423 -16.3594 -15.7178 0.0000 43.1159 0.0000
# 6 0.0000 0.0000 0.0000 7.9598 0.0000 47.4190
#
#
#
# Elastic Compliance Matrix: (Units=1/GPa)
#
#
# Indices 1 2 3 4 5 6 
#
# 1 0.191617 -0.066659 -0.012348 0.000000 0.078389 0.000000
# 2 -0.066659 0.032411 0.000048 0.000000 -0.025319 0.000000
# 3 -0.012348 0.000048 0.007940 0.000000 -0.004059 0.000000
# 4 0.000000 0.000000 0.000000 0.013802 0.000000 -0.002317
# 5 0.078389 -0.025319 -0.004059 0.000000 0.056364 0.000000
# 6 0.000000 0.000000 0.000000 -0.002317 0.000000 0.021477
#
#
# Mechanical properties :
#
#
# Convention : Reuss Voigt Hill
#
# Bulk Modulus (GPa) = 13.50436 91.50363 52.50400
# Shear Modulus (GPa) = 9.87727 44.99907 27.43817
#
# Velocity S-wave (km/s) = 2.00014 4.26917 3.33364
# Velocity P-wave (km/s) = 3.28690 7.83342 6.00692
#
# Compressibility (1/GPa) = 0.07405016
#
# Stress axis : x y z
#
# Youngs Moduli (GPa) = 5.21873 30.85376 125.94803
#
# Poissons Ratio (x) = 2.05669 1.55517
# Poissons Ratio (y) = 0.34788 -0.00604
# Poissons Ratio (z) = 0.06444 -0.00148
#
# Static dielectric constant tensor:
#      x y z
#    x 1.992490 0.000000 -0.060240 
#    y 0.000000 1.999410 0.000000 
#    z -0.060240 0.000000 2.036800 
# 
# From -- ./inp_files/9251.got.cif
#   From: 2010.05.17/outbox.cif.g08.bks.cpg/sg5_5_cif.got.tgz:9251.got - 2010.06.03 18:56:24.
