data_PCOD9120522
_publ_section_title
;
Structure prediction by ZEFSAII (Michael W. Deem and Ramdas Pophale) SiO2 
 PCOD9120522
Probable space group: C 2
;
_chemical_formula_sum "Si O2"
_cell_formula_units_Z 30
_cell_length_a 17.221492
_cell_length_b 8.505306
_cell_length_c 11.663554
_cell_angle_alpha 90.000000
_cell_angle_beta 61.297580
_cell_angle_gamma 90.000000
_cell_volume 1498.488957
_symmetry_space_group_name_H-M "C 2"
_symmetry_group_IT_number 5
_symmetry_cell_setting 'monoclinic'
loop_
_space_group_symop_operation_xyz
x,y,z
-x,y,-z
1/2+x,1/2+y,z
1/2-x,1/2+y,-z
loop_
_atom_site_type_symbol
_atom_site_label
_atom_site_fract_x
_atom_site_fract_y
_atom_site_fract_z
Si Si1 0.370685 0.209630 0.460629
Si Si2 0.500000 0.475393 0.000000
Si Si3 0.313189 0.366009 0.732257
Si Si4 0.973988 0.209128 0.334019
Si Si5 0.750739 0.443602 0.596607
Si Si6 0.134864 0.204224 0.797555
Si Si7 0.859321 0.223797 0.646955
Si Si8 0.030087 0.854379 0.225419
O O1 0.366135 0.271910 0.594320
O O2 0.300473 0.322838 0.446661
O O3 0.464393 0.232995 0.333845
O O4 0.333637 0.033363 0.481848
O O5 0.582128 0.594649 0.923364
O O6 0.485527 0.369687 0.898470
O O7 0.211217 0.311908 0.797342
O O8 0.322522 0.551522 0.701137
O O9 0.368792 0.331538 0.807643
O O10 0.935270 0.277314 0.243074
O O11 0.906060 0.213315 0.488509
O O12 0.066035 0.277437 0.316365
O O13 0.998428 0.025732 0.294709
O O14 0.686375 0.582529 0.678759
O O15 0.783157 0.350658 0.685016
#
# Coordination Sequence:
#
# PCOD9120522 Si02
#       8
#     4   2   4   4   4   4   4   4
#     4  11  19  34  57  90 127 151 199 251 313 361
#     4  10  20  40  62  82 118 164 220 230 292 370
#     4  10  19  34  62  86 120 147 204 246 313 357
#     4   9  17  32  54  80 120 153 190 219 306 361
#     4  11  21  32  57  92 121 157 199 246 303 355
#     4  10  20  37  60  86 110 162 205 251 289 357
#     4  10  18  32  53  88 120 154 180 234 303 375
#     4  10  19  36  59  87 114 171 192 248 294 365
#
# _framework density 20.020168999999999
#
# number of rings (size 3 to 8) (size 9 to 14) (size 15 to 20)
#    0.000    1.867    4.000    2.800    0.000    0.000 
#    9.600    4.000    0.000    0.800    3.467    0.000 
#    0.000    0.000    0.000    0.000    0.000    0.000 
#
# Total GULP energy -83705.953170 kJ/mol
# GULP energy per Si atom -5580.396878 kJ/mol
# Density = 1.997460 g / cm^3
# Si number density = 20.020169 Si / 1000 Ang^3
#
#
#
# Elastic Constant Matrix: (Units=GPa)
#
#
# Indices 1 2 3 4 5 6 
#
# 1 139.9104 31.1030 16.0425 0.0000 12.1470 0.0000
# 2 31.1030 46.9870 -5.5351 0.0000 2.5921 0.0000
# 3 16.0425 -5.5351 34.8977 0.0000 1.6835 0.0000
# 4 0.0000 0.0000 0.0000 14.1745 0.0000 1.5499
# 5 12.1470 2.5921 1.6835 0.0000 18.6165 0.0000
# 6 0.0000 0.0000 0.0000 1.5499 0.0000 17.0858
#
#
#
# Elastic Compliance Matrix: (Units=1/GPa)
#
#
# Indices 1 2 3 4 5 6 
#
# 1 0.009682 -0.006762 -0.005287 0.000000 -0.004898 0.000000
# 2 -0.006762 0.026619 0.007328 0.000000 0.000043 0.000000
# 3 -0.005287 0.007328 0.032272 0.000000 -0.000489 0.000000
# 4 0.000000 0.000000 0.000000 0.071256 0.000000 -0.006464
# 5 -0.004898 0.000043 -0.000489 0.000000 0.056950 0.000000
# 6 0.000000 0.000000 0.000000 -0.006464 0.000000 0.059114
#
#
# Mechanical properties :
#
#
# Convention : Reuss Voigt Hill
#
# Bulk Modulus (GPa) = 16.91127 33.89066 25.40096
# Shear Modulus (GPa) = 17.54110 21.98766 19.76438
#
# Velocity S-wave (km/s) = 2.96323 3.31762 3.14542
# Velocity P-wave (km/s) = 4.49145 5.62499 5.08987
#
# Compressibility (1/GPa) = 0.05913217
#
# Stress axis : x y z
#
# Youngs Moduli (GPa) = 103.28404 37.56676 30.98706
#
# Poissons Ratio (x) = 0.25401 0.16383
# Poissons Ratio (y) = 0.69837 -0.22708
# Poissons Ratio (z) = 0.54606 -0.27530
#
# Static dielectric constant tensor:
#      x y z
#    x 1.776430 0.000000 -0.010950 
#    y 0.000000 1.698010 0.000000 
#    z -0.010950 0.000000 1.701480 
# 
# From -- ./inp_files/44302.got.cif
#   From: 2010.05.17/outbox.cif.g08.bks.cpg/sg5_23_cif.got.tgz:44302.got - 2010.06.03 18:56:24.
