data_PCOD9120080
_publ_section_title
;
Structure prediction by ZEFSAII (Michael W. Deem and Ramdas Pophale) SiO2 
 PCOD9120080
Probable space group: C 2
;
_chemical_formula_sum "Si O2"
_cell_formula_units_Z 20
_cell_length_a 12.199310
_cell_length_b 8.113096
_cell_length_c 23.617299
_cell_angle_alpha 90.000000
_cell_angle_beta 159.251425
_cell_angle_gamma 90.000000
_cell_volume 828.101872
_symmetry_space_group_name_H-M "C 2"
_symmetry_group_IT_number 5
_symmetry_cell_setting 'monoclinic'
loop_
_space_group_symop_operation_xyz
x,y,z
-x,y,-z
1/2+x,1/2+y,z
1/2-x,1/2+y,-z
loop_
_atom_site_type_symbol
_atom_site_label
_atom_site_fract_x
_atom_site_fract_y
_atom_site_fract_z
Si Si1 0.874376 0.945950 0.176657
Si Si2 0.909718 0.773476 0.311099
Si Si3 0.307797 0.641286 0.965932
Si Si4 0.858636 0.312605 0.156566
Si Si5 0.693100 0.489675 0.541564
O O1 0.973339 0.891912 0.287400
O O2 0.984022 0.125629 0.210675
O O3 0.500000 0.954653 0.000000
O O4 0.928495 0.792136 0.159888
O O5 0.568175 0.697433 0.135606
O O6 0.151020 0.625105 0.422021
O O7 0.977748 0.870120 0.401157
O O8 0.500000 0.626571 0.000000
O O9 0.157347 0.461044 0.898209
O O10 0.039029 0.388785 0.297124
O O11 0.500000 0.288643 0.000000
O O12 0.500000 0.566610 0.500000
#
# Coordination Sequence:
#
# PCOD9120080 Si02
#       5
#     4   4   4   4   4
#     4   8  15  29  62  91 115 170 224 251 326 397
#     4  10  20  40  60  95 142 171 210 288 339 380
#     4   8  14  32  61  86 117 179 212 258 332 387
#     4  10  16  34  65  88 124 180 210 266 336 384
#     4  12  24  39  68 100 135 174 228 275 335 406
#
# _framework density 24.151617000000002
#
# number of rings (size 3 to 8) (size 9 to 14) (size 15 to 20)
#    0.000    2.800    6.000    1.200    0.000    0.000 
#    0.000    4.000   17.600    0.000    0.000    0.000 
#    0.000    0.000    0.000    0.000    0.000    0.000 
#
# Total GULP energy -55808.453804 kJ/mol
# GULP energy per Si atom -5580.845380 kJ/mol
# Density = 2.409665 g / cm^3
# Si number density = 24.151617 Si / 1000 Ang^3
#
#
#
# Elastic Constant Matrix: (Units=GPa)
#
#
# Indices 1 2 3 4 5 6 
#
# 1 52.3837 21.6610 21.2466 0.0053 -17.3768 0.0013
# 2 21.6610 204.5285 35.9192 0.0031 -4.5653 -0.0015
# 3 21.2466 35.9192 123.5208 0.0355 -20.1288 0.0001
# 4 0.0053 0.0031 0.0355 25.2798 -0.0028 -6.0710
# 5 -17.3768 -4.5653 -20.1288 -0.0028 23.2825 0.0023
# 6 0.0013 -0.0015 0.0001 -6.0710 0.0023 23.6609
#
#
#
# Elastic Compliance Matrix: (Units=1/GPa)
#
#
# Indices 1 2 3 4 5 6 
#
# 1 0.026549 -0.002241 -0.000882 -0.000003 0.018613 -0.000004
# 2 -0.002241 0.005344 -0.001479 0.000002 -0.001903 0.000001
# 3 -0.000882 -0.001479 0.009921 -0.000014 0.007629 -0.000004
# 4 -0.000003 0.000002 -0.000014 0.042155 -0.000010 0.010816
# 5 0.018613 -0.001903 0.007629 -0.000010 0.063064 -0.000010
# 6 -0.000004 0.000001 -0.000004 0.010816 -0.000010 0.045039
#
#
# Mechanical properties :
#
#
# Convention : Reuss Voigt Hill
#
# Bulk Modulus (GPa) = 30.66577 59.78743 45.22660
# Shear Modulus (GPa) = 23.56884 34.55172 29.06028
#
# Velocity S-wave (km/s) = 3.12728 3.78645 3.47254
# Velocity P-wave (km/s) = 5.07588 6.62760 5.90295
#
# Compressibility (1/GPa) = 0.03260965
#
# Stress axis : x y z
#
# Youngs Moduli (GPa) = 37.66689 187.13076 100.80009
#
# Poissons Ratio (x) = 0.41943 0.08888
# Poissons Ratio (y) = 0.08443 0.14904
# Poissons Ratio (z) = 0.03321 0.27669
#
# Static dielectric constant tensor:
#      x y z
#    x 1.966170 0.000000 0.018490 
#    y 0.000000 2.023640 0.000000 
#    z 0.018490 0.000000 1.906460 
# 
# From -- ./inp_files/70577.got.cif
#   From: 2010.05.17/outbox.cif.g08.bks.cpg/sg5_36_cif.got.tgz:70577.got - 2010.06.03 18:56:24.
