data_PCOD9120129
_publ_section_title
;
Structure prediction by ZEFSAII (Michael W. Deem and Ramdas Pophale) SiO2 
 PCOD9120129
Probable space group: C 2
;
_chemical_formula_sum "Si O2"
_cell_formula_units_Z 32
_cell_length_a 8.620706
_cell_length_b 19.151002
_cell_length_c 17.071190
_cell_angle_alpha 90.000000
_cell_angle_beta 150.144054
_cell_angle_gamma 90.000000
_cell_volume 1403.044305
_symmetry_space_group_name_H-M "C 2"
_symmetry_group_IT_number 5
_symmetry_cell_setting 'monoclinic'
loop_
_space_group_symop_operation_xyz
x,y,z
-x,y,-z
1/2+x,1/2+y,z
1/2-x,1/2+y,-z
loop_
_atom_site_type_symbol
_atom_site_label
_atom_site_fract_x
_atom_site_fract_y
_atom_site_fract_z
Si Si1 0.336704 0.226860 0.104917
Si Si2 0.215104 0.837113 0.479608
Si Si3 0.564580 0.687500 0.832121
Si Si4 0.015942 0.343831 0.247562
Si Si5 0.249909 0.887882 0.982242
Si Si6 0.049543 0.936236 0.749323
Si Si7 0.378811 0.185322 0.611881
Si Si8 0.158278 0.082879 0.391263
O O1 0.354793 0.309537 0.090386
O O2 0.572092 0.196730 0.273485
O O3 0.000000 0.222110 0.000000
O O4 0.307831 0.185142 0.010439
O O5 0.449135 0.865031 0.647521
O O6 0.272791 0.756305 0.487514
O O7 0.866892 0.842657 0.365322
O O8 0.186997 0.880068 0.388415
O O9 0.591860 0.763737 0.805564
O O10 0.546053 0.630666 0.756417
O O11 0.225119 0.684713 0.725453
O O12 0.792210 0.387566 0.093804
O O13 0.047279 0.941705 0.842521
O O14 0.610001 0.904336 0.117930
O O15 0.991285 0.006772 0.677002
O O16 0.207562 0.119514 0.497171
O O17 0.500000 0.077482 0.500000
#
# Coordination Sequence:
#
# PCOD9120129 Si02
#       8
#     4   4   4   4   4   4   4   4
#     4   9  12  22  42  65  85  96 132 188 227 240
#     4   9  13  22  39  64  86 107 132 176 222 253
#     4   8  14  22  37  58  84 108 130 170 218 254
#     4   8  13  21  40  63  88  99 128 182 225 247
#     4   9  15  26  42  68  86 107 137 179 218 256
#     4  10  17  26  41  62  93 115 141 169 218 265
#     4   9  14  23  40  62  86 107 137 180 218 250
#     4  10  19  29  38  60  94 124 141 163 212 271
#
# _framework density 22.807545999999999
#
# number of rings (size 3 to 8) (size 9 to 14) (size 15 to 20)
#    0.000    3.000    3.750    1.500    0.000    0.000 
#    0.000    1.250    0.000    0.000    0.000    7.000 
#    3.750    0.000    0.000    0.000    0.000    0.000 
#
# Total GULP energy -89229.885620 kJ/mol
# GULP energy per Si atom -5576.867851 kJ/mol
# Density = 2.275563 g / cm^3
# Si number density = 22.807546 Si / 1000 Ang^3
#
#
#
# Elastic Constant Matrix: (Units=GPa)
#
#
# Indices 1 2 3 4 5 6 
#
# 1 37.3018 -3.1183 62.8309 0.0122 31.1105 0.0112
# 2 -3.1183 71.0637 62.7871 0.0232 -5.4466 0.0130
# 3 62.8309 62.7871 170.8040 0.0187 -64.7687 0.0154
# 4 0.0122 0.0232 0.0187 12.1678 0.0026 -24.0199
# 5 31.1105 -5.4466 -64.7687 0.0026 40.1794 0.0070
# 6 0.0112 0.0130 0.0154 -24.0199 0.0070 0.9305
#
#
#
# Elastic Compliance Matrix: (Units=1/GPa)
#
#
# Indices 1 2 3 4 5 6 
#
# 1 -0.002035 -0.007001 0.009157 0.000006 0.015388 0.000004
# 2 -0.007001 0.013803 0.000684 0.000008 0.008395 0.000015
# 3 0.009157 0.000684 -0.001078 0.000002 -0.008735 0.000004
# 4 0.000006 0.000008 0.000002 -0.001645 0.000007 -0.042465
# 5 0.015388 0.008395 -0.008735 0.000007 0.000031 0.000012
# 6 0.000004 0.000015 0.000004 -0.042465 0.000012 -0.021512
#
#
# Mechanical properties :
#
#
# Convention : Reuss Voigt Hill
#
# Bulk Modulus (GPa) = 61.07709 58.24099 59.65904
# Shear Modulus (GPa) = -394.96531 21.10019 -186.93256
#
# Velocity S-wave (km/s) = -13.17380 3.04491 -9.06304
# Velocity P-wave (km/s) = 14.30249 6.16062 9.12710
#
# Compressibility (1/GPa) = 0.01637275
#
# Stress axis : x y z
#
# Youngs Moduli (GPa) = -491.36027 72.44606 -927.97901
#
# Poissons Ratio (x) = 0.50716 8.49768
# Poissons Ratio (y) = -3.43981 0.63517
# Poissons Ratio (z) = 4.49948 -0.04959
#
# Static dielectric constant tensor:
#      x y z
#    x 2.574040 0.000010 0.066850 
#    y 0.000010 1.785040 -0.000010 
#    z 0.066850 -0.000010 1.897910 
# 
# From -- ./inp_files/68910.got.cif
#   From: 2010.05.17/outbox.cif.g08.bks.cpg/sg5_35_cif.got.tgz:68910.got - 2010.06.03 18:56:24.
