data_PCOD9120049
_publ_section_title
;
Structure prediction by ZEFSAII (Michael W. Deem and Ramdas Pophale) SiO2 
 PCOD9120049
Probable space group: C 2
;
_chemical_formula_sum "Si O2"
_cell_formula_units_Z 28
_cell_length_a 8.150304
_cell_length_b 17.299818
_cell_length_c 11.371614
_cell_angle_alpha 90.000000
_cell_angle_beta 56.971384
_cell_angle_gamma 90.000000
_cell_volume 1344.274365
_symmetry_space_group_name_H-M "C 2"
_symmetry_group_IT_number 5
_symmetry_cell_setting 'monoclinic'
loop_
_space_group_symop_operation_xyz
x,y,z
-x,y,-z
1/2+x,1/2+y,z
1/2-x,1/2+y,-z
loop_
_atom_site_type_symbol
_atom_site_label
_atom_site_fract_x
_atom_site_fract_y
_atom_site_fract_z
Si Si1 0.382707 0.409390 0.418887
Si Si2 0.475208 0.859002 0.306195
Si Si3 0.882532 0.767665 0.665252
Si Si4 0.299150 0.713341 0.812288
Si Si5 0.503428 0.000632 0.134861
Si Si6 0.439133 0.561591 0.657848
Si Si7 0.632130 0.168487 0.110802
O O1 0.500000 0.414957 0.500000
O O2 0.159002 0.392156 0.536596
O O3 0.485130 0.334331 0.324280
O O4 0.425380 0.492226 0.346197
O O5 0.316937 0.810195 0.291794
O O6 0.634501 0.794082 0.268221
O O7 0.554606 0.930310 0.199859
O O8 0.844452 0.697742 0.766816
O O9 0.000000 0.745617 0.500000
O O10 0.441539 0.642659 0.723443
O O11 0.088398 0.690179 0.842679
O O12 0.272182 0.711713 0.963600
O O13 0.282067 0.027861 0.252865
O O14 0.640564 0.075972 0.093074
O O15 0.500000 0.976547 0.000000
O O16 0.500000 0.577786 0.500000
#
# Coordination Sequence:
#
# PCOD9120049 Si02
#       7
#     4   4   4   4   4   4   4
#     4   8  15  32  52  84 111 140 193 241 281 338
#     4  10  20  34  59  90 113 147 211 244 287 350
#     4   9  19  36  59  84 116 154 195 247 292 347
#     4  10  22  35  56  91 121 153 195 249 298 351
#     4  11  19  34  59  87 115 158 203 238 280 364
#     4  10  16  33  57  81 115 154 195 237 284 342
#     4  10  21  39  56  83 128 156 195 240 305 355
#
# _framework density 20.829079
#
# number of rings (size 3 to 8) (size 9 to 14) (size 15 to 20)
#    0.000    2.571    7.143    0.000    2.000    4.571 
#    0.000    0.000    3.143    0.857    0.000    0.000 
#    0.000    0.000    0.000    0.000    0.000    0.000 
#
# Total GULP energy -78076.607310 kJ/mol
# GULP energy per Si atom -5576.900522 kJ/mol
# Density = 2.078167 g / cm^3
# Si number density = 20.829079 Si / 1000 Ang^3
#
#
#
# Elastic Constant Matrix: (Units=GPa)
#
#
# Indices 1 2 3 4 5 6 
#
# 1 29.3766 11.6689 6.5533 0.0000 1.7891 0.0000
# 2 11.6689 84.9998 4.0952 0.0000 -11.2089 0.0000
# 3 6.5533 4.0952 65.5563 0.0000 -11.6800 0.0000
# 4 0.0000 0.0000 0.0000 35.6993 0.0000 0.9841
# 5 1.7891 -11.2089 -11.6800 0.0000 12.0150 0.0000
# 6 0.0000 0.0000 0.0000 0.9841 0.0000 19.0090
#
#
#
# Elastic Compliance Matrix: (Units=1/GPa)
#
#
# Indices 1 2 3 4 5 6 
#
# 1 0.039943 -0.007794 -0.007089 0.000000 -0.020110 0.000000
# 2 -0.007794 0.015091 0.003086 0.000000 0.018239 0.000000
# 3 -0.007089 0.003086 0.019921 0.000000 0.023300 0.000000
# 4 0.000000 0.000000 0.000000 0.028052 0.000000 -0.001452
# 5 -0.020110 0.018239 0.023300 0.000000 0.125889 0.000000
# 6 0.000000 0.000000 0.000000 -0.001452 0.000000 0.052682
#
#
# Mechanical properties :
#
#
# Convention : Reuss Voigt Hill
#
# Bulk Modulus (GPa) = 19.46969 24.95192 22.21080
# Shear Modulus (GPa) = 15.51390 23.85236 19.68313
#
# Velocity S-wave (km/s) = 2.73210 3.38767 3.07739
# Velocity P-wave (km/s) = 4.39547 5.22562 4.82842
#
# Compressibility (1/GPa) = 0.05136190
#
# Stress axis : x y z
#
# Youngs Moduli (GPa) = 25.03598 66.26386 50.19763
#
# Poissons Ratio (x) = 0.51644 0.35584
# Poissons Ratio (y) = 0.19512 -0.15491
# Poissons Ratio (z) = 0.17748 -0.20449
#
# Static dielectric constant tensor:
#      x y z
#    x 1.797970 0.000000 0.002130 
#    y 0.000000 1.784330 0.000000 
#    z 0.002130 0.000000 1.763950 
# 
# From -- ./inp_files/53040.got.cif
#   From: 2010.05.17/outbox.cif.g08.bks.cpg/sg5_27_cif.got.tgz:53040.got - 2010.06.03 18:56:24.
