data_PCOD9120883
_publ_section_title
;
Structure prediction by ZEFSAII (Michael W. Deem and Ramdas Pophale) SiO2 
 PCOD9120883
Probable space group: C 2
;
_chemical_formula_sum "Si O2"
_cell_formula_units_Z 30
_cell_length_a 14.934454
_cell_length_b 14.266887
_cell_length_c 11.384973
_cell_angle_alpha 90.000000
_cell_angle_beta 145.180817
_cell_angle_gamma 90.000000
_cell_volume 1385.089728
_symmetry_space_group_name_H-M "C 2"
_symmetry_group_IT_number 5
_symmetry_cell_setting 'monoclinic'
loop_
_space_group_symop_operation_xyz
x,y,z
-x,y,-z
1/2+x,1/2+y,z
1/2-x,1/2+y,-z
loop_
_atom_site_type_symbol
_atom_site_label
_atom_site_fract_x
_atom_site_fract_y
_atom_site_fract_z
Si Si1 0.992651 0.904490 0.132913
Si Si2 0.395099 0.810539 0.531821
Si Si3 0.196031 0.510963 0.927095
Si Si4 0.570450 0.640246 0.699724
Si Si5 0.443237 0.901407 0.815380
Si Si6 0.088487 0.702086 0.212100
Si Si7 0.280929 0.543672 0.499752
Si Si8 0.500000 0.982792 0.500000
O O1 0.004694 0.793620 0.174731
O O2 0.840784 0.948444 0.032956
O O3 0.143330 0.965980 0.334067
O O4 0.000000 0.909439 0.000000
O O5 0.555024 0.752371 0.682550
O O6 0.382670 0.825340 0.657844
O O7 0.249991 0.747597 0.335752
O O8 0.401511 0.908765 0.472159
O O9 0.082087 0.452352 0.890618
O O10 0.101667 0.537099 0.706170
O O11 0.270102 0.595598 0.082493
O O12 0.500000 0.605351 0.500000
O O13 0.434090 0.604327 0.638886
O O14 0.304557 0.976879 0.687661
O O15 0.500000 0.863925 0.000000
O O16 0.143593 0.622329 0.363183
O O17 0.000000 0.665645 0.000000
#
# Coordination Sequence:
#
# PCOD9120883 Si02
#       8
#     4   4   4   4   4   4   4   2
#     4  10  20  39  64  91 129 163 209 262 314 378
#     4  10  20  36  63  91 119 168 207 259 311 377
#     4  10  23  36  64  97 123 168 208 265 322 369
#     4  10  20  39  61  95 124 160 218 267 312 378
#     4  11  22  40  60  90 131 169 206 256 321 379
#     4  10  19  34  60  90 119 156 212 256 308 360
#     4  10  21  36  60  92 121 162 209 256 318 368
#     4  10  18  36  60  92 128 156 210 256 310 372
#
# _framework density 21.659248000000002
#
# number of rings (size 3 to 8) (size 9 to 14) (size 15 to 20)
#    0.000    1.867    2.000    2.800    1.867    1.067 
#    4.800    6.000    0.000    0.000    6.933    0.000 
#    0.000    0.000    0.000    0.000    0.000    0.000 
#
# Total GULP energy -83530.275601 kJ/mol
# GULP energy per Si atom -5568.685040 kJ/mol
# Density = 2.160995 g / cm^3
# Si number density = 21.659248 Si / 1000 Ang^3
#
#
#
# Elastic Constant Matrix: (Units=GPa)
#
#
# Indices 1 2 3 4 5 6 
#
# 1 56.3388 -2.7028 19.0400 0.0000 -1.0758 0.0000
# 2 -2.7028 62.7592 40.2765 0.0000 -3.3107 0.0000
# 3 19.0400 40.2765 152.5601 0.0000 -18.3790 0.0000
# 4 0.0000 0.0000 0.0000 33.7831 0.0000 2.6699
# 5 -1.0758 -3.3107 -18.3790 0.0000 34.3135 0.0000
# 6 0.0000 0.0000 0.0000 2.6699 0.0000 20.8478
#
#
#
# Elastic Compliance Matrix: (Units=1/GPa)
#
#
# Indices 1 2 3 4 5 6 
#
# 1 0.018957 0.002836 -0.003218 0.000000 -0.000856 0.000000
# 2 0.002836 0.019636 -0.005665 0.000000 -0.001051 0.000000
# 3 -0.003218 -0.005665 0.008951 0.000000 0.004147 0.000000
# 4 0.000000 0.000000 0.000000 0.029903 0.000000 -0.003830
# 5 -0.000856 -0.001051 0.004147 0.000000 0.031236 0.000000
# 6 0.000000 0.000000 0.000000 -0.003830 0.000000 0.048457
#
#
# Mechanical properties :
#
#
# Convention : Reuss Voigt Hill
#
# Bulk Modulus (GPa) = 28.20679 42.76504 35.48592
# Shear Modulus (GPa) = 27.61667 32.12520 29.87094
#
# Velocity S-wave (km/s) = 3.57466 3.85542 3.71769
# Velocity P-wave (km/s) = 5.48533 6.29336 5.90319
#
# Compressibility (1/GPa) = 0.03545245
#
# Stress axis : x y z
#
# Youngs Moduli (GPa) = 52.75106 50.92708 111.71383
#
# Poissons Ratio (x) = -0.14445 0.35947
# Poissons Ratio (y) = -0.14962 0.63280
# Poissons Ratio (z) = 0.16974 0.28848
#
# Static dielectric constant tensor:
#      x y z
#    x 1.856360 0.000000 0.043380 
#    y 0.000000 1.851520 0.000000 
#    z 0.043380 0.000000 1.835110 
# 
# From -- ./inp_files/44920.got.cif
#   From: 2010.05.17/outbox.cif.g08.bks.cpg/sg5_23_cif.got.tgz:44920.got - 2010.06.03 18:56:24.
