data_PCOD9120251
_publ_section_title
;
Structure prediction by ZEFSAII (Michael W. Deem and Ramdas Pophale) SiO2 
 PCOD9120251
Probable space group: C 2
;
_chemical_formula_sum "Si O2"
_cell_formula_units_Z 32
_cell_length_a 15.015995
_cell_length_b 17.249646
_cell_length_c 14.039119
_cell_angle_alpha 90.000000
_cell_angle_beta 150.936613
_cell_angle_gamma 90.000000
_cell_volume 1766.489413
_symmetry_space_group_name_H-M "C 2"
_symmetry_group_IT_number 5
_symmetry_cell_setting 'monoclinic'
loop_
_space_group_symop_operation_xyz
x,y,z
-x,y,-z
1/2+x,1/2+y,z
1/2-x,1/2+y,-z
loop_
_atom_site_type_symbol
_atom_site_label
_atom_site_fract_x
_atom_site_fract_y
_atom_site_fract_z
Si Si1 0.431880 0.392050 0.040488
Si Si2 0.637931 0.311667 0.832816
Si Si3 0.845376 0.169318 0.727102
Si Si4 0.312534 0.508318 0.607890
Si Si5 0.395853 0.433528 0.495751
Si Si6 0.454199 0.832994 0.846669
Si Si7 0.563167 0.982850 0.669059
Si Si8 0.726056 0.151148 0.824654
O O1 0.431877 0.329743 0.125964
O O2 0.556526 0.464593 0.193524
O O3 0.500000 0.366505 0.000000
O O4 0.226200 0.423209 0.836753
O O5 0.514344 0.361047 0.645126
O O6 0.639628 0.222500 0.801475
O O7 0.848051 0.342298 0.017261
O O8 0.854376 0.258806 0.705220
O O9 0.724718 0.165399 0.709937
O O10 0.786442 0.098733 0.605792
O O11 0.058292 0.150133 0.948566
O O12 0.391676 0.493977 0.577888
O O13 0.115445 0.467723 0.434811
O O14 0.500000 0.462628 0.500000
O O15 0.189708 0.402879 0.284827
O O16 0.500000 0.811431 0.000000
O O17 0.500000 0.982261 0.500000
O O18 0.639325 0.068271 0.763336
#
# Coordination Sequence:
#
# PCOD9120251 Si02
#       8
#     4   4   4   4   4   4   4   4
#     4  11  21  38  55  79 119 149 184 224 271 332
#     4  10  22  36  55  85 112 149 182 228 279 322
#     4  10  17  33  54  81 114 140 173 227 281 322
#     4  11  23  35  53  87 113 149 182 225 282 323
#     4  11  22  37  57  80 113 151 188 220 272 336
#     4  11  19  35  57  84 114 142 177 232 282 321
#     4  12  21  31  57  85 114 146 177 229 280 326
#     4  10  18  32  53  83 112 139 177 226 281 319
#
# _framework density 18.115026
#
# number of rings (size 3 to 8) (size 9 to 14) (size 15 to 20)
#    0.000    1.250    7.500    0.750    1.750    0.500 
#    0.000    0.000    0.000    3.000    0.000    0.000 
#    0.000    0.000    0.000    0.000    0.000    0.000 
#
# Total GULP energy -89305.690516 kJ/mol
# GULP energy per Si atom -5581.605657 kJ/mol
# Density = 1.807380 g / cm^3
# Si number density = 18.115026 Si / 1000 Ang^3
#
#
#
# Elastic Constant Matrix: (Units=GPa)
#
#
# Indices 1 2 3 4 5 6 
#
# 1 116.7461 17.2396 9.0199 0.0000 -5.3593 0.0000
# 2 17.2396 45.0292 0.2029 0.0000 -8.4732 0.0000
# 3 9.0199 0.2029 48.2782 0.0000 10.4734 0.0000
# 4 0.0000 0.0000 0.0000 15.1055 0.0000 3.2393
# 5 -5.3593 -8.4732 10.4734 0.0000 22.0648 0.0000
# 6 0.0000 0.0000 0.0000 3.2393 0.0000 20.7819
#
#
#
# Elastic Compliance Matrix: (Units=1/GPa)
#
#
# Indices 1 2 3 4 5 6 
#
# 1 0.009295 -0.003158 -0.002174 0.000000 0.002077 0.000000
# 2 -0.003158 0.025249 -0.001620 0.000000 0.009698 0.000000
# 3 -0.002174 -0.001620 0.023830 0.000000 -0.012461 0.000000
# 4 0.000000 0.000000 0.000000 0.068491 0.000000 -0.010676
# 5 0.002077 0.009698 -0.012461 0.000000 0.055465 0.000000
# 6 0.000000 0.000000 0.000000 -0.010676 0.000000 0.049783
#
#
# Mechanical properties :
#
#
# Convention : Reuss Voigt Hill
#
# Bulk Modulus (GPa) = 22.48709 29.21981 25.85345
# Shear Modulus (GPa) = 19.16891 23.82985 21.49938
#
# Velocity S-wave (km/s) = 3.25649 3.63088 3.44877
# Velocity P-wave (km/s) = 5.15559 5.80886 5.49195
#
# Compressibility (1/GPa) = 0.04446996
#
# Stress axis : x y z
#
# Youngs Moduli (GPa) = 107.58185 39.60544 41.96470
#
# Poissons Ratio (x) = 0.12508 0.09123
# Poissons Ratio (y) = 0.33976 0.06798
# Poissons Ratio (z) = 0.23388 0.06416
#
# Static dielectric constant tensor:
#      x y z
#    x 1.624260 0.000000 0.008910 
#    y 0.000000 1.610120 0.000000 
#    z 0.008910 0.000000 1.667430 
# 
# From -- ./inp_files/54904.got.cif
#   From: 2010.05.17/outbox.cif.g08.bks.cpg/sg5_28_cif.got.tgz:54904.got - 2010.06.03 18:56:24.
