data_PCOD9120886
_publ_section_title
;
Structure prediction by ZEFSAII (Michael W. Deem and Ramdas Pophale) SiO2 
 PCOD9120886
Probable space group: C 2
;
_chemical_formula_sum "Si O2"
_cell_formula_units_Z 32
_cell_length_a 21.035128
_cell_length_b 8.330494
_cell_length_c 25.532833
_cell_angle_alpha 90.000000
_cell_angle_beta 21.073757
_cell_angle_gamma 90.000000
_cell_volume 1608.783890
_symmetry_space_group_name_H-M "C 2"
_symmetry_group_IT_number 5
_symmetry_cell_setting 'monoclinic'
loop_
_space_group_symop_operation_xyz
x,y,z
-x,y,-z
1/2+x,1/2+y,z
1/2-x,1/2+y,-z
loop_
_atom_site_type_symbol
_atom_site_label
_atom_site_fract_x
_atom_site_fract_y
_atom_site_fract_z
Si Si1 0.374875 0.528890 0.333033
Si Si2 0.180035 0.549478 0.760446
Si Si3 0.735426 0.714337 0.047175
Si Si4 0.722478 0.366990 0.489760
Si Si5 0.454593 0.567131 0.629405
Si Si6 0.991608 0.499054 0.211612
Si Si7 0.876164 0.692770 0.050714
Si Si8 0.661509 0.850096 0.410811
O O1 0.582067 0.577512 0.170565
O O2 0.332403 0.391931 0.408327
O O3 0.281643 0.690080 0.427374
O O4 0.281643 0.472345 0.351049
O O5 0.350131 0.491136 0.660683
O O6 0.220849 0.738063 0.717683
O O7 0.143572 0.472536 0.732542
O O8 0.003769 0.549421 0.931139
O O9 0.634184 0.859770 0.099372
O O10 0.807704 0.766646 0.048787
O O11 0.900879 0.657841 0.885324
O O12 0.564466 0.438140 0.576725
O O13 0.888972 0.479449 0.344629
O O14 0.299587 0.636264 0.785052
O O15 0.572511 0.716335 0.518005
O O16 0.000000 0.776061 0.000000
O O17 0.500000 0.918589 0.500000
#
# Coordination Sequence:
#
# PCOD9120886 Si02
#       8
#     4   4   4   4   4   4   4   4
#     4  11  24  38  57  84 116 149 194 238 295 343
#     4   9  19  35  60  83 109 151 193 230 280 342
#     4  10  22  37  57  84 112 149 190 237 286 334
#     4  11  22  38  57  85 112 150 189 244 288 344
#     4  10  18  36  61  83 112 148 191 234 283 343
#     4  10  22  36  55  86 112 147 189 233 284 336
#     4   9  18  34  56  83 108 141 190 232 273 337
#     4  10  21  38  59  84 114 153 192 236 288 344
#
# _framework density 19.890802000000001
#
# number of rings (size 3 to 8) (size 9 to 14) (size 15 to 20)
#    0.000    2.000    2.500    0.750    5.250    0.000 
#    4.500    0.000    0.000    0.000    0.000    2.625 
#    0.000    0.000    0.000    0.000    0.000    0.000 
#
# Total GULP energy -89169.226978 kJ/mol
# GULP energy per Si atom -5573.076686 kJ/mol
# Density = 1.984553 g / cm^3
# Si number density = 19.890802 Si / 1000 Ang^3
#
#
#
# Elastic Constant Matrix: (Units=GPa)
#
#
# Indices 1 2 3 4 5 6 
#
# 1 90.5286 16.7359 10.6437 -0.0034 -23.3943 0.0018
# 2 16.7359 31.0413 10.2420 -0.0065 -8.8269 0.0039
# 3 10.6437 10.2420 87.2758 -0.0094 3.0243 0.0037
# 4 -0.0034 -0.0065 -0.0094 25.1541 -0.0002 -4.0145
# 5 -23.3943 -8.8269 3.0243 -0.0002 41.3921 -0.0004
# 6 0.0018 0.0039 0.0037 -4.0145 -0.0004 26.3422
#
#
#
# Elastic Compliance Matrix: (Units=1/GPa)
#
#
# Indices 1 2 3 4 5 6 
#
# 1 0.013926 -0.005111 -0.001337 0.000000 0.006878 0.000000
# 2 -0.005111 0.037850 -0.004008 0.000007 0.005476 -0.000004
# 3 -0.001337 -0.004008 0.012178 0.000003 -0.002500 -0.000001
# 4 0.000000 0.000007 0.000003 0.040746 0.000002 0.006210
# 5 0.006878 0.005476 -0.002500 0.000002 0.029397 0.000000
# 6 0.000000 -0.000004 -0.000001 0.006210 0.000000 0.038908
#
#
# Mechanical properties :
#
#
# Convention : Reuss Voigt Hill
#
# Bulk Modulus (GPa) = 23.23320 31.56543 27.39931
# Shear Modulus (GPa) = 24.00785 29.99262 27.00024
#
# Velocity S-wave (km/s) = 3.47793 3.88734 3.68832
# Velocity P-wave (km/s) = 5.27577 6.00436 5.65182
#
# Compressibility (1/GPa) = 0.04304186
#
# Stress axis : x y z
#
# Youngs Moduli (GPa) = 71.80923 26.41979 82.11543
#
# Poissons Ratio (x) = 0.13503 0.10978
# Poissons Ratio (y) = 0.36702 0.32914
# Poissons Ratio (z) = 0.09600 0.10590
#
# Static dielectric constant tensor:
#      x y z
#    x 1.751870 0.000000 -0.003400 
#    y 0.000000 1.681510 0.000000 
#    z -0.003400 0.000000 1.749450 
# 
# From -- ./inp_files/47197.got.cif
#   From: 2010.05.17/outbox.cif.g08.bks.cpg/sg5_24_cif.got.tgz:47197.got - 2010.06.03 18:56:24.
