data_PCOD9120237
_publ_section_title
;
Structure prediction by ZEFSAII (Michael W. Deem and Ramdas Pophale) SiO2 
 PCOD9120237
Probable space group: C 2
;
_chemical_formula_sum "Si O2"
_cell_formula_units_Z 28
_cell_length_a 14.694918
_cell_length_b 13.653356
_cell_length_c 7.936503
_cell_angle_alpha 90.000000
_cell_angle_beta 58.223063
_cell_angle_gamma 90.000000
_cell_volume 1353.655656
_symmetry_space_group_name_H-M "C 2"
_symmetry_group_IT_number 5
_symmetry_cell_setting 'monoclinic'
loop_
_space_group_symop_operation_xyz
x,y,z
-x,y,-z
1/2+x,1/2+y,z
1/2-x,1/2+y,-z
loop_
_atom_site_type_symbol
_atom_site_label
_atom_site_fract_x
_atom_site_fract_y
_atom_site_fract_z
Si Si1 0.130572 0.658160 0.042249
Si Si2 0.093023 0.468748 0.273074
Si Si3 0.006521 0.262631 0.679414
Si Si4 0.098936 0.711351 0.685290
Si Si5 0.264448 0.045248 0.602288
Si Si6 0.166213 0.199974 0.919283
Si Si7 0.775288 0.353357 0.400555
O O1 0.097342 0.546173 0.117910
O O2 0.239695 0.678359 0.036299
O O3 0.028231 0.719722 0.207940
O O4 0.131848 0.680850 0.843320
O O5 0.067212 0.359652 0.246794
O O6 0.201683 0.478907 0.272367
O O7 0.000000 0.492181 0.500000
O O8 0.000000 0.217248 0.500000
O O9 0.124913 0.305872 0.593197
O O10 0.947847 0.199486 0.877645
O O11 0.143505 0.624333 0.526204
O O12 0.164773 0.806337 0.569859
O O13 0.173608 0.118012 0.762892
O O14 0.263397 0.969123 0.447810
O O15 0.196239 0.305607 0.807631
#
# Coordination Sequence:
#
# PCOD9120237 Si02
#       7
#     4   4   4   4   4   4   4
#     4  10  20  36  57  87 121 148 203 244 312 343
#     4  10  17  32  58  86 115 151 187 259 293 340
#     4  11  20  36  60  92 123 154 202 245 305 352
#     4  10  21  35  60  88 113 158 198 254 290 362
#     4  10  20  38  57  90 120 156 200 249 303 348
#     4  10  24  36  60  92 124 158 191 259 304 359
#     4  11  21  36  61  86 120 158 204 242 301 355
#
# _framework density 20.684729000000001
#
# number of rings (size 3 to 8) (size 9 to 14) (size 15 to 20)
#    0.000    1.714    4.286    1.286    2.000    0.000 
#    0.000    0.000   12.571    0.000   11.143    0.000 
#    0.000    0.000    0.000    0.000    0.000    0.000 
#
# Total GULP energy -77996.912286 kJ/mol
# GULP energy per Si atom -5571.208020 kJ/mol
# Density = 2.063765 g / cm^3
# Si number density = 20.684729 Si / 1000 Ang^3
#
#
#
# Elastic Constant Matrix: (Units=GPa)
#
#
# Indices 1 2 3 4 5 6 
#
# 1 55.7164 6.0329 11.7390 0.0000 -7.2269 0.0000
# 2 6.0329 52.9796 10.1056 0.0000 -11.8144 0.0000
# 3 11.7390 10.1056 99.4005 0.0000 -10.4827 0.0000
# 4 0.0000 0.0000 0.0000 18.7007 0.0000 5.9645
# 5 -7.2269 -11.8144 -10.4827 0.0000 23.4672 0.0000
# 6 0.0000 0.0000 0.0000 5.9645 0.0000 25.2168
#
#
#
# Elastic Compliance Matrix: (Units=1/GPa)
#
#
# Indices 1 2 3 4 5 6 
#
# 1 0.018996 -0.000796 -0.001666 0.000000 0.004705 0.000000
# 2 -0.000796 0.021407 -0.001020 0.000000 0.010077 0.000000
# 3 -0.001666 -0.001020 0.010759 0.000000 0.003780 0.000000
# 4 0.000000 0.000000 0.000000 0.057837 0.000000 -0.013680
# 5 0.004705 0.010077 0.003780 0.000000 0.050823 0.000000
# 6 0.000000 0.000000 0.000000 -0.013680 0.000000 0.042892
#
#
# Mechanical properties :
#
#
# Convention : Reuss Voigt Hill
#
# Bulk Modulus (GPa) = 22.62529 29.31683 25.97106
# Shear Modulus (GPa) = 22.28054 25.49154 23.88604
#
# Velocity S-wave (km/s) = 3.28556 3.51434 3.40187
# Velocity P-wave (km/s) = 5.03538 5.53818 5.29275
#
# Compressibility (1/GPa) = 0.04419833
#
# Stress axis : x y z
#
# Youngs Moduli (GPa) = 52.64390 46.71273 92.94230
#
# Poissons Ratio (x) = 0.03719 0.15486
# Poissons Ratio (y) = 0.04191 0.09477
# Poissons Ratio (z) = 0.08772 0.04763
#
# Static dielectric constant tensor:
#      x y z
#    x 1.798580 0.000000 0.023750 
#    y 0.000000 1.763790 0.000000 
#    z 0.023750 0.000000 1.761470 
# 
# From -- ./inp_files/24575.got.cif
#   From: 2010.05.17/outbox.cif.g08.bks.cpg/sg5_13_cif.got.tgz:24575.got - 2010.06.03 18:56:24.
