data_PCOD9120728
_publ_section_title
;
Structure prediction by ZEFSAII (Michael W. Deem and Ramdas Pophale) SiO2 
 PCOD9120728
Probable space group: C 2
;
_chemical_formula_sum "Si O2"
_cell_formula_units_Z 32
_cell_length_a 5.546615
_cell_length_b 18.513148
_cell_length_c 19.469596
_cell_angle_alpha 90.000000
_cell_angle_beta 125.911412
_cell_angle_gamma 90.000000
_cell_volume 1619.235249
_symmetry_space_group_name_H-M "C 2"
_symmetry_group_IT_number 5
_symmetry_cell_setting 'monoclinic'
loop_
_space_group_symop_operation_xyz
x,y,z
-x,y,-z
1/2+x,1/2+y,z
1/2-x,1/2+y,-z
loop_
_atom_site_type_symbol
_atom_site_label
_atom_site_fract_x
_atom_site_fract_y
_atom_site_fract_z
Si Si1 0.141219 0.176500 0.087197
Si Si2 0.753059 0.422173 0.777353
Si Si3 0.664932 0.822796 0.919075
Si Si4 0.781519 0.649132 0.270462
Si Si5 0.745890 0.235657 0.198692
Si Si6 0.377176 0.985455 0.286552
Si Si7 0.356012 0.886890 0.549358
Si Si8 0.367459 0.291564 0.674553
O O1 0.180715 0.149728 0.172341
O O2 0.474460 0.193502 0.120363
O O3 0.965506 0.252786 0.064098
O O4 0.000000 0.133322 0.000000
O O5 0.472806 0.465578 0.762382
O O6 0.593459 0.358783 0.704285
O O7 0.941804 0.389720 0.873078
O O8 0.971867 0.464418 0.761339
O O9 0.654820 0.793168 0.839852
O O10 0.000000 0.838706 0.000000
O O11 0.486175 0.676162 0.259654
O O12 0.902468 0.570595 0.304337
O O13 0.007276 0.714071 0.325910
O O14 0.644379 0.281628 0.245842
O O15 0.542877 0.941043 0.373775
O O16 0.500000 0.911906 0.500000
O O17 0.544750 0.813540 0.593982
O O18 0.000000 0.877383 0.500000
#
# Coordination Sequence:
#
# PCOD9120728 Si02
#       8
#     4   4   4   4   4   4   4   4
#     4  10  19  32  58  92 125 162 215 278 321 362
#     4  11  22  40  64  93 124 170 218 263 318 376
#     4  11  19  30  56  90 124 161 216 276 317 358
#     4  10  23  38  65  93 123 175 221 257 317 380
#     4  10  18  34  61  91 121 158 214 266 314 367
#     4  11  26  44  67  90 132 174 213 255 316 411
#     4  11  24  43  70  97 128 162 203 259 333 386
#     4  10  21  38  69  94 120 157 215 269 305 391
#
# _framework density 19.762416000000002
#
# number of rings (size 3 to 8) (size 9 to 14) (size 15 to 20)
#    0.000    1.500    5.000    3.000    5.250    0.000 
#    0.000    1.250    2.750    0.000    0.000    0.000 
#    0.000    0.000    0.000    0.000    0.000    0.000 
#
# Total GULP energy -89076.682282 kJ/mol
# GULP energy per Si atom -5567.292643 kJ/mol
# Density = 1.971744 g / cm^3
# Si number density = 19.762416 Si / 1000 Ang^3
#
#
#
# Elastic Constant Matrix: (Units=GPa)
#
#
# Indices 1 2 3 4 5 6 
#
# 1 96.1066 29.5013 17.2723 0.0000 28.1329 0.0000
# 2 29.5013 91.2617 10.4098 0.0000 18.9280 0.0000
# 3 17.2723 10.4098 59.0114 0.0000 26.2198 0.0000
# 4 0.0000 0.0000 0.0000 10.2651 0.0000 5.0132
# 5 28.1329 18.9280 26.2198 0.0000 34.1552 0.0000
# 6 0.0000 0.0000 0.0000 5.0132 0.0000 10.0006
#
#
#
# Elastic Compliance Matrix: (Units=1/GPa)
#
#
# Indices 1 2 3 4 5 6 
#
# 1 0.014245 -0.002385 0.001331 0.000000 -0.011433 0.000000
# 2 -0.002385 0.012847 0.001096 0.000000 -0.005996 0.000000
# 3 0.001331 0.001096 0.025982 0.000000 -0.021650 0.000000
# 4 0.000000 0.000000 0.000000 0.128999 0.000000 -0.064666
# 5 -0.011433 -0.005996 -0.021650 0.000000 0.058638 0.000000
# 6 0.000000 0.000000 0.000000 -0.064666 0.000000 0.132410
#
#
# Mechanical properties :
#
#
# Convention : Reuss Voigt Hill
#
# Bulk Modulus (GPa) = 18.81152 40.08292 29.44722
# Shear Modulus (GPa) = 12.79569 23.49728 18.14649
#
# Velocity S-wave (km/s) = 2.54732 3.45191 3.03352
# Velocity P-wave (km/s) = 4.26512 6.01781 5.21561
#
# Compressibility (1/GPa) = 0.05315893
#
# Stress axis : x y z
#
# Youngs Moduli (GPa) = 70.20063 77.83783 38.48787
#
# Poissons Ratio (x) = 0.18567 -0.05124
# Poissons Ratio (y) = 0.16745 -0.04219
# Poissons Ratio (z) = -0.09347 -0.08533
#
# Static dielectric constant tensor:
#      x y z
#    x 1.810980 0.000000 0.022250 
#    y 0.000000 1.716070 0.000000 
#    z 0.022250 0.000000 1.753860 
# 
# From -- ./inp_files/64119.got.cif
#   From: 2010.05.17/outbox.cif.g08.bks.cpg/sg5_33_cif.got.tgz:64119.got - 2010.06.03 18:56:24.
