data_PCOD9120671
_publ_section_title
;
Structure prediction by ZEFSAII (Michael W. Deem and Ramdas Pophale) SiO2 
 PCOD9120671
Probable space group: C 2
;
_chemical_formula_sum "Si O2"
_cell_formula_units_Z 32
_cell_length_a 19.030506
_cell_length_b 8.453606
_cell_length_c 24.931043
_cell_angle_alpha 90.000000
_cell_angle_beta 23.867693
_cell_angle_gamma 90.000000
_cell_volume 1622.880644
_symmetry_space_group_name_H-M "C 2"
_symmetry_group_IT_number 5
_symmetry_cell_setting 'monoclinic'
loop_
_space_group_symop_operation_xyz
x,y,z
-x,y,-z
1/2+x,1/2+y,z
1/2-x,1/2+y,-z
loop_
_atom_site_type_symbol
_atom_site_label
_atom_site_fract_x
_atom_site_fract_y
_atom_site_fract_z
Si Si1 0.173516 0.746920 0.344880
Si Si2 0.970417 0.805030 0.726207
Si Si3 0.498644 0.507827 0.402392
Si Si4 0.544366 0.824044 0.133630
Si Si5 0.600149 0.778763 0.259922
Si Si6 0.696973 0.553904 0.095417
Si Si7 0.619701 0.984097 0.656362
Si Si8 0.293850 0.599702 0.149108
O O1 0.354659 0.759969 0.250039
O O2 0.217014 0.643062 0.261505
O O3 0.000000 0.697592 0.500000
O O4 0.125193 0.918479 0.354017
O O5 0.951821 0.921758 0.789582
O O6 0.789530 0.722630 0.834948
O O7 0.016731 0.910198 0.642682
O O8 0.092562 0.656504 0.650834
O O9 0.559328 0.679609 0.341689
O O10 0.302366 0.491626 0.559012
O O11 0.657312 0.672452 0.073973
O O12 0.522533 0.935627 0.200836
O O13 0.634655 0.943949 0.029275
O O14 0.688281 0.662051 0.154774
O O15 0.421441 0.851720 0.360033
O O16 0.723865 0.926631 0.183664
O O17 0.500000 0.608504 0.000000
#
# Coordination Sequence:
#
# PCOD9120671 Si02
#       8
#     4   4   4   4   4   4   4   4
#     4  11  23  41  59  87 129 165 196 240 311 381
#     4   9  19  35  57  86 108 147 203 250 289 336
#     4  10  19  36  58  82 118 154 196 241 298 358
#     4  11  22  37  61  86 122 161 192 246 304 365
#     4   9  21  37  59  90 112 149 208 261 289 336
#     4  10  21  38  59  88 116 149 207 252 298 343
#     4  10  18  34  57  84 117 152 196 244 296 351
#     4  10  21  39  64  85 118 161 207 251 298 358
#
# _framework density 19.718025000000001
#
# number of rings (size 3 to 8) (size 9 to 14) (size 15 to 20)
#    0.000    2.000    1.250    2.250    0.000    3.000 
#    4.500    3.125    0.000    0.000    0.000    0.000 
#    0.000    0.000    0.000    0.000    0.000    0.000 
#
# Total GULP energy -89117.668508 kJ/mol
# GULP energy per Si atom -5569.854282 kJ/mol
# Density = 1.967315 g / cm^3
# Si number density = 19.718025 Si / 1000 Ang^3
#
#
#
# Elastic Constant Matrix: (Units=GPa)
#
#
# Indices 1 2 3 4 5 6 
#
# 1 46.9380 19.7051 20.4442 -0.0008 -0.4072 -0.0006
# 2 19.7051 94.4768 36.3294 0.0012 17.4627 0.0007
# 3 20.4442 36.3294 89.1589 0.0042 -2.7954 0.0015
# 4 -0.0008 0.0012 0.0042 15.5987 0.0025 9.0855
# 5 -0.4072 17.4627 -2.7954 0.0025 22.1057 0.0010
# 6 -0.0006 0.0007 0.0015 9.0855 0.0010 25.0569
#
#
#
# Elastic Compliance Matrix: (Units=1/GPa)
#
#
# Indices 1 2 3 4 5 6 
#
# 1 0.024817 -0.004337 -0.003817 0.000002 0.003401 0.000000
# 2 -0.004337 0.016393 -0.006118 0.000003 -0.013804 -0.000001
# 3 -0.003817 -0.006118 0.014792 -0.000005 0.006633 0.000001
# 4 0.000002 0.000003 -0.000005 0.081272 -0.000011 -0.029469
# 5 0.003401 -0.013804 0.006633 -0.000011 0.057043 0.000002
# 6 0.000000 -0.000001 0.000001 -0.029469 0.000002 0.050594
#
#
# Mechanical properties :
#
#
# Convention : Reuss Voigt Hill
#
# Bulk Modulus (GPa) = 36.41816 42.61457 39.51637
# Shear Modulus (GPa) = 17.69232 22.82526 20.25879
#
# Velocity S-wave (km/s) = 2.99869 3.40602 3.20882
# Velocity P-wave (km/s) = 5.52260 6.09318 5.81489
#
# Compressibility (1/GPa) = 0.02745883
#
# Stress axis : x y z
#
# Youngs Moduli (GPa) = 40.29431 61.00104 67.60424
#
# Poissons Ratio (x) = 0.26457 0.25803
# Poissons Ratio (y) = 0.17476 0.41360
# Poissons Ratio (z) = 0.15380 0.37320
#
# Static dielectric constant tensor:
#      x y z
#    x 1.705830 0.000000 0.025390 
#    y 0.000000 1.674800 0.000000 
#    z 0.025390 0.000000 1.752770 
# 
# From -- ./inp_files/71071.got.cif
#   From: 2010.05.17/outbox.cif.g08.bks.cpg/sg5_36_cif.got.tgz:71071.got - 2010.06.03 18:56:24.
