data_PCOD9120860
_publ_section_title
;
Structure prediction by ZEFSAII (Michael W. Deem and Ramdas Pophale) SiO2 
 PCOD9120860
Probable space group: C 2
;
_chemical_formula_sum "Si O2"
_cell_formula_units_Z 26
_cell_length_a 11.064343
_cell_length_b 8.760775
_cell_length_c 18.218465
_cell_angle_alpha 90.000000
_cell_angle_beta 144.037679
_cell_angle_gamma 90.000000
_cell_volume 1037.063277
_symmetry_space_group_name_H-M "C 2"
_symmetry_group_IT_number 5
_symmetry_cell_setting 'monoclinic'
loop_
_space_group_symop_operation_xyz
x,y,z
-x,y,-z
1/2+x,1/2+y,z
1/2-x,1/2+y,-z
loop_
_atom_site_type_symbol
_atom_site_label
_atom_site_fract_x
_atom_site_fract_y
_atom_site_fract_z
Si Si1 0.000000 0.448740 0.500000
Si Si2 0.882598 0.855586 0.864732
Si Si3 0.104730 0.104538 0.233740
Si Si4 0.190057 0.853359 0.471589
Si Si5 0.968642 0.558506 0.676578
Si Si6 0.336880 0.568472 0.231138
Si Si7 0.201530 0.259083 0.135038
O O1 0.812230 0.543125 0.373503
O O2 0.879682 0.357830 0.505462
O O3 0.805770 0.690704 0.799390
O O4 0.994950 0.961064 0.859838
O O5 0.673126 0.955541 0.768885
O O6 0.000000 0.839081 0.000000
O O7 0.163215 0.230066 0.202862
O O8 0.955437 0.156257 0.224553
O O9 0.114525 0.678292 0.427719
O O10 0.286851 0.934133 0.591417
O O11 0.006425 0.968408 0.358025
O O12 0.080145 0.685945 0.782321
O O13 0.208034 0.437768 0.128533
O O14 0.000000 0.188404 0.000000
#
# Coordination Sequence:
#
# PCOD9120860 Si02
#       7
#     2   4   4   4   4   4   4
#     4  10  18  36  58  86 122 158 198 248 316 348
#     4  11  22  41  65  87 125 167 203 250 308 367
#     4  10  21  39  61  88 125 162 200 258 301 360
#     4  10  19  33  61  83 118 151 197 250 296 360
#     4  10  19  35  59  84 114 157 197 245 302 353
#     4  10  23  38  62  96 119 164 205 250 309 357
#     4  10  20  39  62  90 125 162 202 249 304 366
#
# _framework density 25.070792999999998
#
# number of rings (size 3 to 8) (size 9 to 14) (size 15 to 20)
#    0.000    1.846    3.077    3.231    0.000    1.231 
#    0.000    7.692    3.385    0.923    0.000    0.000 
#    0.000    0.000    0.000    0.000    0.000    0.000 
#
# Total GULP energy -72377.347264 kJ/mol
# GULP energy per Si atom -5567.488251 kJ/mol
# Density = 2.501373 g / cm^3
# Si number density = 25.070793 Si / 1000 Ang^3
#
#
#
# Elastic Constant Matrix: (Units=GPa)
#
#
# Indices 1 2 3 4 5 6 
#
# 1 67.6465 17.0492 -3.9129 0.0000 0.2472 0.0000
# 2 17.0492 125.3217 20.2310 0.0000 9.9776 0.0000
# 3 -3.9129 20.2310 153.8001 0.0001 5.5448 0.0000
# 4 0.0000 0.0000 0.0001 34.6205 0.0000 5.3056
# 5 0.2472 9.9776 5.5448 0.0000 17.9480 0.0000
# 6 0.0000 0.0000 0.0000 5.3056 0.0000 24.6759
#
#
#
# Elastic Compliance Matrix: (Units=1/GPa)
#
#
# Indices 1 2 3 4 5 6 
#
# 1 0.015389 -0.002267 0.000659 0.000000 0.000845 0.000000
# 2 -0.002267 0.008820 -0.001054 0.000000 -0.004546 0.000000
# 3 0.000659 -0.001054 0.006711 0.000000 -0.001497 0.000000
# 4 0.000000 0.000000 0.000000 0.029869 0.000000 -0.006422
# 5 0.000845 -0.004546 -0.001497 0.000000 0.058695 0.000000
# 6 0.000000 0.000000 0.000000 -0.006422 0.000000 0.041906
#
#
# Mechanical properties :
#
#
# Convention : Reuss Voigt Hill
#
# Bulk Modulus (GPa) = 39.06763 45.94477 42.50620
# Shear Modulus (GPa) = 28.53127 36.34228 32.43678
#
# Velocity S-wave (km/s) = 3.37713 3.81147 3.60086
# Velocity P-wave (km/s) = 5.55188 6.14293 5.85487
#
# Compressibility (1/GPa) = 0.02559664
#
# Stress axis : x y z
#
# Youngs Moduli (GPa) = 64.98055 113.37843 149.00217
#
# Poissons Ratio (x) = 0.25706 -0.09824
# Poissons Ratio (y) = 0.14733 0.15704
# Poissons Ratio (z) = -0.04284 0.11950
#
# Static dielectric constant tensor:
#      x y z
#    x 2.072700 0.000000 -0.037820 
#    y 0.000000 2.022190 0.000000 
#    z -0.037820 0.000000 2.051190 
# 
# From -- ./inp_files/68652.got.cif
#   From: 2010.05.17/outbox.cif.g08.bks.cpg/sg5_35_cif.got.tgz:68652.got - 2010.06.03 18:56:24.
