data_PCOD9120791
_publ_section_title
;
Structure prediction by ZEFSAII (Michael W. Deem and Ramdas Pophale) SiO2 
 PCOD9120791
Probable space group: C 2
;
_chemical_formula_sum "Si O2"
_cell_formula_units_Z 28
_cell_length_a 10.692503
_cell_length_b 15.747499
_cell_length_c 8.748716
_cell_angle_alpha 90.000000
_cell_angle_beta 65.361038
_cell_angle_gamma 90.000000
_cell_volume 1338.987834
_symmetry_space_group_name_H-M "C 2"
_symmetry_group_IT_number 5
_symmetry_cell_setting 'monoclinic'
loop_
_space_group_symop_operation_xyz
x,y,z
-x,y,-z
1/2+x,1/2+y,z
1/2-x,1/2+y,-z
loop_
_atom_site_type_symbol
_atom_site_label
_atom_site_fract_x
_atom_site_fract_y
_atom_site_fract_z
Si Si1 0.231011 0.858360 0.519662
Si Si2 0.957530 0.141150 0.202204
Si Si3 0.644657 0.191239 0.378555
Si Si4 0.882027 0.294143 0.728788
Si Si5 0.714721 0.304341 0.092081
Si Si6 0.507978 0.452103 0.179024
Si Si7 0.075937 0.402160 0.824347
O O1 0.162045 0.777837 0.469850
O O2 0.342268 0.816316 0.577581
O O3 0.122917 0.909412 0.674910
O O4 0.302372 0.920255 0.358242
O O5 0.791213 0.142915 0.308476
O O6 0.026173 0.213251 0.272424
O O7 0.015694 0.049808 0.221651
O O8 0.000000 0.151822 0.000000
O O9 0.500000 0.149243 0.500000
O O10 0.636149 0.227500 0.211099
O O11 0.956255 0.373669 0.771006
O O12 0.745027 0.284564 0.901604
O O13 0.635304 0.392175 0.152257
O O14 0.855207 0.322510 0.116755
O O15 0.500000 0.451230 0.000000
O O16 0.000000 0.453388 0.000000
#
# Coordination Sequence:
#
# PCOD9120791 Si02
#       7
#     4   4   4   4   4   4   4
#     4  11  21  33  59  93 122 160 212 262 305 367
#     4  11  22  40  65  92 128 169 209 257 329 376
#     4  11  21  37  63  89 121 168 220 250 304 389
#     4  11  18  35  61  94 120 156 216 258 298 375
#     4  10  18  35  59  88 115 168 209 248 300 385
#     4  11  23  38  59  97 131 160 204 271 324 365
#     4   9  19  33  57  86 115 156 212 253 297 362
#
# _framework density 20.911318999999999
#
# number of rings (size 3 to 8) (size 9 to 14) (size 15 to 20)
#    0.000    1.429    7.143    0.857    0.000    0.000 
#    0.000    7.143    0.000    0.000   11.143    0.000 
#    0.000    0.000    0.000    0.000    0.000    0.000 
#
# Total GULP energy -77986.226295 kJ/mol
# GULP energy per Si atom -5570.444735 kJ/mol
# Density = 2.086372 g / cm^3
# Si number density = 20.911319 Si / 1000 Ang^3
#
#
#
# Elastic Constant Matrix: (Units=GPa)
#
#
# Indices 1 2 3 4 5 6 
#
# 1 77.4527 23.4719 32.8093 0.0000 -12.6828 0.0000
# 2 23.4719 54.5190 13.2994 0.0000 -8.4672 0.0000
# 3 32.8093 13.2994 147.1378 0.0000 -20.4321 0.0000
# 4 0.0000 0.0000 0.0000 9.9375 0.0000 3.4060
# 5 -12.6828 -8.4672 -20.4321 0.0000 42.0254 0.0000
# 6 0.0000 0.0000 0.0000 3.4060 0.0000 10.6641
#
#
#
# Elastic Compliance Matrix: (Units=1/GPa)
#
#
# Indices 1 2 3 4 5 6 
#
# 1 0.016277 -0.005966 -0.002761 0.000000 0.002368 0.000000
# 2 -0.005966 0.021345 -0.000270 0.000000 0.002369 0.000000
# 3 -0.002761 -0.000270 0.007843 0.000000 0.002925 0.000000
# 4 0.000000 0.000000 0.000000 0.112998 0.000000 -0.036090
# 5 0.002368 0.002369 0.002925 0.000000 0.026409 0.000000
# 6 0.000000 0.000000 0.000000 -0.036090 0.000000 0.105300
#
#
# Mechanical properties :
#
#
# Convention : Reuss Voigt Hill
#
# Bulk Modulus (GPa) = 36.40508 46.47453 41.43981
# Shear Modulus (GPa) = 15.75685 26.49398 21.12542
#
# Velocity S-wave (km/s) = 2.74799 3.56331 3.18187
# Velocity P-wave (km/s) = 5.24554 6.26118 5.77573
#
# Compressibility (1/GPa) = 0.02746869
#
# Stress axis : x y z
#
# Youngs Moduli (GPa) = 61.43805 46.85031 127.50701
#
# Poissons Ratio (x) = 0.27952 0.35210
# Poissons Ratio (y) = 0.36655 0.03443
# Poissons Ratio (z) = 0.16965 0.01265
#
# Static dielectric constant tensor:
#      x y z
#    x 1.802830 0.000000 -0.059260 
#    y 0.000000 1.717240 0.000000 
#    z -0.059260 0.000000 1.856970 
# 
# From -- ./inp_files/20563.got.cif
#   From: 2010.05.17/outbox.cif.g08.bks.cpg/sg5_11_cif.got.tgz:20563.got - 2010.06.03 18:56:24.
