data_PCOD9120380
_publ_section_title
;
Structure prediction by ZEFSAII (Michael W. Deem and Ramdas Pophale) SiO2 
 PCOD9120380
Probable space group: C 2
;
_chemical_formula_sum "Si O2"
_cell_formula_units_Z 30
_cell_length_a 8.446759
_cell_length_b 17.369669
_cell_length_c 11.255645
_cell_angle_alpha 90.000000
_cell_angle_beta 59.255602
_cell_angle_gamma 90.000000
_cell_volume 1419.305487
_symmetry_space_group_name_H-M "C 2"
_symmetry_group_IT_number 5
_symmetry_cell_setting 'monoclinic'
loop_
_space_group_symop_operation_xyz
x,y,z
-x,y,-z
1/2+x,1/2+y,z
1/2-x,1/2+y,-z
loop_
_atom_site_type_symbol
_atom_site_label
_atom_site_fract_x
_atom_site_fract_y
_atom_site_fract_z
Si Si1 0.637128 0.025170 0.562055
Si Si2 0.055111 0.963256 0.713839
Si Si3 0.693965 0.027793 0.178406
Si Si4 0.681807 0.593439 0.115669
Si Si5 0.206545 0.192133 0.470513
Si Si6 0.180018 0.184474 0.763040
Si Si7 0.500000 0.206775 0.000000
Si Si8 0.454974 0.288834 0.772265
O O1 0.500000 0.037282 0.500000
O O2 0.505931 0.993810 0.716231
O O3 0.728616 0.104012 0.570983
O O4 0.795947 0.971485 0.448036
O O5 0.972013 0.879540 0.751302
O O6 0.158512 0.981010 0.800034
O O7 0.912184 0.033865 0.758641
O O8 0.696184 0.113409 0.236356
O O9 0.745934 0.043021 0.023109
O O10 0.523549 0.652744 0.133002
O O11 0.840028 0.648365 0.102117
O O12 0.196642 0.197432 0.616815
O O13 0.365513 0.248041 0.357686
O O14 0.000000 0.205855 0.500000
O O15 0.264730 0.258549 0.790578
O O16 0.450633 0.259905 0.908917
#
# Coordination Sequence:
#
# PCOD9120380 Si02
#       8
#     4   4   4   4   4   4   2   4
#     4  10  17  39  66  96 129 184 225 269 331 435
#     4  10  23  39  70  98 138 172 236 283 355 401
#     4  10  19  37  73  96 128 185 233 265 338 427
#     4  11  22  43  72 103 128 193 234 282 332 442
#     4  12  22  38  67  99 136 177 236 287 341 411
#     4  11  20  41  71  94 131 182 236 268 352 417
#     4  12  26  42  68 106 144 172 244 282 350 406
#     4  12  26  41  66 105 144 179 225 309 350 406
#
# _framework density 21.137098000000002
#
# number of rings (size 3 to 8) (size 9 to 14) (size 15 to 20)
#    0.000    1.067    6.667    2.800    1.867    1.600 
#    0.000    2.667    2.933    0.000    0.000    0.000 
#    0.000    0.000    0.000    0.000    0.000    0.000 
#
# Total GULP energy -83798.995587 kJ/mol
# GULP energy per Si atom -5586.599706 kJ/mol
# Density = 2.108899 g / cm^3
# Si number density = 21.137098 Si / 1000 Ang^3
#
#
#
# Elastic Constant Matrix: (Units=GPa)
#
#
# Indices 1 2 3 4 5 6 
#
# 1 59.3071 39.7743 15.5108 0.0000 -14.0753 0.0000
# 2 39.7743 123.2705 6.2188 0.0000 -15.4988 0.0000
# 3 15.5108 6.2188 88.2874 0.0000 -6.2527 0.0000
# 4 0.0000 0.0000 0.0000 21.9589 0.0000 -6.1441
# 5 -14.0753 -15.4988 -6.2527 0.0000 30.9755 0.0000
# 6 0.0000 0.0000 0.0000 -6.1441 0.0000 22.0100
#
#
#
# Elastic Compliance Matrix: (Units=1/GPa)
#
#
# Indices 1 2 3 4 5 6 
#
# 1 0.023789 -0.006654 -0.003227 0.000000 0.006829 0.000000
# 2 -0.006654 0.010526 0.000595 0.000000 0.002363 0.000000
# 3 -0.003227 0.000595 0.011940 0.000000 0.001241 0.000000
# 4 0.000000 0.000000 0.000000 0.049398 0.000000 0.013790
# 5 0.006829 0.002363 0.001241 0.000000 0.036820 0.000000
# 6 0.000000 0.000000 0.000000 0.013790 0.000000 0.049283
#
#
# Mechanical properties :
#
#
# Convention : Reuss Voigt Hill
#
# Bulk Modulus (GPa) = 36.12437 43.76366 39.94401
# Shear Modulus (GPa) = 23.86001 28.94627 26.40314
#
# Velocity S-wave (km/s) = 3.36344 3.70463 3.53815
# Velocity P-wave (km/s) = 5.67549 6.24889 5.96908
#
# Compressibility (1/GPa) = 0.02768215
#
# Stress axis : x y z
#
# Youngs Moduli (GPa) = 42.03681 94.99895 83.75498
#
# Poissons Ratio (x) = 0.63215 0.27028
# Poissons Ratio (y) = 0.27972 -0.04983
# Poissons Ratio (z) = 0.13565 -0.05652
#
# Static dielectric constant tensor:
#      x y z
#    x 1.804980 0.000000 -0.024460 
#    y 0.000000 1.708830 0.000000 
#    z -0.024460 0.000000 1.820850 
# 
# From -- ./inp_files/36997.got.cif
#   From: 2010.05.17/outbox.cif.g08.bks.cpg/sg5_19_cif.got.tgz:36997.got - 2010.06.03 18:56:24.
