data_PCOD9120762
_publ_section_title
;
Structure prediction by ZEFSAII (Michael W. Deem and Ramdas Pophale) SiO2 
 PCOD9120762
Probable space group: C 2
;
_chemical_formula_sum "Si O2"
_cell_formula_units_Z 28
_cell_length_a 21.547040
_cell_length_b 8.629206
_cell_length_c 17.541665
_cell_angle_alpha 90.000000
_cell_angle_beta 20.256975
_cell_angle_gamma 90.000000
_cell_volume 1129.264179
_symmetry_space_group_name_H-M "C 2"
_symmetry_group_IT_number 5
_symmetry_cell_setting 'monoclinic'
loop_
_space_group_symop_operation_xyz
x,y,z
-x,y,-z
1/2+x,1/2+y,z
1/2-x,1/2+y,-z
loop_
_atom_site_type_symbol
_atom_site_label
_atom_site_fract_x
_atom_site_fract_y
_atom_site_fract_z
Si Si1 0.667569 0.952180 0.331856
Si Si2 0.500000 0.517225 0.000000
Si Si3 0.908552 0.261087 0.235285
Si Si4 0.137973 0.142129 0.106605
Si Si5 0.816988 0.834979 0.012555
Si Si6 0.000000 0.996562 0.500000
Si Si7 0.415695 0.086883 0.013798
Si Si8 0.968827 0.738205 0.408267
O O1 0.500000 0.852272 0.500000
O O2 0.760767 0.956780 0.142557
O O3 0.827919 0.907765 0.201161
O O4 0.598284 0.105707 0.453954
O O5 0.487600 0.636433 0.084135
O O6 0.696074 0.258374 0.461318
O O7 0.983200 0.212001 0.231699
O O8 0.996185 0.426863 0.116677
O O9 0.345233 0.177691 0.841960
O O10 0.115382 0.956461 0.129538
O O11 0.150352 0.235835 0.171458
O O12 0.939865 0.716236 0.919122
O O13 0.999427 0.887101 0.425434
O O14 0.800233 0.070370 0.729105
O O15 0.500000 0.109324 0.000000
#
# Coordination Sequence:
#
# PCOD9120762 Si02
#       8
#     4   2   4   4   4   2   4   4
#     4  11  20  40  68 105 130 174 236 293 337 419
#     4  10  18  34  70 102 132 174 228 296 358 406
#     4  11  20  41  71 104 138 185 232 297 362 438
#     4  12  25  49  67 100 150 193 238 287 382 441
#     4  12  28  45  71  99 146 200 237 304 368 435
#     4  12  20  38  68 112 140 174 228 300 366 414
#     4  12  25  41  67 109 147 180 242 309 359 424
#     4  11  21  39  80 105 137 184 238 288 365 440
#
# _framework density 24.794906999999998
#
# number of rings (size 3 to 8) (size 9 to 14) (size 15 to 20)
#    0.000    0.571    7.143    1.714    2.000    0.000 
#    0.000    5.714    0.000    0.000    0.000    0.000 
#    0.000    0.000    0.000    0.000    0.000    0.000 
#
# Total GULP energy -78045.486748 kJ/mol
# GULP energy per Si atom -5574.677625 kJ/mol
# Density = 2.473847 g / cm^3
# Si number density = 24.794907 Si / 1000 Ang^3
#
#
#
# Elastic Constant Matrix: (Units=GPa)
#
#
# Indices 1 2 3 4 5 6 
#
# 1 162.3789 62.5586 40.0965 0.0000 -45.0263 0.0000
# 2 62.5586 137.7316 47.4192 0.0000 -33.2373 0.0000
# 3 40.0965 47.4192 127.8090 0.0000 -40.0207 0.0000
# 4 0.0000 0.0000 0.0000 2.7368 0.0000 -1.2990
# 5 -45.0263 -33.2373 -40.0207 0.0000 57.1908 0.0000
# 6 0.0000 0.0000 0.0000 -1.2990 0.0000 50.2000
#
#
#
# Elastic Compliance Matrix: (Units=1/GPa)
#
#
# Indices 1 2 3 4 5 6 
#
# 1 0.008641 -0.002634 -0.000106 0.000000 0.005198 0.000000
# 2 -0.002634 0.009686 -0.002118 0.000000 0.002074 0.000000
# 3 -0.000106 -0.002118 0.010542 0.000000 0.006062 0.000000
# 4 0.000000 0.000000 0.000000 0.369940 0.000000 0.009573
# 5 0.005198 0.002074 0.006062 0.000000 0.027025 0.000000
# 6 0.000000 0.000000 0.000000 0.009573 0.000000 0.020168
#
#
# Mechanical properties :
#
#
# Convention : Reuss Voigt Hill
#
# Bulk Modulus (GPa) = 52.21198 80.89648 66.55423
# Shear Modulus (GPa) = 10.82011 40.54853 25.68432
#
# Velocity S-wave (km/s) = 2.09125 4.04834 3.22199
# Velocity P-wave (km/s) = 5.18983 7.38574 6.38293
#
# Compressibility (1/GPa) = 0.01915269
#
# Stress axis : x y z
#
# Youngs Moduli (GPa) = 115.73198 103.23690 94.86228
#
# Poissons Ratio (x) = 0.27190 0.01005
# Poissons Ratio (y) = 0.30481 0.20094
# Poissons Ratio (z) = 0.01226 0.21868
#
# Static dielectric constant tensor:
#      x y z
#    x 2.081550 0.000000 0.051040 
#    y 0.000000 1.972550 0.000000 
#    z 0.051040 0.000000 2.181680 
# 
# From -- ./inp_files/67371.got.cif
#   From: 2010.05.17/outbox.cif.g08.bks.cpg/sg5_34_cif.got.tgz:67371.got - 2010.06.03 18:56:24.
