data_PCOD9120588
_publ_section_title
;
Structure prediction by ZEFSAII (Michael W. Deem and Ramdas Pophale) SiO2 
 PCOD9120588
Probable space group: C 2
;
_chemical_formula_sum "Si O2"
_cell_formula_units_Z 24
_cell_length_a 8.824484
_cell_length_b 16.524948
_cell_length_c 9.142712
_cell_angle_alpha 90.000000
_cell_angle_beta 117.547167
_cell_angle_gamma 90.000000
_cell_volume 1182.080587
_symmetry_space_group_name_H-M "C 2"
_symmetry_group_IT_number 5
_symmetry_cell_setting 'monoclinic'
loop_
_space_group_symop_operation_xyz
x,y,z
-x,y,-z
1/2+x,1/2+y,z
1/2-x,1/2+y,-z
loop_
_atom_site_type_symbol
_atom_site_label
_atom_site_fract_x
_atom_site_fract_y
_atom_site_fract_z
Si Si1 0.139010 0.245260 0.688358
Si Si2 0.982390 0.752737 0.166074
Si Si3 0.315553 0.177821 0.338847
Si Si4 0.611130 0.411835 0.698292
Si Si5 0.566475 0.829423 0.193352
Si Si6 0.991187 0.084104 0.673783
O O1 0.322079 0.244005 0.697463
O O2 0.000000 0.249590 0.500000
O O3 0.097441 0.319986 0.776009
O O4 0.109905 0.161328 0.762946
O O5 0.866888 0.683924 0.190145
O O6 0.919832 0.838160 0.203468
O O7 0.000000 0.750548 0.000000
O O8 0.500000 0.181899 0.500000
O O9 0.195316 0.257433 0.301836
O O10 0.195665 0.106248 0.346145
O O11 0.500000 0.399676 0.500000
O O12 0.811977 0.407496 0.746192
O O13 0.557953 0.496377 0.746877
O O14 0.500000 0.816735 0.000000
O O15 0.000000 0.081094 0.500000
#
# Coordination Sequence:
#
# PCOD9120588 Si02
#       6
#     4   4   4   4   4   4
#     4  10  18  33  55  80 107 143 188 234 279 340
#     4  11  21  35  55  85 117 149 189 237 286 349
#     4  10  19  36  62  86 111 152 199 243 291 348
#     4  10  20  38  58  80 113 155 192 237 291 346
#     4  10  19  33  56  84 112 148 189 233 285 345
#     4   9  19  35  58  85 113 145 193 248 291 338
#
# _framework density 20.303182
#
# number of rings (size 3 to 8) (size 9 to 14) (size 15 to 20)
#    0.000    2.000    0.000    8.000    0.000    0.000 
#    0.000   11.667    0.000    6.000    0.000    0.000 
#    0.000    0.000    0.000    0.000    0.000    0.000 
#
# Total GULP energy -66837.006634 kJ/mol
# GULP energy per Si atom -5569.750553 kJ/mol
# Density = 2.025697 g / cm^3
# Si number density = 20.303182 Si / 1000 Ang^3
#
#
#
# Elastic Constant Matrix: (Units=GPa)
#
#
# Indices 1 2 3 4 5 6 
#
# 1 136.3276 48.2313 15.7129 0.0000 -17.3960 0.0000
# 2 48.2313 80.9738 19.6516 0.0000 -3.4716 0.0000
# 3 15.7129 19.6516 80.5971 0.0000 -14.6360 0.0000
# 4 0.0000 0.0000 0.0000 -7.1716 0.0000 -3.4576
# 5 -17.3960 -3.4716 -14.6360 0.0000 39.0567 0.0000
# 6 0.0000 0.0000 0.0000 -3.4576 0.0000 32.4978
#
#
#
# Elastic Compliance Matrix: (Units=1/GPa)
#
#
# Indices 1 2 3 4 5 6 
#
# 1 0.009849 -0.005745 0.000198 0.000000 0.003950 0.000000
# 2 -0.005745 0.016478 -0.003322 0.000000 -0.002339 0.000000
# 3 0.000198 -0.003322 0.014101 0.000000 0.005077 0.000000
# 4 0.000000 0.000000 0.000000 -0.132635 0.000000 -0.014112
# 5 0.003950 -0.002339 0.005077 0.000000 0.029058 0.000000
# 6 0.000000 0.000000 0.000000 -0.014112 0.000000 0.029270
#
#
# Mechanical properties :
#
#
# Convention : Reuss Voigt Hill
#
# Bulk Modulus (GPa) = 44.07518 51.67668 47.87593
# Shear Modulus (GPa) = -582.96270 27.16342 -277.89964
#
# Velocity S-wave (km/s) = -16.96326 3.66169 -11.71205
# Velocity P-wave (km/s) = 19.02403 6.58673 12.62000
#
# Compressibility (1/GPa) = 0.02268851
#
# Stress axis : x y z
#
# Youngs Moduli (GPa) = 101.53173 60.68767 70.91774
#
# Poissons Ratio (x) = 0.34867 -0.01405
# Poissons Ratio (y) = 0.58333 0.23562
# Poissons Ratio (z) = -0.02011 0.20163
#
# Static dielectric constant tensor:
#      x y z
#    x 1.802510 0.000000 0.003140 
#    y 0.000000 1.757870 0.000000 
#    z 0.003140 0.000000 1.817510 
# 
# From -- ./inp_files/15689.got.cif
#   From: 2010.05.17/outbox.cif.g08.bks.cpg/sg5_8_cif.got.tgz:15689.got - 2010.06.03 18:56:24.
