data_PCOD9120661
_publ_section_title
;
Structure prediction by ZEFSAII (Michael W. Deem and Ramdas Pophale) SiO2 
 PCOD9120661
Probable space group: C 2
;
_chemical_formula_sum "Si O2"
_cell_formula_units_Z 22
_cell_length_a 19.621770
_cell_length_b 9.359521
_cell_length_c 17.129200
_cell_angle_alpha 90.000000
_cell_angle_beta 164.784391
_cell_angle_gamma 90.000000
_cell_volume 825.617484
_symmetry_space_group_name_H-M "C 2"
_symmetry_group_IT_number 5
_symmetry_cell_setting 'monoclinic'
loop_
_space_group_symop_operation_xyz
x,y,z
-x,y,-z
1/2+x,1/2+y,z
1/2-x,1/2+y,-z
loop_
_atom_site_type_symbol
_atom_site_label
_atom_site_fract_x
_atom_site_fract_y
_atom_site_fract_z
Si Si1 0.208092 0.422220 0.535816
Si Si2 0.557762 0.324685 0.657121
Si Si3 0.602805 0.853096 0.252702
Si Si4 0.706182 0.926902 0.798888
Si Si5 0.000000 0.570573 0.000000
Si Si6 0.506560 0.655579 0.386144
O O1 0.149685 0.249779 0.478438
O O2 0.200036 0.440461 0.434555
O O3 0.962976 0.482838 0.313814
O O4 0.493234 0.463658 0.882796
O O5 0.500000 0.318030 0.500000
O O6 0.567157 0.490424 0.698549
O O7 0.326563 0.267446 0.455357
O O8 0.843908 0.265345 0.986129
O O9 0.509411 0.966187 0.084148
O O10 0.500000 0.948500 0.500000
O O11 0.723020 0.759418 0.842786
O O12 0.262709 0.657466 0.294614
#
# Coordination Sequence:
#
# PCOD9120661 Si02
#       6
#     4   4   4   4   2   4
#     4  10  22  32  49  76 126 143 176 232 278 330
#     4  11  19  32  53  77 105 150 185 219 268 338
#     4  11  21  34  48  81 116 150 180 222 286 325
#     4  10  19  32  52  73 110 145 186 213 282 321
#     4  10  18  34  56  80 110 152 172 224 274 342
#     4   9  20  29  53  78 108 142 186 213 276 321
#
# _framework density 26.646722
#
# number of rings (size 3 to 8) (size 9 to 14) (size 15 to 20)
#    1.091    0.727    3.636    3.273    5.091    0.000 
#    0.000    0.000    0.000    0.000    0.000    0.000 
#   32.727    6.545    0.000    0.000    0.000    0.000 
#
# Total GULP energy -61347.381146 kJ/mol
# GULP energy per Si atom -5577.034650 kJ/mol
# Density = 2.658607 g / cm^3
# Si number density = 26.646722 Si / 1000 Ang^3
#
#
#
# Elastic Constant Matrix: (Units=GPa)
#
#
# Indices 1 2 3 4 5 6 
#
# 1 156.3901 -4.0067 64.6742 0.0102 15.4249 0.0035
# 2 -4.0067 90.0908 -6.6555 0.0166 12.8198 0.0113
# 3 64.6742 -6.6555 137.5816 0.0216 33.4942 0.0122
# 4 0.0102 0.0166 0.0216 13.4718 0.0106 19.3164
# 5 15.4249 12.8198 33.4942 0.0106 74.5124 0.0046
# 6 0.0035 0.0113 0.0122 19.3164 0.0046 11.2423
#
#
#
# Elastic Compliance Matrix: (Units=1/GPa)
#
#
# Indices 1 2 3 4 5 6 
#
# 1 0.007938 0.000074 -0.003733 0.000002 0.000022 -0.000001
# 2 0.000074 0.011545 0.001135 -0.000002 -0.002512 -0.000008
# 3 -0.003733 0.001135 0.010036 -0.000001 -0.003934 -0.000007
# 4 0.000002 -0.000002 -0.000001 -0.050717 0.000002 0.087141
# 5 0.000022 -0.002512 -0.003934 0.000002 0.015616 -0.000004
# 6 -0.000001 -0.000008 -0.000007 0.087141 -0.000004 -0.060775
#
#
# Mechanical properties :
#
#
# Convention : Reuss Voigt Hill
#
# Bulk Modulus (GPa) = 40.86595 54.67627 47.77111
# Shear Modulus (GPa) = -94.06989 41.84867 -26.11061
#
# Velocity S-wave (km/s) = -5.94805 3.96725 -3.13370
# Velocity P-wave (km/s) = 5.63940 6.44585 2.20750
#
# Compressibility (1/GPa) = 0.02447025
#
# Stress axis : x y z
#
# Youngs Moduli (GPa) = 125.97902 86.62132 99.64226
#
# Poissons Ratio (x) = -0.00642 0.37199
# Poissons Ratio (y) = -0.00933 -0.11311
# Poissons Ratio (z) = 0.47031 -0.09833
#
# Static dielectric constant tensor:
#      x y z
#    x 2.210340 0.000000 0.072010 
#    y 0.000000 2.166050 0.000000 
#    z 0.072010 0.000000 2.131390 
# 
# From -- ./inp_files/56097.got.cif
#   From: 2010.05.17/outbox.cif.g08.bks.cpg/sg5_29_cif.got.tgz:56097.got - 2010.06.03 18:56:24.
