data_PCOD9120958
_publ_section_title
;
Structure prediction by ZEFSAII (Michael W. Deem and Ramdas Pophale) SiO2 
 PCOD9120958
Probable space group: C 2
;
_chemical_formula_sum "Si O2"
_cell_formula_units_Z 24
_cell_length_a 20.410057
_cell_length_b 15.966018
_cell_length_c 13.533765
_cell_angle_alpha 90.000000
_cell_angle_beta 161.441714
_cell_angle_gamma 90.000000
_cell_volume 1403.634657
_symmetry_space_group_name_H-M "C 2"
_symmetry_group_IT_number 5
_symmetry_cell_setting 'monoclinic'
loop_
_space_group_symop_operation_xyz
x,y,z
-x,y,-z
1/2+x,1/2+y,z
1/2-x,1/2+y,-z
loop_
_atom_site_type_symbol
_atom_site_label
_atom_site_fract_x
_atom_site_fract_y
_atom_site_fract_z
Si Si1 0.703706 0.744040 0.225891
Si Si2 0.555987 0.418731 0.464985
Si Si3 0.324504 0.843673 0.176391
Si Si4 0.580882 0.700826 0.830631
Si Si5 0.390240 0.174931 0.108023
Si Si6 0.206190 0.587401 0.231386
O O1 0.817132 0.832690 0.368697
O O2 0.873787 0.687449 0.524657
O O3 0.500000 0.754290 0.000000
O O4 0.643918 0.706370 0.034144
O O5 0.500000 0.427208 0.500000
O O6 0.686097 0.497397 0.615550
O O7 0.343933 0.408554 0.101410
O O8 0.500000 0.875389 0.500000
O O9 0.580744 0.794562 0.783035
O O10 0.202823 0.766382 0.055203
O O11 0.368042 0.654295 0.506396
O O12 0.755590 0.655424 0.013297
O O13 0.346701 0.113123 0.956647
O O14 0.000000 0.587245 0.000000
#
# Coordination Sequence:
#
# PCOD9120958 Si02
#       6
#     4   4   4   4   4   4
#     4  11  20  34  57  89 118 149 192 245 289 330
#     4  11  21  37  58  81 116 158 195 234 281 358
#     4   9  17  35  62  84 104 144 205 238 266 335
#     4  10  18  37  59  84 108 155 198 235 275 354
#     4   9  18  35  57  82 108 152 194 236 266 355
#     4  12  23  36  56  89 121 149 187 247 301 332
#
# _framework density 17.098468
#
# number of rings (size 3 to 8) (size 9 to 14) (size 15 to 20)
#    1.000    0.667    3.333    3.500    0.000    0.000 
#    0.000    3.333    0.000    0.000    0.000    0.000 
#    0.000    0.000    0.000    0.000    0.000    0.000 
#
# Total GULP energy -66886.329564 kJ/mol
# GULP energy per Si atom -5573.860797 kJ/mol
# Density = 1.705955 g / cm^3
# Si number density = 17.098468 Si / 1000 Ang^3
#
#
#
# Elastic Constant Matrix: (Units=GPa)
#
#
# Indices 1 2 3 4 5 6 
#
# 1 90.6381 25.1089 66.5416 0.0000 -0.2705 0.0000
# 2 25.1089 57.3268 46.3346 0.0000 -2.2174 0.0000
# 3 66.5416 46.3346 163.0102 -0.0001 -3.7318 0.0000
# 4 0.0000 0.0000 -0.0001 -25.0826 0.0000 22.5301
# 5 -0.2705 -2.2174 -3.7318 0.0000 37.7360 0.0000
# 6 0.0000 0.0000 0.0000 22.5301 0.0000 13.4685
#
#
#
# Elastic Compliance Matrix: (Units=1/GPa)
#
#
# Indices 1 2 3 4 5 6 
#
# 1 0.015986 -0.002259 -0.005898 0.000000 -0.000601 0.000000
# 2 -0.002259 0.022984 -0.005593 0.000000 0.000781 0.000000
# 3 -0.005898 -0.005593 0.010146 0.000000 0.000632 0.000000
# 4 0.000000 0.000000 0.000000 -0.015931 0.000000 0.026649
# 5 -0.000601 0.000781 0.000632 0.000000 0.026604 0.000000
# 6 0.000000 0.000000 0.000000 0.026649 0.000000 0.029669
#
#
# Mechanical properties :
#
#
# Convention : Reuss Voigt Hill
#
# Bulk Modulus (GPa) = 46.25743 65.21614 55.73678
# Shear Modulus (GPa) = 40.26964 16.75704 28.51334
#
# Velocity S-wave (km/s) = 4.85826 3.13394 4.08805
# Velocity P-wave (km/s) = 7.65393 7.16378 7.41291
#
# Compressibility (1/GPa) = 0.02161815
#
# Stress axis : x y z
#
# Youngs Moduli (GPa) = 62.55317 43.50844 98.55816
#
# Poissons Ratio (x) = 0.09827 0.58125
# Poissons Ratio (y) = 0.14128 0.55126
# Poissons Ratio (z) = 0.36891 0.24335
#
# Static dielectric constant tensor:
#      x y z
#    x 1.573190 0.000000 -0.000610 
#    y 0.000000 1.576890 0.000000 
#    z -0.000610 0.000000 1.569300 
# 
# From -- ./inp_files/15737.got.cif
#   From: 2010.05.17/outbox.cif.g08.bks.cpg/sg5_8_cif.got.tgz:15737.got - 2010.06.03 18:56:24.
