data_PCOD9120961
_publ_section_title
;
Structure prediction by ZEFSAII (Michael W. Deem and Ramdas Pophale) SiO2 
 PCOD9120961
Probable space group: C 2
;
_chemical_formula_sum "Si O2"
_cell_formula_units_Z 26
_cell_length_a 9.937292
_cell_length_b 16.909663
_cell_length_c 7.863961
_cell_angle_alpha 90.000000
_cell_angle_beta 93.947201
_cell_angle_gamma 90.000000
_cell_volume 1318.296032
_symmetry_space_group_name_H-M "C 2"
_symmetry_group_IT_number 5
_symmetry_cell_setting 'monoclinic'
loop_
_space_group_symop_operation_xyz
x,y,z
-x,y,-z
1/2+x,1/2+y,z
1/2-x,1/2+y,-z
loop_
_atom_site_type_symbol
_atom_site_label
_atom_site_fract_x
_atom_site_fract_y
_atom_site_fract_z
Si Si1 0.386325 0.463930 0.346545
Si Si2 0.500000 0.454646 0.000000
Si Si3 0.404827 0.023354 0.656474
Si Si4 0.779190 0.788705 0.249022
Si Si5 0.506274 0.858009 0.300058
Si Si6 0.790843 0.824878 0.856986
Si Si7 0.479652 0.192383 0.794539
O O1 0.500000 0.471313 0.500000
O O2 0.252108 0.508936 0.395497
O O3 0.345466 0.371000 0.320793
O O4 0.429841 0.493647 0.159922
O O5 0.387374 0.400287 0.895968
O O6 0.500000 0.027347 0.500000
O O7 0.427973 0.105813 0.750209
O O8 0.445832 0.943896 0.764532
O O9 0.622338 0.792593 0.283833
O O10 0.882531 0.717006 0.291344
O O11 0.774979 0.792608 0.045218
O O12 0.500000 0.867509 0.500000
O O13 0.357332 0.841233 0.223100
O O14 0.870513 0.761380 0.750072
O O15 0.500000 0.196433 0.000000
#
# Coordination Sequence:
#
# PCOD9120961 Si02
#       7
#     4   2   4   4   4   4   4
#     4  10  21  39  64  90 126 159 213 258 303 369
#     4  10  20  36  68  98 114 168 208 262 308 356
#     4  10  24  39  54  92 125 159 201 248 317 365
#     4   9  19  36  59  91 111 158 198 250 308 355
#     4  10  22  35  58  90 119 152 195 253 304 357
#     4  10  18  37  61  88 119 145 213 249 294 374
#     4  10  20  39  61  84 117 159 205 246 304 375
#
# _framework density 19.722428000000001
#
# number of rings (size 3 to 8) (size 9 to 14) (size 15 to 20)
#    0.000    2.154    3.846    0.462    6.462    5.538 
#    0.000    2.308    3.385    0.000    0.000    0.000 
#    0.000    0.000    0.000    0.000    0.000    0.000 
#
# Total GULP energy -72426.077099 kJ/mol
# GULP energy per Si atom -5571.236700 kJ/mol
# Density = 1.967754 g / cm^3
# Si number density = 19.722428 Si / 1000 Ang^3
#
#
#
# Elastic Constant Matrix: (Units=GPa)
#
#
# Indices 1 2 3 4 5 6 
#
# 1 181.4619 57.8542 51.1271 0.0000 27.8353 0.0000
# 2 57.8542 71.7498 22.6781 0.0000 20.0844 0.0000
# 3 51.1271 22.6781 58.3834 0.0000 6.9810 0.0000
# 4 0.0000 0.0000 0.0000 17.7978 0.0000 -1.3679
# 5 27.8353 20.0844 6.9810 0.0000 39.4407 0.0000
# 6 0.0000 0.0000 0.0000 -1.3679 0.0000 21.0357
#
#
#
# Elastic Compliance Matrix: (Units=1/GPa)
#
#
# Indices 1 2 3 4 5 6 
#
# 1 0.009089 -0.004653 -0.005791 0.000000 -0.003020 0.000000
# 2 -0.004653 0.020523 -0.003106 0.000000 -0.006617 0.000000
# 3 -0.005791 -0.003106 0.023219 0.000000 0.001559 0.000000
# 4 0.000000 0.000000 0.000000 0.056469 0.000000 0.003672
# 5 -0.003020 -0.006617 0.001559 0.000000 0.030580 0.000000
# 6 0.000000 0.000000 0.000000 0.003672 0.000000 0.047777
#
#
# Mechanical properties :
#
#
# Convention : Reuss Voigt Hill
#
# Bulk Modulus (GPa) = 38.86219 63.87931 51.37075
# Shear Modulus (GPa) = 22.38788 27.65056 25.01922
#
# Velocity S-wave (km/s) = 3.37285 3.74837 3.56556
# Velocity P-wave (km/s) = 5.90893 7.15494 6.56158
#
# Compressibility (1/GPa) = 0.02573195
#
# Stress axis : x y z
#
# Youngs Moduli (GPa) = 110.02045 48.72501 43.06739
#
# Poissons Ratio (x) = 0.22672 0.24940
# Poissons Ratio (y) = 0.51194 0.13376
# Poissons Ratio (z) = 0.63712 0.15134
#
# Static dielectric constant tensor:
#      x y z
#    x 1.829670 0.000000 -0.008950 
#    y 0.000000 1.731520 0.000000 
#    z -0.008950 0.000000 1.695050 
# 
# From -- ./inp_files/15774.got.cif
#   From: 2010.05.17/outbox.cif.g08.bks.cpg/sg5_8_cif.got.tgz:15774.got - 2010.06.03 18:56:24.
