data_PCOD9120930
_publ_section_title
;
Structure prediction by ZEFSAII (Michael W. Deem and Ramdas Pophale) SiO2 
 PCOD9120930
Probable space group: C 2
;
_chemical_formula_sum "Si O2"
_cell_formula_units_Z 22
_cell_length_a 19.535727
_cell_length_b 5.175178
_cell_length_c 13.206500
_cell_angle_alpha 90.000000
_cell_angle_beta 137.329962
_cell_angle_gamma 90.000000
_cell_volume 904.957785
_symmetry_space_group_name_H-M "C 2"
_symmetry_group_IT_number 5
_symmetry_cell_setting 'monoclinic'
loop_
_space_group_symop_operation_xyz
x,y,z
-x,y,-z
1/2+x,1/2+y,z
1/2-x,1/2+y,-z
loop_
_atom_site_type_symbol
_atom_site_label
_atom_site_fract_x
_atom_site_fract_y
_atom_site_fract_z
Si Si1 0.139668 0.947640 0.307719
Si Si2 0.000000 0.774856 0.500000
Si Si3 0.834037 0.707878 0.459329
Si Si4 0.631855 0.937110 0.176735
Si Si5 0.364185 0.029814 0.048640
Si Si6 0.121298 0.031956 0.811499
O O1 0.119389 0.882548 0.401432
O O2 0.112658 0.702528 0.211951
O O3 0.262260 0.993765 0.433237
O O4 0.094484 0.198419 0.204650
O O5 0.918321 0.612774 0.474452
O O6 0.940326 0.948912 0.354084
O O7 0.752509 0.879193 0.310369
O O8 0.602503 0.961090 0.028490
O O9 0.401660 0.813377 0.168202
O O10 0.394723 0.313516 0.119459
O O11 0.241555 0.024136 0.918467
#
# Coordination Sequence:
#
# PCOD9120930 Si02
#       6
#     4   2   4   4   4   4
#     4  10  19  36  62  90 124 162 218 242 308 378
#     4  12  24  44  62 106 132 156 208 284 334 332
#     4  10  21  37  62  97 127 166 206 269 307 379
#     4  10  18  36  65  87 109 168 213 257 278 384
#     4  10  20  39  61  84 121 170 215 232 314 392
#     4  10  22  38  57  88 127 164 198 262 309 385
#
# _framework density 24.310528999999999
#
# number of rings (size 3 to 8) (size 9 to 14) (size 15 to 20)
#    1.091    0.727    3.636    1.091    0.000    2.182 
#    3.273    0.000    0.000    6.545    0.000    0.000 
#    0.000    0.000    0.000    0.000    0.000    0.000 
#
# Total GULP energy -61539.414974 kJ/mol
# GULP energy per Si atom -5594.492270 kJ/mol
# Density = 2.425520 g / cm^3
# Si number density = 24.310529 Si / 1000 Ang^3
#
#
#
# Elastic Constant Matrix: (Units=GPa)
#
#
# Indices 1 2 3 4 5 6 
#
# 1 117.6799 14.6409 32.2818 0.0000 -4.8853 0.0000
# 2 14.6409 111.0182 3.1224 0.0001 -4.3963 0.0000
# 3 32.2818 3.1224 98.5815 0.0000 -1.3827 0.0000
# 4 0.0000 0.0001 0.0000 21.8204 0.0000 -0.7743
# 5 -4.8853 -4.3963 -1.3827 0.0000 39.8681 0.0000
# 6 0.0000 0.0000 0.0000 -0.7743 0.0000 13.2572
#
#
#
# Elastic Compliance Matrix: (Units=1/GPa)
#
#
# Indices 1 2 3 4 5 6 
#
# 1 0.009519 -0.001132 -0.003068 0.000000 0.000935 0.000000
# 2 -0.001132 0.009189 0.000092 0.000000 0.000878 0.000000
# 3 -0.003068 0.000092 0.011146 0.000000 0.000021 0.000000
# 4 0.000000 0.000000 0.000000 0.045924 0.000000 0.002682
# 5 0.000935 0.000878 0.000021 0.000000 0.025295 0.000000
# 6 0.000000 0.000000 0.000000 0.002682 0.000000 0.075587
#
#
# Mechanical properties :
#
#
# Convention : Reuss Voigt Hill
#
# Bulk Modulus (GPa) = 46.21600 47.48552 46.85076
# Shear Modulus (GPa) = 26.02964 33.47143 29.75054
#
# Velocity S-wave (km/s) = 3.27573 3.71459 3.50204
# Velocity P-wave (km/s) = 5.77574 6.16221 5.97210
#
# Compressibility (1/GPa) = 0.02163753
#
# Stress axis : x y z
#
# Youngs Moduli (GPa) = 105.05377 108.82584 89.71853
#
# Poissons Ratio (x) = 0.12319 0.27527
# Poissons Ratio (y) = 0.11892 -0.00825
# Poissons Ratio (z) = 0.32232 -0.01001
#
# Static dielectric constant tensor:
#      x y z
#    x 2.019690 0.000000 0.064040 
#    y 0.000000 1.845250 0.000000 
#    z 0.064040 0.000000 1.897920 
# 
# From -- ./inp_files/46829.got.cif
#   From: 2010.05.17/outbox.cif.g08.bks.cpg/sg5_24_cif.got.tgz:46829.got - 2010.06.03 18:56:24.
