data_PCOD9120327
_publ_section_title
;
Structure prediction by ZEFSAII (Michael W. Deem and Ramdas Pophale) SiO2 
 PCOD9120327
Probable space group: C 2
;
_chemical_formula_sum "Si O2"
_cell_formula_units_Z 22
_cell_length_a 28.415614
_cell_length_b 6.716771
_cell_length_c 11.825120
_cell_angle_alpha 90.000000
_cell_angle_beta 155.653102
_cell_angle_gamma 90.000000
_cell_volume 930.453300
_symmetry_space_group_name_H-M "C 2"
_symmetry_group_IT_number 5
_symmetry_cell_setting 'monoclinic'
loop_
_space_group_symop_operation_xyz
x,y,z
-x,y,-z
1/2+x,1/2+y,z
1/2-x,1/2+y,-z
loop_
_atom_site_type_symbol
_atom_site_label
_atom_site_fract_x
_atom_site_fract_y
_atom_site_fract_z
Si Si1 0.415091 0.598130 0.218775
Si Si2 0.539656 0.526696 0.276932
Si Si3 0.344320 0.428483 0.671015
Si Si4 0.500000 0.201595 0.500000
Si Si5 0.119106 0.474497 0.315458
Si Si6 0.147890 0.629716 0.618878
O O1 0.500000 0.677816 0.500000
O O2 0.476393 0.650674 0.235355
O O3 0.419862 0.357659 0.253930
O O4 0.283233 0.655386 0.934022
O O5 0.634545 0.579524 0.388511
O O6 0.596633 0.343626 0.469069
O O7 0.432659 0.470702 0.963817
O O8 0.221384 0.412232 0.456967
O O9 0.374749 0.214150 0.688909
O O10 0.579103 0.086681 0.583758
O O11 0.130733 0.473196 0.477745
O O12 0.000000 0.406533 0.000000
#
# Coordination Sequence:
#
# PCOD9120327 Si02
#       6
#     4   4   4   2   4   4
#     4   9  18  33  58  78 107 147 188 228 276 324
#     4   9  17  35  58  80 107 151 184 223 288 332
#     4  10  19  36  60  84 115 149 185 232 285 340
#     4   8  20  34  56  82 104 146 190 222 284 326
#     4  11  21  37  59  86 118 149 185 231 285 338
#     4  10  17  36  61  76 112 150 183 232 278 333
#
# _framework density 23.644390000000001
#
# number of rings (size 3 to 8) (size 9 to 14) (size 15 to 20)
#    0.545    1.818    5.455    0.000    0.000    0.000 
#    6.545    0.000   10.000    0.000    0.000    0.000 
#    0.000    0.000    0.000    0.000    0.000    0.000 
#
# Total GULP energy -61322.278849 kJ/mol
# GULP energy per Si atom -5574.752623 kJ/mol
# Density = 2.359057 g / cm^3
# Si number density = 23.644390 Si / 1000 Ang^3
#
#
#
# Elastic Constant Matrix: (Units=GPa)
#
#
# Indices 1 2 3 4 5 6 
#
# 1 235.5501 27.8455 114.4190 0.0000 36.1804 0.0000
# 2 27.8455 29.9810 23.3337 0.0000 11.7297 0.0000
# 3 114.4190 23.3337 167.1966 0.0000 31.0785 0.0000
# 4 0.0000 0.0000 0.0000 21.5267 0.0000 10.7633
# 5 36.1804 11.7297 31.0785 0.0000 47.5615 0.0000
# 6 0.0000 0.0000 0.0000 10.7633 0.0000 31.7681
#
#
#
# Elastic Compliance Matrix: (Units=1/GPa)
#
#
# Indices 1 2 3 4 5 6 
#
# 1 0.006731 -0.002447 -0.003899 0.000000 -0.001969 0.000000
# 2 -0.002447 0.040234 -0.002780 0.000000 -0.006245 0.000000
# 3 -0.003899 -0.002780 0.009514 0.000000 -0.002565 0.000000
# 4 0.000000 0.000000 0.000000 0.055928 0.000000 -0.018949
# 5 -0.001969 -0.006245 -0.002565 0.000000 0.025740 0.000000
# 6 0.000000 0.000000 0.000000 -0.018949 0.000000 0.037898
#
#
# Mechanical properties :
#
#
# Convention : Reuss Voigt Hill
#
# Bulk Modulus (GPa) = 26.15889 84.88045 55.51967
# Shear Modulus (GPa) = 24.15019 37.97992 31.06505
#
# Velocity S-wave (km/s) = 3.19939 4.01221 3.62863
# Velocity P-wave (km/s) = 4.97349 7.57895 6.41000
#
# Compressibility (1/GPa) = 0.03822792
#
# Stress axis : x y z
#
# Youngs Moduli (GPa) = 148.56849 24.85487 105.11048
#
# Poissons Ratio (x) = 0.06081 0.40979
# Poissons Ratio (y) = 0.36351 0.29218
# Poissons Ratio (z) = 0.57922 0.06909
#
# Static dielectric constant tensor:
#      x y z
#    x 1.976860 0.000000 0.004980 
#    y 0.000000 2.106640 0.000000 
#    z 0.004980 0.000000 1.801100 
# 
# From -- ./inp_files/47994.got.cif
#   From: 2010.05.17/outbox.cif.g08.bks.cpg/sg5_24_cif.got.tgz:47994.got - 2010.06.03 18:56:24.
