data_PCOD9120117
_publ_section_title
;
Structure prediction by ZEFSAII (Michael W. Deem and Ramdas Pophale) SiO2 
 PCOD9120117
Probable space group: C 2
;
_chemical_formula_sum "Si O2"
_cell_formula_units_Z 22
_cell_length_a 26.180104
_cell_length_b 9.228032
_cell_length_c 16.361378
_cell_angle_alpha 90.000000
_cell_angle_beta 163.524152
_cell_angle_gamma 90.000000
_cell_volume 1121.046515
_symmetry_space_group_name_H-M "C 2"
_symmetry_group_IT_number 5
_symmetry_cell_setting 'monoclinic'
loop_
_space_group_symop_operation_xyz
x,y,z
-x,y,-z
1/2+x,1/2+y,z
1/2-x,1/2+y,-z
loop_
_atom_site_type_symbol
_atom_site_label
_atom_site_fract_x
_atom_site_fract_y
_atom_site_fract_z
Si Si1 0.535119 0.177890 0.310424
Si Si2 0.109769 0.696909 0.085294
Si Si3 0.000000 0.420917 0.500000
Si Si4 0.783968 0.018454 0.807895
Si Si5 0.652364 0.633719 0.796053
Si Si6 0.969586 0.023764 0.674873
O O1 0.710731 0.110988 0.620951
O O2 0.535836 0.349923 0.328495
O O3 0.511985 0.150222 0.178592
O O4 0.354021 0.111840 0.073924
O O5 0.278748 0.591533 0.358087
O O6 0.183749 0.854672 0.172710
O O7 0.000000 0.706560 0.000000
O O8 0.127604 0.509992 0.636618
O O9 0.114846 0.306659 0.730873
O O10 0.957609 0.072586 0.124414
O O11 0.500000 0.571015 0.500000
O O12 0.606855 0.576276 0.815255
#
# Coordination Sequence:
#
# PCOD9120117 Si02
#       6
#     4   4   2   4   4   4
#     4  11  24  39  62  98 125 158 205 251 306 368
#     4  11  24  45  67  83 119 169 210 256 306 356
#     4  10  16  40  60  92 126 162 192 238 304 376
#     4  11  23  41  65  94 125 159 201 253 309 370
#     4  10  17  37  63  87 124 164 192 238 302 368
#     4  11  21  42  61  93 127 157 206 252 304 368
#
# _framework density 19.62452
#
# number of rings (size 3 to 8) (size 9 to 14) (size 15 to 20)
#    0.545    0.727    7.273    1.091    0.000    4.364 
#    4.909    0.909    0.000    0.000    0.000    0.000 
#    0.000    0.000    0.000    0.000    0.000    0.000 
#
# Total GULP energy -61389.518920 kJ/mol
# GULP energy per Si atom -5580.865356 kJ/mol
# Density = 1.957985 g / cm^3
# Si number density = 19.624520 Si / 1000 Ang^3
#
#
#
# Elastic Constant Matrix: (Units=GPa)
#
#
# Indices 1 2 3 4 5 6 
#
# 1 118.7770 31.0214 51.9366 0.0000 -19.7832 0.0000
# 2 31.0214 42.0608 40.1962 0.0000 -25.5453 0.0000
# 3 51.9366 40.1962 85.8883 0.0000 -52.9905 0.0000
# 4 0.0000 0.0000 0.0000 18.1516 0.0000 -26.2679
# 5 -19.7832 -25.5453 -52.9905 0.0000 42.4451 0.0000
# 6 0.0000 0.0000 0.0000 -26.2679 0.0000 3.0271
#
#
#
# Elastic Compliance Matrix: (Units=1/GPa)
#
#
# Indices 1 2 3 4 5 6 
#
# 1 0.014403 -0.004752 -0.017881 0.000000 -0.018471 0.000000
# 2 -0.004752 0.044687 -0.012246 0.000000 0.009390 0.000000
# 3 -0.017881 -0.012246 0.080515 0.000000 0.084814 0.000000
# 4 0.000000 0.000000 0.000000 -0.004767 0.000000 -0.041363
# 5 -0.018471 0.009390 0.084814 0.000000 0.126489 0.000000
# 6 0.000000 0.000000 0.000000 -0.041363 0.000000 -0.028583
#
#
# Mechanical properties :
#
#
# Convention : Reuss Voigt Hill
#
# Bulk Modulus (GPa) = 14.31743 54.78158 34.54951
# Shear Modulus (GPa) = 15.34758 20.96290 18.15524
#
# Velocity S-wave (km/s) = 2.79957 3.27188 3.04490
# Velocity P-wave (km/s) = 4.21446 6.49993 5.47771
#
# Compressibility (1/GPa) = 0.06984493
#
# Stress axis : x y z
#
# Youngs Moduli (GPa) = 69.43217 22.37806 12.42003
#
# Poissons Ratio (x) = 0.10634 0.22209
# Poissons Ratio (y) = 0.32994 0.15210
# Poissons Ratio (z) = 1.24153 0.27405
#
# Static dielectric constant tensor:
#      x y z
#    x 1.671440 0.000000 -0.021140 
#    y 0.000000 1.660350 0.000000 
#    z -0.021140 0.000000 1.736290 
# 
# From -- ./inp_files/52061.got.cif
#   From: 2010.05.17/outbox.cif.g08.bks.cpg/sg5_27_cif.got.tgz:52061.got - 2010.06.03 18:56:24.
