data_PCOD9120455
_publ_section_title
;
Structure prediction by ZEFSAII (Michael W. Deem and Ramdas Pophale) SiO2 
 PCOD9120455
Probable space group: C 2
;
_chemical_formula_sum "Si O2"
_cell_formula_units_Z 30
_cell_length_a 19.089596
_cell_length_b 7.075021
_cell_length_c 8.045187
_cell_angle_alpha 90.000000
_cell_angle_beta 84.683879
_cell_angle_gamma 90.000000
_cell_volume 1081.903536
_symmetry_space_group_name_H-M "C 2"
_symmetry_group_IT_number 5
_symmetry_cell_setting 'monoclinic'
loop_
_space_group_symop_operation_xyz
x,y,z
-x,y,-z
1/2+x,1/2+y,z
1/2-x,1/2+y,-z
loop_
_atom_site_type_symbol
_atom_site_label
_atom_site_fract_x
_atom_site_fract_y
_atom_site_fract_z
Si Si1 0.641708 0.714060 0.622407
Si Si2 0.906581 0.783276 0.919441
Si Si3 0.225468 0.757011 0.235914
Si Si4 0.338382 0.306534 0.274785
Si Si5 0.980714 0.711273 0.333196
Si Si6 0.791259 0.319732 0.859719
Si Si7 0.918641 0.336897 0.008190
Si Si8 0.000000 0.351316 0.500000
O O1 0.722081 0.796593 0.622023
O O2 0.657749 0.491652 0.614580
O O3 0.575255 0.755651 0.517923
O O4 0.611297 0.773393 0.808617
O O5 0.854974 0.817889 0.773531
O O6 0.908188 0.562498 0.980224
O O7 0.984034 0.815848 0.828543
O O8 0.871330 0.874523 0.088891
O O9 0.216685 0.528610 0.215909
O O10 0.261254 0.821680 0.053941
O O11 0.397989 0.176070 0.339282
O O12 0.264734 0.211246 0.242769
O O13 0.013178 0.502473 0.347138
O O14 0.000000 0.812936 0.500000
O O15 0.870196 0.251286 0.871627
O O16 0.000000 0.288702 0.000000
#
# Coordination Sequence:
#
# PCOD9120455 Si02
#       8
#     4   4   4   4   4   4   4   2
#     4  10  20  34  54  84 115 147 179 229 288 332
#     4  10  18  35  60  85 109 141 193 236 269 324
#     4   8  16  30  53  78 111 139 177 231 278 326
#     4  10  19  34  59  83 108 142 186 240 279 323
#     4  10  23  37  56  78 111 152 192 224 273 335
#     4   8  16  29  48  83 106 139 174 228 289 316
#     4  10  18  30  55  84 113 143 183 235 272 320
#     4  10  22  36  56  74 114 160 190 210 274 348
#
# _framework density 27.728905999999998
#
# number of rings (size 3 to 8) (size 9 to 14) (size 15 to 20)
#    0.400    2.133    0.000    2.800    0.933    2.133 
#    0.000    0.000   11.733    0.000    0.000    0.000 
#    0.000    0.000    0.000    0.000    0.000    0.000 
#
# Total GULP energy -83695.020825 kJ/mol
# GULP energy per Si atom -5579.668055 kJ/mol
# Density = 2.766579 g / cm^3
# Si number density = 27.728906 Si / 1000 Ang^3
#
#
#
# Elastic Constant Matrix: (Units=GPa)
#
#
# Indices 1 2 3 4 5 6 
#
# 1 190.8530 23.1072 49.5595 0.0000 79.8823 0.0000
# 2 23.1072 78.6541 17.1855 0.0000 15.1878 0.0000
# 3 49.5595 17.1855 110.5440 0.0000 25.6873 0.0000
# 4 0.0000 0.0000 0.0000 17.8558 0.0000 12.8084
# 5 79.8823 15.1878 25.6873 0.0000 70.7869 0.0000
# 6 0.0000 0.0000 0.0000 12.8084 0.0000 23.5405
#
#
#
# Elastic Compliance Matrix: (Units=1/GPa)
#
#
# Indices 1 2 3 4 5 6 
#
# 1 0.010379 -0.000504 -0.002051 0.000000 -0.010860 0.000000
# 2 -0.000504 0.013529 -0.001458 0.000000 -0.001805 0.000000
# 3 -0.002051 -0.001458 0.010464 0.000000 -0.001170 0.000000
# 4 0.000000 0.000000 0.000000 0.091855 0.000000 -0.049979
# 5 -0.010860 -0.001805 -0.001170 0.000000 0.027194 0.000000
# 6 0.000000 0.000000 0.000000 -0.049979 0.000000 0.069673
#
#
# Mechanical properties :
#
#
# Convention : Reuss Voigt Hill
#
# Bulk Modulus (GPa) = 37.95649 62.19506 50.07578
# Shear Modulus (GPa) = 20.84180 41.78322 31.31251
#
# Velocity S-wave (km/s) = 2.74456 3.88602 3.36406
# Velocity P-wave (km/s) = 4.87459 6.52789 5.76085
#
# Compressibility (1/GPa) = 0.02634595
#
# Stress axis : x y z
#
# Youngs Moduli (GPa) = 96.35116 73.91514 95.56363
#
# Poissons Ratio (x) = 0.03725 0.19602
# Poissons Ratio (y) = 0.04855 0.13932
# Poissons Ratio (z) = 0.19763 0.10776
#
# Static dielectric constant tensor:
#      x y z
#    x 2.246920 0.000000 0.047170 
#    y 0.000000 2.197990 0.000000 
#    z 0.047170 0.000000 2.225750 
# 
# From -- ./inp_files/28972.got.cif
#   From: 2010.05.17/outbox.cif.g08.bks.cpg/sg5_15_cif.got.tgz:28972.got - 2010.06.03 18:56:24.
