data_PCOD9120294
_publ_section_title
;
Structure prediction by ZEFSAII (Michael W. Deem and Ramdas Pophale) SiO2 
 PCOD9120294
Probable space group: C 2
;
_chemical_formula_sum "Si O2"
_cell_formula_units_Z 30
_cell_length_a 11.104023
_cell_length_b 16.257491
_cell_length_c 10.196678
_cell_angle_alpha 90.000000
_cell_angle_beta 132.033535
_cell_angle_gamma 90.000000
_cell_volume 1367.215675
_symmetry_space_group_name_H-M "C 2"
_symmetry_group_IT_number 5
_symmetry_cell_setting 'monoclinic'
loop_
_space_group_symop_operation_xyz
x,y,z
-x,y,-z
1/2+x,1/2+y,z
1/2-x,1/2+y,-z
loop_
_atom_site_type_symbol
_atom_site_label
_atom_site_fract_x
_atom_site_fract_y
_atom_site_fract_z
Si Si1 0.771029 0.895150 0.041410
Si Si2 0.448075 0.130289 0.152878
Si Si3 0.597234 0.399799 0.435035
Si Si4 0.149365 0.055907 0.015127
Si Si5 0.315253 0.267335 0.884305
Si Si6 0.944873 0.081206 0.610939
Si Si7 0.500000 0.986602 0.000000
Si Si8 0.246801 0.741054 0.448951
O O1 0.651198 0.930338 0.065280
O O2 0.951340 0.882270 0.227398
O O3 0.788756 0.962601 0.939537
O O4 0.720357 0.813092 0.930220
O O5 0.576926 0.191744 0.307967
O O6 0.522782 0.048144 0.141164
O O7 0.307856 0.109445 0.153362
O O8 0.355650 0.177158 0.967477
O O9 0.500000 0.398464 0.500000
O O10 0.654060 0.494208 0.452094
O O11 0.723336 0.325055 0.512691
O O12 0.086762 0.067598 0.819999
O O13 0.000000 0.070869 0.000000
O O14 0.221302 0.266117 0.679436
O O15 0.500000 0.302880 0.000000
O O16 0.863345 0.168633 0.582834
O O17 0.000000 0.085997 0.500000
#
# Coordination Sequence:
#
# PCOD9120294 Si02
#       8
#     4   4   4   4   4   4   2   4
#     4  10  20  37  60  95 121 161 212 273 313 387
#     4  10  19  35  63  93 119 172 217 256 314 397
#     4  10  22  38  61  89 126 170 215 261 332 392
#     4  10  22  38  62  93 130 160 212 273 330 373
#     4  10  17  34  63  90 116 158 217 256 312 376
#     4  10  23  41  65  92 129 176 222 262 325 400
#     4  10  20  34  60  94 128 158 216 266 316 384
#     4  11  21  38  68  88 126 174 222 264 321 394
#
# _framework density 21.942405000000001
#
# number of rings (size 3 to 8) (size 9 to 14) (size 15 to 20)
#    0.000    1.867    4.667    1.200    7.467    1.067 
#    1.200    1.333    0.000    0.000    0.000    0.000 
#    0.000    0.000    0.000    0.000    0.000    0.000 
#
# Total GULP energy -83616.608819 kJ/mol
# GULP energy per Si atom -5574.440588 kJ/mol
# Density = 2.189246 g / cm^3
# Si number density = 21.942405 Si / 1000 Ang^3
#
#
#
# Elastic Constant Matrix: (Units=GPa)
#
#
# Indices 1 2 3 4 5 6 
#
# 1 91.0674 37.0486 -9.2441 0.0000 5.7735 0.0000
# 2 37.0486 130.1118 10.1845 0.0000 11.1805 0.0000
# 3 -9.2441 10.1845 19.9493 0.0000 -2.5669 0.0000
# 4 0.0000 0.0000 0.0000 17.6019 0.0000 0.4462
# 5 5.7735 11.1805 -2.5669 0.0000 13.7741 0.0000
# 6 0.0000 0.0000 0.0000 0.4462 0.0000 38.8011
#
#
#
# Elastic Compliance Matrix: (Units=1/GPa)
#
#
# Indices 1 2 3 4 5 6 
#
# 1 0.013735 -0.004547 0.008627 0.000000 -0.000459 0.000000
# 2 -0.004547 0.010331 -0.008417 0.000000 -0.008048 0.000000
# 3 0.008627 -0.008417 0.060281 0.000000 0.014450 0.000000
# 4 0.000000 0.000000 0.000000 0.056829 0.000000 -0.000654
# 5 -0.000459 -0.008048 0.014450 0.000000 0.082018 0.000000
# 6 0.000000 0.000000 0.000000 -0.000654 0.000000 0.025780
#
#
# Mechanical properties :
#
#
# Convention : Reuss Voigt Hill
#
# Bulk Modulus (GPa) = 13.21457 35.23404 24.22431
# Shear Modulus (GPa) = 17.67588 27.57806 22.62697
#
# Velocity S-wave (km/s) = 2.84131 3.54904 3.21471
# Velocity P-wave (km/s) = 4.09873 5.73468 4.98428
#
# Compressibility (1/GPa) = 0.07567405
#
# Stress axis : x y z
#
# Youngs Moduli (GPa) = 72.80407 96.79784 16.58902
#
# Poissons Ratio (x) = 0.44014 -0.14311
# Poissons Ratio (y) = 0.33104 0.13962
# Poissons Ratio (z) = -0.62808 0.81471
#
# Static dielectric constant tensor:
#      x y z
#    x 1.866170 0.000000 0.012510 
#    y 0.000000 1.852900 0.000000 
#    z 0.012510 0.000000 1.824230 
# 
# From -- ./inp_files/40061.got.cif
#   From: 2010.05.17/outbox.cif.g08.bks.cpg/sg5_21_cif.got.tgz:40061.got - 2010.06.03 18:56:24.
