data_PCOD9120695
_publ_section_title
;
Structure prediction by ZEFSAII (Michael W. Deem and Ramdas Pophale) SiO2 
 PCOD9120695
Probable space group: C 2
;
_chemical_formula_sum "Si O2"
_cell_formula_units_Z 32
_cell_length_a 16.879627
_cell_length_b 21.699672
_cell_length_c 9.154921
_cell_angle_alpha 90.000000
_cell_angle_beta 152.842394
_cell_angle_gamma 90.000000
_cell_volume 1530.572959
_symmetry_space_group_name_H-M "C 2"
_symmetry_group_IT_number 5
_symmetry_cell_setting 'monoclinic'
loop_
_space_group_symop_operation_xyz
x,y,z
-x,y,-z
1/2+x,1/2+y,z
1/2-x,1/2+y,-z
loop_
_atom_site_type_symbol
_atom_site_label
_atom_site_fract_x
_atom_site_fract_y
_atom_site_fract_z
Si Si1 0.083246 0.519760 0.845941
Si Si2 0.325892 0.330923 0.309664
Si Si3 0.618040 0.572520 0.838977
Si Si4 0.814384 0.690275 0.278871
Si Si5 0.179753 0.015293 0.476574
Si Si6 0.117541 0.624472 0.333624
Si Si7 0.485499 0.888098 0.640955
Si Si8 0.299517 0.882981 0.607602
O O1 0.964180 0.461759 0.617398
O O2 0.986387 0.582882 0.720584
O O3 0.217405 0.532921 0.938830
O O4 0.190943 0.509462 0.172095
O O5 0.500000 0.341397 0.500000
O O6 0.264883 0.261426 0.175627
O O7 0.317210 0.343513 0.470693
O O8 0.179793 0.377487 0.016720
O O9 0.500000 0.581779 0.500000
O O10 0.508049 0.532403 0.771834
O O11 0.683050 0.638397 0.004224
O O12 0.824852 0.680446 0.471360
O O13 0.000000 0.683212 0.500000
O O14 0.239978 0.075885 0.488197
O O15 0.208229 0.949888 0.447314
O O16 0.000000 0.640392 0.000000
O O17 0.500000 0.866113 0.500000
O O18 0.343145 0.859014 0.515919
O O19 0.500000 0.889046 0.000000
#
# Coordination Sequence:
#
# PCOD9120695 Si02
#       8
#     4   4   4   4   4   4   4   4
#     4  10  18  34  61  90 126 163 205 249 324 393
#     4  10  24  43  67  87 119 178 223 258 312 379
#     4  10  23  35  60  98 130 169 200 269 325 374
#     4  11  23  44  64  90 127 174 220 256 310 394
#     4  10  18  34  58  93 128 156 202 258 323 375
#     4  10  20  37  63  92 122 166 206 256 320 388
#     4  11  23  38  64  98 122 169 213 267 321 383
#     4  10  18  39  63  88 125 168 209 254 316 382
#
# _framework density 20.907204
#
# number of rings (size 3 to 8) (size 9 to 14) (size 15 to 20)
#    0.000    1.750    5.000    0.375    3.500    1.000 
#    6.750    3.125    0.000    0.000    0.000    0.000 
#    0.000    0.000    0.000    0.000    0.000    0.000 
#
# Total GULP energy -89205.738423 kJ/mol
# GULP energy per Si atom -5575.358651 kJ/mol
# Density = 2.085962 g / cm^3
# Si number density = 20.907204 Si / 1000 Ang^3
#
#
#
# Elastic Constant Matrix: (Units=GPa)
#
#
# Indices 1 2 3 4 5 6 
#
# 1 155.0268 19.4778 25.1314 0.0000 15.8460 0.0000
# 2 19.4778 53.8706 6.5275 0.0000 0.6170 0.0000
# 3 25.1314 6.5275 20.8627 0.0000 4.3340 0.0000
# 4 0.0000 0.0000 0.0000 18.0880 0.0000 -8.2295
# 5 15.8460 0.6170 4.3340 0.0000 33.1153 0.0000
# 6 0.0000 0.0000 0.0000 -8.2295 0.0000 47.8588
#
#
#
# Elastic Compliance Matrix: (Units=1/GPa)
#
#
# Indices 1 2 3 4 5 6 
#
# 1 0.008436 -0.001931 -0.008971 0.000000 -0.002827 0.000000
# 2 -0.001931 0.019743 -0.004077 0.000000 0.001090 0.000000
# 3 -0.008971 -0.004077 0.060759 0.000000 -0.003583 0.000000
# 4 0.000000 0.000000 0.000000 0.059978 0.000000 0.010313
# 5 -0.002827 0.001090 -0.003583 0.000000 0.031999 0.000000
# 6 0.000000 0.000000 0.000000 0.010313 0.000000 0.022668
#
#
# Mechanical properties :
#
#
# Convention : Reuss Voigt Hill
#
# Bulk Modulus (GPa) = 16.95512 36.89261 26.92386
# Shear Modulus (GPa) = 19.74711 31.72065 25.73388
#
# Velocity S-wave (km/s) = 3.07663 3.89937 3.51217
# Velocity P-wave (km/s) = 4.55501 6.16097 5.41783
#
# Compressibility (1/GPa) = 0.05897925
#
# Stress axis : x y z
#
# Youngs Moduli (GPa) = 118.53471 50.65152 16.45843
#
# Poissons Ratio (x) = 0.09780 0.14765
# Poissons Ratio (y) = 0.22888 0.06711
# Poissons Ratio (z) = 1.06339 0.20653
#
# Static dielectric constant tensor:
#      x y z
#    x 1.888550 0.000000 -0.030970 
#    y 0.000000 1.705190 0.000000 
#    z -0.030970 0.000000 1.734920 
# 
# From -- ./inp_files/25651.got.cif
#   From: 2010.05.17/outbox.cif.g08.bks.cpg/sg5_13_cif.got.tgz:25651.got - 2010.06.03 18:56:24.
