data_PCOD9120497
_publ_section_title
;
Structure prediction by ZEFSAII (Michael W. Deem and Ramdas Pophale) SiO2 
 PCOD9120497
Probable space group: C 2
;
_chemical_formula_sum "Si O2"
_cell_formula_units_Z 18
_cell_length_a 14.058301
_cell_length_b 4.942012
_cell_length_c 10.961291
_cell_angle_alpha 90.000000
_cell_angle_beta 121.980222
_cell_angle_gamma 90.000000
_cell_volume 645.970173
_symmetry_space_group_name_H-M "C 2"
_symmetry_group_IT_number 5
_symmetry_cell_setting 'monoclinic'
loop_
_space_group_symop_operation_xyz
x,y,z
-x,y,-z
1/2+x,1/2+y,z
1/2-x,1/2+y,-z
loop_
_atom_site_type_symbol
_atom_site_label
_atom_site_fract_x
_atom_site_fract_y
_atom_site_fract_z
Si Si1 0.500000 0.063820 0.500000
Si Si2 0.365858 0.924338 0.885081
Si Si3 0.966627 0.024718 0.320744
Si Si4 0.384952 0.422900 0.001474
Si Si5 0.192475 0.698772 0.410667
O O1 0.417865 0.305350 0.384485
O O2 0.482635 0.827033 0.383088
O O3 0.331244 0.059804 0.735176
O O4 0.500000 0.873256 0.000000
O O5 0.330438 0.130393 0.965913
O O6 0.316920 0.630606 0.873096
O O7 0.910970 0.032636 0.151261
O O8 0.082677 0.866925 0.370732
O O9 0.500000 0.369963 0.000000
O O10 0.216627 0.441270 0.515793
#
# Coordination Sequence:
#
# PCOD9120497 Si02
#       5
#     2   4   4   4   4
#     4  10  24  36  62  82 126 184 208 268 284 344
#     4  10  19  33  54  88 122 156 200 241 325 361
#     4  11  21  41  57  94 127 162 225 250 308 380
#     4  10  18  31  61  84 120 144 201 280 295 350
#     4  12  24  36  59  96 141 165 184 262 344 392
#
# _framework density 27.865062999999999
#
# number of rings (size 3 to 8) (size 9 to 14) (size 15 to 20)
#    0.000    1.333    4.444    4.000    6.222    0.000 
#    0.000    0.000    0.000    0.000    0.000   87.111 
#    0.000    0.000    0.000    0.000    0.000    0.000 
#
# Total GULP energy -50144.396522 kJ/mol
# GULP energy per Si atom -5571.599614 kJ/mol
# Density = 2.780164 g / cm^3
# Si number density = 27.865063 Si / 1000 Ang^3
#
#
#
# Elastic Constant Matrix: (Units=GPa)
#
#
# Indices 1 2 3 4 5 6 
#
# 1 68.1464 3.2443 38.0884 0.0000 11.8603 0.0000
# 2 3.2443 216.0421 21.1171 0.0000 2.3406 0.0000
# 3 38.0884 21.1171 136.8921 0.0000 -15.9171 0.0000
# 4 0.0000 0.0000 0.0000 59.6473 0.0000 -14.8089
# 5 11.8603 2.3406 -15.9171 0.0000 41.4609 0.0000
# 6 0.0000 0.0000 0.0000 -14.8089 0.0000 22.5412
#
#
#
# Elastic Compliance Matrix: (Units=1/GPa)
#
#
# Indices 1 2 3 4 5 6 
#
# 1 0.019704 0.000427 -0.006497 0.000000 -0.008155 0.000000
# 2 0.000427 0.004722 -0.000934 0.000000 -0.000747 0.000000
# 3 -0.006497 -0.000934 0.009922 0.000000 0.005720 0.000000
# 4 0.000000 0.000000 0.000000 0.020033 0.000000 0.013161
# 5 -0.008155 -0.000747 0.005720 0.000000 0.028690 0.000000
# 6 0.000000 0.000000 0.000000 0.013161 0.000000 0.053010
#
#
# Mechanical properties :
#
#
# Convention : Reuss Voigt Hill
#
# Bulk Modulus (GPa) = 49.16145 60.66446 54.91296
# Shear Modulus (GPa) = 31.87408 48.63862 40.25635
#
# Velocity S-wave (km/s) = 3.38579 4.18246 3.80503
# Velocity P-wave (km/s) = 5.74158 6.71878 6.24931
#
# Compressibility (1/GPa) = 0.02034114
#
# Stress axis : x y z
#
# Youngs Moduli (GPa) = 50.75034 211.78716 100.78767
#
# Poissons Ratio (x) = -0.09053 0.65478
# Poissons Ratio (y) = -0.02169 0.09416
# Poissons Ratio (z) = 0.32970 0.19786
#
# Static dielectric constant tensor:
#      x y z
#    x 3.860080 0.000000 0.606760 
#    y 0.000000 2.252790 0.000000 
#    z 0.606760 0.000000 2.666910 
# 
# From -- ./inp_files/45337.got.cif
#   From: 2010.05.17/outbox.cif.g08.bks.cpg/sg5_23_cif.got.tgz:45337.got - 2010.06.03 18:56:24.
