data_PCOD9120761
_publ_section_title
;
Structure prediction by ZEFSAII (Michael W. Deem and Ramdas Pophale) SiO2 
 PCOD9120761
Probable space group: C 2
;
_chemical_formula_sum "Si O2"
_cell_formula_units_Z 22
_cell_length_a 10.140686
_cell_length_b 10.690729
_cell_length_c 18.284466
_cell_angle_alpha 90.000000
_cell_angle_beta 27.498922
_cell_angle_gamma 90.000000
_cell_volume 915.264968
_symmetry_space_group_name_H-M "C 2"
_symmetry_group_IT_number 5
_symmetry_cell_setting 'monoclinic'
loop_
_space_group_symop_operation_xyz
x,y,z
-x,y,-z
1/2+x,1/2+y,z
1/2-x,1/2+y,-z
loop_
_atom_site_type_symbol
_atom_site_label
_atom_site_fract_x
_atom_site_fract_y
_atom_site_fract_z
Si Si1 0.740890 0.126030 0.174289
Si Si2 0.382567 0.559966 0.405128
Si Si3 0.053552 0.657472 0.830578
Si Si4 0.500000 0.869683 0.000000
Si Si5 0.557828 0.811630 0.557777
Si Si6 0.965958 0.061584 0.831087
O O1 0.507248 0.130838 0.224593
O O2 0.836759 0.271877 0.133566
O O3 0.218034 0.181302 0.499473
O O4 0.785854 0.061300 0.230219
O O5 0.721525 0.552486 0.254778
O O6 0.746189 0.445876 0.085018
O O7 0.232729 0.430685 0.496887
O O8 0.378149 0.591288 0.321510
O O9 0.245360 0.781730 0.744801
O O10 0.772854 0.655410 0.017871
O O11 0.500000 0.824319 0.500000
O O12 0.500000 0.563326 0.000000
#
# Coordination Sequence:
#
# PCOD9120761 Si02
#       6
#     4   4   4   2   4   4
#     4   8  20  36  67 105 142 184 229 305 387 437
#     4  10  23  44  80 104 146 203 255 308 372 454
#     4   9  20  43  76 105 147 192 246 307 381 447
#     4  10  18  34  70 100 146 176 224 320 374 416
#     4  10  24  46  73 104 152 204 247 306 381 458
#     4  11  19  40  77 111 135 190 256 309 373 444
#
# _framework density 24.036754999999999
#
# number of rings (size 3 to 8) (size 9 to 14) (size 15 to 20)
#    1.636    0.727    1.818    0.000    2.545    0.000 
#    3.273    4.545   30.000    0.000    9.455    0.000 
#    0.000    0.000    0.000    0.000    0.000    0.000 
#
# Total GULP energy -61249.726566 kJ/mol
# GULP energy per Si atom -5568.156961 kJ/mol
# Density = 2.398205 g / cm^3
# Si number density = 24.036755 Si / 1000 Ang^3
#
#
#
# Elastic Constant Matrix: (Units=GPa)
#
#
# Indices 1 2 3 4 5 6 
#
# 1 147.0512 47.6485 -2.1460 -0.0003 -11.8216 0.0004
# 2 47.6485 125.7291 31.1666 -0.0031 -14.5785 -0.0019
# 3 -2.1460 31.1666 66.4762 -0.0268 -2.0344 -0.0015
# 4 -0.0003 -0.0031 -0.0268 39.2871 0.0002 -13.9446
# 5 -11.8216 -14.5785 -2.0344 0.0002 42.5847 0.0013
# 6 0.0004 -0.0019 -0.0015 -13.9446 0.0013 18.5770
#
#
#
# Elastic Compliance Matrix: (Units=1/GPa)
#
#
# Indices 1 2 3 4 5 6 
#
# 1 0.008012 -0.003366 0.001872 0.000001 0.001161 0.000000
# 2 -0.003366 0.010781 -0.005086 -0.000003 0.002514 -0.000002
# 3 0.001872 -0.005086 0.017476 0.000016 -0.000387 0.000013
# 4 0.000001 -0.000003 0.000016 0.034698 -0.000001 0.026046
# 5 0.001161 0.002514 -0.000387 -0.000001 0.024647 -0.000002
# 6 0.000000 -0.000002 0.000013 0.026046 -0.000002 0.073381
#
#
# Mechanical properties :
#
#
# Convention : Reuss Voigt Hill
#
# Bulk Modulus (GPa) = 43.27254 54.73275 49.00264
# Shear Modulus (GPa) = 26.33532 37.59557 31.96545
#
# Velocity S-wave (km/s) = 3.31362 3.95914 3.65068
# Velocity P-wave (km/s) = 5.71680 6.61208 6.18067
#
# Compressibility (1/GPa) = 0.02310934
#
# Stress axis : x y z
#
# Youngs Moduli (GPa) = 124.81928 92.75199 57.22024
#
# Poissons Ratio (x) = 0.31217 -0.10712
# Poissons Ratio (y) = 0.42010 0.29105
# Poissons Ratio (z) = -0.23368 0.47178
#
# Static dielectric constant tensor:
#      x y z
#    x 1.935980 0.000000 0.015510 
#    y 0.000000 1.979600 0.000010 
#    z 0.015510 0.000010 2.140780 
# 
# From -- ./inp_files/59681.got.cif
#   From: 2010.05.17/outbox.cif.g08.bks.cpg/sg5_30_cif.got.tgz:59681.got - 2010.06.03 18:56:24.
