data_PCOD9120331
_publ_section_title
;
Structure prediction by ZEFSAII (Michael W. Deem and Ramdas Pophale) SiO2 
 PCOD9120331
Probable space group: C 2
;
_chemical_formula_sum "Si O2"
_cell_formula_units_Z 24
_cell_length_a 8.832383
_cell_length_b 18.011942
_cell_length_c 9.174146
_cell_angle_alpha 90.000000
_cell_angle_beta 127.580358
_cell_angle_gamma 90.000000
_cell_volume 1156.651897
_symmetry_space_group_name_H-M "C 2"
_symmetry_group_IT_number 5
_symmetry_cell_setting 'monoclinic'
loop_
_space_group_symop_operation_xyz
x,y,z
-x,y,-z
1/2+x,1/2+y,z
1/2-x,1/2+y,-z
loop_
_atom_site_type_symbol
_atom_site_label
_atom_site_fract_x
_atom_site_fract_y
_atom_site_fract_z
Si Si1 0.194254 0.228160 0.569998
Si Si2 0.712433 0.570449 0.685179
Si Si3 0.077490 0.522963 0.702503
Si Si4 0.299220 0.946440 0.958152
Si Si5 0.937267 0.813344 0.296329
Si Si6 0.781152 0.672213 0.312577
O O1 0.226046 0.159340 0.697668
O O2 0.374917 0.280678 0.668396
O O3 0.168068 0.189420 0.394187
O O4 0.000000 0.267614 0.500000
O O5 0.500000 0.552400 0.500000
O O6 0.743642 0.525045 0.851122
O O7 0.887533 0.547625 0.681274
O O8 0.225118 0.592313 0.767042
O O9 0.000000 0.499631 0.500000
O O10 0.172128 0.459783 0.854860
O O11 0.147317 0.884708 0.828666
O O12 0.500000 0.924822 0.000000
O O13 0.783705 0.745450 0.214532
O O14 0.000000 0.831366 0.500000
O O15 0.000000 0.670158 0.500000
#
# Coordination Sequence:
#
# PCOD9120331 Si02
#       6
#     4   4   4   4   4   4
#     4   9  16  30  64 103 122 162 218 260 318 379
#     4  10  18  33  60  97 126 159 210 266 318 379
#     4  10  17  36  61  93 124 169 214 266 316 370
#     4  10  22  34  61 100 130 172 212 258 325 382
#     4   9  17  35  63  94 130 169 208 258 326 384
#     4   8  14  30  60  91 118 161 210 259 314 365
#
# _framework density 20.749545999999999
#
# number of rings (size 3 to 8) (size 9 to 14) (size 15 to 20)
#    0.000    3.000    5.000    0.500    0.000    0.000 
#    0.000    0.833   14.667   33.000   34.667    0.000 
#    0.000    0.000    0.000    0.000    0.000    0.000 
#
# Total GULP energy -66884.764417 kJ/mol
# GULP energy per Si atom -5573.730368 kJ/mol
# Density = 2.070232 g / cm^3
# Si number density = 20.749546 Si / 1000 Ang^3
#
#
#
# Elastic Constant Matrix: (Units=GPa)
#
#
# Indices 1 2 3 4 5 6 
#
# 1 91.3379 43.8567 29.6452 0.0000 3.8129 0.0000
# 2 43.8567 111.7943 65.5567 0.0000 -6.4900 0.0000
# 3 29.6452 65.5567 84.8895 0.0000 -9.9695 0.0000
# 4 0.0000 0.0000 0.0000 1.3198 0.0000 5.1156
# 5 3.8129 -6.4900 -9.9695 0.0000 25.0405 0.0000
# 6 0.0000 0.0000 0.0000 5.1156 0.0000 9.5558
#
#
#
# Elastic Compliance Matrix: (Units=1/GPa)
#
#
# Indices 1 2 3 4 5 6 
#
# 1 0.013925 -0.004693 -0.001711 0.000000 -0.004018 0.000000
# 2 -0.004693 0.017946 -0.012159 0.000000 0.000525 0.000000
# 3 -0.001711 -0.012159 0.022479 0.000000 0.006059 0.000000
# 4 0.000000 0.000000 0.000000 -0.704788 0.000000 0.377303
# 5 -0.004018 0.000525 0.006059 0.000000 0.043095 0.000000
# 6 0.000000 0.000000 0.000000 0.377303 0.000000 -0.097338
#
#
# Mechanical properties :
#
#
# Convention : Reuss Voigt Hill
#
# Bulk Modulus (GPa) = 58.05381 62.90435 60.47908
# Shear Modulus (GPa) = -7.55497 17.11408 4.77955
#
# Velocity S-wave (km/s) = -1.91022 2.87504 1.51936
# Velocity P-wave (km/s) = 4.81392 6.43451 5.68229
#
# Compressibility (1/GPa) = 0.01722540
#
# Stress axis : x y z
#
# Youngs Moduli (GPa) = 71.81584 55.72142 44.48649
#
# Poissons Ratio (x) = 0.26148 0.07610
# Poissons Ratio (y) = 0.33701 0.54090
# Poissons Ratio (z) = 0.12285 0.67751
#
# Static dielectric constant tensor:
#      x y z
#    x 1.777240 0.000000 0.001760 
#    y 0.000000 1.792510 0.000000 
#    z 0.001760 0.000000 1.759620 
# 
# From -- ./inp_files/16870.got.cif
#   From: 2010.05.17/outbox.cif.g08.bks.cpg/sg5_9_cif.got.tgz:16870.got - 2010.06.03 18:56:24.
