data_PCOD9120009
_publ_section_title
;
Structure prediction by ZEFSAII (Michael W. Deem and Ramdas Pophale) SiO2 
 PCOD9120009
Probable space group: C 2
;
_chemical_formula_sum "Si O2"
_cell_formula_units_Z 32
_cell_length_a 25.137925
_cell_length_b 7.176321
_cell_length_c 22.447530
_cell_angle_alpha 90.000000
_cell_angle_beta 15.950815
_cell_angle_gamma 90.000000
_cell_volume 1112.847475
_symmetry_space_group_name_H-M "C 2"
_symmetry_group_IT_number 5
_symmetry_cell_setting 'monoclinic'
loop_
_space_group_symop_operation_xyz
x,y,z
-x,y,-z
1/2+x,1/2+y,z
1/2-x,1/2+y,-z
loop_
_atom_site_type_symbol
_atom_site_label
_atom_site_fract_x
_atom_site_fract_y
_atom_site_fract_z
Si Si1 0.175296 0.636770 0.978287
Si Si2 0.131665 0.233362 0.990468
Si Si3 0.026728 0.699523 0.688773
Si Si4 0.073915 0.122334 0.674413
Si Si5 0.805583 0.371280 0.746533
Si Si6 0.755896 0.679226 0.656790
Si Si7 0.731855 0.266614 0.643011
Si Si8 0.701971 0.524247 0.316699
O O1 0.751019 0.806300 0.721234
O O2 0.139093 0.625750 0.087834
O O3 0.970940 0.719992 0.172425
O O4 0.330823 0.779160 0.784520
O O5 0.092128 0.170456 0.100342
O O6 0.918220 0.267736 0.193518
O O7 0.221580 0.437015 0.899722
O O8 0.227237 0.619096 0.501055
O O9 0.047770 0.682222 0.594555
O O10 0.037247 0.919894 0.688194
O O11 0.114818 0.262743 0.576362
O O12 0.714383 0.457541 0.699750
O O13 0.000000 0.406196 0.500000
O O14 0.698659 0.199010 0.826309
O O15 0.714790 0.568153 0.861021
O O16 0.787458 0.103924 0.628262
O O17 0.500000 0.518964 0.500000
#
# Coordination Sequence:
#
# PCOD9120009 Si02
#       8
#     4   4   4   4   4   4   4   4
#     4  11  20  38  68 111 154 194 250 319 389 468
#     4  11  20  39  69 110 150 198 254 319 392 460
#     4  10  16  30  61 108 154 187 229 313 408 473
#     4  10  16  30  61 108 154 187 229 313 408 473
#     4  11  26  46  65  98 151 214 266 310 366 446
#     4  11  20  39  69 110 150 198 254 319 392 460
#     4  11  20  38  68 111 154 194 250 319 389 468
#     4  11  26  46  65  98 151 214 266 310 366 446
#
# _framework density 28.755064000000001
#
# number of rings (size 3 to 8) (size 9 to 14) (size 15 to 20)
#    0.000    1.250    5.000    5.250    0.000    2.500 
#    0.000    3.750    0.000    0.000   52.000    0.000 
#    0.000    0.000    0.000    0.000    0.000    0.000 
#
# Total GULP energy -89571.994050 kJ/mol
# GULP energy per Si atom -5598.249628 kJ/mol
# Density = 2.868962 g / cm^3
# Si number density = 28.755064 Si / 1000 Ang^3
#
#
#
# Elastic Constant Matrix: (Units=GPa)
#
#
# Indices 1 2 3 4 5 6 
#
# 1 138.6560 56.8578 33.7103 -0.0024 3.2221 0.0009
# 2 56.8578 238.6459 63.1113 -0.0011 25.3963 0.0009
# 3 33.7103 63.1113 176.8937 -0.0011 41.3900 0.0026
# 4 -0.0024 -0.0011 -0.0011 50.4283 0.0023 17.9378
# 5 3.2221 25.3963 41.3900 0.0023 39.3220 -0.0010
# 6 0.0009 0.0009 0.0026 17.9378 -0.0010 50.8001
#
#
#
# Elastic Compliance Matrix: (Units=1/GPa)
#
#
# Indices 1 2 3 4 5 6 
#
# 1 0.008243 -0.001806 -0.001382 0.000000 0.001945 0.000000
# 2 -0.001806 0.005105 -0.000982 0.000000 -0.002115 0.000000
# 3 -0.001382 -0.000982 0.008083 0.000001 -0.007760 -0.000001
# 4 0.000000 0.000000 0.000001 0.022679 -0.000002 -0.008008
# 5 0.001945 -0.002115 -0.007760 -0.000002 0.034806 0.000002
# 6 0.000000 0.000000 -0.000001 -0.008008 0.000002 0.022513
#
#
# Mechanical properties :
#
#
# Convention : Reuss Voigt Hill
#
# Bulk Modulus (GPa) = 76.38502 95.72828 86.05665
# Shear Modulus (GPa) = 43.80885 54.81116 49.31000
#
# Velocity S-wave (km/s) = 3.90746 4.37067 4.14554
# Velocity P-wave (km/s) = 6.85415 7.67030 7.27368
#
# Compressibility (1/GPa) = 0.01309157
#
# Stress axis : x y z
#
# Youngs Moduli (GPa) = 121.31163 195.87103 123.72132
#
# Poissons Ratio (x) = 0.35365 0.17097
# Poissons Ratio (y) = 0.21903 0.12155
# Poissons Ratio (z) = 0.16764 0.19244
#
# Static dielectric constant tensor:
#      x y z
#    x 2.265630 0.000000 -0.012080 
#    y 0.000000 2.182380 0.000000 
#    z -0.012080 0.000000 2.342750 
# 
# From -- ./inp_files/31827.got.cif
#   From: 2010.05.17/outbox.cif.g08.bks.cpg/sg5_16_cif.got.tgz:31827.got - 2010.06.03 18:56:24.
