data_PCOD9120091
_publ_section_title
;
Structure prediction by ZEFSAII (Michael W. Deem and Ramdas Pophale) SiO2 
 PCOD9120091
Probable space group: C 2
;
_chemical_formula_sum "Si O2"
_cell_formula_units_Z 26
_cell_length_a 11.149790
_cell_length_b 11.190072
_cell_length_c 10.049575
_cell_angle_alpha 90.000000
_cell_angle_beta 124.563925
_cell_angle_gamma 90.000000
_cell_volume 1032.541615
_symmetry_space_group_name_H-M "C 2"
_symmetry_group_IT_number 5
_symmetry_cell_setting 'monoclinic'
loop_
_space_group_symop_operation_xyz
x,y,z
-x,y,-z
1/2+x,1/2+y,z
1/2-x,1/2+y,-z
loop_
_atom_site_type_symbol
_atom_site_label
_atom_site_fract_x
_atom_site_fract_y
_atom_site_fract_z
Si Si1 0.089069 0.442640 0.295612
Si Si2 0.189295 0.383982 0.747837
Si Si3 0.833159 0.801746 0.377853
Si Si4 0.641473 0.589940 0.259475
Si Si5 0.000000 0.263363 0.000000
Si Si6 0.170267 0.966092 0.882490
Si Si7 0.859377 0.655534 0.842336
O O1 0.259873 0.413313 0.408359
O O2 0.080570 0.578229 0.242354
O O3 0.980394 0.407877 0.341968
O O4 0.024258 0.352456 0.138256
O O5 0.257531 0.478218 0.692703
O O6 0.237261 0.252502 0.737539
O O7 0.271182 0.415349 0.940610
O O8 0.737211 0.694747 0.383987
O O9 0.831244 0.856082 0.224237
O O10 0.000000 0.772638 0.500000
O O11 0.483968 0.538966 0.204977
O O12 0.624170 0.663956 0.107220
O O13 0.287105 0.059123 0.896198
O O14 0.000000 0.714199 0.000000
#
# Coordination Sequence:
#
# PCOD9120091 Si02
#       7
#     4   4   4   4   2   4   4
#     4  10  20  36  60  88 121 170 209 259 315 378
#     4  12  22  34  61 102 137 154 194 272 341 388
#     4  10  24  45  65  84 120 180 229 255 305 375
#     4  11  22  37  63  94 129 165 204 264 328 381
#     4  10  16  36  54  88 124 158 202 248 330 374
#     4  11  22  38  65  94 129 164 208 270 320 386
#     4  11  20  32  55  90 131 156 201 243 319 399
#
# _framework density 25.180582999999999
#
# number of rings (size 3 to 8) (size 9 to 14) (size 15 to 20)
#    0.000    1.231    3.846    4.615    2.154    1.231 
#    2.769    0.000    0.000    0.923    0.000    0.000 
#    0.000    0.000    0.000    0.000    0.000    0.000 
#
# Total GULP energy -72477.647978 kJ/mol
# GULP energy per Si atom -5575.203691 kJ/mol
# Density = 2.512327 g / cm^3
# Si number density = 25.180583 Si / 1000 Ang^3
#
#
#
# Elastic Constant Matrix: (Units=GPa)
#
#
# Indices 1 2 3 4 5 6 
#
# 1 118.8845 32.5145 35.5143 0.0000 28.8936 0.0000
# 2 32.5145 113.1770 8.5109 0.0000 -0.5425 0.0000
# 3 35.5143 8.5109 42.2100 0.0000 0.1710 0.0000
# 4 0.0000 0.0000 0.0000 -10.8085 0.0000 14.7647
# 5 28.8936 -0.5425 0.1710 0.0000 52.8623 0.0000
# 6 0.0000 0.0000 0.0000 14.7647 0.0000 34.9359
#
#
#
# Elastic Compliance Matrix: (Units=1/GPa)
#
#
# Indices 1 2 3 4 5 6 
#
# 1 0.014824 -0.003414 -0.011752 0.000000 -0.008100 0.000000
# 2 -0.003414 0.009758 0.000897 0.000000 0.001963 0.000000
# 3 -0.011752 0.000897 0.033372 0.000000 0.006324 0.000000
# 4 0.000000 0.000000 0.000000 -0.058656 0.000000 0.024790
# 5 -0.008100 0.001963 0.006324 0.000000 0.023344 0.000000
# 6 0.000000 0.000000 0.000000 0.024790 0.000000 0.018147
#
#
# Mechanical properties :
#
#
# Convention : Reuss Voigt Hill
#
# Bulk Modulus (GPa) = 33.99343 47.48342 40.73842
# Shear Modulus (GPa) = 63.18475 28.58005 45.88240
#
# Velocity S-wave (km/s) = 5.01469 3.37264 4.27328
# Velocity P-wave (km/s) = 6.85993 5.83647 6.36879
#
# Compressibility (1/GPa) = 0.02941745
#
# Stress axis : x y z
#
# Youngs Moduli (GPa) = 67.45661 102.47493 29.96518
#
# Poissons Ratio (x) = 0.34985 0.35214
# Poissons Ratio (y) = 0.23030 -0.02687
# Poissons Ratio (z) = 0.79272 -0.09190
#
# Static dielectric constant tensor:
#      x y z
#    x 2.019210 0.000000 -0.046960 
#    y 0.000000 1.986760 0.000000 
#    z -0.046960 0.000000 2.260240 
# 
# From -- ./inp_files/52762.got.cif
#   From: 2010.05.17/outbox.cif.g08.bks.cpg/sg5_27_cif.got.tgz:52762.got - 2010.06.03 18:56:24.
