data_PCOD9120085
_publ_section_title
;
Structure prediction by ZEFSAII (Michael W. Deem and Ramdas Pophale) SiO2 
 PCOD9120085
Probable space group: C 2
;
_chemical_formula_sum "Si O2"
_cell_formula_units_Z 30
_cell_length_a 9.512206
_cell_length_b 15.877425
_cell_length_c 11.189634
_cell_angle_alpha 90.000000
_cell_angle_beta 59.643403
_cell_angle_gamma 90.000000
_cell_volume 1458.263596
_symmetry_space_group_name_H-M "C 2"
_symmetry_group_IT_number 5
_symmetry_cell_setting 'monoclinic'
loop_
_space_group_symop_operation_xyz
x,y,z
-x,y,-z
1/2+x,1/2+y,z
1/2-x,1/2+y,-z
loop_
_atom_site_type_symbol
_atom_site_label
_atom_site_fract_x
_atom_site_fract_y
_atom_site_fract_z
Si Si1 0.688299 0.070010 0.949118
Si Si2 0.020316 0.448996 0.622248
Si Si3 0.496956 0.652014 0.235212
Si Si4 0.426298 0.835843 0.168377
Si Si5 0.277972 0.539132 0.168318
Si Si6 0.381915 0.511752 0.440068
Si Si7 0.617959 0.398062 0.192461
Si Si8 0.000000 0.886641 0.000000
O O1 0.811220 0.134021 0.831995
O O2 0.764023 0.977977 0.888069
O O3 0.500000 0.074209 0.000000
O O4 0.711436 0.083451 0.079407
O O5 0.011525 0.400205 0.754498
O O6 0.198242 0.489760 0.548175
O O7 0.000000 0.403587 0.500000
O O8 0.876287 0.518013 0.683650
O O9 0.465259 0.746003 0.209434
O O10 0.421408 0.593934 0.162644
O O11 0.405357 0.607465 0.384472
O O12 0.231350 0.845899 0.233108
O O13 0.500000 0.842898 0.000000
O O14 0.356633 0.449516 0.101934
O O15 0.500000 0.501311 0.500000
O O16 0.458025 0.443333 0.314562
O O17 0.567798 0.347457 0.093640
#
# Coordination Sequence:
#
# PCOD9120085 Si02
#       8
#     4   4   4   4   4   4   4   2
#     4  10  19  34  65  95 126 168 226 273 322 399
#     4  12  24  41  69 100 136 179 234 276 335 411
#     4  11  23  42  66  93 135 177 215 280 351 400
#     4  12  25  41  68 102 138 177 219 288 359 400
#     4  11  18  36  64  92 124 173 222 270 320 400
#     4  11  22  42  67  96 126 180 235 275 324 411
#     4  10  19  36  63  99 130 177 225 284 332 405
#     4  10  16  34  66  96 128 172 230 278 328 384
#
# _framework density 20.572413000000001
#
# number of rings (size 3 to 8) (size 9 to 14) (size 15 to 20)
#    0.000    1.067    6.667    3.600    1.867    0.533 
#    0.000    2.667   19.067    0.000    0.000    0.000 
#    0.000    0.000    0.000    0.000    0.000    0.000 
#
# Total GULP energy -83595.643544 kJ/mol
# GULP energy per Si atom -5573.042903 kJ/mol
# Density = 2.052559 g / cm^3
# Si number density = 20.572413 Si / 1000 Ang^3
#
#
#
# Elastic Constant Matrix: (Units=GPa)
#
#
# Indices 1 2 3 4 5 6 
#
# 1 124.1792 16.5846 36.0997 0.0000 -13.3613 0.0000
# 2 16.5846 52.8418 29.5105 0.0000 -10.7129 0.0000
# 3 36.0997 29.5105 92.4503 0.0000 -7.3580 0.0000
# 4 0.0000 0.0000 0.0000 4.9662 0.0000 -0.3635
# 5 -13.3613 -10.7129 -7.3580 0.0000 56.6757 0.0000
# 6 0.0000 0.0000 0.0000 -0.3635 0.0000 18.6242
#
#
#
# Elastic Compliance Matrix: (Units=1/GPa)
#
#
# Indices 1 2 3 4 5 6 
#
# 1 0.009274 -0.000769 -0.003247 0.000000 0.001619 0.000000
# 2 -0.000769 0.023775 -0.007018 0.000000 0.003401 0.000000
# 3 -0.003247 -0.007018 0.014306 0.000000 -0.000235 0.000000
# 4 0.000000 0.000000 0.000000 0.201647 0.000000 0.003936
# 5 0.001619 0.003401 -0.000235 0.000000 0.018638 0.000000
# 6 0.000000 0.000000 0.000000 0.003936 0.000000 0.053770
#
#
# Mechanical properties :
#
#
# Convention : Reuss Voigt Hill
#
# Bulk Modulus (GPa) = 39.54653 48.20678 43.87665
# Shear Modulus (GPa) = 14.20829 28.53832 21.37331
#
# Velocity S-wave (km/s) = 2.63087 3.72857 3.22674
# Velocity P-wave (km/s) = 5.33793 6.48228 5.93773
#
# Compressibility (1/GPa) = 0.02528667
#
# Stress axis : x y z
#
# Youngs Moduli (GPa) = 107.83187 42.06151 69.90113
#
# Poissons Ratio (x) = 0.03235 0.22695
# Poissons Ratio (y) = 0.08293 0.49056
# Poissons Ratio (z) = 0.35011 0.29519
#
# Static dielectric constant tensor:
#      x y z
#    x 1.761630 0.000000 0.059190 
#    y 0.000000 1.720010 0.000000 
#    z 0.059190 0.000000 1.881770 
# 
# From -- ./inp_files/37003.got.cif
#   From: 2010.05.17/outbox.cif.g08.bks.cpg/sg5_19_cif.got.tgz:37003.got - 2010.06.03 18:56:24.
