data_PCOD9120827
_publ_section_title
;
Structure prediction by ZEFSAII (Michael W. Deem and Ramdas Pophale) SiO2 
 PCOD9120827
Probable space group: C 2
;
_chemical_formula_sum "Si O2"
_cell_formula_units_Z 28
_cell_length_a 8.536906
_cell_length_b 13.364492
_cell_length_c 10.974998
_cell_angle_alpha 90.000000
_cell_angle_beta 119.185576
_cell_angle_gamma 90.000000
_cell_volume 1093.185764
_symmetry_space_group_name_H-M "C 2"
_symmetry_group_IT_number 5
_symmetry_cell_setting 'monoclinic'
loop_
_space_group_symop_operation_xyz
x,y,z
-x,y,-z
1/2+x,1/2+y,z
1/2-x,1/2+y,-z
loop_
_atom_site_type_symbol
_atom_site_label
_atom_site_fract_x
_atom_site_fract_y
_atom_site_fract_z
Si Si1 0.289080 0.029430 0.162160
Si Si2 0.532744 0.670754 0.369113
Si Si3 0.500000 0.002963 0.000000
Si Si4 0.504017 0.284627 0.740297
Si Si5 0.145575 0.576177 0.405503
Si Si6 0.500000 0.361830 0.000000
Si Si7 0.655900 0.470109 0.719888
Si Si8 0.104614 0.230667 0.157928
O O1 0.447867 0.027957 0.323683
O O2 0.146736 0.114322 0.143375
O O3 0.398414 0.053925 0.077433
O O4 0.173310 0.930764 0.093294
O O5 0.500000 0.696380 0.500000
O O6 0.729997 0.619440 0.440529
O O7 0.401799 0.583618 0.274972
O O8 0.514669 0.750540 0.254721
O O9 0.668680 0.949898 0.130870
O O10 0.388682 0.186475 0.671100
O O11 0.529280 0.296013 0.892747
O O12 0.486196 0.398291 0.682851
O O13 0.694497 0.267863 0.749640
O O14 0.269240 0.491844 0.387001
O O15 0.000000 0.267791 0.000000
#
# Coordination Sequence:
#
# PCOD9120827 Si02
#       8
#     4   4   2   4   4   2   4   4
#     4  10  20  37  68  96 143 187 237 293 368 441
#     4  10  22  46  71  99 147 196 246 293 384 456
#     4  10  18  35  65 100 134 184 246 286 367 447
#     4  11  25  39  66 106 143 188 251 314 366 455
#     4   9  23  43  65  99 139 196 245 302 370 455
#     4  12  22  41  63 106 150 186 246 318 377 437
#     4  10  20  41  71  97 138 195 236 302 373 437
#     4  11  23  39  68 107 140 185 245 307 368 442
#
# _framework density 25.613211
#
# number of rings (size 3 to 8) (size 9 to 14) (size 15 to 20)
#    0.000    1.714    2.143    1.714    1.000    9.714 
#    7.714    0.000    3.143    0.000    0.000    0.000 
#    0.000    0.000    0.000    0.000    0.000    0.000 
#
# Total GULP energy -77944.495536 kJ/mol
# GULP energy per Si atom -5567.463967 kJ/mol
# Density = 2.555491 g / cm^3
# Si number density = 25.613211 Si / 1000 Ang^3
#
#
#
# Elastic Constant Matrix: (Units=GPa)
#
#
# Indices 1 2 3 4 5 6 
#
# 1 88.2971 9.9395 37.6608 0.0000 -20.8590 0.0000
# 2 9.9395 48.9693 16.0565 0.0000 -4.4702 0.0000
# 3 37.6608 16.0565 118.6472 0.0000 7.4003 0.0000
# 4 0.0000 0.0000 0.0000 20.4360 0.0000 11.2102
# 5 -20.8590 -4.4702 7.4003 0.0000 54.1477 0.0000
# 6 0.0000 0.0000 0.0000 11.2102 0.0000 33.0916
#
#
#
# Elastic Compliance Matrix: (Units=1/GPa)
#
#
# Indices 1 2 3 4 5 6 
#
# 1 0.015111 -0.000810 -0.005089 0.000000 0.006450 0.000000
# 2 -0.000810 0.021670 -0.002792 0.000000 0.001859 0.000000
# 3 -0.005089 -0.002792 0.010649 0.000000 -0.003646 0.000000
# 4 0.000000 0.000000 0.000000 0.060102 0.000000 -0.020360
# 5 0.006450 0.001859 -0.003646 0.000000 0.021604 0.000000
# 6 0.000000 0.000000 0.000000 -0.020360 0.000000 0.037117
#
#
# Mechanical properties :
#
#
# Convention : Reuss Voigt Hill
#
# Bulk Modulus (GPa) = 33.27862 42.58078 37.92970
# Shear Modulus (GPa) = 25.81976 34.35219 30.08598
#
# Velocity S-wave (km/s) = 3.17845 3.66620 3.43100
# Velocity P-wave (km/s) = 5.14694 5.88065 5.52598
#
# Compressibility (1/GPa) = 0.03004933
#
# Stress axis : x y z
#
# Youngs Moduli (GPa) = 66.17754 46.14613 93.90594
#
# Poissons Ratio (x) = 0.03736 0.47790
# Poissons Ratio (y) = 0.05358 0.26214
# Poissons Ratio (z) = 0.33679 0.12882
#
# Static dielectric constant tensor:
#      x y z
#    x 2.109170 0.000000 -0.063160 
#    y 0.000000 2.163580 0.000000 
#    z -0.063160 0.000000 2.080170 
# 
# From -- ./inp_files/36525.got.cif
#   From: 2010.05.17/outbox.cif.g08.bks.cpg/sg5_19_cif.got.tgz:36525.got - 2010.06.03 18:56:24.
