data_PCOD9120125
_publ_section_title
;
Structure prediction by ZEFSAII (Michael W. Deem and Ramdas Pophale) SiO2 
 PCOD9120125
Probable space group: C 2
;
_chemical_formula_sum "Si O2"
_cell_formula_units_Z 32
_cell_length_a 11.874480
_cell_length_b 26.287828
_cell_length_c 5.417363
_cell_angle_alpha 90.000000
_cell_angle_beta 92.431666
_cell_angle_gamma 90.000000
_cell_volume 1689.530353
_symmetry_space_group_name_H-M "C 2"
_symmetry_group_IT_number 5
_symmetry_cell_setting 'monoclinic'
loop_
_space_group_symop_operation_xyz
x,y,z
-x,y,-z
1/2+x,1/2+y,z
1/2-x,1/2+y,-z
loop_
_atom_site_type_symbol
_atom_site_label
_atom_site_fract_x
_atom_site_fract_y
_atom_site_fract_z
Si Si1 0.667107 0.317160 0.915939
Si Si2 0.278540 0.687149 0.455028
Si Si3 0.634045 0.086264 0.509549
Si Si4 0.132785 0.521879 0.010980
Si Si5 0.343445 0.286988 0.584678
Si Si6 0.380894 0.856622 0.438321
Si Si7 0.870424 0.233485 0.955357
Si Si8 0.814939 0.408825 0.938138
O O1 0.606099 0.308646 0.656080
O O2 0.781878 0.280861 0.924434
O O3 0.701763 0.375542 0.943164
O O4 0.606031 0.298481 0.150013
O O5 0.220691 0.632858 0.489761
O O6 0.176869 0.727804 0.450408
O O7 0.354891 0.701996 0.699160
O O8 0.336354 0.699808 0.194688
O O9 0.500000 0.101313 0.500000
O O10 0.651422 0.052566 0.265482
O O11 0.654162 0.054899 0.765777
O O12 0.197400 0.468549 0.026598
O O13 0.000000 0.507965 0.000000
O O14 0.221106 0.316638 0.580801
O O15 0.500000 0.830147 0.500000
O O16 0.361628 0.894159 0.670492
O O17 0.383813 0.886800 0.179919
O O18 0.000000 0.250229 0.000000
#
# Coordination Sequence:
#
# PCOD9120125 Si02
#       8
#     4   4   4   4   4   4   4   4
#     4   8  16  26  38  60  91 121 144 164 197 260
#     4  10  19  32  47  63  88 123 156 191 228 260
#     4  10  21  35  48  62  83 119 165 204 233 256
#     4  10  19  30  44  61  81 111 156 199 227 258
#     4   8  16  25  37  56  79 111 146 174 206 250
#     4  10  17  24  36  57  86 115 140 165 202 262
#     4  10  19  30  47  72  98 123 147 172 217 281
#     4  10  18  26  38  57  83 115 146 175 207 249
#
# _framework density 18.940173000000001
#
# number of rings (size 3 to 8) (size 9 to 14) (size 15 to 20)
#    0.000    2.500    0.000    3.000    0.000   10.500 
#    0.000    0.000    0.000    0.000    0.000    0.000 
#    0.000    0.000    0.000  202.500    0.000   10.500 
#
# Total GULP energy -89152.843314 kJ/mol
# GULP energy per Si atom -5572.052707 kJ/mol
# Density = 1.889706 g / cm^3
# Si number density = 18.940173 Si / 1000 Ang^3
#
#
#
# Elastic Constant Matrix: (Units=GPa)
#
#
# Indices 1 2 3 4 5 6 
#
# 1 56.1230 24.3537 14.7013 0.0000 6.3069 0.0000
# 2 24.3537 104.4031 41.2275 0.0000 1.1995 0.0000
# 3 14.7013 41.2275 167.8151 0.0000 16.9736 0.0000
# 4 0.0000 0.0000 0.0000 24.7336 0.0000 -8.4102
# 5 6.3069 1.1995 16.9736 0.0000 14.9574 0.0000
# 6 0.0000 0.0000 0.0000 -8.4102 0.0000 -37.9475
#
#
#
# Elastic Compliance Matrix: (Units=1/GPa)
#
#
# Indices 1 2 3 4 5 6 
#
# 1 0.020836 -0.004858 0.000245 0.000000 -0.008675 0.000000
# 2 -0.004858 0.011815 -0.002924 0.000000 0.004419 0.000000
# 3 0.000245 -0.002924 0.007504 0.000000 -0.008384 0.000000
# 4 0.000000 0.000000 0.000000 0.037597 0.000000 -0.008333
# 5 -0.008675 0.004419 -0.008384 0.000000 0.079674 0.000000
# 6 0.000000 0.000000 0.000000 -0.008333 0.000000 -0.024505
#
#
# Mechanical properties :
#
#
# Convention : Reuss Voigt Hill
#
# Bulk Modulus (GPa) = 39.86771 54.32289 47.09530
# Shear Modulus (GPa) = 31.97834 16.88594 24.43214
#
# Velocity S-wave (km/s) = 4.11346 2.98911 3.59550
# Velocity P-wave (km/s) = 6.60724 6.37625 6.49278
#
# Compressibility (1/GPa) = 0.02508295
#
# Stress axis : x y z
#
# Youngs Moduli (GPa) = 47.99274 84.63588 133.26503
#
# Poissons Ratio (x) = 0.41114 -0.03271
# Poissons Ratio (y) = 0.23313 0.38968
# Poissons Ratio (z) = -0.01178 0.24748
#
# Static dielectric constant tensor:
#      x y z
#    x 1.716410 0.000000 -0.011330 
#    y 0.000000 1.627310 0.000000 
#    z -0.011330 0.000000 1.732110 
# 
# From -- ./inp_files/5968.got.cif
#   From: 2010.05.17/outbox.cif.g08.bks.cpg/sg5_3_cif.got.tgz:5968.got - 2010.06.03 18:56:24.
