data_PCOD9120813
_publ_section_title
;
Structure prediction by ZEFSAII (Michael W. Deem and Ramdas Pophale) SiO2 
 PCOD9120813
Probable space group: C 2
;
_chemical_formula_sum "Si O2"
_cell_formula_units_Z 32
_cell_length_a 11.430106
_cell_length_b 17.027095
_cell_length_c 9.094205
_cell_angle_alpha 90.000000
_cell_angle_beta 90.754765
_cell_angle_gamma 90.000000
_cell_volume 1769.774258
_symmetry_space_group_name_H-M "C 2"
_symmetry_group_IT_number 5
_symmetry_cell_setting 'monoclinic'
loop_
_space_group_symop_operation_xyz
x,y,z
-x,y,-z
1/2+x,1/2+y,z
1/2-x,1/2+y,-z
loop_
_atom_site_type_symbol
_atom_site_label
_atom_site_fract_x
_atom_site_fract_y
_atom_site_fract_z
Si Si1 0.721322 0.771110 0.773468
Si Si2 0.574088 0.626231 0.845940
Si Si3 0.342047 0.366803 0.200192
Si Si4 0.870499 0.848526 0.531093
Si Si5 0.947104 0.981405 0.755124
Si Si6 0.873836 0.706770 0.048160
Si Si7 0.631485 0.901249 0.974068
Si Si8 0.245708 0.553429 0.947940
O O1 0.617513 0.706706 0.773773
O O2 0.792138 0.790565 0.627305
O O3 0.808788 0.739606 0.901741
O O4 0.673488 0.853751 0.832457
O O5 0.504975 0.567437 0.737256
O O6 0.500000 0.638450 0.000000
O O7 0.689326 0.578897 0.901371
O O8 0.315948 0.368571 0.372808
O O9 0.449897 0.426785 0.175235
O O10 0.385809 0.280504 0.155633
O O11 0.226573 0.382836 0.102832
O O12 0.897723 0.929127 0.621338
O O13 0.000000 0.814546 0.500000
O O14 0.840769 0.003087 0.860258
O O15 0.796966 0.636739 0.115358
O O16 0.000000 0.677303 0.000000
O O17 0.500000 0.874643 0.000000
O O18 0.638491 0.994665 0.959691
#
# Coordination Sequence:
#
# PCOD9120813 Si02
#       8
#     4   4   4   4   4   4   4   4
#     4  10  20  35  57  85 116 160 199 240 297 352
#     4   9  18  31  56  91 120 142 191 252 294 340
#     4  10  22  36  59  88 115 160 201 246 285 360
#     4  10  20  36  59  87 115 156 205 243 281 353
#     4  10  18  35  62  86 117 151 199 244 291 341
#     4  10  20  33  56  88 121 151 196 247 304 350
#     4  11  21  35  59  85 118 155 198 245 304 352
#     4  10  19  32  56  90 117 144 193 251 296 343
#
# _framework density 18.081402000000001
#
# number of rings (size 3 to 8) (size 9 to 14) (size 15 to 20)
#    0.000    2.000    2.500    2.250    1.750    1.000 
#    0.000    4.375    0.000    0.000    0.000    0.000 
#    0.000    0.000    0.000    0.000    0.000    0.000 
#
# Total GULP energy -89099.461126 kJ/mol
# GULP energy per Si atom -5568.716320 kJ/mol
# Density = 1.804025 g / cm^3
# Si number density = 18.081402 Si / 1000 Ang^3
#
#
#
# Elastic Constant Matrix: (Units=GPa)
#
#
# Indices 1 2 3 4 5 6 
#
# 1 80.1156 35.3890 27.0781 0.0000 -13.7935 0.0000
# 2 35.3890 115.6029 40.1349 0.0000 -9.9055 0.0000
# 3 27.0781 40.1349 69.6334 0.0000 -11.6859 0.0000
# 4 0.0000 0.0000 0.0000 15.3831 0.0000 -11.4891
# 5 -13.7935 -9.9055 -11.6859 0.0000 23.3619 0.0000
# 6 0.0000 0.0000 0.0000 -11.4891 0.0000 36.3909
#
#
#
# Elastic Compliance Matrix: (Units=1/GPa)
#
#
# Indices 1 2 3 4 5 6 
#
# 1 0.016154 -0.003233 -0.003327 0.000000 0.006503 0.000000
# 2 -0.003233 0.011516 -0.005329 0.000000 0.000309 0.000000
# 3 -0.003327 -0.005329 0.019668 0.000000 0.005614 0.000000
# 4 0.000000 0.000000 0.000000 0.085064 0.000000 0.026856
# 5 0.006503 0.000309 0.005614 0.000000 0.049583 0.000000
# 6 0.000000 0.000000 0.000000 0.026856 0.000000 0.035958
#
#
# Mechanical properties :
#
#
# Convention : Reuss Voigt Hill
#
# Bulk Modulus (GPa) = 42.44259 52.28399 47.36329
# Shear Modulus (GPa) = 20.03398 25.87720 22.95559
#
# Velocity S-wave (km/s) = 3.33226 3.78716 3.56697
# Velocity P-wave (km/s) = 6.19106 6.93557 6.57386
#
# Compressibility (1/GPa) = 0.02356124
#
# Stress axis : x y z
#
# Youngs Moduli (GPa) = 61.90371 86.83204 50.84310
#
# Poissons Ratio (x) = 0.28072 0.16916
# Poissons Ratio (y) = 0.20013 0.27093
# Poissons Ratio (z) = 0.20596 0.46271
#
# Static dielectric constant tensor:
#      x y z
#    x 1.652070 0.000000 -0.004150 
#    y 0.000000 1.650840 0.000000 
#    z -0.004150 0.000000 1.614870 
# 
# From -- ./inp_files/20632.got.cif
#   From: 2010.05.17/outbox.cif.g08.bks.cpg/sg5_11_cif.got.tgz:20632.got - 2010.06.03 18:56:24.
