data_PCOD9120175
_publ_section_title
;
Structure prediction by ZEFSAII (Michael W. Deem and Ramdas Pophale) SiO2 
 PCOD9120175
Probable space group: C 2
;
_chemical_formula_sum "Si O2"
_cell_formula_units_Z 30
_cell_length_a 28.424335
_cell_length_b 7.338637
_cell_length_c 10.985703
_cell_angle_alpha 90.000000
_cell_angle_beta 146.084034
_cell_angle_gamma 90.000000
_cell_volume 1278.643238
_symmetry_space_group_name_H-M "C 2"
_symmetry_group_IT_number 5
_symmetry_cell_setting 'monoclinic'
loop_
_space_group_symop_operation_xyz
x,y,z
-x,y,-z
1/2+x,1/2+y,z
1/2-x,1/2+y,-z
loop_
_atom_site_type_symbol
_atom_site_label
_atom_site_fract_x
_atom_site_fract_y
_atom_site_fract_z
Si Si1 0.905529 0.828230 0.821153
Si Si2 0.273130 0.802712 0.676822
Si Si3 0.373822 0.466773 0.991343
Si Si4 0.500000 0.971945 0.500000
Si Si5 0.951308 0.179678 0.597536
Si Si6 0.907229 0.260058 0.766493
Si Si7 0.830416 0.060420 0.147418
Si Si8 0.829068 0.471928 0.042654
O O1 0.824876 0.779521 0.566783
O O2 0.883709 0.805427 0.916503
O O3 0.909400 0.046769 0.807572
O O4 0.000000 0.757533 0.000000
O O5 0.304928 0.607520 0.792430
O O6 0.331375 0.844252 0.682863
O O7 0.294757 0.946560 0.831107
O O8 0.462781 0.576614 0.182679
O O9 0.345969 0.427044 0.068341
O O10 0.472466 0.846539 0.554880
O O11 0.582068 0.065345 0.733351
O O12 0.902425 0.254347 0.610320
O O13 0.897166 0.042355 0.399290
O O14 0.000000 0.335566 0.000000
O O15 0.740971 0.048043 0.017947
O O16 0.841497 0.260392 0.112068
#
# Coordination Sequence:
#
# PCOD9120175 Si02
#       8
#     4   4   4   2   4   4   4   4
#     4  10  19  30  51  76 103 148 184 226 288 335
#     4  10  19  33  52  81 112 145 185 242 291 325
#     4  10  18  35  52  80 114 138 188 250 278 327
#     4  10  18  32  56  80 108 152 184 230 290 340
#     4  11  15  32  56  82 105 143 193 240 273 345
#     4  10  17  30  52  77 105 137 184 233 280 332
#     4  10  21  33  60  85 114 148 194 236 293 338
#     4  10  20  36  57  83 116 151 192 238 288 343
#
# _framework density 23.462368999999999
#
# number of rings (size 3 to 8) (size 9 to 14) (size 15 to 20)
#    0.000    1.867    8.000    0.800    0.000    2.133 
#    0.000    0.000    2.933   12.800    0.000    0.000 
#    0.000    0.000    0.000    0.000    0.000    0.000 
#
# Total GULP energy -83735.266181 kJ/mol
# GULP energy per Si atom -5582.351079 kJ/mol
# Density = 2.340897 g / cm^3
# Si number density = 23.462369 Si / 1000 Ang^3
#
#
#
# Elastic Constant Matrix: (Units=GPa)
#
#
# Indices 1 2 3 4 5 6 
#
# 1 194.5553 10.8182 78.5320 0.0000 -17.9562 0.0000
# 2 10.8182 37.7405 12.5996 0.0000 -0.3537 0.0000
# 3 78.5320 12.5996 220.3639 0.0000 9.2510 0.0000
# 4 0.0000 0.0000 0.0000 11.2670 0.0000 4.9414
# 5 -17.9562 -0.3537 9.2510 0.0000 42.8272 0.0000
# 6 0.0000 0.0000 0.0000 4.9414 0.0000 14.5174
#
#
#
# Elastic Compliance Matrix: (Units=1/GPa)
#
#
# Indices 1 2 3 4 5 6 
#
# 1 0.006452 -0.001026 -0.002375 0.000000 0.003210 0.000000
# 2 -0.001026 0.027189 -0.001191 0.000000 0.000051 0.000000
# 3 -0.002375 -0.001191 0.005545 0.000000 -0.002204 0.000000
# 4 0.000000 0.000000 0.000000 0.104330 0.000000 -0.035512
# 5 0.003210 0.000051 -0.002204 0.000000 0.025172 0.000000
# 6 0.000000 0.000000 0.000000 -0.035512 0.000000 0.080970
#
#
# Mechanical properties :
#
#
# Convention : Reuss Voigt Hill
#
# Bulk Modulus (GPa) = 33.33259 72.95104 53.14182
# Shear Modulus (GPa) = 18.59818 37.10297 27.85057
#
# Velocity S-wave (km/s) = 2.81851 3.98097 3.44907
# Velocity P-wave (km/s) = 4.98294 7.23126 6.20970
#
# Compressibility (1/GPa) = 0.03000067
#
# Stress axis : x y z
#
# Youngs Moduli (GPa) = 154.98893 36.77959 180.33978
#
# Poissons Ratio (x) = 0.03775 0.42838
# Poissons Ratio (y) = 0.15907 0.21478
# Poissons Ratio (z) = 0.36816 0.04380
#
# Static dielectric constant tensor:
#      x y z
#    x 1.946620 0.000000 -0.008420 
#    y 0.000000 1.920550 0.000000 
#    z -0.008420 0.000000 1.943900 
# 
# From -- ./inp_files/48350.got.cif
#   From: 2010.05.17/outbox.cif.g08.bks.cpg/sg5_25_cif.got.tgz:48350.got - 2010.06.03 18:56:24.
