data_PCOD9120609
_publ_section_title
;
Structure prediction by ZEFSAII (Michael W. Deem and Ramdas Pophale) SiO2 
 PCOD9120609
Probable space group: C 2
;
_chemical_formula_sum "Si O2"
_cell_formula_units_Z 30
_cell_length_a 18.248487
_cell_length_b 13.545940
_cell_length_c 10.336405
_cell_angle_alpha 90.000000
_cell_angle_beta 35.626137
_cell_angle_gamma 90.000000
_cell_volume 1488.321841
_symmetry_space_group_name_H-M "C 2"
_symmetry_group_IT_number 5
_symmetry_cell_setting 'monoclinic'
loop_
_space_group_symop_operation_xyz
x,y,z
-x,y,-z
1/2+x,1/2+y,z
1/2-x,1/2+y,-z
loop_
_atom_site_type_symbol
_atom_site_label
_atom_site_fract_x
_atom_site_fract_y
_atom_site_fract_z
Si Si1 0.787399 0.947150 0.938189
Si Si2 0.257827 0.803041 0.215463
Si Si3 0.697680 0.269320 0.903273
Si Si4 0.624734 0.760957 0.566713
Si Si5 0.036036 0.685258 0.603297
Si Si6 0.006148 0.462814 0.642631
Si Si7 0.616204 0.662915 0.173081
Si Si8 0.000000 0.299008 0.000000
O O1 0.815136 0.874901 0.778424
O O2 0.861967 0.047741 0.842474
O O3 0.803497 0.882515 0.045255
O O4 0.642082 0.973149 0.117819
O O5 0.153910 0.756639 0.457086
O O6 0.382794 0.852594 0.097239
O O7 0.315409 0.710942 0.051050
O O8 0.737742 0.256058 0.695944
O O9 0.813572 0.221816 0.815338
O O10 0.575592 0.217237 0.140035
O O11 0.528617 0.690331 0.628801
O O12 0.575756 0.873281 0.612677
O O13 0.583772 0.740609 0.773567
O O14 0.066488 0.569727 0.577926
O O15 0.000000 0.692984 0.500000
O O16 0.000000 0.437641 0.500000
#
# Coordination Sequence:
#
# PCOD9120609 Si02
#       8
#     4   4   4   4   4   4   4   2
#     4  11  18  32  58  93 119 152 190 253 315 345
#     4  10  21  38  61  89 119 165 200 234 306 364
#     4  11  20  33  53  88 121 149 198 246 304 352
#     4  11  21  37  59  86 113 164 205 242 283 354
#     4  11  20  35  57  92 128 148 182 251 318 359
#     4  11  17  30  60  89 115 149 192 249 303 350
#     4  10  18  33  57  91 125 139 193 260 305 345
#     4  10  22  42  66  74 120 170 212 242 276 360
#
# _framework density 20.156932000000001
#
# number of rings (size 3 to 8) (size 9 to 14) (size 15 to 20)
#    0.000    1.333    9.333    1.200    0.000    0.000 
#    4.800    0.667    5.867    0.000    0.000    0.000 
#    0.000    0.000    0.000    0.000    0.000    0.000 
#
# Total GULP energy -83518.999553 kJ/mol
# GULP energy per Si atom -5567.933304 kJ/mol
# Density = 2.011105 g / cm^3
# Si number density = 20.156932 Si / 1000 Ang^3
#
#
#
# Elastic Constant Matrix: (Units=GPa)
#
#
# Indices 1 2 3 4 5 6 
#
# 1 33.1687 7.8805 23.7399 0.0000 5.0256 0.0000
# 2 7.8805 117.9035 23.5678 0.0000 -4.0589 0.0000
# 3 23.7399 23.5678 109.9435 0.0000 17.3154 0.0000
# 4 0.0000 0.0000 0.0000 12.5891 0.0000 -7.0648
# 5 5.0256 -4.0589 17.3154 0.0000 20.3383 0.0000
# 6 0.0000 0.0000 0.0000 -7.0648 0.0000 6.1103
#
#
#
# Elastic Compliance Matrix: (Units=1/GPa)
#
#
# Indices 1 2 3 4 5 6 
#
# 1 0.035913 -0.001103 -0.007028 0.000000 -0.003110 0.000000
# 2 -0.001103 0.009173 -0.002378 0.000000 0.004128 0.000000
# 3 -0.007028 -0.002378 0.012616 0.000000 -0.009479 0.000000
# 4 0.000000 0.000000 0.000000 0.226218 0.000000 0.261560
# 5 -0.003110 0.004128 -0.009479 0.000000 0.058830 0.000000
# 6 0.000000 0.000000 0.000000 0.261560 0.000000 0.466082
#
#
# Mechanical properties :
#
#
# Convention : Reuss Voigt Hill
#
# Bulk Modulus (GPa) = 27.26078 41.26578 34.26328
# Shear Modulus (GPa) = 5.93770 21.52936 13.73353
#
# Velocity S-wave (km/s) = 1.71818 3.27171 2.61306
# Velocity P-wave (km/s) = 4.18208 5.89820 5.11266
#
# Compressibility (1/GPa) = 0.03668274
#
# Stress axis : x y z
#
# Youngs Moduli (GPa) = 27.84542 109.01893 79.26529
#
# Poissons Ratio (x) = 0.12020 0.55710
# Poissons Ratio (y) = 0.03070 0.18852
# Poissons Ratio (z) = 0.19571 0.25928
#
# Static dielectric constant tensor:
#      x y z
#    x 1.792070 0.000000 0.049100 
#    y 0.000000 1.714880 0.000000 
#    z 0.049100 0.000000 1.808770 
# 
# From -- ./inp_files/46546.got.cif
#   From: 2010.05.17/outbox.cif.g08.bks.cpg/sg5_24_cif.got.tgz:46546.got - 2010.06.03 18:56:24.
