data_PCOD9120559
_publ_section_title
;
Structure prediction by ZEFSAII (Michael W. Deem and Ramdas Pophale) SiO2 
 PCOD9120559
Probable space group: C 2
;
_chemical_formula_sum "Si O2"
_cell_formula_units_Z 28
_cell_length_a 8.384008
_cell_length_b 11.163386
_cell_length_c 14.071495
_cell_angle_alpha 90.000000
_cell_angle_beta 77.887176
_cell_angle_gamma 90.000000
_cell_volume 1287.684902
_symmetry_space_group_name_H-M "C 2"
_symmetry_group_IT_number 5
_symmetry_cell_setting 'monoclinic'
loop_
_space_group_symop_operation_xyz
x,y,z
-x,y,-z
1/2+x,1/2+y,z
1/2-x,1/2+y,-z
loop_
_atom_site_type_symbol
_atom_site_label
_atom_site_fract_x
_atom_site_fract_y
_atom_site_fract_z
Si Si1 0.988690 0.668430 0.819262
Si Si2 0.088983 0.440970 0.392456
Si Si3 0.041798 0.409545 0.178301
Si Si4 0.429158 0.423580 0.109715
Si Si5 0.881176 0.777295 0.378140
Si Si6 0.799982 0.704310 0.591008
Si Si7 0.383467 0.664378 0.210464
O O1 0.025486 0.535793 0.855009
O O2 0.802240 0.659054 0.805486
O O3 0.999696 0.792198 0.875480
O O4 0.108309 0.694622 0.715588
O O5 0.017625 0.419068 0.296520
O O6 0.272411 0.390659 0.366685
O O7 0.103175 0.582062 0.403358
O O8 0.000000 0.396137 0.500000
O O9 0.234181 0.406395 0.133220
O O10 0.966182 0.282971 0.157492
O O11 0.462332 0.536359 0.175935
O O12 0.500000 0.461719 0.000000
O O13 0.790180 0.721981 0.480561
O O14 0.069600 0.801771 0.385006
O O15 0.640066 0.689302 0.673993
#
# Coordination Sequence:
#
# PCOD9120559 Si02
#       7
#     4   4   4   4   4   4   4
#     4  10  20  42  61  90 127 163 201 256 314 366
#     4  12  19  34  60  85 124 166 199 247 304 361
#     4  11  22  39  64  92 122 161 206 257 306 368
#     4  11  24  44  66  88 124 166 206 259 315 364
#     4  10  18  32  60  82 118 166 199 237 304 364
#     4  10  18  36  57  84 122 163 199 250 303 359
#     4  10  22  40  64  93 124 159 207 257 310 369
#
# _framework density 21.744450000000001
#
# number of rings (size 3 to 8) (size 9 to 14) (size 15 to 20)
#    0.000    1.429    7.143    0.857    0.000    3.429 
#    0.000    0.714    9.429    0.000    0.000    0.000 
#    0.000    0.000    0.000    0.000    0.000    0.000 
#
# Total GULP energy -77996.462769 kJ/mol
# GULP energy per Si atom -5571.175912 kJ/mol
# Density = 2.169496 g / cm^3
# Si number density = 21.744450 Si / 1000 Ang^3
#
#
#
# Elastic Constant Matrix: (Units=GPa)
#
#
# Indices 1 2 3 4 5 6 
#
# 1 14.1183 25.6709 -0.0897 0.0000 -7.1374 0.0000
# 2 25.6709 118.1832 16.4778 0.0000 -0.6395 0.0000
# 3 -0.0897 16.4778 76.9529 0.0000 -10.6020 0.0000
# 4 0.0000 0.0000 0.0000 20.6675 0.0000 -4.4175
# 5 -7.1374 -0.6395 -10.6020 0.0000 12.3864 0.0000
# 6 0.0000 0.0000 0.0000 -4.4175 0.0000 22.8457
#
#
#
# Elastic Compliance Matrix: (Units=1/GPa)
#
#
# Indices 1 2 3 4 5 6 
#
# 1 0.314286 -0.073502 0.045952 0.000000 0.216638 0.000000
# 2 -0.073502 0.025930 -0.012798 0.000000 -0.051969 0.000000
# 3 0.045952 -0.012798 0.021932 0.000000 0.044591 0.000000
# 4 0.000000 0.000000 0.000000 0.050471 0.000000 0.009759
# 5 0.216638 -0.051969 0.044591 0.000000 0.241050 0.000000
# 6 0.000000 0.000000 0.000000 0.009759 0.000000 0.045659
#
#
# Mechanical properties :
#
#
# Convention : Reuss Voigt Hill
#
# Bulk Modulus (GPa) = 3.55299 32.59694 18.07496
# Shear Modulus (GPa) = 5.72186 22.32627 14.02406
#
# Velocity S-wave (km/s) = 1.62392 3.20778 2.54234
# Velocity P-wave (km/s) = 2.27017 5.36128 4.11685
#
# Compressibility (1/GPa) = 0.28145303
#
# Stress axis : x y z
#
# Youngs Moduli (GPa) = 3.18181 38.56523 45.59483
#
# Poissons Ratio (x) = 2.83461 -2.09517
# Poissons Ratio (y) = 0.23387 0.58352
# Poissons Ratio (z) = -0.14621 0.49356
#
# Static dielectric constant tensor:
#      x y z
#    x 1.805790 0.000000 0.003630 
#    y 0.000000 1.823640 0.000000 
#    z 0.003630 0.000000 1.846610 
# 
# From -- ./inp_files/50248.got.cif
#   From: 2010.05.17/outbox.cif.g08.bks.cpg/sg5_26_cif.got.tgz:50248.got - 2010.06.03 18:56:24.
