data_PCOD9120872
_publ_section_title
;
Structure prediction by ZEFSAII (Michael W. Deem and Ramdas Pophale) SiO2 
 PCOD9120872
Probable space group: C 2
;
_chemical_formula_sum "Si O2"
_cell_formula_units_Z 26
_cell_length_a 18.130145
_cell_length_b 7.055884
_cell_length_c 11.364366
_cell_angle_alpha 90.000000
_cell_angle_beta 128.289423
_cell_angle_gamma 90.000000
_cell_volume 1141.056487
_symmetry_space_group_name_H-M "C 2"
_symmetry_group_IT_number 5
_symmetry_cell_setting 'monoclinic'
loop_
_space_group_symop_operation_xyz
x,y,z
-x,y,-z
1/2+x,1/2+y,z
1/2-x,1/2+y,-z
loop_
_atom_site_type_symbol
_atom_site_label
_atom_site_fract_x
_atom_site_fract_y
_atom_site_fract_z
Si Si1 0.773565 0.471410 0.123183
Si Si2 0.625186 0.224718 0.061607
Si Si3 0.177963 0.073175 0.555684
Si Si4 0.131209 0.774395 0.324085
Si Si5 0.214263 0.365223 0.134614
Si Si6 0.956369 0.706289 0.268242
Si Si7 0.000000 0.029074 0.500000
O O1 0.735346 0.289377 0.154938
O O2 0.710750 0.641596 0.113914
O O3 0.880885 0.549132 0.236300
O O4 0.755647 0.433644 0.967098
O O5 0.591891 0.297594 0.153433
O O6 0.623319 0.995647 0.066343
O O7 0.581647 0.280587 0.895005
O O8 0.139011 0.966962 0.402662
O O9 0.220704 0.918279 0.690177
O O10 0.085548 0.148958 0.531021
O O11 0.264703 0.195401 0.595367
O O12 0.062164 0.645160 0.336441
O O13 0.962945 0.880596 0.364547
#
# Coordination Sequence:
#
# PCOD9120872 Si02
#       7
#     4   4   4   4   4   4   2
#     4  11  18  34  63  88 112 153 199 244 291 343
#     4  10  21  36  60  88 115 159 194 244 290 355
#     4  10  21  38  57  85 115 160 193 243 299 350
#     4  10  23  38  60  80 126 157 191 242 308 352
#     4  10  19  34  57  89 117 147 199 246 285 342
#     4  10  20  35  59  89 114 155 198 242 298 351
#     4  10  18  36  60  84 116 154 198 246 292 346
#
# _framework density 22.785899000000001
#
# number of rings (size 3 to 8) (size 9 to 14) (size 15 to 20)
#    0.000    1.846    4.615    0.462    2.154    0.000 
#    0.000    3.077   10.154    3.692    0.000    0.000 
#    0.000    0.000    0.000    0.000    0.000    0.000 
#
# Total GULP energy -72382.531705 kJ/mol
# GULP energy per Si atom -5567.887054 kJ/mol
# Density = 2.273404 g / cm^3
# Si number density = 22.785899 Si / 1000 Ang^3
#
#
#
# Elastic Constant Matrix: (Units=GPa)
#
#
# Indices 1 2 3 4 5 6 
#
# 1 165.2613 20.0986 7.3431 0.0000 24.0268 0.0000
# 2 20.0986 41.3941 -3.9813 0.0000 3.3325 0.0000
# 3 7.3431 -3.9813 63.1591 0.0000 -8.5906 0.0000
# 4 0.0000 0.0000 0.0000 19.8666 0.0000 2.8796
# 5 24.0268 3.3325 -8.5906 0.0000 37.0466 0.0000
# 6 0.0000 0.0000 0.0000 2.8796 0.0000 20.7259
#
#
#
# Elastic Compliance Matrix: (Units=1/GPa)
#
#
# Indices 1 2 3 4 5 6 
#
# 1 0.007221 -0.003284 -0.001697 0.000000 -0.004781 0.000000
# 2 -0.003284 0.025928 0.002054 0.000000 0.000274 0.000000
# 3 -0.001697 0.002054 0.016815 0.000000 0.004815 0.000000
# 4 0.000000 0.000000 0.000000 0.051370 0.000000 -0.007137
# 5 -0.004781 0.000274 0.004815 0.000000 0.031186 0.000000
# 6 0.000000 0.000000 0.000000 -0.007137 0.000000 0.049240
#
#
# Mechanical properties :
#
#
# Convention : Reuss Voigt Hill
#
# Bulk Modulus (GPa) = 22.67147 35.19282 28.93214
# Shear Modulus (GPa) = 24.71351 31.95144 28.33247
#
# Velocity S-wave (km/s) = 3.29689 3.74872 3.53004
# Velocity P-wave (km/s) = 4.94612 5.84942 5.41663
#
# Compressibility (1/GPa) = 0.04410830
#
# Stress axis : x y z
#
# Youngs Moduli (GPa) = 138.48522 38.56809 59.47196
#
# Poissons Ratio (x) = 0.12667 0.10092
# Poissons Ratio (y) = 0.45484 -0.12213
# Poissons Ratio (z) = 0.23499 -0.07920
#
# Static dielectric constant tensor:
#      x y z
#    x 1.927150 0.000000 0.085630 
#    y 0.000000 1.821840 0.000000 
#    z 0.085630 0.000000 1.905890 
# 
# From -- ./inp_files/44234.got.cif
#   From: 2010.05.17/outbox.cif.g08.bks.cpg/sg5_23_cif.got.tgz:44234.got - 2010.06.03 18:56:24.
