data_PCOD9120083
_publ_section_title
;
Structure prediction by ZEFSAII (Michael W. Deem and Ramdas Pophale) SiO2 
 PCOD9120083
Probable space group: C 2
;
_chemical_formula_sum "Si O2"
_cell_formula_units_Z 16
_cell_length_a 12.582297
_cell_length_b 6.561050
_cell_length_c 6.742375
_cell_angle_alpha 90.000000
_cell_angle_beta 84.696551
_cell_angle_gamma 90.000000
_cell_volume 554.221076
_symmetry_space_group_name_H-M "C 2"
_symmetry_group_IT_number 5
_symmetry_cell_setting 'monoclinic'
loop_
_space_group_symop_operation_xyz
x,y,z
-x,y,-z
1/2+x,1/2+y,z
1/2-x,1/2+y,-z
loop_
_atom_site_type_symbol
_atom_site_label
_atom_site_fract_x
_atom_site_fract_y
_atom_site_fract_z
Si Si1 0.310284 0.041940 0.802756
Si Si2 0.644349 0.950354 0.635720
Si Si3 0.500000 0.127341 0.000000
Si Si4 0.650515 0.557847 0.145165
Si Si5 0.000000 0.103763 0.500000
O O1 0.348055 0.808704 0.838111
O O2 0.249542 0.965303 0.252525
O O3 0.385259 0.191365 0.922948
O O4 0.190165 0.044848 0.908934
O O5 0.669788 0.077458 0.432401
O O6 0.598207 0.740100 0.560797
O O7 0.549997 0.028906 0.792723
O O8 0.544244 0.502785 0.290559
#
# Coordination Sequence:
#
# PCOD9120083 Si02
#       5
#     4   4   2   4   2
#     4  10  21  39  63 101 126 166 218 263 318 383
#     4  10  19  36  65  96 122 167 216 253 315 386
#     4  10  16  34  66  88 120 166 206 252 314 372
#     4  10  22  38  69  95 128 171 217 259 324 382
#     4  10  20  44  64  94 128 174 210 260 328 370
#
# _framework density 28.869346
#
# number of rings (size 3 to 8) (size 9 to 14) (size 15 to 20)
#    0.000    2.000    5.000    0.000    0.000    8.000 
#    0.000    0.000   55.000    0.000    0.000    0.000 
#    0.000    0.000    0.000    0.000    0.000    0.000 
#
# Total GULP energy -44630.364151 kJ/mol
# GULP energy per Si atom -5578.795519 kJ/mol
# Density = 2.880364 g / cm^3
# Si number density = 28.869346 Si / 1000 Ang^3
#
#
#
# Elastic Constant Matrix: (Units=GPa)
#
#
# Indices 1 2 3 4 5 6 
#
# 1 187.7353 19.4666 67.0869 0.0000 -6.8233 0.0000
# 2 19.4666 44.7852 30.9509 0.0000 -20.2837 0.0000
# 3 67.0869 30.9509 279.1146 0.0000 -60.4853 0.0000
# 4 0.0000 0.0000 0.0000 50.5785 0.0000 -23.6528
# 5 -6.8233 -20.2837 -60.4853 0.0000 94.4444 0.0000
# 6 0.0000 0.0000 0.0000 -23.6528 0.0000 47.5887
#
#
#
# Elastic Compliance Matrix: (Units=1/GPa)
#
#
# Indices 1 2 3 4 5 6 
#
# 1 0.006012 -0.002048 -0.001415 0.000000 -0.000912 0.000000
# 2 -0.002048 0.026282 -0.001429 0.000000 0.004581 0.000000
# 3 -0.001415 -0.001429 0.004636 0.000000 0.002560 0.000000
# 4 0.000000 0.000000 0.000000 0.025758 0.000000 0.012802
# 5 -0.000912 0.004581 0.002560 0.000000 0.013146 0.000000
# 6 0.000000 0.000000 0.000000 0.012802 0.000000 0.027377
#
#
# Mechanical properties :
#
#
# Convention : Reuss Voigt Hill
#
# Bulk Modulus (GPa) = 36.84058 82.96044 59.90051
# Shear Modulus (GPa) = 40.96897 64.79771 52.88334
#
# Velocity S-wave (km/s) = 3.77120 4.74277 4.28462
# Velocity P-wave (km/s) = 5.63484 7.66751 6.72838
#
# Compressibility (1/GPa) = 0.02714398
#
# Stress axis : x y z
#
# Youngs Moduli (GPa) = 166.34305 38.04939 215.69230
#
# Poissons Ratio (x) = 0.07792 0.30531
# Poissons Ratio (y) = 0.34065 0.30831
# Poissons Ratio (z) = 0.23546 0.05439
#
# Static dielectric constant tensor:
#      x y z
#    x 2.224480 0.000000 0.067760 
#    y 0.000000 2.811630 0.000000 
#    z 0.067760 0.000000 2.182970 
# 
# From -- ./inp_files/17892.got.cif
#   From: 2010.05.17/outbox.cif.g08.bks.cpg/sg5_9_cif.got.tgz:17892.got - 2010.06.03 18:56:24.
