data_PCOD9120603
_publ_section_title
;
Structure prediction by ZEFSAII (Michael W. Deem and Ramdas Pophale) SiO2 
 PCOD9120603
Probable space group: C 2
;
_chemical_formula_sum "Si O2"
_cell_formula_units_Z 30
_cell_length_a 22.494592
_cell_length_b 8.249708
_cell_length_c 8.167019
_cell_angle_alpha 90.000000
_cell_angle_beta 107.420779
_cell_angle_gamma 90.000000
_cell_volume 1446.067750
_symmetry_space_group_name_H-M "C 2"
_symmetry_group_IT_number 5
_symmetry_cell_setting 'monoclinic'
loop_
_space_group_symop_operation_xyz
x,y,z
-x,y,-z
1/2+x,1/2+y,z
1/2-x,1/2+y,-z
loop_
_atom_site_type_symbol
_atom_site_label
_atom_site_fract_x
_atom_site_fract_y
_atom_site_fract_z
Si Si1 0.814707 0.974720 0.571105
Si Si2 0.000000 0.660128 0.000000
Si Si3 0.129899 0.698109 0.211418
Si Si4 0.142831 0.353956 0.060155
Si Si5 0.376100 0.034162 0.437803
Si Si6 0.408650 0.729705 0.640164
Si Si7 0.034281 0.414876 0.740097
Si Si8 0.237721 0.723479 0.716997
O O1 0.823054 0.844882 0.724538
O O2 0.785761 0.886118 0.391462
O O3 0.882539 0.051157 0.588844
O O4 0.771389 0.116758 0.603779
O O5 0.936253 0.754373 0.916776
O O6 0.008455 0.539316 0.853763
O O7 0.149670 0.542576 0.120636
O O8 0.119828 0.635597 0.390434
O O9 0.106758 0.273138 0.184491
O O10 0.210038 0.269680 0.108435
O O11 0.097127 0.338809 0.869435
O O12 0.321848 0.115365 0.286280
O O13 0.366727 0.851490 0.495336
O O14 0.438982 0.019306 0.387530
O O15 0.480055 0.782270 0.667481
#
# Coordination Sequence:
#
# PCOD9120603 Si02
#       8
#     4   2   4   4   4   4   4   4
#     4  10  19  33  59  83 114 142 195 235 274 328
#     4  10  18  34  58  80 110 144 182 230 282 344
#     4   9  18  34  54  90 103 148 180 231 281 327
#     4   9  18  34  58  80 112 146 187 224 282 329
#     4  10  20  32  59  81 110 148 189 221 283 329
#     4  10  18  33  57  84 105 145 189 234 273 337
#     4  11  18  35  59  83 108 150 184 227 283 348
#     4  10  19  35  53  86 110 151 187 234 273 335
#
# _framework density 20.745916000000001
#
# number of rings (size 3 to 8) (size 9 to 14) (size 15 to 20)
#    0.000    2.133    4.000    3.600    0.000    0.000 
#    4.800    4.000   11.733    0.000    0.000    0.000 
#    0.000    0.000    0.000    0.000    0.000    0.000 
#
# Total GULP energy -83601.746735 kJ/mol
# GULP energy per Si atom -5573.449782 kJ/mol
# Density = 2.069870 g / cm^3
# Si number density = 20.745916 Si / 1000 Ang^3
#
#
#
# Elastic Constant Matrix: (Units=GPa)
#
#
# Indices 1 2 3 4 5 6 
#
# 1 99.5481 30.0974 26.3217 0.0000 28.0617 0.0000
# 2 30.0974 65.2773 17.6277 0.0000 16.7361 0.0000
# 3 26.3217 17.6277 37.1915 0.0000 21.2980 0.0000
# 4 0.0000 0.0000 0.0000 18.0625 0.0000 18.6652
# 5 28.0617 16.7361 21.2980 0.0000 50.5554 0.0000
# 6 0.0000 0.0000 0.0000 18.6652 0.0000 39.6869
#
#
#
# Elastic Compliance Matrix: (Units=1/GPa)
#
#
# Indices 1 2 3 4 5 6 
#
# 1 0.013834 -0.003813 -0.005679 0.000000 -0.004024 0.000000
# 2 -0.003813 0.018981 -0.005155 0.000000 -0.001995 0.000000
# 3 -0.005679 -0.005155 0.040288 0.000000 -0.012113 0.000000
# 4 0.000000 0.000000 0.000000 0.107712 0.000000 -0.050658
# 5 -0.004024 -0.001995 -0.012113 0.000000 0.027778 0.000000
# 6 0.000000 0.000000 0.000000 -0.050658 0.000000 0.049022
#
#
# Mechanical properties :
#
#
# Convention : Reuss Voigt Hill
#
# Bulk Modulus (GPa) = 22.82706 38.90118 30.86412
# Shear Modulus (GPa) = 16.58304 30.19229 23.38767
#
# Velocity S-wave (km/s) = 2.83033 3.81903 3.36123
# Velocity P-wave (km/s) = 4.65919 6.18373 5.47479
#
# Compressibility (1/GPa) = 0.04380766
#
# Stress axis : x y z
#
# Youngs Moduli (GPa) = 72.28408 52.68402 24.82159
#
# Poissons Ratio (x) = 0.20090 0.14097
# Poissons Ratio (y) = 0.27564 0.12796
# Poissons Ratio (z) = 0.41052 0.27159
#
# Static dielectric constant tensor:
#      x y z
#    x 1.800450 0.000000 0.032970 
#    y 0.000000 1.755220 0.000000 
#    z 0.032970 0.000000 1.802750 
# 
# From -- ./inp_files/30600.got.cif
#   From: 2010.05.17/outbox.cif.g08.bks.cpg/sg5_16_cif.got.tgz:30600.got - 2010.06.03 18:56:24.
