data_PCOD9120517
_publ_section_title
;
Structure prediction by ZEFSAII (Michael W. Deem and Ramdas Pophale) SiO2 
 PCOD9120517
Probable space group: C 2
;
_chemical_formula_sum "Si O2"
_cell_formula_units_Z 26
_cell_length_a 8.894277
_cell_length_b 16.865107
_cell_length_c 7.861168
_cell_angle_alpha 90.000000
_cell_angle_beta 123.650500
_cell_angle_gamma 90.000000
_cell_volume 981.603736
_symmetry_space_group_name_H-M "C 2"
_symmetry_group_IT_number 5
_symmetry_cell_setting 'monoclinic'
loop_
_space_group_symop_operation_xyz
x,y,z
-x,y,-z
1/2+x,1/2+y,z
1/2-x,1/2+y,-z
loop_
_atom_site_type_symbol
_atom_site_label
_atom_site_fract_x
_atom_site_fract_y
_atom_site_fract_z
Si Si1 0.288684 0.478130 0.739861
Si Si2 0.685110 0.888726 0.330560
Si Si3 0.607561 0.673647 0.894144
Si Si4 0.500000 0.105542 0.500000
Si Si5 0.373351 0.522466 0.255477
Si Si6 0.255362 0.232482 0.515511
Si Si7 0.709902 0.821626 0.851236
O O1 0.205969 0.438776 0.516497
O O2 0.148964 0.549558 0.686528
O O3 0.481480 0.508003 0.800834
O O4 0.303797 0.404818 0.877210
O O5 0.799648 0.808650 0.424321
O O6 0.484298 0.855206 0.210709
O O7 0.747394 0.948341 0.222691
O O8 0.712644 0.603612 0.863823
O O9 0.440285 0.698352 0.664779
O O10 0.738076 0.749848 0.000153
O O11 0.500000 0.657347 0.000000
O O12 0.393777 0.161549 0.566186
O O13 0.500000 0.534826 0.500000
O O14 0.235776 0.273331 0.688789
#
# Coordination Sequence:
#
# PCOD9120517 Si02
#       7
#     4   4   4   2   4   4   4
#     4  10  18  32  52  89 116 139 187 245 299 337
#     4   9  18  33  54  83 117 139 190 241 292 346
#     4  11  22  37  55  82 118 159 200 237 288 350
#     4  12  20  30  58  96 124 144 186 264 284 346
#     4  10  20  34  57  86 114 144 195 246 294 344
#     4  10  21  35  59  90 117 151 196 239 302 344
#     4  10  20  37  60  83 113 153 194 243 291 351
#
# _framework density 26.487266999999999
#
# number of rings (size 3 to 8) (size 9 to 14) (size 15 to 20)
#    0.000    1.846    3.077    4.615    7.538    0.000 
#    0.000    3.077    0.000    0.923    0.000    0.000 
#    0.000    0.000    0.000    0.000    0.000    0.000 
#
# Total GULP energy -72633.366967 kJ/mol
# GULP energy per Si atom -5587.182074 kJ/mol
# Density = 2.642698 g / cm^3
# Si number density = 26.487267 Si / 1000 Ang^3
#
#
#
# Elastic Constant Matrix: (Units=GPa)
#
#
# Indices 1 2 3 4 5 6 
#
# 1 125.3467 86.6451 23.0706 0.0000 -16.1308 0.0000
# 2 86.6451 225.4137 39.5907 0.0000 -17.6968 0.0000
# 3 23.0706 39.5907 91.3077 0.0000 -28.8549 0.0000
# 4 0.0000 0.0000 0.0000 6.6915 0.0000 -21.6855
# 5 -16.1308 -17.6968 -28.8549 0.0000 32.2953 0.0000
# 6 0.0000 0.0000 0.0000 -21.6855 0.0000 70.9360
#
#
#
# Elastic Compliance Matrix: (Units=1/GPa)
#
#
# Indices 1 2 3 4 5 6 
#
# 1 0.011207 -0.004041 -0.000014 0.000000 0.003371 0.000000
# 2 -0.004041 0.006286 -0.001747 0.000000 -0.000135 0.000000
# 3 -0.000014 -0.001747 0.015897 0.000000 0.013239 0.000000
# 4 0.000000 0.000000 0.000000 16.092817 0.000000 4.919657
# 5 0.003371 -0.000135 0.013239 0.000000 0.044402 0.000000
# 6 0.000000 0.000000 0.000000 4.919657 0.000000 1.518062
#
#
# Mechanical properties :
#
#
# Convention : Reuss Voigt Hill
#
# Bulk Modulus (GPa) = 45.90255 82.29789 64.10022
# Shear Modulus (GPa) = 0.28237 41.50200 20.89218
#
# Velocity S-wave (km/s) = 0.32686 3.96266 2.81154
# Velocity P-wave (km/s) = 4.18451 7.21631 5.89853
#
# Compressibility (1/GPa) = 0.02178528
#
# Stress axis : x y z
#
# Youngs Moduli (GPa) = 89.22603 159.08955 62.90540
#
# Poissons Ratio (x) = 0.64285 0.00091
# Poissons Ratio (y) = 0.36054 0.10990
# Poissons Ratio (z) = 0.00129 0.27795
#
# Static dielectric constant tensor:
#      x y z
#    x 2.058850 0.000000 0.025050 
#    y 0.000000 2.163580 0.000000 
#    z 0.025050 0.000000 2.130190 
# 
# From -- ./inp_files/16172.got.cif
#   From: 2010.05.17/outbox.cif.g08.bks.cpg/sg5_9_cif.got.tgz:16172.got - 2010.06.03 18:56:24.
