data_PCOD9120579
_publ_section_title
;
Structure prediction by ZEFSAII (Michael W. Deem and Ramdas Pophale) SiO2 
 PCOD9120579
Probable space group: C 2
;
_chemical_formula_sum "Si O2"
_cell_formula_units_Z 26
_cell_length_a 6.999610
_cell_length_b 20.185285
_cell_length_c 7.828156
_cell_angle_alpha 90.000000
_cell_angle_beta 90.894127
_cell_angle_gamma 90.000000
_cell_volume 1105.898620
_symmetry_space_group_name_H-M "C 2"
_symmetry_group_IT_number 5
_symmetry_cell_setting 'monoclinic'
loop_
_space_group_symop_operation_xyz
x,y,z
-x,y,-z
1/2+x,1/2+y,z
1/2-x,1/2+y,-z
loop_
_atom_site_type_symbol
_atom_site_label
_atom_site_fract_x
_atom_site_fract_y
_atom_site_fract_z
Si Si1 0.811285 0.000000 0.832392
Si Si2 0.500000 0.752283 0.500000
Si Si3 0.783695 0.069971 0.153128
Si Si4 0.225653 0.855774 0.101371
Si Si5 0.352663 0.863305 0.723432
Si Si6 0.731136 0.495708 0.529795
Si Si7 0.334035 0.716895 0.142185
O O1 0.990203 0.050386 0.829054
O O2 0.876008 0.923326 0.841607
O O3 0.693328 0.006668 0.658912
O O4 0.711718 0.019197 0.007850
O O5 0.349612 0.801971 0.591309
O O6 0.419399 0.712722 0.336179
O O7 0.752779 0.145020 0.099121
O O8 0.715705 0.053706 0.340638
O O9 0.432168 0.865666 0.197002
O O10 0.188753 0.778919 0.144364
O O11 0.234474 0.856109 0.895963
O O12 0.296469 0.927775 0.617200
O O13 0.500000 0.491972 0.500000
O O14 0.500000 0.731054 0.000000
#
# Coordination Sequence:
#
# PCOD9120579 Si02
#       7
#     4   2   4   4   4   4   4
#     4  10  19  33  52  76 110 141 175 222 271 313
#     4  10  20  30  54  78 110 136 176 226 278 310
#     4  10  21  33  52  81 113 137 181 222 274 323
#     4  10  19  34  55  79 109 143 177 226 274 317
#     4  10  18  33  51  80 105 139 181 222 269 321
#     4  10  20  32  51  79 107 137 180 223 268 316
#     4  11  19  32  50  80 112 140 178 226 275 315
#
# _framework density 23.510293000000001
#
# number of rings (size 3 to 8) (size 9 to 14) (size 15 to 20)
#    0.000    1.846    6.154    1.846    3.231    0.000 
#    0.000    0.000    0.000    0.000    8.000    4.308 
#    6.923    0.000    0.000    0.000    0.000    0.000 
#
# Total GULP energy -72523.983514 kJ/mol
# GULP energy per Si atom -5578.767963 kJ/mol
# Density = 2.345678 g / cm^3
# Si number density = 23.510293 Si / 1000 Ang^3
#
#
#
# Elastic Constant Matrix: (Units=GPa)
#
#
# Indices 1 2 3 4 5 6 
#
# 1 53.7966 11.4308 -1.8984 0.0000 14.0272 0.0000
# 2 11.4308 148.9790 26.0344 0.0000 5.5975 0.0000
# 3 -1.8984 26.0344 198.6351 0.0000 2.9980 0.0000
# 4 0.0000 0.0000 0.0000 29.6258 0.0000 -1.3675
# 5 14.0272 5.5975 2.9980 0.0000 13.3303 0.0000
# 6 0.0000 0.0000 0.0000 -1.3675 0.0000 17.0130
#
#
#
# Elastic Compliance Matrix: (Units=1/GPa)
#
#
# Indices 1 2 3 4 5 6 
#
# 1 0.025879 -0.001113 0.000800 0.000000 -0.026944 0.000000
# 2 -0.001113 0.007015 -0.000906 0.000000 -0.001571 0.000000
# 3 0.000800 -0.000906 0.005185 0.000000 -0.001627 0.000000
# 4 0.000000 0.000000 0.000000 0.033880 0.000000 0.002723
# 5 -0.026944 -0.001571 -0.001627 0.000000 0.104396 0.000000
# 6 0.000000 0.000000 0.000000 0.002723 0.000000 0.058997
#
#
# Mechanical properties :
#
#
# Convention : Reuss Voigt Hill
#
# Bulk Modulus (GPa) = 28.05811 52.50492 40.28152
# Shear Modulus (GPa) = 20.02630 36.38342 28.20486
#
# Velocity S-wave (km/s) = 2.92174 3.93816 3.46740
# Velocity P-wave (km/s) = 4.83140 6.56202 5.76205
#
# Compressibility (1/GPa) = 0.03564032
#
# Stress axis : x y z
#
# Youngs Moduli (GPa) = 38.64155 142.54837 192.85069
#
# Poissons Ratio (x) = 0.15866 -0.15426
# Poissons Ratio (y) = 0.04301 0.17480
# Poissons Ratio (z) = -0.03091 0.12920
#
# Static dielectric constant tensor:
#      x y z
#    x 2.050470 0.000000 -0.055800 
#    y 0.000000 1.863130 0.000000 
#    z -0.055800 0.000000 1.947520 
# 
# From -- ./inp_files/21025.got.cif
#   From: 2010.05.17/outbox.cif.g08.bks.cpg/sg5_11_cif.got.tgz:21025.got - 2010.06.03 18:56:24.
