data_PCOD9120877
_publ_section_title
;
Structure prediction by ZEFSAII (Michael W. Deem and Ramdas Pophale) SiO2 
 PCOD9120877
Probable space group: C 2
;
_chemical_formula_sum "Si O2"
_cell_formula_units_Z 28
_cell_length_a 9.676254
_cell_length_b 14.412442
_cell_length_c 11.786167
_cell_angle_alpha 90.000000
_cell_angle_beta 126.707692
_cell_angle_gamma 90.000000
_cell_volume 1317.731166
_symmetry_space_group_name_H-M "C 2"
_symmetry_group_IT_number 5
_symmetry_cell_setting 'monoclinic'
loop_
_space_group_symop_operation_xyz
x,y,z
-x,y,-z
1/2+x,1/2+y,z
1/2-x,1/2+y,-z
loop_
_atom_site_type_symbol
_atom_site_label
_atom_site_fract_x
_atom_site_fract_y
_atom_site_fract_z
Si Si1 0.658853 0.480820 0.216304
Si Si2 0.640038 0.740267 0.334326
Si Si3 0.679197 0.683715 0.123018
Si Si4 0.005834 0.440726 0.253527
Si Si5 0.500000 0.339540 0.000000
Si Si6 0.748131 0.676069 0.905033
Si Si7 0.500000 0.011046 0.000000
Si Si8 0.833224 0.574588 0.501305
O O1 0.636000 0.580830 0.146564
O O2 0.706164 0.505549 0.368501
O O3 0.825278 0.441521 0.231873
O O4 0.506235 0.410074 0.110298
O O5 0.745453 0.734218 0.266836
O O6 0.602894 0.846942 0.337227
O O7 0.452872 0.691015 0.221772
O O8 0.743813 0.674336 0.469859
O O9 0.500000 0.731475 0.000000
O O10 0.781381 0.676265 0.057579
O O11 0.107323 0.528776 0.353621
O O12 0.983024 0.452223 0.107408
O O13 0.343914 0.267944 0.910406
O O14 0.836444 0.581364 0.907137
O O15 0.000000 0.582190 0.500000
#
# Coordination Sequence:
#
# PCOD9120877 Si02
#       8
#     4   4   4   4   2   4   2   4
#     4  10  18  36  60  86 119 161 209 254 297 368
#     4  10  21  39  65  88 118 169 218 256 306 368
#     4   9  17  32  56  82 117 155 197 249 299 360
#     4  11  22  40  60  92 126 166 211 261 314 366
#     4  11  20  32  59  96 122 154 205 254 313 374
#     4  10  21  37  54  92 129 159 199 255 325 367
#     4  11  24  38  61  92 138 162 193 272 331 364
#     4   9  22  43  61  85 123 171 218 256 305 370
#
# _framework density 21.248643000000001
#
# number of rings (size 3 to 8) (size 9 to 14) (size 15 to 20)
#    0.000    2.000    3.571    0.000    3.000    0.000 
#    5.143    2.143    0.000    0.000    0.000    0.000 
#    0.000    0.000    0.000    0.000    0.000    0.000 
#
# Total GULP energy -78031.226064 kJ/mol
# GULP energy per Si atom -5573.659005 kJ/mol
# Density = 2.120028 g / cm^3
# Si number density = 21.248643 Si / 1000 Ang^3
#
#
#
# Elastic Constant Matrix: (Units=GPa)
#
#
# Indices 1 2 3 4 5 6 
#
# 1 30.9376 17.0587 -0.6194 0.0000 -2.1921 0.0000
# 2 17.0587 112.2087 22.5029 0.0000 9.5337 0.0000
# 3 -0.6194 22.5029 65.8239 0.0000 1.7172 0.0000
# 4 0.0000 0.0000 0.0000 28.2237 0.0000 3.3941
# 5 -2.1921 9.5337 1.7172 0.0000 22.6239 0.0000
# 6 0.0000 0.0000 0.0000 3.3941 0.0000 13.8039
#
#
#
# Elastic Compliance Matrix: (Units=1/GPa)
#
#
# Indices 1 2 3 4 5 6 
#
# 1 0.036409 -0.006538 0.002419 0.000000 0.006099 0.000000
# 2 -0.006538 0.011078 -0.003718 0.000000 -0.005020 0.000000
# 3 0.002419 -0.003718 0.016471 0.000000 0.000551 0.000000
# 4 0.000000 0.000000 0.000000 0.036511 0.000000 -0.008977
# 5 0.006099 -0.005020 0.000551 0.000000 0.046865 0.000000
# 6 0.000000 0.000000 0.000000 -0.008977 0.000000 0.074651
#
#
# Mechanical properties :
#
#
# Convention : Reuss Voigt Hill
#
# Bulk Modulus (GPa) = 20.71102 31.87274 26.29188
# Shear Modulus (GPa) = 19.70406 24.26550 21.98478
#
# Velocity S-wave (km/s) = 3.04848 3.38298 3.22008
# Velocity P-wave (km/s) = 4.70735 5.50381 5.12108
#
# Compressibility (1/GPa) = 0.04828348
#
# Stress axis : x y z
#
# Youngs Moduli (GPa) = 27.46581 90.26855 60.71124
#
# Poissons Ratio (x) = 0.59021 -0.14685
# Poissons Ratio (y) = 0.17958 0.22571
# Poissons Ratio (z) = -0.06643 0.33560
#
# Static dielectric constant tensor:
#      x y z
#    x 1.817990 0.000000 0.033370 
#    y 0.000000 1.772770 0.000000 
#    z 0.033370 0.000000 1.836290 
# 
# From -- ./inp_files/36518.got.cif
#   From: 2010.05.17/outbox.cif.g08.bks.cpg/sg5_19_cif.got.tgz:36518.got - 2010.06.03 18:56:24.
