data_PCOD9120610
_publ_section_title
;
Structure prediction by ZEFSAII (Michael W. Deem and Ramdas Pophale) SiO2 
 PCOD9120610
Probable space group: C 2
;
_chemical_formula_sum "Si O2"
_cell_formula_units_Z 26
_cell_length_a 18.527551
_cell_length_b 11.163920
_cell_length_c 7.983828
_cell_angle_alpha 90.000000
_cell_angle_beta 49.011692
_cell_angle_gamma 90.000000
_cell_volume 1246.530163
_symmetry_space_group_name_H-M "C 2"
_symmetry_group_IT_number 5
_symmetry_cell_setting 'monoclinic'
loop_
_space_group_symop_operation_xyz
x,y,z
-x,y,-z
1/2+x,1/2+y,z
1/2-x,1/2+y,-z
loop_
_atom_site_type_symbol
_atom_site_label
_atom_site_fract_x
_atom_site_fract_y
_atom_site_fract_z
Si Si1 0.753751 0.781740 0.325303
Si Si2 0.500000 0.158674 0.500000
Si Si3 0.400533 0.909447 0.210325
Si Si4 0.103243 0.207686 0.272243
Si Si5 0.364511 0.972133 0.898289
Si Si6 0.296408 0.526571 0.101058
Si Si7 0.366818 0.147413 0.430200
O O1 0.671739 0.826807 0.579224
O O2 0.692192 0.716454 0.271406
O O3 0.809349 0.899608 0.173135
O O4 0.829819 0.709027 0.318856
O O5 0.435110 0.219600 0.454740
O O6 0.425503 0.076557 0.717374
O O7 0.420601 0.024002 0.298041
O O8 0.500000 0.851986 0.000000
O O9 0.356925 0.964443 0.108149
O O10 0.094670 0.344351 0.222513
O O11 0.000000 0.173619 0.500000
O O12 0.125343 0.117260 0.087009
O O13 0.260938 0.986170 0.976329
O O14 0.226178 0.603544 0.326598
#
# Coordination Sequence:
#
# PCOD9120610 Si02
#       7
#     4   2   4   4   4   4   4
#     4  10  22  37  58  94 124 159 204 246 303 368
#     4  10  18  34  56  94 126 154 202 258 284 360
#     4  11  19  32  59  93 121 152 196 259 296 349
#     4  11  20  36  62  91 121 162 200 247 306 360
#     4  10  18  33  57  91 129 147 200 248 299 356
#     4   9  21  36  57  91 123 159 196 252 304 363
#     4  10  20  36  58  89 125 157 201 250 308 352
#
# _framework density 20.857897999999999
#
# number of rings (size 3 to 8) (size 9 to 14) (size 15 to 20)
#    0.000    1.846    2.308    3.692    0.000    0.000 
#    0.000    0.000    0.000   12.923   22.000    0.000 
#    0.000    0.000    0.000    0.000    0.000    0.000 
#
# Total GULP energy -72464.361908 kJ/mol
# GULP energy per Si atom -5574.181685 kJ/mol
# Density = 2.081042 g / cm^3
# Si number density = 20.857898 Si / 1000 Ang^3
#
#
#
# Elastic Constant Matrix: (Units=GPa)
#
#
# Indices 1 2 3 4 5 6 
#
# 1 96.3759 21.2702 -12.2427 0.0000 18.8272 0.0000
# 2 21.2702 53.9793 28.3057 0.0000 -2.2944 0.0000
# 3 -12.2427 28.3057 74.4747 0.0000 9.6461 0.0000
# 4 0.0000 0.0000 0.0000 21.4160 0.0000 9.1701
# 5 18.8272 -2.2944 9.6461 0.0000 27.0595 0.0000
# 6 0.0000 0.0000 0.0000 9.1701 0.0000 27.1049
#
#
#
# Elastic Compliance Matrix: (Units=1/GPa)
#
#
# Indices 1 2 3 4 5 6 
#
# 1 0.017925 -0.013124 0.010164 0.000000 -0.017208 0.000000
# 2 -0.013124 0.033507 -0.017239 0.000000 0.018118 0.000000
# 3 0.010164 -0.017239 0.023857 0.000000 -0.017038 0.000000
# 4 0.000000 0.000000 0.000000 0.054604 0.000000 -0.018474
# 5 -0.017208 0.018118 -0.017038 0.000000 0.056538 0.000000
# 6 0.000000 0.000000 0.000000 -0.018474 0.000000 0.043144
#
#
# Mechanical properties :
#
#
# Convention : Reuss Voigt Hill
#
# Bulk Modulus (GPa) = 28.66189 33.27738 30.96963
# Shear Modulus (GPa) = 17.75536 27.61587 22.68562
#
# Velocity S-wave (km/s) = 2.92079 3.64263 3.30150
# Velocity P-wave (km/s) = 5.01458 5.80350 5.42341
#
# Compressibility (1/GPa) = 0.03488954
#
# Stress axis : x y z
#
# Youngs Moduli (GPa) = 55.78726 29.84430 41.91629
#
# Poissons Ratio (x) = 0.39169 -0.42602
# Poissons Ratio (y) = 0.73217 0.72261
# Poissons Ratio (z) = -0.56700 0.51449
#
# Static dielectric constant tensor:
#      x y z
#    x 1.813000 0.000000 -0.003170 
#    y 0.000000 1.781440 0.000000 
#    z -0.003170 0.000000 1.751040 
# 
# From -- ./inp_files/29562.got.cif
#   From: 2010.05.17/outbox.cif.g08.bks.cpg/sg5_15_cif.got.tgz:29562.got - 2010.06.03 18:56:24.
