data_PCOD9120745
_publ_section_title
;
Structure prediction by ZEFSAII (Michael W. Deem and Ramdas Pophale) SiO2 
 PCOD9120745
Probable space group: C 2
;
_chemical_formula_sum "Si O2"
_cell_formula_units_Z 30
_cell_length_a 10.604382
_cell_length_b 8.927541
_cell_length_c 22.293435
_cell_angle_alpha 90.000000
_cell_angle_beta 143.567937
_cell_angle_gamma 90.000000
_cell_volume 1253.386525
_symmetry_space_group_name_H-M "C 2"
_symmetry_group_IT_number 5
_symmetry_cell_setting 'monoclinic'
loop_
_space_group_symop_operation_xyz
x,y,z
-x,y,-z
1/2+x,1/2+y,z
1/2-x,1/2+y,-z
loop_
_atom_site_type_symbol
_atom_site_label
_atom_site_fract_x
_atom_site_fract_y
_atom_site_fract_z
Si Si1 0.000000 0.582100 0.500000
Si Si2 0.650149 0.884984 0.004015
Si Si3 0.259779 0.575825 0.933769
Si Si4 0.296802 0.062468 0.545904
Si Si5 0.596257 0.942539 0.754634
Si Si6 0.007673 0.875768 0.633736
Si Si7 0.400391 0.683529 0.812586
Si Si8 0.523847 0.625051 0.285133
O O1 0.060164 0.510773 0.457921
O O2 0.227929 0.657435 0.602002
O O3 0.743059 0.006805 0.994071
O O4 0.511220 0.780359 0.905760
O O5 0.500000 0.943445 0.000000
O O6 0.798027 0.752538 0.087791
O O7 0.115597 0.482077 0.832255
O O8 0.500000 0.560506 0.000000
O O9 0.383477 0.995915 0.640427
O O10 0.065548 0.999703 0.442084
O O11 0.337409 0.240141 0.564750
O O12 0.614069 0.767077 0.747490
O O13 0.772387 0.047019 0.792139
O O14 0.229898 0.793160 0.715618
O O15 0.014665 0.967515 0.698223
O O16 0.524908 0.617232 0.803952
#
# Coordination Sequence:
#
# PCOD9120745 Si02
#       8
#     2   4   4   4   4   4   4   4
#     4  10  18  34  64  84 124 184 206 270 340 386
#     4  11  24  46  73 100 141 183 233 292 358 421
#     4  11  24  46  70 102 140 181 232 291 360 415
#     4  10  20  38  64  93 134 173 228 274 335 410
#     4  11  21  41  69  94 132 180 221 283 346 410
#     4  10  22  39  68  96 129 182 222 271 343 406
#     4  11  22  45  66  94 137 178 222 286 348 407
#     4  11  22  39  67  93 133 173 227 275 347 406
#
# _framework density 23.935157
#
# number of rings (size 3 to 8) (size 9 to 14) (size 15 to 20)
#    0.000    1.333    6.667    1.600    0.000    1.600 
#    2.400    2.667   11.733    0.000    0.000    0.000 
#    0.000    0.000    0.000    0.000    0.000    0.000 
#
# Total GULP energy -83693.220102 kJ/mol
# GULP energy per Si atom -5579.548007 kJ/mol
# Density = 2.388068 g / cm^3
# Si number density = 23.935157 Si / 1000 Ang^3
#
#
#
# Elastic Constant Matrix: (Units=GPa)
#
#
# Indices 1 2 3 4 5 6 
#
# 1 108.8998 39.8975 20.3501 0.0000 -23.4107 0.0000
# 2 39.8975 76.3324 -6.2657 0.0000 -1.3552 0.0000
# 3 20.3501 -6.2657 82.9522 0.0000 -30.1611 0.0000
# 4 0.0000 0.0000 0.0000 37.8475 0.0000 -8.5354
# 5 -23.4107 -1.3552 -30.1611 0.0000 35.4345 0.0000
# 6 0.0000 0.0000 0.0000 -8.5354 0.0000 32.6130
#
#
#
# Elastic Compliance Matrix: (Units=1/GPa)
#
#
# Indices 1 2 3 4 5 6 
#
# 1 0.013666 -0.007086 -0.001019 0.000000 0.007890 0.000000
# 2 -0.007086 0.016951 0.002248 0.000000 -0.002120 0.000000
# 3 -0.001019 0.002248 0.017757 0.000000 0.014527 0.000000
# 4 0.000000 0.000000 0.000000 0.028079 0.000000 0.007349
# 5 0.007890 -0.002120 0.014527 0.000000 0.045718 0.000000
# 6 0.000000 0.000000 0.000000 0.007349 0.000000 0.032586
#
#
# Mechanical properties :
#
#
# Convention : Reuss Voigt Hill
#
# Bulk Modulus (GPa) = 27.27797 41.79423 34.53610
# Shear Modulus (GPa) = 27.98125 35.45917 31.72021
#
# Velocity S-wave (km/s) = 3.42284 3.85316 3.64436
# Velocity P-wave (km/s) = 5.20024 6.10697 5.67175
#
# Compressibility (1/GPa) = 0.03665962
#
# Stress axis : x y z
#
# Youngs Moduli (GPa) = 73.17678 58.99240 56.31610
#
# Poissons Ratio (x) = 0.41804 0.05738
# Poissons Ratio (y) = 0.51855 -0.12660
# Poissons Ratio (z) = 0.07456 -0.13262
#
# Static dielectric constant tensor:
#      x y z
#    x 1.952670 0.000000 -0.027220 
#    y 0.000000 1.933030 0.000000 
#    z -0.027220 0.000000 1.985450 
# 
# From -- ./inp_files/68286.got.cif
#   From: 2010.05.17/outbox.cif.g08.bks.cpg/sg5_35_cif.got.tgz:68286.got - 2010.06.03 18:56:24.
