data_PCOD9120863
_publ_section_title
;
Structure prediction by ZEFSAII (Michael W. Deem and Ramdas Pophale) SiO2 
 PCOD9120863
Probable space group: C 2
;
_chemical_formula_sum "Si O2"
_cell_formula_units_Z 32
_cell_length_a 18.004710
_cell_length_b 15.298244
_cell_length_c 12.021379
_cell_angle_alpha 90.000000
_cell_angle_beta 151.358960
_cell_angle_gamma 90.000000
_cell_volume 1587.113974
_symmetry_space_group_name_H-M "C 2"
_symmetry_group_IT_number 5
_symmetry_cell_setting 'monoclinic'
loop_
_space_group_symop_operation_xyz
x,y,z
-x,y,-z
1/2+x,1/2+y,z
1/2-x,1/2+y,-z
loop_
_atom_site_type_symbol
_atom_site_label
_atom_site_fract_x
_atom_site_fract_y
_atom_site_fract_z
Si Si1 0.091004 0.880500 0.842630
Si Si2 0.026881 0.507849 0.157404
Si Si3 0.736266 0.835903 0.378313
Si Si4 0.799442 0.365880 0.919500
Si Si5 0.064214 0.060490 0.914210
Si Si6 0.247223 0.023636 0.359258
Si Si7 0.163485 0.346147 0.653693
Si Si8 0.061857 0.238910 0.332766
O O1 0.916095 0.852499 0.633403
O O2 0.112047 0.983158 0.895631
O O3 0.145701 0.863978 0.789479
O O4 0.205312 0.836423 0.081245
O O5 0.139024 0.423971 0.278976
O O6 0.116411 0.553879 0.377419
O O7 0.867756 0.463200 0.989902
O O8 0.000000 0.550594 0.000000
O O9 0.668491 0.760293 0.366414
O O10 0.711722 0.821646 0.215498
O O11 0.928225 0.312162 0.155498
O O12 0.910863 0.025275 0.776989
O O13 0.014343 0.145850 0.783193
O O14 0.197348 0.075990 0.182174
O O15 0.291634 0.927477 0.369002
O O16 0.151672 0.259518 0.563443
O O17 0.000000 0.364338 0.500000
#
# Coordination Sequence:
#
# PCOD9120863 Si02
#       8
#     4   4   4   4   4   4   4   4
#     4  11  20  38  62  92 119 159 223 256 302 367
#     4   9  16  32  57  87 114 159 211 252 292 363
#     4  10  20  34  61  88 117 161 213 256 294 378
#     4  10  20  34  63  85 121 162 208 252 307 379
#     4  10  23  33  62  91 122 160 202 269 310 359
#     4  10  18  36  58  93 117 157 218 256 294 373
#     4  11  20  37  66  91 123 168 215 256 308 389
#     4  11  21  40  61  90 125 161 208 252 322 371
#
# _framework density 20.162383999999999
#
# number of rings (size 3 to 8) (size 9 to 14) (size 15 to 20)
#    0.000    1.750    5.000    1.500    3.500    0.500 
#    0.000    1.250   11.000    0.000    0.000    0.000 
#    0.000    0.000    0.000    0.000    0.000    0.000 
#
# Total GULP energy -89253.874087 kJ/mol
# GULP energy per Si atom -5578.367130 kJ/mol
# Density = 2.011649 g / cm^3
# Si number density = 20.162384 Si / 1000 Ang^3
#
#
#
# Elastic Constant Matrix: (Units=GPa)
#
#
# Indices 1 2 3 4 5 6 
#
# 1 60.6776 18.1331 12.8945 0.0000 -19.5170 0.0000
# 2 18.1331 42.1139 15.2470 0.0000 -14.3841 0.0000
# 3 12.8945 15.2470 107.9978 0.0000 -19.0280 0.0000
# 4 0.0000 0.0000 0.0000 28.1148 0.0000 -3.6894
# 5 -19.5170 -14.3841 -19.0280 0.0000 22.3661 0.0000
# 6 0.0000 0.0000 0.0000 -3.6894 0.0000 5.0172
#
#
#
# Elastic Compliance Matrix: (Units=1/GPa)
#
#
# Indices 1 2 3 4 5 6 
#
# 1 0.023527 -0.004095 0.001085 0.000000 0.018819 0.000000
# 2 -0.004095 0.031234 -0.001189 0.000000 0.015502 0.000000
# 3 0.001085 -0.001189 0.010975 0.000000 0.009519 0.000000
# 4 0.000000 0.000000 0.000000 0.039367 0.000000 0.028948
# 5 0.018819 0.015502 0.009519 0.000000 0.079200 0.000000
# 6 0.000000 0.000000 0.000000 0.028948 0.000000 0.220602
#
#
# Mechanical properties :
#
#
# Convention : Reuss Voigt Hill
#
# Bulk Modulus (GPa) = 17.44093 33.70429 25.57261
# Shear Modulus (GPa) = 11.56294 22.06728 16.81511
#
# Velocity S-wave (km/s) = 2.39736 3.31188 2.89101
# Velocity P-wave (km/s) = 4.04131 5.60156 4.88414
#
# Compressibility (1/GPa) = 0.05733640
#
# Stress axis : x y z
#
# Youngs Moduli (GPa) = 42.50423 32.01686 91.11686
#
# Poissons Ratio (x) = 0.13111 -0.09885
# Poissons Ratio (y) = 0.17406 0.10837
# Poissons Ratio (z) = -0.04611 0.03808
#
# Static dielectric constant tensor:
#      x y z
#    x 1.716040 0.000000 -0.026230 
#    y 0.000000 1.698820 0.000000 
#    z -0.026230 0.000000 1.757880 
# 
# From -- ./inp_files/44926.got.cif
#   From: 2010.05.17/outbox.cif.g08.bks.cpg/sg5_23_cif.got.tgz:44926.got - 2010.06.03 18:56:24.
