data_PCOD9120933
_publ_section_title
;
Structure prediction by ZEFSAII (Michael W. Deem and Ramdas Pophale) SiO2 
 PCOD9120933
Probable space group: C 2
;
_chemical_formula_sum "Si O2"
_cell_formula_units_Z 32
_cell_length_a 17.729476
_cell_length_b 15.061269
_cell_length_c 10.805214
_cell_angle_alpha 90.000000
_cell_angle_beta 148.769215
_cell_angle_gamma 90.000000
_cell_volume 1495.988686
_symmetry_space_group_name_H-M "C 2"
_symmetry_group_IT_number 5
_symmetry_cell_setting 'monoclinic'
loop_
_space_group_symop_operation_xyz
x,y,z
-x,y,-z
1/2+x,1/2+y,z
1/2-x,1/2+y,-z
loop_
_atom_site_type_symbol
_atom_site_label
_atom_site_fract_x
_atom_site_fract_y
_atom_site_fract_z
Si Si1 0.910931 0.236780 0.593095
Si Si2 0.638479 0.566365 0.634389
Si Si3 0.114780 0.134126 0.067022
Si Si4 0.308968 0.074569 0.126616
Si Si5 0.577829 0.272659 0.735373
Si Si6 0.156308 0.434034 0.177688
Si Si7 0.626215 0.882359 0.847972
Si Si8 0.795996 0.763492 0.491489
O O1 0.909128 0.157637 0.493453
O O2 0.754151 0.245614 0.438630
O O3 0.981879 0.323353 0.632444
O O4 0.021511 0.206608 0.858403
O O5 0.500000 0.518393 0.500000
O O6 0.720479 0.508431 0.648233
O O7 0.740219 0.581993 0.893975
O O8 0.191020 0.074590 0.071147
O O9 0.234885 0.184461 0.318041
O O10 0.000000 0.090257 0.000000
O O11 0.389145 0.169099 0.248051
O O12 0.383208 0.978208 0.229940
O O13 0.500000 0.307693 0.500000
O O14 0.462172 0.277539 0.684892
O O15 0.727413 0.325088 0.975002
O O16 0.205074 0.350774 0.326524
O O17 0.142505 0.402929 0.017019
O O18 0.000000 0.468572 0.000000
#
# Coordination Sequence:
#
# PCOD9120933 Si02
#       8
#     4   4   4   4   4   4   4   4
#     4  11  20  41  59  92 124 175 200 248 318 385
#     4  11  24  37  63  91 130 166 209 248 319 383
#     4  10  18  36  65  92 125 158 206 266 313 356
#     4  11  23  39  62  98 128 161 207 265 314 368
#     4  12  21  39  64  94 122 159 219 267 304 366
#     4  11  20  36  60  97 127 156 210 276 309 352
#     4  11  22  37  66  90 129 167 207 264 312 365
#     4  11  21  35  68  91 123 156 214 267 315 357
#
# _framework density 21.390536999999998
#
# number of rings (size 3 to 8) (size 9 to 14) (size 15 to 20)
#    0.000    1.000    7.500    0.375    3.500    2.000 
#    0.000    1.875    0.000    0.000    0.000    0.000 
#    0.000    0.000    0.000    0.000    0.000    0.000 
#
# Total GULP energy -89371.640105 kJ/mol
# GULP energy per Si atom -5585.727507 kJ/mol
# Density = 2.134185 g / cm^3
# Si number density = 21.390537 Si / 1000 Ang^3
#
#
#
# Elastic Constant Matrix: (Units=GPa)
#
#
# Indices 1 2 3 4 5 6 
#
# 1 119.5841 36.0264 17.3405 0.0000 38.6664 0.0000
# 2 36.0264 107.8016 9.7638 0.0000 10.7404 0.0000
# 3 17.3405 9.7638 37.6411 0.0000 13.6604 0.0000
# 4 0.0000 0.0000 0.0000 -324.7968 0.0000 -54.1604
# 5 38.6664 10.7404 13.6604 0.0000 38.5924 0.0000
# 6 0.0000 0.0000 0.0000 -54.1604 0.0000 16.2060
#
#
#
# Elastic Compliance Matrix: (Units=1/GPa)
#
#
# Indices 1 2 3 4 5 6 
#
# 1 0.013404 -0.003179 -0.000915 0.000000 -0.012221 0.000000
# 2 -0.003179 0.010395 -0.001535 0.000000 0.000836 0.000000
# 3 -0.000915 -0.001535 0.030863 0.000000 -0.009580 0.000000
# 4 0.000000 0.000000 0.000000 -0.001977 0.000000 -0.006607
# 5 -0.012221 0.000836 -0.009580 0.000000 0.041315 0.000000
# 6 0.000000 0.000000 0.000000 -0.006607 0.000000 0.039624
#
#
# Mechanical properties :
#
#
# Convention : Reuss Voigt Hill
#
# Bulk Modulus (GPa) = 23.03955 43.47649 33.25802
# Shear Modulus (GPa) = 31.37729 -40.53995 -4.58133
#
# Velocity S-wave (km/s) = 3.83414 -4.35814 -1.46506
# Velocity P-wave (km/s) = 5.51318 2.22606 3.56649
#
# Compressibility (1/GPa) = 0.04340362
#
# Stress axis : x y z
#
# Youngs Moduli (GPa) = 74.60191 96.20472 32.40089
#
# Poissons Ratio (x) = 0.30585 0.02965
# Poissons Ratio (y) = 0.23717 0.04973
# Poissons Ratio (z) = 0.06828 0.14767
#
# Static dielectric constant tensor:
#      x y z
#    x 1.881770 0.000000 -0.093540 
#    y 0.000000 1.778510 0.000000 
#    z -0.093540 0.000000 1.991990 
# 
# From -- ./inp_files/44987.got.cif
#   From: 2010.05.17/outbox.cif.g08.bks.cpg/sg5_23_cif.got.tgz:44987.got - 2010.06.03 18:56:24.
