data_PCOD9120527
_publ_section_title
;
Structure prediction by ZEFSAII (Michael W. Deem and Ramdas Pophale) SiO2 
 PCOD9120527
Probable space group: C 2
;
_chemical_formula_sum "Si O2"
_cell_formula_units_Z 30
_cell_length_a 5.817307
_cell_length_b 19.302698
_cell_length_c 13.494197
_cell_angle_alpha 90.000000
_cell_angle_beta 117.239363
_cell_angle_gamma 90.000000
_cell_volume 1347.220544
_symmetry_space_group_name_H-M "C 2"
_symmetry_group_IT_number 5
_symmetry_cell_setting 'monoclinic'
loop_
_space_group_symop_operation_xyz
x,y,z
-x,y,-z
1/2+x,1/2+y,z
1/2-x,1/2+y,-z
loop_
_atom_site_type_symbol
_atom_site_label
_atom_site_fract_x
_atom_site_fract_y
_atom_site_fract_z
Si Si1 0.703651 0.258510 0.456891
Si Si2 0.103748 0.949523 0.752043
Si Si3 0.332060 0.895479 0.600420
Si Si4 0.358693 0.322035 0.761384
Si Si5 0.521974 0.072544 0.182532
Si Si6 0.000000 0.129858 0.000000
Si Si7 0.253578 0.197717 0.880246
Si Si8 0.423654 0.035559 0.384830
O O1 0.500000 0.229767 0.500000
O O2 0.753842 0.335289 0.511257
O O3 0.587862 0.272904 0.324413
O O4 0.000000 0.228552 0.500000
O O5 0.153763 0.910070 0.658808
O O6 0.064179 0.884045 0.817672
O O7 0.858949 0.000965 0.687444
O O8 0.344562 0.999898 0.819024
O O9 0.606953 0.867921 0.690820
O O10 0.376207 0.971250 0.566297
O O11 0.276166 0.270565 0.831575
O O12 0.711155 0.134985 0.189474
O O13 0.479621 0.073384 0.292324
O O14 0.253174 0.083895 0.070792
O O15 0.021613 0.178988 0.907888
O O16 0.500000 0.193931 0.000000
O O17 0.500000 0.075975 0.500000
#
# Coordination Sequence:
#
# PCOD9120527 Si02
#       8
#     4   4   4   4   4   2   4   4
#     4  10  18  32  54  94 132 182 219 254 329 416
#     4  10  19  36  64  99 137 171 219 267 337 398
#     4   9  18  30  55  91 132 181 209 250 320 409
#     4  10  20  35  62  95 132 165 217 279 332 404
#     4  10  22  40  68  96 122 177 228 280 321 413
#     4  10  22  46  70  90 116 180 248 278 338 422
#     4  10  23  44  70  87 117 173 232 275 344 407
#     4  10  20  33  59  96 139 171 212 261 331 406
#
# _framework density 22.268066999999999
#
# number of rings (size 3 to 8) (size 9 to 14) (size 15 to 20)
#    0.000    2.133    1.333    2.800    0.000    3.733 
#    0.000    0.667   55.733    0.000    0.000    0.000 
#    0.000    0.000    0.000    0.000    0.000    0.000 
#
# Total GULP energy -83583.716446 kJ/mol
# GULP energy per Si atom -5572.247763 kJ/mol
# Density = 2.221738 g / cm^3
# Si number density = 22.268067 Si / 1000 Ang^3
#
#
#
# Elastic Constant Matrix: (Units=GPa)
#
#
# Indices 1 2 3 4 5 6 
#
# 1 116.2007 41.1667 24.2168 0.0000 -19.3603 0.0000
# 2 41.1667 104.4646 41.3255 0.0000 -12.3447 0.0000
# 3 24.2168 41.3255 58.1471 0.0000 -16.4524 0.0000
# 4 0.0000 0.0000 0.0000 22.3991 0.0000 -11.9988
# 5 -19.3603 -12.3447 -16.4524 0.0000 32.1434 0.0000
# 6 0.0000 0.0000 0.0000 -11.9988 0.0000 29.1332
#
#
#
# Elastic Compliance Matrix: (Units=1/GPa)
#
#
# Indices 1 2 3 4 5 6 
#
# 1 0.010756 -0.003390 -0.000709 0.000000 0.004814 0.000000
# 2 -0.003390 0.014387 -0.009153 0.000000 -0.001201 0.000000
# 3 -0.000709 -0.009153 0.026758 0.000000 0.009754 0.000000
# 4 0.000000 0.000000 0.000000 0.057282 0.000000 0.023592
# 5 0.004814 -0.001201 0.009754 0.000000 0.038541 0.000000
# 6 0.000000 0.000000 0.000000 0.023592 0.000000 0.044042
#
#
# Mechanical properties :
#
#
# Convention : Reuss Voigt Hill
#
# Bulk Modulus (GPa) = 39.37223 54.69227 47.03225
# Shear Modulus (GPa) = 22.05198 28.20871 25.13035
#
# Velocity S-wave (km/s) = 3.15031 3.56304 3.36302
# Velocity P-wave (km/s) = 5.56345 6.44525 6.02052
#
# Compressibility (1/GPa) = 0.02539861
#
# Stress axis : x y z
#
# Youngs Moduli (GPa) = 92.96774 69.50491 37.37193
#
# Poissons Ratio (x) = 0.23559 0.02648
# Poissons Ratio (y) = 0.31512 0.34208
# Poissons Ratio (z) = 0.06588 0.63621
#
# Static dielectric constant tensor:
#      x y z
#    x 2.024210 0.000000 -0.029150 
#    y 0.000000 1.834540 0.000000 
#    z -0.029150 0.000000 1.831700 
# 
# From -- ./inp_files/49562.got.cif
#   From: 2010.05.17/outbox.cif.g08.bks.cpg/sg5_25_cif.got.tgz:49562.got - 2010.06.03 18:56:24.
