data_PCOD9120191
_publ_section_title
;
Structure prediction by ZEFSAII (Michael W. Deem and Ramdas Pophale) SiO2 
 PCOD9120191
Probable space group: C 2
;
_chemical_formula_sum "Si O2"
_cell_formula_units_Z 22
_cell_length_a 9.084309
_cell_length_b 15.592426
_cell_length_c 13.261977
_cell_angle_alpha 90.000000
_cell_angle_beta 148.810784
_cell_angle_gamma 90.000000
_cell_volume 972.817254
_symmetry_space_group_name_H-M "C 2"
_symmetry_group_IT_number 5
_symmetry_cell_setting 'monoclinic'
loop_
_space_group_symop_operation_xyz
x,y,z
-x,y,-z
1/2+x,1/2+y,z
1/2-x,1/2+y,-z
loop_
_atom_site_type_symbol
_atom_site_label
_atom_site_fract_x
_atom_site_fract_y
_atom_site_fract_z
Si Si1 0.655808 0.798710 0.369688
Si Si2 0.817957 0.743850 0.183763
Si Si3 0.288318 0.618076 0.715992
Si Si4 0.196272 0.042080 0.806649
Si Si5 0.000000 0.943894 0.500000
Si Si6 0.748872 0.223457 0.269921
O O1 0.663933 0.711834 0.308576
O O2 0.723902 0.882884 0.347369
O O3 0.369648 0.796314 0.266707
O O4 0.932349 0.788951 0.605554
O O5 0.778425 0.648233 0.209467
O O6 0.953111 0.739191 0.152275
O O7 0.500000 0.780988 0.000000
O O8 0.536247 0.558138 0.818828
O O9 0.000000 0.581747 0.500000
O O10 0.257378 0.135376 0.794294
O O11 0.500000 0.998584 0.000000
O O12 0.017958 0.996356 0.614242
O O13 0.000000 0.213528 0.500000
#
# Coordination Sequence:
#
# PCOD9120191 Si02
#       6
#     4   4   4   4   2   4
#     4   9  19  37  57  79 119 163 206 243 304 361
#     4  10  17  30  62  93 115 146 205 265 304 343
#     4   9  18  37  60  86 116 159 208 251 294 363
#     4  11  23  37  62  93 125 162 207 249 314 370
#     4  12  22  40  62  88 134 170 192 260 320 364
#     4   9  18  36  62  91 116 159 210 255 298 368
#
# _framework density 22.614730999999999
#
# number of rings (size 3 to 8) (size 9 to 14) (size 15 to 20)
#    0.000    2.182    3.636    2.182    0.000    0.727 
#    0.000    2.727    0.000    2.182    0.000    0.000 
#    0.000    0.000    0.000    0.000    0.000    0.000 
#
# Total GULP energy -61352.976061 kJ/mol
# GULP energy per Si atom -5577.543278 kJ/mol
# Density = 2.256326 g / cm^3
# Si number density = 22.614731 Si / 1000 Ang^3
#
#
#
# Elastic Constant Matrix: (Units=GPa)
#
#
# Indices 1 2 3 4 5 6 
#
# 1 149.8377 26.1989 25.0196 0.0007 49.6475 0.0004
# 2 26.1989 46.4744 4.8384 0.0090 10.4436 0.0027
# 3 25.0196 4.8384 80.5206 0.0158 23.2380 0.0065
# 4 0.0007 0.0090 0.0158 0.9423 0.0019 4.1904
# 5 49.6475 10.4436 23.2380 0.0019 43.7161 0.0011
# 6 0.0004 0.0027 0.0065 4.1904 0.0011 16.8102
#
#
#
# Elastic Compliance Matrix: (Units=1/GPa)
#
#
# Indices 1 2 3 4 5 6 
#
# 1 0.011266 -0.003670 0.000188 -0.000394 -0.012018 0.000099
# 2 -0.003670 0.023937 0.000176 0.001932 -0.001644 -0.000485
# 3 0.000188 0.000176 0.014675 0.001920 -0.008057 -0.000484
# 4 -0.000394 0.001932 0.001920 -9.773696 -0.000681 2.436355
# 5 -0.012018 -0.001644 -0.008057 -0.000681 0.041199 0.000171
# 6 0.000099 -0.000485 -0.000484 2.436355 0.000171 -0.547839
#
#
# Mechanical properties :
#
#
# Convention : Reuss Voigt Hill
#
# Bulk Modulus (GPa) = 23.11220 43.21628 33.16424
# Shear Modulus (GPa) = -0.48974 27.01212 13.26119
#
# Velocity S-wave (km/s) = -0.46586 3.45983 2.42419
# Velocity P-wave (km/s) = 3.15480 5.92552 4.74682
#
# Compressibility (1/GPa) = 0.04326720
#
# Stress axis : x y z
#
# Youngs Moduli (GPa) = 88.76052 41.77657 68.14359
#
# Poissons Ratio (x) = 0.15332 -0.01283
# Poissons Ratio (y) = 0.32575 -0.01201
# Poissons Ratio (z) = -0.01672 -0.00736
#
# Static dielectric constant tensor:
#      x y z
#    x 1.926000 0.000000 -0.029370 
#    y 0.000000 1.800370 0.000000 
#    z -0.029370 0.000000 1.901620 
# 
# From -- ./inp_files/51445.got.cif
#   From: 2010.05.17/outbox.cif.g08.bks.cpg/sg5_26_cif.got.tgz:51445.got - 2010.06.03 18:56:24.
