data_PCOD9120767
_publ_section_title
;
Structure prediction by ZEFSAII (Michael W. Deem and Ramdas Pophale) SiO2 
 PCOD9120767
Probable space group: C 2
;
_chemical_formula_sum "Si O2"
_cell_formula_units_Z 28
_cell_length_a 8.085565
_cell_length_b 33.460793
_cell_length_c 5.396080
_cell_angle_alpha 90.000000
_cell_angle_beta 121.036233
_cell_angle_gamma 90.000000
_cell_volume 1250.908194
_symmetry_space_group_name_H-M "C 2"
_symmetry_group_IT_number 5
_symmetry_cell_setting 'monoclinic'
loop_
_space_group_symop_operation_xyz
x,y,z
-x,y,-z
1/2+x,1/2+y,z
1/2-x,1/2+y,-z
loop_
_atom_site_type_symbol
_atom_site_label
_atom_site_fract_x
_atom_site_fract_y
_atom_site_fract_z
Si Si1 0.620382 0.300780 0.347093
Si Si2 0.236147 0.090054 0.160792
Si Si3 0.628174 0.877833 0.350086
Si Si4 0.293133 0.181344 0.100919
Si Si5 0.765941 0.714459 0.582107
Si Si6 0.775600 0.050973 0.348852
Si Si7 0.372283 0.966168 0.651918
O O1 0.500000 0.289503 0.500000
O O2 0.728598 0.341053 0.507475
O O3 0.751392 0.261895 0.400617
O O4 0.500000 0.306858 0.000000
O O5 0.304900 0.134059 0.142378
O O6 0.305416 0.077054 0.486850
O O7 0.297918 0.060217 0.985354
O O8 0.000000 0.090546 0.000000
O O9 0.500000 0.877191 0.500000
O O10 0.722710 0.922101 0.421642
O O11 0.500000 0.873563 0.000000
O O12 0.193529 0.199305 0.264843
O O13 0.505451 0.201723 0.251053
O O14 0.192686 0.192300 0.767520
O O15 0.000000 0.061303 0.500000
O O16 0.757781 0.005140 0.420166
O O17 0.500000 0.969592 0.500000
O O18 0.500000 0.966456 0.000000
#
# Coordination Sequence:
#
# PCOD9120767 Si02
#       7
#     4   4   4   4   4   4   4
#     4  12  21  39  66  92 123 157 211 257 308 357
#     4  10  21  37  56  81 117 156 197 243 294 359
#     4  10  23  42  63  90 129 166 195 254 314 378
#     4  10  18  35  53  77 112 154 187 235 313 331
#     4  10  19  35  55  78 115 150 184 261 292 334
#     4  10  21  39  59  84 120 155 194 251 298 354
#     4  10  21  41  61  86 123 155 197 244 305 361
#
# _framework density 22.383737
#
# number of rings (size 3 to 8) (size 9 to 14) (size 15 to 20)
#    0.000    1.714    2.857    2.571    0.000    0.571 
#   15.429    4.286    0.000    0.000    0.000    0.000 
#    0.000    0.000    0.000    0.000    0.000    0.000 
#
# Total GULP energy -78212.745901 kJ/mol
# GULP energy per Si atom -5586.624707 kJ/mol
# Density = 2.233279 g / cm^3
# Si number density = 22.383737 Si / 1000 Ang^3
#
#
#
# Elastic Constant Matrix: (Units=GPa)
#
#
# Indices 1 2 3 4 5 6 
#
# 1 76.0518 29.8046 49.4689 0.0000 -30.1316 0.0000
# 2 29.8046 169.7577 41.4897 0.0000 -27.6472 0.0000
# 3 49.4689 41.4897 165.8398 0.0000 -47.0850 0.0000
# 4 0.0000 0.0000 0.0000 46.1582 0.0000 7.7667
# 5 -30.1316 -27.6472 -47.0850 0.0000 40.4804 0.0000
# 6 0.0000 0.0000 0.0000 7.7667 0.0000 64.8157
#
#
#
# Elastic Compliance Matrix: (Units=1/GPa)
#
#
# Indices 1 2 3 4 5 6 
#
# 1 0.019484 -0.001040 -0.002442 0.000000 0.010952 0.000000
# 2 -0.001040 0.006718 -0.000429 0.000000 0.003315 0.000000
# 3 -0.002442 -0.000429 0.009356 0.000000 0.008772 0.000000
# 4 0.000000 0.000000 0.000000 0.022110 0.000000 -0.002649
# 5 0.010952 0.003315 0.008772 0.000000 0.045322 0.000000
# 6 0.000000 0.000000 0.000000 -0.002649 0.000000 0.015746
#
#
# Mechanical properties :
#
#
# Convention : Reuss Voigt Hill
#
# Bulk Modulus (GPa) = 36.05584 72.57510 54.31547
# Shear Modulus (GPa) = 36.81721 49.68324 43.25022
#
# Velocity S-wave (km/s) = 4.06004 4.71639 4.40047
# Velocity P-wave (km/s) = 6.17427 7.88369 7.08075
#
# Compressibility (1/GPa) = 0.02773476
#
# Stress axis : x y z
#
# Youngs Moduli (GPa) = 51.32314 148.85029 106.87982
#
# Poissons Ratio (x) = 0.15485 0.26104
# Poissons Ratio (y) = 0.05339 0.04589
# Poissons Ratio (z) = 0.12535 0.06391
#
# Static dielectric constant tensor:
#      x y z
#    x 1.830800 0.000000 -0.003620 
#    y 0.000000 1.798660 0.000000 
#    z -0.003620 0.000000 1.820710 
# 
# From -- ./inp_files/3874.got.cif
#   From: 2010.05.17/outbox.cif.g08.bks.cpg/sg5_2_cif.got.tgz:3874.got - 2010.06.03 18:56:24.
