data_PCOD9120179
_publ_section_title
;
Structure prediction by ZEFSAII (Michael W. Deem and Ramdas Pophale) SiO2 
 PCOD9120179
Probable space group: C 2
;
_chemical_formula_sum "Si O2"
_cell_formula_units_Z 32
_cell_length_a 19.564452
_cell_length_b 7.220997
_cell_length_c 16.519203
_cell_angle_alpha 90.000000
_cell_angle_beta 30.283196
_cell_angle_gamma 90.000000
_cell_volume 1176.849284
_symmetry_space_group_name_H-M "C 2"
_symmetry_group_IT_number 5
_symmetry_cell_setting 'monoclinic'
loop_
_space_group_symop_operation_xyz
x,y,z
-x,y,-z
1/2+x,1/2+y,z
1/2-x,1/2+y,-z
loop_
_atom_site_type_symbol
_atom_site_label
_atom_site_fract_x
_atom_site_fract_y
_atom_site_fract_z
Si Si1 0.811465 0.356590 0.113575
Si Si2 0.936118 0.716692 0.892198
Si Si3 0.406071 0.950050 0.358705
Si Si4 0.272672 0.885668 0.331616
Si Si5 0.522943 0.495030 0.361193
Si Si6 0.622787 0.293274 0.817423
Si Si7 0.895457 0.386445 0.548136
Si Si8 0.845318 0.194261 0.911016
O O1 0.836371 0.305059 0.182708
O O2 0.654570 0.423183 0.273165
O O3 0.898677 0.532744 0.988873
O O4 0.824144 0.204164 0.029169
O O5 0.050626 0.650758 0.712838
O O6 0.025746 0.873708 0.846052
O O7 0.792945 0.736973 0.995158
O O8 0.330649 0.845024 0.362079
O O9 0.346263 0.950655 0.509201
O O10 0.553490 0.858908 0.214193
O O11 0.110553 0.871214 0.497422
O O12 0.307334 0.104945 0.286276
O O13 0.474832 0.695001 0.445377
O O14 0.578216 0.528288 0.213537
O O15 0.747649 0.377098 0.739745
O O16 0.500000 0.247421 0.000000
O O17 0.000000 0.489927 0.500000
#
# Coordination Sequence:
#
# PCOD9120179 Si02
#       8
#     4   4   4   4   4   4   4   4
#     4  10  17  30  53  82 107 141 179 224 272 321
#     4   9  18  32  50  75 113 136 172 219 269 326
#     4   9  20  33  50  77 106 145 175 220 274 320
#     4  10  18  31  53  77 112 136 178 226 275 323
#     4   9  18  32  51  80 111 142 174 225 277 318
#     4  10  18  29  52  82 102 133 173 230 277 305
#     4  10  20  33  53  77 110 143 179 221 274 331
#     4   9  19  31  50  79 111 141 173 215 278 326
#
# _framework density 27.191246
#
# number of rings (size 3 to 8) (size 9 to 14) (size 15 to 20)
#    0.000    2.500    1.250    1.875    3.500    1.000 
#    0.000    0.000    0.000    9.000    0.000    0.000 
#    0.000    0.000    0.000    0.000    0.000    0.000 
#
# Total GULP energy -89143.715170 kJ/mol
# GULP energy per Si atom -5571.482198 kJ/mol
# Density = 2.712936 g / cm^3
# Si number density = 27.191246 Si / 1000 Ang^3
#
#
#
# Elastic Constant Matrix: (Units=GPa)
#
#
# Indices 1 2 3 4 5 6 
#
# 1 196.9381 15.2446 65.0870 -0.0001 4.9888 -0.0001
# 2 15.2446 37.7142 8.2952 0.0000 1.9292 0.0001
# 3 65.0870 8.2952 144.1635 0.0001 -17.0647 0.0000
# 4 -0.0001 0.0000 0.0001 19.7268 -0.0001 2.4737
# 5 4.9888 1.9292 -17.0647 -0.0001 50.6827 0.0001
# 6 -0.0001 0.0001 0.0000 2.4737 0.0001 21.9849
#
#
#
# Elastic Compliance Matrix: (Units=1/GPa)
#
#
# Indices 1 2 3 4 5 6 
#
# 1 0.006206 -0.001798 -0.002877 0.000000 -0.001511 0.000000
# 2 -0.001798 0.027502 -0.000910 0.000000 -0.001176 0.000000
# 3 -0.002877 -0.000910 0.008671 0.000000 0.003237 0.000000
# 4 0.000000 0.000000 0.000000 0.051418 0.000000 -0.005785
# 5 -0.001511 -0.001176 0.003237 0.000000 0.021014 0.000000
# 6 0.000000 0.000000 0.000000 -0.005785 0.000000 0.046137
#
#
# Mechanical properties :
#
#
# Convention : Reuss Voigt Hill
#
# Bulk Modulus (GPa) = 32.04239 61.78549 46.91394
# Shear Modulus (GPa) = 27.39389 37.82483 32.60936
#
# Velocity S-wave (km/s) = 3.17748 3.73375 3.46679
# Velocity P-wave (km/s) = 5.02708 6.43115 5.77197
#
# Compressibility (1/GPa) = 0.03120866
#
# Stress axis : x y z
#
# Youngs Moduli (GPa) = 161.12933 36.36046 115.32411
#
# Poissons Ratio (x) = 0.06539 0.33183
# Poissons Ratio (y) = 0.28978 0.10491
# Poissons Ratio (z) = 0.46363 0.03308
#
# Static dielectric constant tensor:
#      x y z
#    x 2.479550 0.000000 0.121840 
#    y 0.000000 2.281970 0.000000 
#    z 0.121840 0.000000 2.180630 
# 
# From -- ./inp_files/54576.got.cif
#   From: 2010.05.17/outbox.cif.g08.bks.cpg/sg5_28_cif.got.tgz:54576.got - 2010.06.03 18:56:24.
