data_PCOD9120181
_publ_section_title
;
Structure prediction by ZEFSAII (Michael W. Deem and Ramdas Pophale) SiO2 
 PCOD9120181
Probable space group: C 2
;
_chemical_formula_sum "Si O2"
_cell_formula_units_Z 26
_cell_length_a 18.642381
_cell_length_b 7.997326
_cell_length_c 17.945225
_cell_angle_alpha 90.000000
_cell_angle_beta 153.854023
_cell_angle_gamma 90.000000
_cell_volume 1178.958106
_symmetry_space_group_name_H-M "C 2"
_symmetry_group_IT_number 5
_symmetry_cell_setting 'monoclinic'
loop_
_space_group_symop_operation_xyz
x,y,z
-x,y,-z
1/2+x,1/2+y,z
1/2-x,1/2+y,-z
loop_
_atom_site_type_symbol
_atom_site_label
_atom_site_fract_x
_atom_site_fract_y
_atom_site_fract_z
Si Si1 0.671857 0.565620 0.422590
Si Si2 0.500000 0.542220 0.000000
Si Si3 0.061700 0.406174 0.243844
Si Si4 0.761504 0.337880 0.733177
Si Si5 0.952901 0.893328 0.113369
Si Si6 0.963415 0.890214 0.349176
Si Si7 0.740238 0.213256 0.960625
O O1 0.849007 0.542715 0.622777
O O2 0.648175 0.737649 0.357294
O O3 0.620898 0.424932 0.314320
O O4 0.545278 0.533294 0.373611
O O5 0.651401 0.668816 0.156940
O O6 0.474558 0.426039 0.047397
O O7 0.107580 0.424737 0.199651
O O8 0.875627 0.359919 0.081357
O O9 0.608076 0.314793 0.534493
O O10 0.682101 0.434942 0.729051
O O11 0.841576 0.048836 0.037791
O O12 0.854679 0.732689 0.049989
O O13 0.888487 0.754547 0.223653
#
# Coordination Sequence:
#
# PCOD9120181 Si02
#       7
#     4   2   4   4   4   4   4
#     4   9  19  34  52  81 112 145 184 233 271 330
#     4  12  18  36  56  80 114 146 186 234 272 328
#     4  10  19  34  57  81 110 147 190 230 275 328
#     4  10  17  30  54  82 105 141 185 230 262 318
#     4  10  21  35  57  79 113 141 189 230 279 325
#     4   9  18  30  51  81 113 136 179 231 277 311
#     4  10  19  35  54  83 109 149 179 233 275 337
#
# _framework density 22.053373000000001
#
# number of rings (size 3 to 8) (size 9 to 14) (size 15 to 20)
#    0.000    2.154    4.615    0.000    0.000    3.692 
#    0.000    0.000    0.000   26.769    0.000    0.000 
#    0.000    0.000    0.000    0.000    0.000    0.000 
#
# Total GULP energy -72509.330364 kJ/mol
# GULP energy per Si atom -5577.640797 kJ/mol
# Density = 2.200318 g / cm^3
# Si number density = 22.053373 Si / 1000 Ang^3
#
#
#
# Elastic Constant Matrix: (Units=GPa)
#
#
# Indices 1 2 3 4 5 6 
#
# 1 177.0391 8.8984 35.6020 0.0000 -4.2899 0.0000
# 2 8.8984 50.2555 -3.2560 0.0000 0.0711 0.0000
# 3 35.6020 -3.2560 57.3608 0.0000 -0.9158 0.0000
# 4 0.0000 0.0000 0.0000 26.4462 0.0000 -0.9432
# 5 -4.2899 0.0711 -0.9158 0.0000 32.0127 0.0000
# 6 0.0000 0.0000 0.0000 -0.9432 0.0000 34.9130
#
#
#
# Elastic Compliance Matrix: (Units=1/GPa)
#
#
# Indices 1 2 3 4 5 6 
#
# 1 0.006573 -0.001434 -0.004149 0.000000 0.000765 0.000000
# 2 -0.001434 0.020285 0.002038 0.000000 -0.000179 0.000000
# 3 -0.004149 0.002038 0.020125 0.000000 0.000015 0.000000
# 4 0.000000 0.000000 0.000000 0.037849 0.000000 0.001022
# 5 0.000765 -0.000179 0.000015 0.000000 0.031341 0.000000
# 6 0.000000 0.000000 0.000000 0.001022 0.000000 0.028670
#
#
# Mechanical properties :
#
#
# Convention : Reuss Voigt Hill
#
# Bulk Modulus (GPa) = 25.06655 40.79379 32.93017
# Shear Modulus (GPa) = 30.26090 34.90179 32.58134
#
# Velocity S-wave (km/s) = 3.70830 3.98251 3.84785
# Velocity P-wave (km/s) = 5.45218 6.29961 5.89115
#
# Compressibility (1/GPa) = 0.03989381
#
# Stress axis : x y z
#
# Youngs Moduli (GPa) = 152.12705 49.29868 49.69026
#
# Poissons Ratio (x) = 0.07069 0.20617
# Poissons Ratio (y) = 0.21812 -0.10129
# Poissons Ratio (z) = 0.63119 -0.10050
#
# Static dielectric constant tensor:
#      x y z
#    x 1.843420 0.000000 0.035700 
#    y 0.000000 1.861970 0.000000 
#    z 0.035700 0.000000 1.849230 
# 
# From -- ./inp_files/26994.got.cif
#   From: 2010.05.17/outbox.cif.g08.bks.cpg/sg5_14_cif.got.tgz:26994.got - 2010.06.03 18:56:24.
