data_PCOD9120618
_publ_section_title
;
Structure prediction by ZEFSAII (Michael W. Deem and Ramdas Pophale) SiO2 
 PCOD9120618
Probable space group: C 2
;
_chemical_formula_sum "Si O2"
_cell_formula_units_Z 32
_cell_length_a 15.295497
_cell_length_b 7.183715
_cell_length_c 21.459134
_cell_angle_alpha 90.000000
_cell_angle_beta 146.381474
_cell_angle_gamma 90.000000
_cell_volume 1305.475374
_symmetry_space_group_name_H-M "C 2"
_symmetry_group_IT_number 5
_symmetry_cell_setting 'monoclinic'
loop_
_space_group_symop_operation_xyz
x,y,z
-x,y,-z
1/2+x,1/2+y,z
1/2-x,1/2+y,-z
loop_
_atom_site_type_symbol
_atom_site_label
_atom_site_fract_x
_atom_site_fract_y
_atom_site_fract_z
Si Si1 0.283309 0.892220 0.436823
Si Si2 0.985813 0.592972 0.876407
Si Si3 0.176409 0.095151 0.873844
Si Si4 0.905333 0.989604 0.799782
Si Si5 0.646492 0.530099 0.717430
Si Si6 0.998850 0.453259 0.251551
Si Si7 0.095715 0.484160 0.672742
Si Si8 0.174070 0.958460 0.512260
O O1 0.184770 0.934770 0.317481
O O2 0.451560 0.996117 0.539187
O O3 0.306317 0.669734 0.452254
O O4 0.207965 0.945824 0.458537
O O5 0.999883 0.567039 0.810679
O O6 0.961669 0.811830 0.872195
O O7 0.826212 0.496522 0.804335
O O8 0.147409 0.536579 0.004859
O O9 0.128707 0.995620 0.780940
O O10 0.145736 0.310374 0.839631
O O11 0.063557 0.078943 0.867100
O O12 0.761513 0.074749 0.753534
O O13 0.618693 0.755852 0.691075
O O14 0.514161 0.425745 0.597477
O O15 0.967856 0.553753 0.298462
O O16 0.174508 0.358946 0.365203
#
# Coordination Sequence:
#
# PCOD9120618 Si02
#       8
#     4   4   4   4   4   4   4   4
#     4  10  18  33  58  88 119 148 188 233 295 349
#     4  11  22  38  60  85 113 157 203 243 285 349
#     4  11  22  39  58  84 121 154 195 245 294 350
#     4  11  20  36  60  87 109 154 200 233 288 348
#     4   9  19  36  60  85 111 151 198 238 289 346
#     4  10  21  39  58  86 124 151 189 247 302 345
#     4   8  19  34  58  84 115 146 189 238 282 350
#     4  10  19  35  59  91 120 151 186 246 297 353
#
# _framework density 24.512143999999999
#
# number of rings (size 3 to 8) (size 9 to 14) (size 15 to 20)
#    0.000    2.000    2.500    2.250    0.000    0.500 
#    0.000    5.625    2.750    0.000    0.000    0.000 
#    0.000    0.000    0.000    0.000    0.000    0.000 
#
# Total GULP energy -89317.144958 kJ/mol
# GULP energy per Si atom -5582.321560 kJ/mol
# Density = 2.445635 g / cm^3
# Si number density = 24.512144 Si / 1000 Ang^3
#
#
#
# Elastic Constant Matrix: (Units=GPa)
#
#
# Indices 1 2 3 4 5 6 
#
# 1 58.0300 -7.0684 24.8531 0.0000 15.7208 0.0000
# 2 -7.0684 47.4488 7.9486 0.0000 -2.5385 0.0000
# 3 24.8531 7.9486 165.5958 0.0000 16.0241 0.0000
# 4 0.0000 0.0000 0.0000 22.1167 0.0000 2.3598
# 5 15.7208 -2.5385 16.0241 0.0000 33.9914 0.0000
# 6 0.0000 0.0000 0.0000 2.3598 0.0000 20.1306
#
#
#
# Elastic Compliance Matrix: (Units=1/GPa)
#
#
# Indices 1 2 3 4 5 6 
#
# 1 0.020914 0.003090 -0.002487 0.000000 -0.008270 0.000000
# 2 0.003090 0.021856 -0.001606 0.000000 0.000960 0.000000
# 3 -0.002487 -0.001606 0.006695 0.000000 -0.002126 0.000000
# 4 0.000000 0.000000 0.000000 0.045787 0.000000 -0.005367
# 5 -0.008270 0.000960 -0.002126 0.000000 0.034318 0.000000
# 6 0.000000 0.000000 0.000000 -0.005367 0.000000 0.050305
#
#
# Mechanical properties :
#
#
# Convention : Reuss Voigt Hill
#
# Bulk Modulus (GPa) = 21.07072 35.83791 28.45431
# Shear Modulus (GPa) = 25.29078 31.60381 28.44730
#
# Velocity S-wave (km/s) = 3.21560 3.59460 3.41036
# Velocity P-wave (km/s) = 4.73301 5.64627 5.20969
#
# Compressibility (1/GPa) = 0.04745923
#
# Stress axis : x y z
#
# Youngs Moduli (GPa) = 47.81441 45.75401 149.36898
#
# Poissons Ratio (x) = -0.14137 0.37147
# Poissons Ratio (y) = -0.14774 0.23985
# Poissons Ratio (z) = 0.11891 0.07347
#
# Static dielectric constant tensor:
#      x y z
#    x 1.959090 0.000000 0.064410 
#    y 0.000000 2.048720 0.000000 
#    z 0.064410 0.000000 1.939380 
# 
# From -- ./inp_files/48376.got.cif
#   From: 2010.05.17/outbox.cif.g08.bks.cpg/sg5_25_cif.got.tgz:48376.got - 2010.06.03 18:56:24.
