data_PCOD9120349
_publ_section_title
;
Structure prediction by ZEFSAII (Michael W. Deem and Ramdas Pophale) SiO2 
 PCOD9120349
Probable space group: C 2
;
_chemical_formula_sum "Si O2"
_cell_formula_units_Z 24
_cell_length_a 10.039126
_cell_length_b 17.534831
_cell_length_c 8.465710
_cell_angle_alpha 90.000000
_cell_angle_beta 66.172913
_cell_angle_gamma 90.000000
_cell_volume 1363.239666
_symmetry_space_group_name_H-M "C 2"
_symmetry_group_IT_number 5
_symmetry_cell_setting 'monoclinic'
loop_
_space_group_symop_operation_xyz
x,y,z
-x,y,-z
1/2+x,1/2+y,z
1/2-x,1/2+y,-z
loop_
_atom_site_type_symbol
_atom_site_label
_atom_site_fract_x
_atom_site_fract_y
_atom_site_fract_z
Si Si1 0.624538 0.914560 0.223156
Si Si2 0.649636 0.583497 0.335043
Si Si3 0.912746 0.837294 0.400335
Si Si4 0.157364 0.253941 0.337077
Si Si5 0.689751 0.963779 0.554047
Si Si6 0.099176 0.953027 0.104045
O O1 0.639728 0.823335 0.224565
O O2 0.667763 0.951114 0.375274
O O3 0.456817 0.937444 0.288826
O O4 0.738855 0.939114 0.038076
O O5 0.500000 0.591417 0.500000
O O6 0.689555 0.668890 0.262450
O O7 0.764513 0.545671 0.401602
O O8 0.615103 0.523506 0.214564
O O9 0.792404 0.782705 0.379935
O O10 0.822271 0.906407 0.524807
O O11 0.000000 0.798287 0.500000
O O12 0.019327 0.880093 0.224551
O O13 0.000000 0.254463 0.500000
O O14 0.000000 0.972086 0.000000
#
# Coordination Sequence:
#
# PCOD9120349 Si02
#       6
#     4   4   4   4   4   4
#     4  10  20  35  61  83 115 157 196 235 283 354
#     4  11  21  36  61  87 117 151 193 246 295 339
#     4  11  19  37  61  87 112 153 202 234 282 360
#     4  10  20  37  62  85 118 152 192 242 298 337
#     4  10  17  37  57  84 112 150 200 228 284 352
#     4  12  20  34  62  87 113 154 200 241 281 349
#
# _framework density 17.605119999999999
#
# number of rings (size 3 to 8) (size 9 to 14) (size 15 to 20)
#    0.000    1.333   10.000    0.000    0.000    0.667 
#    3.000    3.333   11.000    0.000    0.000    0.000 
#    0.000    0.000    0.000    0.000    0.000    0.000 
#
# Total GULP energy -66824.542273 kJ/mol
# GULP energy per Si atom -5568.711856 kJ/mol
# Density = 1.756505 g / cm^3
# Si number density = 17.605120 Si / 1000 Ang^3
#
#
#
# Elastic Constant Matrix: (Units=GPa)
#
#
# Indices 1 2 3 4 5 6 
#
# 1 68.7291 22.9306 36.1409 0.0000 -18.0161 0.0000
# 2 22.9306 106.1569 36.6857 0.0000 4.2198 0.0000
# 3 36.1409 36.6857 81.6647 0.0000 -18.3865 0.0000
# 4 0.0000 0.0000 0.0000 0.3900 0.0000 -21.2552
# 5 -18.0161 4.2198 -18.3865 0.0000 26.7075 0.0000
# 6 0.0000 0.0000 0.0000 -21.2552 0.0000 0.4762
#
#
#
# Elastic Compliance Matrix: (Units=1/GPa)
#
#
# Indices 1 2 3 4 5 6 
#
# 1 0.021448 -0.003150 -0.005571 0.000000 0.011131 0.000000
# 2 -0.003150 0.012544 -0.006113 0.000000 -0.008315 0.000000
# 3 -0.005571 -0.006113 0.019915 0.000000 0.010918 0.000000
# 4 0.000000 0.000000 0.000000 -0.001055 0.000000 -0.047067
# 5 0.011131 -0.008315 0.010918 0.000000 0.053782 0.000000
# 6 0.000000 0.000000 0.000000 -0.047067 0.000000 -0.000864
#
#
# Mechanical properties :
#
#
# Convention : Reuss Voigt Hill
#
# Bulk Modulus (GPa) = 41.25623 49.78502 45.52062
# Shear Modulus (GPa) = 34.83919 16.23431 25.53675
#
# Velocity S-wave (km/s) = 4.45334 3.03996 3.81271
# Velocity P-wave (km/s) = 7.06598 6.37667 6.73015
#
# Compressibility (1/GPa) = 0.02423876
#
# Stress axis : x y z
#
# Youngs Moduli (GPa) = 46.62446 79.72250 50.21430
#
# Poissons Ratio (x) = 0.25115 0.27972
# Poissons Ratio (y) = 0.14688 0.30695
# Poissons Ratio (z) = 0.25972 0.48733
#
# Static dielectric constant tensor:
#      x y z
#    x 1.719840 0.000000 -0.043180 
#    y 0.000000 1.596270 0.000000 
#    z -0.043180 0.000000 1.648380 
# 
# From -- ./inp_files/20891.got.cif
#   From: 2010.05.17/outbox.cif.g08.bks.cpg/sg5_11_cif.got.tgz:20891.got - 2010.06.03 18:56:24.
