data_PCOD9120698
_publ_section_title
;
Structure prediction by ZEFSAII (Michael W. Deem and Ramdas Pophale) SiO2 
 PCOD9120698
Probable space group: C 2
;
_chemical_formula_sum "Si O2"
_cell_formula_units_Z 32
_cell_length_a 13.182003
_cell_length_b 14.079752
_cell_length_c 14.322195
_cell_angle_alpha 90.000000
_cell_angle_beta 41.965962
_cell_angle_gamma 90.000000
_cell_volume 1777.502318
_symmetry_space_group_name_H-M "C 2"
_symmetry_group_IT_number 5
_symmetry_cell_setting 'monoclinic'
loop_
_space_group_symop_operation_xyz
x,y,z
-x,y,-z
1/2+x,1/2+y,z
1/2-x,1/2+y,-z
loop_
_atom_site_type_symbol
_atom_site_label
_atom_site_fract_x
_atom_site_fract_y
_atom_site_fract_z
Si Si1 0.393135 0.859600 0.356516
Si Si2 0.691658 0.937394 0.234465
Si Si3 0.900222 0.656325 0.697476
Si Si4 0.851893 0.987358 0.939540
Si Si5 0.326234 0.452965 0.344392
Si Si6 0.956218 0.408050 0.922186
Si Si7 0.882747 0.192111 0.994202
Si Si8 0.228405 0.672338 0.419052
O O1 0.555392 0.868902 0.297239
O O2 0.261570 0.901419 0.512328
O O3 0.415750 0.920391 0.245120
O O4 0.346767 0.752179 0.365660
O O5 0.757973 0.920091 0.291226
O O6 0.615960 0.042262 0.290322
O O7 0.819550 0.946003 0.066200
O O8 0.788924 0.695139 0.851389
O O9 0.829209 0.689041 0.647527
O O10 0.075417 0.681224 0.584378
O O11 0.992931 0.941096 0.789318
O O12 0.691557 0.969828 0.999459
O O13 0.891040 0.098823 0.925055
O O14 0.289207 0.565215 0.380475
O O15 0.917030 0.296559 0.934431
O O16 0.000000 0.420531 0.000000
O O17 0.000000 0.174839 0.000000
#
# Coordination Sequence:
#
# PCOD9120698 Si02
#       8
#     4   4   4   4   4   4   4   4
#     4  11  21  33  55  84 110 148 180 222 279 330
#     4   9  18  36  56  84 111 143 175 228 279 325
#     4   9  17  31  54  80 106 137 178 233 273 317
#     4  10  20  33  60  87 109 140 188 227 269 325
#     4  11  20  35  57  85 115 139 182 232 275 323
#     4  10  22  39  56  79 114 149 182 224 275 329
#     4  10  18  34  59  81 106 139 185 228 279 323
#     4  10  19  31  52  82 112 138 179 228 280 320
#
# _framework density 18.002789
#
# number of rings (size 3 to 8) (size 9 to 14) (size 15 to 20)
#    0.000    2.000    1.250    5.250    1.750    0.000 
#    0.000    0.000    0.000   12.750    0.000    0.000 
#    0.000    0.000    0.000    0.000    0.000    0.000 
#
# Total GULP energy -89223.217945 kJ/mol
# GULP energy per Si atom -5576.451122 kJ/mol
# Density = 1.796181 g / cm^3
# Si number density = 18.002789 Si / 1000 Ang^3
#
#
#
# Elastic Constant Matrix: (Units=GPa)
#
#
# Indices 1 2 3 4 5 6 
#
# 1 62.6993 32.6487 26.5856 0.0000 6.4814 0.0000
# 2 32.6487 53.4541 3.3149 0.0000 -6.7109 0.0000
# 3 26.5856 3.3149 110.5378 0.0000 0.2623 0.0000
# 4 0.0000 0.0000 0.0000 14.5199 0.0000 -3.7506
# 5 6.4814 -6.7109 0.2623 0.0000 24.3313 0.0000
# 6 0.0000 0.0000 0.0000 -3.7506 0.0000 32.0776
#
#
#
# Elastic Compliance Matrix: (Units=1/GPa)
#
#
# Indices 1 2 3 4 5 6 
#
# 1 0.030619 -0.019991 -0.006733 0.000000 -0.013598 0.000000
# 2 -0.019991 0.032470 0.003801 0.000000 0.014240 0.000000
# 3 -0.006733 0.003801 0.010545 0.000000 0.002728 0.000000
# 4 0.000000 0.000000 0.000000 0.071016 0.000000 0.008303
# 5 -0.013598 0.014240 0.002728 0.000000 0.048620 0.000000
# 6 0.000000 0.000000 0.000000 0.008303 0.000000 0.032145
#
#
# Mechanical properties :
#
#
# Convention : Reuss Voigt Hill
#
# Bulk Modulus (GPa) = 35.98624 39.08772 37.53698
# Shear Modulus (GPa) = 17.82376 25.12857 21.47617
#
# Velocity S-wave (km/s) = 3.14993 3.74011 3.45764
# Velocity P-wave (km/s) = 5.76733 6.35692 6.06929
#
# Compressibility (1/GPa) = 0.02778840
#
# Stress axis : x y z
#
# Youngs Moduli (GPa) = 32.65919 30.79775 94.82735
#
# Poissons Ratio (x) = 0.61568 0.63843
# Poissons Ratio (y) = 0.65290 -0.36040
# Poissons Ratio (z) = 0.21988 -0.11705
#
# Static dielectric constant tensor:
#      x y z
#    x 1.610410 0.000000 0.023920 
#    y 0.000000 1.607160 0.000000 
#    z 0.023920 0.000000 1.723990 
# 
# From -- ./inp_files/53187.got.cif
#   From: 2010.05.17/outbox.cif.g08.bks.cpg/sg5_27_cif.got.tgz:53187.got - 2010.06.03 18:56:24.
