data_PCOD9120829
_publ_section_title
;
Structure prediction by ZEFSAII (Michael W. Deem and Ramdas Pophale) SiO2 
 PCOD9120829
Probable space group: C 2
;
_chemical_formula_sum "Si O2"
_cell_formula_units_Z 26
_cell_length_a 12.091289
_cell_length_b 17.446333
_cell_length_c 8.754113
_cell_angle_alpha 90.000000
_cell_angle_beta 36.320596
_cell_angle_gamma 90.000000
_cell_volume 1093.786923
_symmetry_space_group_name_H-M "C 2"
_symmetry_group_IT_number 5
_symmetry_cell_setting 'monoclinic'
loop_
_space_group_symop_operation_xyz
x,y,z
-x,y,-z
1/2+x,1/2+y,z
1/2-x,1/2+y,-z
loop_
_atom_site_type_symbol
_atom_site_label
_atom_site_fract_x
_atom_site_fract_y
_atom_site_fract_z
Si Si1 0.084290 0.860050 0.677394
Si Si2 0.699070 0.873471 0.245039
Si Si3 0.681910 0.498293 0.397019
Si Si4 0.000000 0.598471 0.000000
Si Si5 0.918136 0.209504 0.753244
Si Si6 0.501734 0.187378 0.292028
Si Si7 0.653205 0.614791 0.708138
O O1 0.204475 0.852430 0.699568
O O2 0.036385 0.777616 0.660276
O O3 0.199800 0.911155 0.430667
O O4 0.882739 0.900029 0.944616
O O5 0.500000 0.916518 0.500000
O O6 0.629147 0.797605 0.232477
O O7 0.500000 0.503627 0.500000
O O8 0.672567 0.546344 0.564965
O O9 0.842737 0.539474 0.122653
O O10 0.066645 0.655462 0.796316
O O11 0.000000 0.178885 0.500000
O O12 0.064813 0.188692 0.720003
O O13 0.722265 0.174899 0.028675
O O14 0.350418 0.141523 0.560606
O O15 0.500000 0.589794 0.000000
#
# Coordination Sequence:
#
# PCOD9120829 Si02
#       7
#     4   4   4   2   4   4   4
#     4  10  21  37  63  98 129 160 211 271 319 378
#     4   9  18  34  62  91 124 162 208 256 316 377
#     4  11  25  44  65  90 132 176 213 261 326 388
#     4  10  20  40  70  92 118 170 228 260 306 388
#     4  10  18  35  65  93 120 162 215 261 314 373
#     4  10  19  38  64  95 123 161 216 267 311 377
#     4  11  24  40  63  93 131 169 214 266 319 380
#
# _framework density 23.770627999999999
#
# number of rings (size 3 to 8) (size 9 to 14) (size 15 to 20)
#    0.000    1.846    0.000    6.923    2.154    1.846 
#    6.923    0.000    0.000    0.000    0.000    0.000 
#    0.000    0.000    0.000    0.000    0.000    0.000 
#
# Total GULP energy -72496.294608 kJ/mol
# GULP energy per Si atom -5576.638047 kJ/mol
# Density = 2.371652 g / cm^3
# Si number density = 23.770628 Si / 1000 Ang^3
#
#
#
# Elastic Constant Matrix: (Units=GPa)
#
#
# Indices 1 2 3 4 5 6 
#
# 1 69.6026 7.5895 12.1540 -0.0112 -34.4932 -0.0149
# 2 7.5895 83.1158 18.0438 -0.0057 -2.0152 -0.0078
# 3 12.1540 18.0438 88.1769 -0.0189 -21.5572 -0.0263
# 4 -0.0112 -0.0057 -0.0189 -38.1367 0.0123 -106.4809
# 5 -34.4932 -2.0152 -21.5572 0.0123 41.0204 0.0167
# 6 -0.0149 -0.0078 -0.0263 -106.4809 0.0167 -177.7185
#
#
#
# Elastic Compliance Matrix: (Units=1/GPa)
#
#
# Indices 1 2 3 4 5 6 
#
# 1 0.025331 -0.002306 0.002479 0.000000 0.022490 -0.000001
# 2 -0.002306 0.012826 -0.003014 0.000000 -0.002893 0.000000
# 3 0.002479 -0.003014 0.013871 0.000001 0.009226 -0.000002
# 4 0.000000 0.000000 0.000001 0.038968 -0.000001 -0.023348
# 5 0.022490 -0.002893 0.009226 -0.000001 0.047996 0.000002
# 6 -0.000001 0.000000 -0.000002 -0.023348 0.000002 0.008362
#
#
# Mechanical properties :
#
#
# Convention : Reuss Voigt Hill
#
# Bulk Modulus (GPa) = 21.57678 35.16334 28.37006
# Shear Modulus (GPa) = 29.67595 -21.42643 4.12476
#
# Velocity S-wave (km/s) = 3.53715 -3.00556 1.31871
# Velocity P-wave (km/s) = 5.07727 1.66744 3.77882
#
# Compressibility (1/GPa) = 0.04634612
#
# Stress axis : x y z
#
# Youngs Moduli (GPa) = 39.47688 77.96568 72.09036
#
# Poissons Ratio (x) = 0.17978 -0.17868
# Poissons Ratio (y) = 0.09103 0.21728
# Poissons Ratio (z) = -0.09784 0.23499
#
# Static dielectric constant tensor:
#      x y z
#    x 2.958260 -0.000030 0.302350 
#    y -0.000030 1.909070 -0.000010 
#    z 0.302350 -0.000010 2.174310 
# 
# From -- ./inp_files/21900.got.cif
#   From: 2010.05.17/outbox.cif.g08.bks.cpg/sg5_11_cif.got.tgz:21900.got - 2010.06.03 18:56:24.
