data_PCOD9120336
_publ_section_title
;
Structure prediction by ZEFSAII (Michael W. Deem and Ramdas Pophale) SiO2 
 PCOD9120336
Probable space group: C 2
;
_chemical_formula_sum "Si O2"
_cell_formula_units_Z 28
_cell_length_a 8.963343
_cell_length_b 16.498712
_cell_length_c 10.722100
_cell_angle_alpha 90.000000
_cell_angle_beta 106.555167
_cell_angle_gamma 90.000000
_cell_volume 1519.892220
_symmetry_space_group_name_H-M "C 2"
_symmetry_group_IT_number 5
_symmetry_cell_setting 'monoclinic'
loop_
_space_group_symop_operation_xyz
x,y,z
-x,y,-z
1/2+x,1/2+y,z
1/2-x,1/2+y,-z
loop_
_atom_site_type_symbol
_atom_site_label
_atom_site_fract_x
_atom_site_fract_y
_atom_site_fract_z
Si Si1 0.500000 0.101980 0.500000
Si Si2 0.883521 0.178142 0.362632
Si Si3 0.970080 0.737466 0.690326
Si Si4 0.135134 0.826186 0.944090
Si Si5 0.445893 0.753108 0.121190
Si Si6 0.000000 0.878227 0.500000
Si Si7 0.756944 0.510475 0.603441
Si Si8 0.383320 0.921153 0.862470
O O1 0.536727 0.162789 0.624061
O O2 0.359232 0.046707 0.515339
O O3 0.712766 0.218913 0.334004
O O4 0.952306 0.197853 0.243585
O O5 0.000000 0.205788 0.500000
O O6 0.851498 0.083131 0.373734
O O7 0.989520 0.818663 0.614626
O O8 0.061192 0.757065 0.838243
O O9 0.218424 0.896790 0.884504
O O10 0.271538 0.785435 0.057464
O O11 0.000000 0.858570 0.000000
O O12 0.548991 0.834059 0.165434
O O13 0.500000 0.717940 0.000000
O O14 0.849160 0.934944 0.458575
O O15 0.864970 0.481658 0.743907
O O16 0.500000 0.949370 0.000000
#
# Coordination Sequence:
#
# PCOD9120336 Si02
#       8
#     2   4   4   4   4   2   4   4
#     4   9  24  40  56  89 120 156 196 247 298 370
#     4  11  23  38  60  91 123 157 202 256 304 358
#     4  10  21  38  65  87 113 158 212 243 293 360
#     4  10  17  36  63  89 114 146 209 247 286 344
#     4   9  21  37  61  88 117 158 201 247 294 359
#     4  11  22  38  62  89 116 162 194 249 304 362
#     4  11  22  42  58  85 127 155 193 249 316 351
#     4   9  21  39  61  86 119 155 199 248 294 361
#
# _framework density 18.422360000000001
#
# number of rings (size 3 to 8) (size 9 to 14) (size 15 to 20)
#    0.000    2.286    3.571    0.000    2.000    4.571 
#    5.143    0.714    0.000    0.000    0.000    0.000 
#    0.000    0.000    0.000    0.000    0.000    0.000 
#
# Total GULP energy -78075.965109 kJ/mol
# GULP energy per Si atom -5576.854651 kJ/mol
# Density = 1.838043 g / cm^3
# Si number density = 18.422360 Si / 1000 Ang^3
#
#
#
# Elastic Constant Matrix: (Units=GPa)
#
#
# Indices 1 2 3 4 5 6 
#
# 1 105.3230 40.8267 46.5867 0.0000 -12.7047 0.0000
# 2 40.8267 72.9202 30.9146 0.0000 -8.6867 0.0000
# 3 46.5867 30.9146 81.8867 0.0000 -14.0481 0.0000
# 4 0.0000 0.0000 0.0000 17.9112 0.0000 3.5088
# 5 -12.7047 -8.6867 -14.0481 0.0000 26.0313 0.0000
# 6 0.0000 0.0000 0.0000 3.5088 0.0000 23.2952
#
#
#
# Elastic Compliance Matrix: (Units=1/GPa)
#
#
# Indices 1 2 3 4 5 6 
#
# 1 0.014388 -0.005343 -0.005808 0.000000 0.002105 0.000000
# 2 -0.005343 0.018441 -0.003652 0.000000 0.001575 0.000000
# 3 -0.005808 -0.003652 0.017852 0.000000 0.005581 0.000000
# 4 0.000000 0.000000 0.000000 0.057529 0.000000 -0.008665
# 5 0.002105 0.001575 0.005581 0.000000 0.042980 0.000000
# 6 0.000000 0.000000 0.000000 -0.008665 0.000000 0.044232
#
#
# Mechanical properties :
#
#
# Convention : Reuss Voigt Hill
#
# Bulk Modulus (GPa) = 47.44605 55.19844 51.32225
# Shear Modulus (GPa) = 21.54673 22.90100 22.22386
#
# Velocity S-wave (km/s) = 3.42365 3.52960 3.47703
# Velocity P-wave (km/s) = 6.43731 6.82924 6.63617
#
# Compressibility (1/GPa) = 0.02107657
#
# Stress axis : x y z
#
# Youngs Moduli (GPa) = 69.50007 54.22699 56.01542
#
# Poissons Ratio (x) = 0.28973 0.32531
# Poissons Ratio (y) = 0.37133 0.20457
# Poissons Ratio (z) = 0.40363 0.19804
#
# Static dielectric constant tensor:
#      x y z
#    x 1.653140 0.000000 0.000640 
#    y 0.000000 1.607540 0.000000 
#    z 0.000640 0.000000 1.650170 
# 
# From -- ./inp_files/36219.got.cif
#   From: 2010.05.17/outbox.cif.g08.bks.cpg/sg5_19_cif.got.tgz:36219.got - 2010.06.03 18:56:24.
