data_PCOD9120662
_publ_section_title
;
Structure prediction by ZEFSAII (Michael W. Deem and Ramdas Pophale) SiO2 
 PCOD9120662
Probable space group: C 2
;
_chemical_formula_sum "Si O2"
_cell_formula_units_Z 32
_cell_length_a 17.631939
_cell_length_b 21.322592
_cell_length_c 11.517579
_cell_angle_alpha 90.000000
_cell_angle_beta 159.372723
_cell_angle_gamma 90.000000
_cell_volume 1525.450735
_symmetry_space_group_name_H-M "C 2"
_symmetry_group_IT_number 5
_symmetry_cell_setting 'monoclinic'
loop_
_space_group_symop_operation_xyz
x,y,z
-x,y,-z
1/2+x,1/2+y,z
1/2-x,1/2+y,-z
loop_
_atom_site_type_symbol
_atom_site_label
_atom_site_fract_x
_atom_site_fract_y
_atom_site_fract_z
Si Si1 0.842266 0.700500 0.381838
Si Si2 0.120026 0.881096 0.049876
Si Si3 0.563482 0.248490 0.220176
Si Si4 0.381978 0.572292 0.948358
Si Si5 0.973855 0.478514 0.612288
Si Si6 0.973358 0.309589 0.099459
Si Si7 0.475199 0.481338 0.269286
Si Si8 0.900621 0.449458 0.983988
O O1 0.920769 0.711619 0.630896
O O2 0.665253 0.645423 0.128051
O O3 0.000000 0.684047 0.500000
O O4 0.724862 0.763286 0.170064
O O5 0.349078 0.915936 0.391607
O O6 0.997277 0.921548 0.776913
O O7 0.000000 0.889890 0.000000
O O8 0.098971 0.807518 0.992245
O O9 0.799822 0.279939 0.536528
O O10 0.500000 0.220229 0.000000
O O11 0.154899 0.535910 0.626313
O O12 0.500000 0.551908 0.000000
O O13 0.500640 0.544973 0.231095
O O14 0.228274 0.477205 0.956451
O O15 0.953713 0.488381 0.720597
O O16 0.915463 0.379123 0.056828
O O17 0.000000 0.315353 0.000000
O O18 0.659671 0.474246 0.627611
O O19 0.000000 0.450990 0.000000
#
# Coordination Sequence:
#
# PCOD9120662 Si02
#       8
#     4   4   4   4   4   4   4   4
#     4  11  23  41  63  87 118 156 201 252 309 361
#     4  10  18  34  56  81 115 156 195 234 286 353
#     4  10  20  38  62  89 120 160 207 249 291 357
#     4  11  22  41  64  81 106 154 205 240 289 365
#     4  11  22  35  55  87 122 153 187 243 308 352
#     4   9  19  36  58  84 118 161 202 240 294 362
#     4  11  21  34  55  87 120 151 195 243 295 350
#     4  11  20  35  57  86 121 155 195 239 290 356
#
# _framework density 20.977405999999998
#
# number of rings (size 3 to 8) (size 9 to 14) (size 15 to 20)
#    0.000    1.500    0.000   10.500    0.000    2.000 
#    0.000    6.250    0.000    0.000    0.000    0.000 
#    0.000    0.000    0.000    0.000    0.000    0.000 
#
# Total GULP energy -89153.962144 kJ/mol
# GULP energy per Si atom -5572.122634 kJ/mol
# Density = 2.092966 g / cm^3
# Si number density = 20.977406 Si / 1000 Ang^3
#
#
#
# Elastic Constant Matrix: (Units=GPa)
#
#
# Indices 1 2 3 4 5 6 
#
# 1 93.7333 17.4680 30.8514 0.0000 -10.9748 0.0000
# 2 17.4680 46.0745 2.0251 0.0000 -6.8662 0.0000
# 3 30.8514 2.0251 98.0872 0.0003 -11.7943 0.0000
# 4 0.0000 0.0000 0.0003 -0.0110 0.0001 -1.9079
# 5 -10.9748 -6.8662 -11.7943 0.0001 47.3296 0.0000
# 6 0.0000 0.0000 0.0000 -1.9079 0.0000 15.3143
#
#
#
# Elastic Compliance Matrix: (Units=1/GPa)
#
#
# Indices 1 2 3 4 5 6 
#
# 1 0.012928 -0.004526 -0.003805 -0.000002 0.001393 0.000000
# 2 -0.004526 0.023769 0.001259 0.000003 0.002712 0.000000
# 3 -0.003805 0.001259 0.011630 0.000014 0.002199 0.000002
# 4 -0.000002 0.000003 0.000014 -4.021127 0.000013 -0.500953
# 5 0.001393 0.002712 0.002199 0.000013 0.022393 0.000002
# 6 0.000000 0.000000 0.000002 -0.500953 0.000002 0.002889
#
#
# Mechanical properties :
#
#
# Convention : Reuss Voigt Hill
#
# Bulk Modulus (GPa) = 29.25534 37.62044 33.43789
# Shear Modulus (GPa) = -1.27487 25.02996 11.87755
#
# Velocity S-wave (km/s) = -0.78042 3.45800 2.38209
# Velocity P-wave (km/s) = 3.62827 5.82378 4.85184
#
# Compressibility (1/GPa) = 0.03418180
#
# Stress axis : x y z
#
# Youngs Moduli (GPa) = 77.35382 42.07171 85.98291
#
# Poissons Ratio (x) = 0.19043 0.32718
# Poissons Ratio (y) = 0.35013 -0.10826
# Poissons Ratio (z) = 0.29435 -0.05297
#
# Static dielectric constant tensor:
#      x y z
#    x 1.863720 0.000000 -0.004650 
#    y 0.000000 1.772860 0.000000 
#    z -0.004650 0.000000 1.796950 
# 
# From -- ./inp_files/45199.got.cif
#   From: 2010.05.17/outbox.cif.g08.bks.cpg/sg5_23_cif.got.tgz:45199.got - 2010.06.03 18:56:24.
