data_PCOD9120255
_publ_section_title
;
Structure prediction by ZEFSAII (Michael W. Deem and Ramdas Pophale) SiO2 
 PCOD9120255
Probable space group: C 2
;
_chemical_formula_sum "Si O2"
_cell_formula_units_Z 28
_cell_length_a 13.841964
_cell_length_b 13.104412
_cell_length_c 23.865326
_cell_angle_alpha 90.000000
_cell_angle_beta 20.921662
_cell_angle_gamma 90.000000
_cell_volume 1545.830025
_symmetry_space_group_name_H-M "C 2"
_symmetry_group_IT_number 5
_symmetry_cell_setting 'monoclinic'
loop_
_space_group_symop_operation_xyz
x,y,z
-x,y,-z
1/2+x,1/2+y,z
1/2-x,1/2+y,-z
loop_
_atom_site_type_symbol
_atom_site_label
_atom_site_fract_x
_atom_site_fract_y
_atom_site_fract_z
Si Si1 0.204445 0.658020 0.188757
Si Si2 0.612724 0.739196 0.666318
Si Si3 0.690438 0.949980 0.149840
Si Si4 0.320535 0.371362 0.842608
Si Si5 0.266388 0.233901 0.704848
Si Si6 0.925964 0.436806 0.914142
Si Si7 0.748423 0.067927 0.822772
O O1 0.072697 0.551494 0.242750
O O2 0.070656 0.762162 0.236686
O O3 0.246345 0.666579 0.232475
O O4 0.500000 0.653665 0.000000
O O5 0.477977 0.849830 0.743564
O O6 0.624043 0.696487 0.724523
O O7 0.441415 0.664760 0.719498
O O8 0.919467 0.748635 0.479741
O O9 0.684858 0.965615 0.086109
O O10 0.000000 0.933699 0.000000
O O11 0.414345 0.470321 0.757436
O O12 0.303290 0.398904 0.917539
O O13 0.000000 0.367236 0.000000
O O14 0.124662 0.340440 0.797792
O O15 0.099332 0.527973 0.847965
O O16 0.500000 0.090184 0.000000
#
# Coordination Sequence:
#
# PCOD9120255 Si02
#       7
#     4   4   4   4   4   4   4
#     4  10  17  33  56  80 104 139 185 230 265 318
#     4  10  22  35  52  85 111 150 176 222 277 324
#     4  10  22  35  51  86 115 137 179 232 286 317
#     4   8  14  30  54  82  93 134 185 223 254 315
#     4  10  19  36  58  75 112 149 188 213 266 339
#     4   9  17  35  57  79 104 146 182 223 272 326
#     4   9  17  32  57  79 103 136 189 226 261 319
#
# _framework density 18.113247000000001
#
# number of rings (size 3 to 8) (size 9 to 14) (size 15 to 20)
#    0.000    2.857    4.286    0.429    0.000    5.714 
#    2.571    0.000    0.000    0.000    0.000    0.000 
#    0.000    0.000    0.000    0.000    0.000    0.000 
#
# Total GULP energy -77940.041453 kJ/mol
# GULP energy per Si atom -5567.145818 kJ/mol
# Density = 1.807202 g / cm^3
# Si number density = 18.113247 Si / 1000 Ang^3
#
#
#
# Elastic Constant Matrix: (Units=GPa)
#
#
# Indices 1 2 3 4 5 6 
#
# 1 126.0834 38.3909 21.7922 0.0110 14.3533 0.2001
# 2 38.3909 93.6441 4.3820 -0.0329 0.7001 -0.0894
# 3 21.7922 4.3820 27.5838 0.0261 4.1140 -1.8451
# 4 0.0110 -0.0329 0.0261 -3.7014 -0.0516 -2.2719
# 5 14.3533 0.7001 4.1140 -0.0516 21.6321 0.2175
# 6 0.2001 -0.0894 -1.8451 -2.2719 0.2175 35.6155
#
#
#
# Elastic Compliance Matrix: (Units=1/GPa)
#
#
# Indices 1 2 3 4 5 6 
#
# 1 0.011130 -0.004179 -0.007282 0.000342 -0.005860 -0.000393
# 2 -0.004179 0.012328 0.001024 -0.000195 0.002178 0.000082
# 3 -0.007282 0.001024 0.042484 -0.001034 -0.003306 0.002199
# 4 0.000342 -0.000195 -0.001034 -0.259956 -0.000476 -0.016636
# 5 -0.005860 0.002178 -0.003306 -0.000476 0.050678 -0.000473
# 6 -0.000393 0.000082 0.002199 -0.016636 -0.000473 0.027136
#
#
# Mechanical properties :
#
#
# Convention : Reuss Voigt Hill
#
# Bulk Modulus (GPa) = 22.18836 41.82684 32.00760
# Shear Modulus (GPa) = -62.26324 22.89233 -19.68546
#
# Velocity S-wave (km/s) = -5.86933 3.55892 -3.30024
# Velocity P-wave (km/s) = 5.80135 6.32691 1.78524
#
# Compressibility (1/GPa) = 0.04506868
#
# Stress axis : x y z
#
# Youngs Moduli (GPa) = 89.84849 81.11862 23.53803
#
# Poissons Ratio (x) = 0.33896 0.17140
# Poissons Ratio (y) = 0.37544 -0.02410
# Poissons Ratio (z) = 0.65425 -0.08304
#
# Static dielectric constant tensor:
#      x y z
#    x 1.644390 0.000150 0.030680 
#    y 0.000150 1.688140 -0.000050 
#    z 0.030680 -0.000050 1.606010 
# 
# From -- ./inp_files/65289.got.cif
#   From: 2010.05.17/outbox.cif.g08.bks.cpg/sg5_33_cif.got.tgz:65289.got - 2010.06.03 18:56:24.
