data_PCOD9120464
_publ_section_title
;
Structure prediction by ZEFSAII (Michael W. Deem and Ramdas Pophale) SiO2 
 PCOD9120464
Probable space group: C 2
;
_chemical_formula_sum "Si O2"
_cell_formula_units_Z 28
_cell_length_a 18.038921
_cell_length_b 7.629866
_cell_length_c 7.162826
_cell_angle_alpha 90.000000
_cell_angle_beta 92.192317
_cell_angle_gamma 90.000000
_cell_volume 985.130744
_symmetry_space_group_name_H-M "C 2"
_symmetry_group_IT_number 5
_symmetry_cell_setting 'monoclinic'
loop_
_space_group_symop_operation_xyz
x,y,z
-x,y,-z
1/2+x,1/2+y,z
1/2-x,1/2+y,-z
loop_
_atom_site_type_symbol
_atom_site_label
_atom_site_fract_x
_atom_site_fract_y
_atom_site_fract_z
Si Si1 0.631433 0.929810 0.500722
Si Si2 0.185162 0.060141 0.122640
Si Si3 0.349356 0.108084 0.132431
Si Si4 0.028452 0.984975 0.214779
Si Si5 0.556897 0.073414 0.176619
Si Si6 0.218827 0.785069 0.419800
Si Si7 0.873236 0.974758 0.271931
O O1 0.616555 0.975075 0.714358
O O2 0.562981 0.946341 0.354385
O O3 0.694212 0.781642 0.517973
O O4 0.680269 0.100122 0.443315
O O5 0.263360 0.154746 0.160106
O O6 0.106336 0.089424 0.216625
O O7 0.209281 0.871494 0.214537
O O8 0.168806 0.071829 0.899779
O O9 0.390998 0.289889 0.168297
O O10 0.365996 0.041875 0.928997
O O11 0.048010 0.776514 0.245138
O O12 0.955786 0.042579 0.325306
O O13 0.000000 0.006161 0.000000
O O14 0.500000 0.042259 0.000000
O O15 0.174463 0.912276 0.558129
#
# Coordination Sequence:
#
# PCOD9120464 Si02
#       7
#     4   4   4   4   4   4   4
#     4  10  21  34  52  83 113 143 186 227 281 336
#     4  10  18  31  48  73 109 139 175 226 274 330
#     4  10  19  30  49  77 106 144 176 220 286 328
#     4   9  16  30  49  74 110 129 175 235 274 308
#     4  11  18  34  52  78 115 139 178 240 282 319
#     4  10  20  33  52  79 112 143 183 227 279 333
#     4  10  18  32  49  77 107 141 180 224 284 326
#
# _framework density 28.422623999999999
#
# number of rings (size 3 to 8) (size 9 to 14) (size 15 to 20)
#    0.000    2.000    5.714    0.857    0.000    1.143 
#    0.000    0.000    0.000    0.000    0.000   77.000 
#    0.000    0.000    0.000    0.000    0.000    0.000 
#
# Total GULP energy -78256.327667 kJ/mol
# GULP energy per Si atom -5589.737690 kJ/mol
# Density = 2.835793 g / cm^3
# Si number density = 28.422624 Si / 1000 Ang^3
#
#
#
# Elastic Constant Matrix: (Units=GPa)
#
#
# Indices 1 2 3 4 5 6 
#
# 1 150.5391 5.7198 31.6075 0.0000 37.8257 0.0000
# 2 5.7198 67.7429 14.4085 0.0000 9.4531 0.0000
# 3 31.6075 14.4085 149.7013 0.0000 30.3467 0.0000
# 4 0.0000 0.0000 0.0000 14.8614 0.0000 7.0947
# 5 37.8257 9.4531 30.3467 0.0000 42.1036 0.0000
# 6 0.0000 0.0000 0.0000 7.0947 0.0000 36.4509
#
#
#
# Elastic Compliance Matrix: (Units=1/GPa)
#
#
# Indices 1 2 3 4 5 6 
#
# 1 0.008601 0.000400 -0.000316 0.000000 -0.007589 0.000000
# 2 0.000400 0.015363 -0.000926 0.000000 -0.003141 0.000000
# 3 -0.000316 -0.000926 0.007889 0.000000 -0.005194 0.000000
# 4 0.000000 0.000000 0.000000 0.074181 0.000000 -0.014438
# 5 -0.007589 -0.003141 -0.005194 0.000000 0.035018 0.000000
# 6 0.000000 0.000000 0.000000 -0.014438 0.000000 0.030244
#
#
# Mechanical properties :
#
#
# Convention : Reuss Voigt Hill
#
# Bulk Modulus (GPa) = 33.14776 52.38388 42.76582
# Shear Modulus (GPa) = 27.31689 39.76635 33.54162
#
# Velocity S-wave (km/s) = 3.10352 3.74452 3.43899
# Velocity P-wave (km/s) = 4.95280 6.09636 5.55409
#
# Compressibility (1/GPa) = 0.03016795
#
# Stress axis : x y z
#
# Youngs Moduli (GPa) = 116.26798 65.09030 126.76266
#
# Poissons Ratio (x) = -0.02604 0.04006
# Poissons Ratio (y) = -0.04651 0.11743
# Poissons Ratio (z) = 0.03675 0.06030
#
# Static dielectric constant tensor:
#      x y z
#    x 2.288450 0.000000 0.018460 
#    y 0.000000 2.183850 0.000000 
#    z 0.018460 0.000000 2.208210 
# 
# From -- ./inp_files/27057.got.cif
#   From: 2010.05.17/outbox.cif.g08.bks.cpg/sg5_14_cif.got.tgz:27057.got - 2010.06.03 18:56:24.
