data_PCOD9120836
_publ_section_title
;
Structure prediction by ZEFSAII (Michael W. Deem and Ramdas Pophale) SiO2 
 PCOD9120836
Probable space group: C 2
;
_chemical_formula_sum "Si O2"
_cell_formula_units_Z 30
_cell_length_a 14.350443
_cell_length_b 5.506049
_cell_length_c 15.245406
_cell_angle_alpha 90.000000
_cell_angle_beta 80.200135
_cell_angle_gamma 90.000000
_cell_volume 1187.026980
_symmetry_space_group_name_H-M "C 2"
_symmetry_group_IT_number 5
_symmetry_cell_setting 'monoclinic'
loop_
_space_group_symop_operation_xyz
x,y,z
-x,y,-z
1/2+x,1/2+y,z
1/2-x,1/2+y,-z
loop_
_atom_site_type_symbol
_atom_site_label
_atom_site_fract_x
_atom_site_fract_y
_atom_site_fract_z
Si Si1 0.040574 0.528990 0.371482
Si Si2 0.818907 0.529539 0.386327
Si Si3 0.494303 0.529023 0.387292
Si Si4 0.157680 0.517051 0.185634
Si Si5 0.943959 0.009929 0.826873
Si Si6 0.227112 0.029545 0.591176
Si Si7 0.711928 0.730362 0.963162
Si Si8 0.000000 0.190031 0.000000
O O1 0.931682 0.528196 0.351887
O O2 0.044305 0.268836 0.414354
O O3 0.124933 0.528186 0.290122
O O4 0.044215 0.788969 0.414364
O O5 0.772070 0.774343 0.359156
O O6 0.795607 0.529620 0.495446
O O7 0.771362 0.285335 0.360017
O O8 0.507987 0.526816 0.277918
O O9 0.382971 0.529237 0.423653
O O10 0.257010 0.623353 0.136964
O O11 0.091669 0.733520 0.157617
O O12 0.130173 0.240393 0.163812
O O13 0.002223 0.052292 0.906249
O O14 0.602840 0.812718 0.983519
O O15 0.733105 0.477197 0.014802
#
# Coordination Sequence:
#
# PCOD9120836 Si02
#       8
#     4   4   4   4   4   4   4   2
#     4   8  14  22  40  55  82 115 153 186 239 285
#     4   8  12  18  28  52  73 109 145 183 222 281
#     4   8  14  24  36  58  81 118 149 192 236 287
#     4  10  18  36  49  70  98 130 160 211 254 301
#     4  10  20  32  52  71  97 127 171 204 254 304
#     4   8  12  18  30  46  80 107 143 183 230 270
#     4  12  24  40  57  80 107 135 175 220 265 316
#     4  12  24  38  60  80 104 140 176 222 262 320
#
# _framework density 25.273223999999999
#
# number of rings (size 3 to 8) (size 9 to 14) (size 15 to 20)
#    0.000    2.667    2.667    0.000    0.000    2.133 
#    0.000    0.000    0.000    0.000    0.000    0.000 
#    0.000    1.067    0.000    0.000    0.000  249.333 
#
# Total GULP energy -83538.413108 kJ/mol
# GULP energy per Si atom -5569.227541 kJ/mol
# Density = 2.521570 g / cm^3
# Si number density = 25.273224 Si / 1000 Ang^3
#
#
#
# Elastic Constant Matrix: (Units=GPa)
#
#
# Indices 1 2 3 4 5 6 
#
# 1 107.3746 32.1949 37.2129 0.0000 -27.7337 0.0000
# 2 32.1949 242.3065 19.0719 0.0000 -5.6142 0.0000
# 3 37.2129 19.0719 148.0316 0.0000 -22.2435 0.0000
# 4 0.0000 0.0000 0.0000 14.9174 0.0000 -33.0342
# 5 -27.7337 -5.6142 -22.2435 0.0000 39.6485 0.0000
# 6 0.0000 0.0000 0.0000 -33.0342 0.0000 -8.6532
#
#
#
# Elastic Compliance Matrix: (Units=1/GPa)
#
#
# Indices 1 2 3 4 5 6 
#
# 1 0.012232 -0.001313 -0.001800 0.000000 0.007360 0.000000
# 2 -0.001313 0.004314 -0.000297 0.000000 -0.000474 0.000000
# 3 -0.001800 -0.000297 0.007700 0.000000 0.003019 0.000000
# 4 0.000000 0.000000 0.000000 0.007091 0.000000 -0.027070
# 5 0.007360 -0.000474 0.003019 0.000000 0.031996 0.000000
# 6 0.000000 0.000000 0.000000 -0.027070 0.000000 -0.012224
#
#
# Mechanical properties :
#
#
# Convention : Reuss Voigt Hill
#
# Bulk Modulus (GPa) = 57.38640 74.96358 66.17499
# Shear Modulus (GPa) = 78.44804 36.46474 57.45639
#
# Velocity S-wave (km/s) = 5.57740 3.80257 4.77320
# Velocity P-wave (km/s) = 8.01450 7.00036 7.52453
#
# Compressibility (1/GPa) = 0.01742573
#
# Stress axis : x y z
#
# Youngs Moduli (GPa) = 81.75473 231.81147 129.87711
#
# Poissons Ratio (x) = 0.30437 0.23374
# Poissons Ratio (y) = 0.10735 0.03857
# Poissons Ratio (z) = 0.14714 0.06884
#
# Static dielectric constant tensor:
#      x y z
#    x 1.984220 0.000000 -0.030210 
#    y 0.000000 2.054570 0.000000 
#    z -0.030210 0.000000 2.064750 
# 
# From -- ./inp_files/65554.got.cif
#   From: 2010.05.17/outbox.cif.g08.bks.cpg/sg5_33_cif.got.tgz:65554.got - 2010.06.03 18:56:24.
