data_PCOD9120424
_publ_section_title
;
Structure prediction by ZEFSAII (Michael W. Deem and Ramdas Pophale) SiO2 
 PCOD9120424
Probable space group: C 2
;
_chemical_formula_sum "Si O2"
_cell_formula_units_Z 24
_cell_length_a 6.867092
_cell_length_b 26.823260
_cell_length_c 7.934512
_cell_angle_alpha 90.000000
_cell_angle_beta 140.632455
_cell_angle_gamma 90.000000
_cell_volume 927.031217
_symmetry_space_group_name_H-M "C 2"
_symmetry_group_IT_number 5
_symmetry_cell_setting 'monoclinic'
loop_
_space_group_symop_operation_xyz
x,y,z
-x,y,-z
1/2+x,1/2+y,z
1/2-x,1/2+y,-z
loop_
_atom_site_type_symbol
_atom_site_label
_atom_site_fract_x
_atom_site_fract_y
_atom_site_fract_z
Si Si1 0.859852 0.855770 0.090058
Si Si2 0.661351 0.015947 0.922736
Si Si3 0.804669 0.421536 0.610446
Si Si4 0.672449 0.685131 0.433377
Si Si5 0.326373 0.244349 0.066373
Si Si6 0.667468 0.573157 0.428299
O O1 0.115499 0.891323 0.344847
O O2 0.522983 0.880606 0.846000
O O3 0.845208 0.799967 0.152453
O O4 0.000000 0.849465 0.000000
O O5 0.552277 0.965707 0.755577
O O6 0.500000 0.011823 0.000000
O O7 0.509658 0.059386 0.711313
O O8 0.003623 0.031786 0.201736
O O9 0.500000 0.443527 0.500000
O O10 0.500000 0.684172 0.500000
O O11 0.507772 0.725774 0.208043
O O12 0.644610 0.629162 0.346748
O O13 0.007290 0.703702 0.707195
O O14 0.500000 0.244503 0.000000
O O15 0.500000 0.572119 0.500000
#
# Coordination Sequence:
#
# PCOD9120424 Si02
#       6
#     4   4   4   4   4   4
#     4  11  23  39  58  82 114 153 194 237 285 337
#     4  10  18  30  46  71 106 145 179 220 278 332
#     4  12  23  38  58  82 114 154 196 237 284 336
#     4   9  15  25  42  68 101 139 174 211 268 339
#     4   9  17  29  46  69 102 140 176 220 276 328
#     4   9  16  25  42  68 103 141 175 213 271 342
#
# _framework density 25.889095999999999
#
# number of rings (size 3 to 8) (size 9 to 14) (size 15 to 20)
#    0.000    2.000    0.000    6.500    0.000    6.667 
#    0.000    0.000    0.000    0.000    0.000    0.000 
#    0.000   74.667    0.000    5.500    0.000    0.167 
#
# Total GULP energy -67091.927540 kJ/mol
# GULP energy per Si atom -5590.993962 kJ/mol
# Density = 2.583017 g / cm^3
# Si number density = 25.889096 Si / 1000 Ang^3
#
#
#
# Elastic Constant Matrix: (Units=GPa)
#
#
# Indices 1 2 3 4 5 6 
#
# 1 83.6706 7.4148 18.8706 0.0000 24.2019 0.0000
# 2 7.4148 166.0026 59.5905 0.0000 -9.2937 0.0000
# 3 18.8706 59.5905 168.8324 0.0000 2.7932 0.0000
# 4 0.0000 0.0000 0.0000 44.3283 0.0000 -2.7149
# 5 24.2019 -9.2937 2.7932 0.0000 28.1067 0.0000
# 6 0.0000 0.0000 0.0000 -2.7149 0.0000 21.6518
#
#
#
# Elastic Compliance Matrix: (Units=1/GPa)
#
#
# Indices 1 2 3 4 5 6 
#
# 1 0.016506 -0.001111 -0.001213 0.000000 -0.014460 0.000000
# 2 -0.001111 0.007157 -0.002461 0.000000 0.003568 0.000000
# 3 -0.001213 -0.002461 0.006935 0.000000 -0.000458 0.000000
# 4 0.000000 0.000000 0.000000 0.022734 0.000000 0.002851
# 5 -0.014460 0.003568 -0.000458 0.000000 0.049255 0.000000
# 6 0.000000 0.000000 0.000000 0.002851 0.000000 0.046543
#
#
# Mechanical properties :
#
#
# Convention : Reuss Voigt Hill
#
# Bulk Modulus (GPa) = 47.55828 65.58416 56.57122
# Shear Modulus (GPa) = 30.17326 40.99268 35.58297
#
# Velocity S-wave (km/s) = 3.41762 3.98351 3.71136
# Velocity P-wave (km/s) = 5.82953 6.82243 6.34543
#
# Compressibility (1/GPa) = 0.02102683
#
# Stress axis : x y z
#
# Youngs Moduli (GPa) = 60.58256 139.72800 144.19991
#
# Poissons Ratio (x) = 0.15527 0.17499
# Poissons Ratio (y) = 0.06732 0.35485
# Poissons Ratio (z) = 0.07352 0.34385
#
# Static dielectric constant tensor:
#      x y z
#    x 2.218100 0.000000 -0.036190 
#    y 0.000000 1.987190 0.000000 
#    z -0.036190 0.000000 1.895350 
# 
# From -- ./inp_files/40846.got.cif
#   From: 2010.05.17/outbox.cif.g08.bks.cpg/sg5_21_cif.got.tgz:40846.got - 2010.06.03 18:56:24.
