data_PCOD9120709
_publ_section_title
;
Structure prediction by ZEFSAII (Michael W. Deem and Ramdas Pophale) SiO2 
 PCOD9120709
Probable space group: C 2
;
_chemical_formula_sum "Si O2"
_cell_formula_units_Z 30
_cell_length_a 17.249448
_cell_length_b 8.977562
_cell_length_c 20.804122
_cell_angle_alpha 90.000000
_cell_angle_beta 149.534097
_cell_angle_gamma 90.000000
_cell_volume 1633.476234
_symmetry_space_group_name_H-M "C 2"
_symmetry_group_IT_number 5
_symmetry_cell_setting 'monoclinic'
loop_
_space_group_symop_operation_xyz
x,y,z
-x,y,-z
1/2+x,1/2+y,z
1/2-x,1/2+y,-z
loop_
_atom_site_type_symbol
_atom_site_label
_atom_site_fract_x
_atom_site_fract_y
_atom_site_fract_z
Si Si1 0.000000 0.228380 0.000000
Si Si2 0.806268 0.951027 0.902398
Si Si3 0.529340 0.307668 0.596930
Si Si4 0.654722 0.954810 0.204740
Si Si5 0.255940 0.509105 0.413226
Si Si6 0.907728 0.804119 0.842276
Si Si7 0.521921 0.022703 0.355701
Si Si8 0.856560 0.325975 0.443436
O O1 0.947088 0.335540 0.904915
O O2 0.872383 0.116580 0.937245
O O3 0.832238 0.868986 0.852864
O O4 0.626128 0.952224 0.784867
O O5 0.919770 0.868033 0.033276
O O6 0.500000 0.274840 0.500000
O O7 0.675508 0.416791 0.700822
O O8 0.383618 0.390380 0.523058
O O9 0.543539 0.156932 0.647443
O O10 0.663306 0.937124 0.287708
O O11 0.601964 0.125377 0.158198
O O12 0.144158 0.563776 0.388806
O O13 0.346430 0.650396 0.449867
O O14 0.802295 0.857573 0.707593
O O15 0.609606 0.913413 0.467279
O O16 0.000000 0.357388 0.500000
#
# Coordination Sequence:
#
# PCOD9120709 Si02
#       8
#     2   4   4   4   4   4   4   4
#     4  10  18  34  60  86 110 148 196 244 274 336
#     4  10  21  34  55  90 116 146 190 242 284 340
#     4  10  21  36  59  88 112 149 196 238 281 340
#     4  10  19  38  61  84 109 153 197 237 278 342
#     4  10  23  38  56  85 124 148 184 241 296 340
#     4   9  19  35  57  84 111 145 201 237 271 332
#     4  12  22  37  58  89 120 152 183 244 296 335
#     4  11  20  37  63  85 108 155 202 234 274 346
#
# _framework density 18.365741
#
# number of rings (size 3 to 8) (size 9 to 14) (size 15 to 20)
#    0.000    1.867    2.667    4.000    0.000    1.067 
#    0.000    2.667    0.000    0.000    0.000    0.000 
#    0.000    0.000    0.000    0.000    0.000    0.000 
#
# Total GULP energy -83604.410276 kJ/mol
# GULP energy per Si atom -5573.627352 kJ/mol
# Density = 1.832394 g / cm^3
# Si number density = 18.365741 Si / 1000 Ang^3
#
#
#
# Elastic Constant Matrix: (Units=GPa)
#
#
# Indices 1 2 3 4 5 6 
#
# 1 42.9810 4.1680 9.9831 0.0000 6.0139 0.0000
# 2 4.1680 73.5279 54.5329 0.0000 -6.0875 0.0000
# 3 9.9831 54.5329 122.6441 0.0000 -1.9678 0.0000
# 4 0.0000 0.0000 0.0000 25.0529 0.0000 1.6829
# 5 6.0139 -6.0875 -1.9678 0.0000 16.4952 0.0000
# 6 0.0000 0.0000 0.0000 1.6829 0.0000 13.2212
#
#
#
# Elastic Compliance Matrix: (Units=1/GPa)
#
#
# Indices 1 2 3 4 5 6 
#
# 1 0.025130 -0.000888 -0.001806 0.000000 -0.009705 0.000000
# 2 -0.000888 0.021027 -0.009165 0.000000 0.006990 0.000000
# 3 -0.001806 -0.009165 0.012356 0.000000 -0.001250 0.000000
# 4 0.000000 0.000000 0.000000 0.040260 0.000000 -0.005125
# 5 -0.009705 0.006990 -0.001250 0.000000 0.066593 0.000000
# 6 0.000000 0.000000 0.000000 -0.005125 0.000000 0.076288
#
#
# Mechanical properties :
#
#
# Convention : Reuss Voigt Hill
#
# Bulk Modulus (GPa) = 28.74134 41.83568 35.28851
# Shear Modulus (GPa) = 18.05251 22.31846 20.18548
#
# Velocity S-wave (km/s) = 3.13860 3.48979 3.31884
# Velocity P-wave (km/s) = 5.36822 6.25034 5.82600
#
# Compressibility (1/GPa) = 0.03479309
#
# Stress axis : x y z
#
# Youngs Moduli (GPa) = 39.79345 47.55872 80.93397
#
# Poissons Ratio (x) = 0.04225 0.14619
# Poissons Ratio (y) = 0.03535 0.74175
# Poissons Ratio (z) = 0.07188 0.43587
#
# Static dielectric constant tensor:
#      x y z
#    x 1.593650 0.000000 0.008180 
#    y 0.000000 1.626990 0.000000 
#    z 0.008180 0.000000 1.689960 
# 
# From -- ./inp_files/66622.got.cif
#   From: 2010.05.17/outbox.cif.g08.bks.cpg/sg5_34_cif.got.tgz:66622.got - 2010.06.03 18:56:24.
