data_PCOD9120862
_publ_section_title
;
Structure prediction by ZEFSAII (Michael W. Deem and Ramdas Pophale) SiO2 
 PCOD9120862
Probable space group: C 2
;
_chemical_formula_sum "Si O2"
_cell_formula_units_Z 18
_cell_length_a 7.043772
_cell_length_b 20.493162
_cell_length_c 5.296952
_cell_angle_alpha 90.000000
_cell_angle_beta 95.385596
_cell_angle_gamma 90.000000
_cell_volume 761.235272
_symmetry_space_group_name_H-M "C 2"
_symmetry_group_IT_number 5
_symmetry_cell_setting 'monoclinic'
loop_
_space_group_symop_operation_xyz
x,y,z
-x,y,-z
1/2+x,1/2+y,z
1/2-x,1/2+y,-z
loop_
_atom_site_type_symbol
_atom_site_label
_atom_site_fract_x
_atom_site_fract_y
_atom_site_fract_z
Si Si1 0.287815 0.226160 0.590663
Si Si2 0.208885 0.025193 0.083309
Si Si3 0.221065 0.075405 0.581316
Si Si4 0.795638 0.303546 0.902736
Si Si5 0.500000 0.401162 0.000000
O O1 0.500000 0.225748 0.500000
O O2 0.230777 0.151770 0.636324
O O3 0.269587 0.263979 0.853888
O O4 0.176236 0.259106 0.341580
O O5 0.311333 0.061596 0.320360
O O6 0.298359 0.032201 0.819864
O O7 0.000000 0.058504 0.000000
O O8 0.149574 0.951445 0.145175
O O9 0.000000 0.055903 0.500000
O O10 0.629476 0.356362 0.838369
O O11 0.000000 0.333568 0.000000
#
# Coordination Sequence:
#
# PCOD9120862 Si02
#       5
#     4   4   4   4   2
#     4  12  24  42  64  99 138 176 223 282 339 400
#     4   8  19  33  61  84 118 172 207 265 314 391
#     4  10  18  36  58  88 121 165 221 249 332 384
#     4  12  25  43  67 100 134 178 224 280 336 403
#     4  10  22  44  66  96 138 172 236 256 346 400
#
# _framework density 23.645775
#
# number of rings (size 3 to 8) (size 9 to 14) (size 15 to 20)
#    0.667    0.889    2.222    3.333    0.000    5.333 
#    0.000    2.222    0.000    0.000    0.000    0.000 
#    0.000    0.000    0.000    0.000    0.000    0.000 
#
# Total GULP energy -50197.331135 kJ/mol
# GULP energy per Si atom -5577.481237 kJ/mol
# Density = 2.359196 g / cm^3
# Si number density = 23.645775 Si / 1000 Ang^3
#
#
#
# Elastic Constant Matrix: (Units=GPa)
#
#
# Indices 1 2 3 4 5 6 
#
# 1 72.9960 11.8179 13.7395 0.0000 -9.1872 0.0000
# 2 11.8179 116.7143 45.3983 0.0000 -0.4586 0.0000
# 3 13.7395 45.3983 170.8437 0.0000 3.3029 0.0000
# 4 0.0000 0.0000 0.0000 12.6768 0.0000 -16.1449
# 5 -9.1872 -0.4586 3.3029 0.0000 32.0155 0.0000
# 6 0.0000 0.0000 0.0000 -16.1449 0.0000 14.3069
#
#
#
# Elastic Compliance Matrix: (Units=1/GPa)
#
#
# Indices 1 2 3 4 5 6 
#
# 1 0.014595 -0.001084 -0.000968 0.000000 0.004273 0.000000
# 2 -0.001084 0.009641 -0.002476 0.000000 0.000082 0.000000
# 3 -0.000968 -0.002476 0.006608 0.000000 -0.000995 0.000000
# 4 0.000000 0.000000 0.000000 -0.180430 0.000000 -0.203610
# 5 0.004273 0.000082 -0.000995 0.000000 0.032565 0.000000
# 6 0.000000 0.000000 0.000000 -0.203610 0.000000 -0.159872
#
#
# Mechanical properties :
#
#
# Convention : Reuss Voigt Hill
#
# Bulk Modulus (GPa) = 45.89955 55.82950 50.86452
# Shear Modulus (GPa) = -19.18849 31.10639 5.95895
#
# Velocity S-wave (km/s) = -2.85177 3.63094 1.58920
# Velocity P-wave (km/s) = 2.93428 6.42186 4.99251
#
# Compressibility (1/GPa) = 0.02178671
#
# Stress axis : x y z
#
# Youngs Moduli (GPa) = 68.51702 103.72057 151.32150
#
# Poissons Ratio (x) = 0.11248 0.14651
# Poissons Ratio (y) = 0.07430 0.37473
# Poissons Ratio (z) = 0.06634 0.25685
#
# Static dielectric constant tensor:
#      x y z
#    x 1.985310 0.000000 -0.032730 
#    y 0.000000 1.840000 0.000000 
#    z -0.032730 0.000000 1.967050 
# 
# From -- ./inp_files/2672.got.cif
#   From: 2010.05.17/outbox.cif.g08.bks.cpg/sg5_2_cif.got.tgz:2672.got - 2010.06.03 18:56:24.
