data_PCOD9120852
_publ_section_title
;
Structure prediction by ZEFSAII (Michael W. Deem and Ramdas Pophale) SiO2 
 PCOD9120852
Probable space group: C 2
;
_chemical_formula_sum "Si O2"
_cell_formula_units_Z 14
_cell_length_a 11.369771
_cell_length_b 7.333380
_cell_length_c 7.313062
_cell_angle_alpha 90.000000
_cell_angle_beta 108.630049
_cell_angle_gamma 90.000000
_cell_volume 577.804172
_symmetry_space_group_name_H-M "C 2"
_symmetry_group_IT_number 5
_symmetry_cell_setting 'monoclinic'
loop_
_space_group_symop_operation_xyz
x,y,z
-x,y,-z
1/2+x,1/2+y,z
1/2-x,1/2+y,-z
loop_
_atom_site_type_symbol
_atom_site_label
_atom_site_fract_x
_atom_site_fract_y
_atom_site_fract_z
Si Si1 0.688070 0.470340 0.746394
Si Si2 0.500000 0.073170 0.500000
Si Si3 0.284282 0.046657 0.160394
Si Si4 0.408497 0.417594 0.674005
O O1 0.717859 0.255449 0.776911
O O2 0.546061 0.501797 0.742779
O O3 0.677008 0.510917 0.526121
O O4 0.781498 0.552154 0.940239
O O5 0.402662 0.965050 0.326996
O O6 0.435074 0.212821 0.613138
O O7 0.164424 0.942228 0.176361
#
# Coordination Sequence:
#
# PCOD9120852 Si02
#       4
#     4   2   4   4
#     4   9  20  34  57  84 104 141 187 215 266 328
#     4   8  20  36  54  82 108 142 184 214 266 328
#     4  10  18  36  57  79 111 142 176 225 268 313
#     4   8  17  36  55  75 108 144 173 217 268 312
#
# _framework density 24.229662000000001
#
# number of rings (size 3 to 8) (size 9 to 14) (size 15 to 20)
#    0.000    4.000    0.000    0.857    0.000    4.571 
#    0.000   24.286    0.000    0.000    0.000    0.000 
#    0.000    0.000    0.000    0.000    0.000    0.000 
#
# Total GULP energy -39020.004845 kJ/mol
# GULP energy per Si atom -5574.286406 kJ/mol
# Density = 2.417451 g / cm^3
# Si number density = 24.229662 Si / 1000 Ang^3
#
#
#
# Elastic Constant Matrix: (Units=GPa)
#
#
# Indices 1 2 3 4 5 6 
#
# 1 58.5476 25.0007 4.3336 0.0000 -0.6680 0.0000
# 2 25.0007 42.2904 5.7991 0.0000 -4.7252 0.0000
# 3 4.3336 5.7991 164.2520 0.0000 5.0265 0.0000
# 4 0.0000 0.0000 0.0000 20.7012 0.0000 2.9400
# 5 -0.6680 -4.7252 5.0265 0.0000 30.8713 0.0000
# 6 0.0000 0.0000 0.0000 2.9400 0.0000 20.0710
#
#
#
# Elastic Compliance Matrix: (Units=1/GPa)
#
#
# Indices 1 2 3 4 5 6 
#
# 1 0.022927 -0.013722 -0.000072 0.000000 -0.001592 0.000000
# 2 -0.013722 0.032424 -0.000930 0.000000 0.004817 0.000000
# 3 -0.000072 -0.000930 0.006158 0.000000 -0.001147 0.000000
# 4 0.000000 0.000000 0.000000 0.049333 0.000000 -0.007226
# 5 -0.001592 0.004817 -0.001147 0.000000 0.033282 0.000000
# 6 0.000000 0.000000 0.000000 -0.007226 0.000000 0.050882
#
#
# Mechanical properties :
#
#
# Convention : Reuss Voigt Hill
#
# Bulk Modulus (GPa) = 31.19016 37.26186 34.22601
# Shear Modulus (GPa) = 21.26408 29.65914 25.46161
#
# Velocity S-wave (km/s) = 2.96565 3.50249 3.24519
# Velocity P-wave (km/s) = 4.96261 5.63636 5.31018
#
# Compressibility (1/GPa) = 0.03206139
#
# Stress axis : x y z
#
# Youngs Moduli (GPa) = 43.61758 30.84178 162.38966
#
# Poissons Ratio (x) = 0.42320 0.01164
# Poissons Ratio (y) = 0.59850 0.15105
# Poissons Ratio (z) = 0.00313 0.02869
#
# Static dielectric constant tensor:
#      x y z
#    x 1.932780 0.000000 0.080920 
#    y 0.000000 1.979960 0.000000 
#    z 0.080920 0.000000 1.992540 
# 
# From -- ./inp_files/17942.got.cif
#   From: 2010.05.17/outbox.cif.g08.bks.cpg/sg5_9_cif.got.tgz:17942.got - 2010.06.03 18:56:24.
