data_PCOD9120908
_publ_section_title
;
Structure prediction by ZEFSAII (Michael W. Deem and Ramdas Pophale) SiO2 
 PCOD9120908
Probable space group: C 2
;
_chemical_formula_sum "Si O2"
_cell_formula_units_Z 22
_cell_length_a 5.845207
_cell_length_b 18.306218
_cell_length_c 8.614655
_cell_angle_alpha 90.000000
_cell_angle_beta 75.707389
_cell_angle_gamma 90.000000
_cell_volume 893.267463
_symmetry_space_group_name_H-M "C 2"
_symmetry_group_IT_number 5
_symmetry_cell_setting 'monoclinic'
loop_
_space_group_symop_operation_xyz
x,y,z
-x,y,-z
1/2+x,1/2+y,z
1/2-x,1/2+y,-z
loop_
_atom_site_type_symbol
_atom_site_label
_atom_site_fract_x
_atom_site_fract_y
_atom_site_fract_z
Si Si1 0.728465 0.500000 0.068057
Si Si2 0.000000 0.619886 0.500000
Si Si3 0.500000 0.826848 0.500000
Si Si4 0.553984 0.250435 0.716360
Si Si5 0.000000 0.108478 0.500000
Si Si6 0.137879 0.166649 0.133459
Si Si7 0.811283 0.891239 0.668512
O O1 0.736112 0.587293 0.071733
O O2 0.664010 0.463975 0.240559
O O3 0.500000 0.480951 0.000000
O O4 0.000000 0.473931 0.000000
O O5 0.040297 0.676371 0.348987
O O6 0.762797 0.576560 0.492485
O O7 0.268465 0.779157 0.569815
O O8 0.556026 0.877083 0.637440
O O9 0.675269 0.228082 0.854607
O O10 0.375008 0.317532 0.752474
O O11 0.033846 0.150612 0.326789
O O12 0.000000 0.189154 0.000000
O O13 0.000000 0.896254 0.500000
#
# Coordination Sequence:
#
# PCOD9120908 Si02
#       7
#     4   2   2   4   2   4   4
#     4  11  28  52  71 102 157 197 245 311 373 449
#     4  10  18  36  62  99 139 178 222 300 364 418
#     4  10  19  40  69 103 148 179 244 318 357 450
#     4  10  19  37  68 103 140 185 238 312 364 436
#     4  10  23  38  69 100 139 187 238 296 363 440
#     4  10  24  46  73 105 152 195 250 307 380 443
#     4  10  23  42  76 105 141 193 257 299 373 451
#
# _framework density 24.628679000000002
#
# number of rings (size 3 to 8) (size 9 to 14) (size 15 to 20)
#    0.000    1.818    2.727    2.182    6.364    5.818 
#    3.273    3.636    0.000    0.000    0.000    0.000 
#    0.000    0.000    0.000    0.000    0.000    0.000 
#
# Total GULP energy -61312.312378 kJ/mol
# GULP energy per Si atom -5573.846580 kJ/mol
# Density = 2.457262 g / cm^3
# Si number density = 24.628679 Si / 1000 Ang^3
#
#
#
# Elastic Constant Matrix: (Units=GPa)
#
#
# Indices 1 2 3 4 5 6 
#
# 1 189.0749 32.9186 52.9097 0.0000 39.4522 0.0000
# 2 32.9186 37.9722 5.8671 0.0000 29.4540 0.0000
# 3 52.9097 5.8671 111.7416 0.0000 29.9593 0.0000
# 4 0.0000 0.0000 0.0000 9.4189 0.0000 11.4356
# 5 39.4522 29.4540 29.9593 0.0000 56.3473 0.0000
# 6 0.0000 0.0000 0.0000 11.4356 0.0000 12.9495
#
#
#
# Elastic Compliance Matrix: (Units=1/GPa)
#
#
# Indices 1 2 3 4 5 6 
#
# 1 0.007164 -0.005167 -0.002916 0.000000 -0.000765 0.000000
# 2 -0.005167 0.050076 0.006840 0.000000 -0.026195 0.000000
# 3 -0.002916 0.006840 0.012108 0.000000 -0.007972 0.000000
# 4 0.000000 0.000000 0.000000 -1.470904 0.000000 1.298948
# 5 -0.000765 -0.026195 -0.007972 0.000000 0.036214 0.000000
# 6 0.000000 0.000000 0.000000 1.298948 0.000000 -1.069871
#
#
# Mechanical properties :
#
#
# Convention : Reuss Voigt Hill
#
# Bulk Modulus (GPa) = 14.95570 58.01993 36.48781
# Shear Modulus (GPa) = -2.07431 32.21604 15.07086
#
# Velocity S-wave (km/s) = -0.91873 3.62065 2.47639
# Velocity P-wave (km/s) = 2.22716 6.40998 4.79834
#
# Compressibility (1/GPa) = 0.06686416
#
# Stress axis : x y z
#
# Youngs Moduli (GPa) = 139.58693 19.96954 82.58981
#
# Poissons Ratio (x) = 0.10318 0.24081
# Poissons Ratio (y) = 0.72121 -0.56495
# Poissons Ratio (z) = 0.40701 -0.13660
#
# Static dielectric constant tensor:
#      x y z
#    x 2.184640 0.000000 -0.086200 
#    y 0.000000 1.911810 0.000000 
#    z -0.086200 0.000000 2.047820 
# 
# From -- ./inp_files/12521.got.cif
#   From: 2010.05.17/outbox.cif.g08.bks.cpg/sg5_7_cif.got.tgz:12521.got - 2010.06.03 18:56:24.
