data_PCOD9120247
_publ_section_title
;
Structure prediction by ZEFSAII (Michael W. Deem and Ramdas Pophale) SiO2 
 PCOD9120247
Probable space group: C 2
;
_chemical_formula_sum "Si O2"
_cell_formula_units_Z 24
_cell_length_a 7.320172
_cell_length_b 18.841042
_cell_length_c 6.912370
_cell_angle_alpha 90.000000
_cell_angle_beta 96.406067
_cell_angle_gamma 90.000000
_cell_volume 947.399153
_symmetry_space_group_name_H-M "C 2"
_symmetry_group_IT_number 5
_symmetry_cell_setting 'monoclinic'
loop_
_space_group_symop_operation_xyz
x,y,z
-x,y,-z
1/2+x,1/2+y,z
1/2-x,1/2+y,-z
loop_
_atom_site_type_symbol
_atom_site_label
_atom_site_fract_x
_atom_site_fract_y
_atom_site_fract_z
Si Si1 0.172238 0.815250 0.148219
Si Si2 0.996487 0.414260 0.733634
Si Si3 0.802960 0.165410 0.232098
Si Si4 0.492757 0.071191 0.266282
Si Si5 0.628841 0.353650 0.615692
Si Si6 0.221052 0.193694 0.309099
O O1 0.360590 0.857731 0.165443
O O2 0.210441 0.733333 0.120741
O O3 0.097799 0.825657 0.363436
O O4 0.000000 0.840350 0.000000
O O5 0.060922 0.492214 0.799544
O O6 0.000000 0.402821 0.500000
O O7 0.782445 0.400656 0.742253
O O8 0.686355 0.094191 0.194403
O O9 0.780642 0.179997 0.459935
O O10 0.017846 0.172609 0.216892
O O11 0.500000 0.063870 0.500000
O O12 0.360981 0.138888 0.228417
O O13 0.500000 0.419233 0.500000
O O14 0.721766 0.276102 0.696828
#
# Coordination Sequence:
#
# PCOD9120247 Si02
#       6
#     4   4   4   4   4   4
#     4  12  25  39  62  92 125 158 207 255 300 357
#     4  11  22  39  63  93 123 158 204 253 301 361
#     4  10  18  34  58  88 119 157 193 243 301 355
#     4   9  19  34  57  93 123 147 197 259 297 346
#     4  12  20  36  66  88 114 163 208 245 296 355
#     4  10  17  32  63  91 115 149 202 250 293 347
#
# _framework density 25.332514
#
# number of rings (size 3 to 8) (size 9 to 14) (size 15 to 20)
#    0.000    1.333    6.667    0.500    0.000    2.000 
#    3.000    0.000    7.333    0.000    0.000    0.000 
#    0.000    0.000    0.000    0.000    0.000    0.000 
#
# Total GULP energy -66839.624249 kJ/mol
# GULP energy per Si atom -5569.968687 kJ/mol
# Density = 2.527486 g / cm^3
# Si number density = 25.332514 Si / 1000 Ang^3
#
#
#
# Elastic Constant Matrix: (Units=GPa)
#
#
# Indices 1 2 3 4 5 6 
#
# 1 139.8879 42.4766 34.5828 0.0000 50.7616 0.0000
# 2 42.4766 124.8331 17.7571 0.0000 25.0522 0.0000
# 3 34.5828 17.7571 136.5664 0.0000 1.3851 0.0000
# 4 0.0000 0.0000 0.0000 15.1546 0.0000 12.3739
# 5 50.7616 25.0522 1.3851 0.0000 39.2917 0.0000
# 6 0.0000 0.0000 0.0000 12.3739 0.0000 23.2027
#
#
#
# Elastic Compliance Matrix: (Units=1/GPa)
#
#
# Indices 1 2 3 4 5 6 
#
# 1 0.015132 -0.000858 -0.003529 0.000000 -0.018877 0.000000
# 2 -0.000858 0.009414 -0.000957 0.000000 -0.004860 0.000000
# 3 -0.003529 -0.000957 0.008291 0.000000 0.004877 0.000000
# 4 0.000000 0.000000 0.000000 0.116881 0.000000 -0.062332
# 5 -0.018877 -0.004860 0.004877 0.000000 0.052764 0.000000
# 6 0.000000 0.000000 0.000000 -0.062332 0.000000 0.076340
#
#
# Mechanical properties :
#
#
# Convention : Reuss Voigt Hill
#
# Bulk Modulus (GPa) = 45.15152 65.65782 55.40467
# Shear Modulus (GPa) = 16.84103 35.96121 26.40112
#
# Velocity S-wave (km/s) = 2.58117 3.77180 3.23179
# Velocity P-wave (km/s) = 5.17160 6.70398 5.98702
#
# Compressibility (1/GPa) = 0.02214765
#
# Stress axis : x y z
#
# Youngs Moduli (GPa) = 66.08728 106.22184 120.61216
#
# Poissons Ratio (x) = 0.09119 0.42560
# Poissons Ratio (y) = 0.05674 0.11547
# Poissons Ratio (z) = 0.23320 0.10170
#
# Static dielectric constant tensor:
#      x y z
#    x 2.245480 0.000000 -0.294670 
#    y 0.000000 1.845870 0.000000 
#    z -0.294670 0.000000 2.361100 
# 
# From -- ./inp_files/16423.got.cif
#   From: 2010.05.17/outbox.cif.g08.bks.cpg/sg5_9_cif.got.tgz:16423.got - 2010.06.03 18:56:24.
