data_PCOD9120335
_publ_section_title
;
Structure prediction by ZEFSAII (Michael W. Deem and Ramdas Pophale) SiO2 
 PCOD9120335
Probable space group: C 2
;
_chemical_formula_sum "Si O2"
_cell_formula_units_Z 26
_cell_length_a 12.037552
_cell_length_b 13.867289
_cell_length_c 9.741337
_cell_angle_alpha 90.000000
_cell_angle_beta 63.513236
_cell_angle_gamma 90.000000
_cell_volume 1455.423895
_symmetry_space_group_name_H-M "C 2"
_symmetry_group_IT_number 5
_symmetry_cell_setting 'monoclinic'
loop_
_space_group_symop_operation_xyz
x,y,z
-x,y,-z
1/2+x,1/2+y,z
1/2-x,1/2+y,-z
loop_
_atom_site_type_symbol
_atom_site_label
_atom_site_fract_x
_atom_site_fract_y
_atom_site_fract_z
Si Si1 0.462770 0.652750 0.241333
Si Si2 0.644139 0.144479 0.965012
Si Si3 0.816080 0.222177 0.082449
Si Si4 0.500000 0.768291 0.500000
Si Si5 0.732588 0.925839 0.964775
Si Si6 0.514636 0.439016 0.826100
Si Si7 0.750064 0.826498 0.248142
O O1 0.345125 0.686043 0.217446
O O2 0.479757 0.705380 0.374880
O O3 0.451886 0.539137 0.261674
O O4 0.581898 0.675860 0.077887
O O5 0.718466 0.218090 0.823221
O O6 0.686398 0.032394 0.950546
O O7 0.500000 0.150258 0.000000
O O8 0.684800 0.189664 0.090060
O O9 0.835298 0.336861 0.069698
O O10 0.626335 0.826563 0.405138
O O11 0.877964 0.913916 0.850579
O O12 0.725387 0.896735 0.130402
O O13 0.625112 0.363815 0.748994
O O14 0.500000 0.453977 0.000000
#
# Coordination Sequence:
#
# PCOD9120335 Si02
#       7
#     4   4   4   2   4   4   4
#     4  11  20  37  61  82 117 158 203 242 292 365
#     4  11  20  34  59  94 120 145 204 261 295 339
#     4  10  19  36  55  88 111 154 200 243 301 334
#     4  12  22  38  56  84 130 160 206 240 298 366
#     4  10  18  32  58  87 116 146 200 255 296 341
#     4  10  17  36  63  86 110 152 205 246 300 357
#     4  10  21  36  57  86 123 165 189 248 307 359
#
# _framework density 17.864211999999998
#
# number of rings (size 3 to 8) (size 9 to 14) (size 15 to 20)
#    0.000    1.538    6.154    3.231    2.154    0.000 
#    0.000    4.615    0.000    2.769    0.000    0.000 
#    0.000    0.000    0.000    0.000    0.000    0.000 
#
# Total GULP energy -72410.477707 kJ/mol
# GULP energy per Si atom -5570.036747 kJ/mol
# Density = 1.782355 g / cm^3
# Si number density = 17.864212 Si / 1000 Ang^3
#
#
#
# Elastic Constant Matrix: (Units=GPa)
#
#
# Indices 1 2 3 4 5 6 
#
# 1 116.7810 32.2593 36.8370 0.0000 -9.4284 0.0000
# 2 32.2593 118.5431 18.0704 0.0000 -11.7588 0.0000
# 3 36.8370 18.0704 56.9816 0.0000 -6.3128 0.0000
# 4 0.0000 0.0000 0.0000 11.6041 0.0000 -1.7237
# 5 -9.4284 -11.7588 -6.3128 0.0000 26.6490 0.0000
# 6 0.0000 0.0000 0.0000 -1.7237 0.0000 35.0441
#
#
#
# Elastic Compliance Matrix: (Units=1/GPa)
#
#
# Indices 1 2 3 4 5 6 
#
# 1 0.011273 -0.001918 -0.006502 0.000000 0.001602 0.000000
# 2 -0.001918 0.009488 -0.001418 0.000000 0.003172 0.000000
# 3 -0.006502 -0.001418 0.022468 0.000000 0.002396 0.000000
# 4 0.000000 0.000000 0.000000 0.086810 0.000000 0.004270
# 5 0.001602 0.003172 0.002396 0.000000 0.040059 0.000000
# 6 0.000000 0.000000 0.000000 0.004270 0.000000 0.028746
#
#
# Mechanical properties :
#
#
# Convention : Reuss Voigt Hill
#
# Bulk Modulus (GPa) = 42.45509 51.84878 47.15193
# Shear Modulus (GPa) = 22.08760 28.33539 25.21149
#
# Velocity S-wave (km/s) = 3.52009 3.98698 3.76078
# Velocity P-wave (km/s) = 6.35125 7.09094 6.73126
#
# Compressibility (1/GPa) = 0.02355430
#
# Stress axis : x y z
#
# Youngs Moduli (GPa) = 88.70664 105.39148 44.50761
#
# Poissons Ratio (x) = 0.20211 0.28939
# Poissons Ratio (y) = 0.17011 0.06311
# Poissons Ratio (z) = 0.57678 0.14943
#
# Static dielectric constant tensor:
#      x y z
#    x 1.674620 0.000000 -0.003250 
#    y 0.000000 1.639620 0.000000 
#    z -0.003250 0.000000 1.597760 
# 
# From -- ./inp_files/20280.got.cif
#   From: 2010.05.17/outbox.cif.g08.bks.cpg/sg5_11_cif.got.tgz:20280.got - 2010.06.03 18:56:24.
