data_PCOD9120875
_publ_section_title
;
Structure prediction by ZEFSAII (Michael W. Deem and Ramdas Pophale) SiO2 
 PCOD9120875
Probable space group: C 2
;
_chemical_formula_sum "Si O2"
_cell_formula_units_Z 32
_cell_length_a 11.063549
_cell_length_b 20.540795
_cell_length_c 9.003808
_cell_angle_alpha 90.000000
_cell_angle_beta 124.419520
_cell_angle_gamma 90.000000
_cell_volume 1687.913873
_symmetry_space_group_name_H-M "C 2"
_symmetry_group_IT_number 5
_symmetry_cell_setting 'monoclinic'
loop_
_space_group_symop_operation_xyz
x,y,z
-x,y,-z
1/2+x,1/2+y,z
1/2-x,1/2+y,-z
loop_
_atom_site_type_symbol
_atom_site_label
_atom_site_fract_x
_atom_site_fract_y
_atom_site_fract_z
Si Si1 0.620436 0.444590 0.704886
Si Si2 0.353418 0.838052 0.809497
Si Si3 0.380415 0.134510 0.040777
Si Si4 0.366731 0.904339 0.515787
Si Si5 0.428153 0.055467 0.615482
Si Si6 0.167230 0.093165 0.645284
Si Si7 0.589861 0.249082 0.706276
Si Si8 0.954681 0.867071 0.802761
O O1 0.500000 0.419512 0.500000
O O2 0.766217 0.402242 0.802799
O O3 0.651980 0.517612 0.681635
O O4 0.545635 0.429947 0.809406
O O5 0.384888 0.854562 0.662519
O O6 0.240004 0.780320 0.753874
O O7 0.500000 0.827230 0.000000
O O8 0.444101 0.071773 0.175226
O O9 0.376292 0.191157 0.158295
O O10 0.500000 0.151715 0.000000
O O11 0.237002 0.125267 0.840844
O O12 0.500000 0.895008 0.500000
O O13 0.213023 0.887175 0.333120
O O14 0.377321 0.979951 0.574968
O O15 0.500000 0.069241 0.500000
O O16 0.284758 0.093801 0.587488
O O17 0.000000 0.116234 0.500000
O O18 0.500000 0.227068 0.500000
O O19 0.500582 0.306562 0.729226
O O20 0.000000 0.850281 0.000000
#
# Coordination Sequence:
#
# PCOD9120875 Si02
#       8
#     4   4   4   4   4   4   4   4
#     4  10  18  36  60  85 127 167 202 244 314 390
#     4  11  22  36  61  93 120 162 204 258 320 364
#     4  10  23  41  66  93 120 171 220 256 308 382
#     4  11  22  36  57  97 134 154 196 268 322 370
#     4  10  21  38  62  94 133 168 210 251 318 384
#     4  10  20  38  65  93 127 165 210 267 318 370
#     4  11  22  45  67  80 119 168 221 257 300 385
#     4  11  22  37  60  91 122 166 208 252 316 381
#
# _framework density 18.958314000000001
#
# number of rings (size 3 to 8) (size 9 to 14) (size 15 to 20)
#    0.000    1.500    3.750    2.250    5.250    1.000 
#    0.000    4.375    0.000    0.000    0.000    0.000 
#    0.000    0.000    0.000    0.000    0.000    0.000 
#
# Total GULP energy -89203.014853 kJ/mol
# GULP energy per Si atom -5575.188428 kJ/mol
# Density = 1.891516 g / cm^3
# Si number density = 18.958314 Si / 1000 Ang^3
#
#
#
# Elastic Constant Matrix: (Units=GPa)
#
#
# Indices 1 2 3 4 5 6 
#
# 1 121.4175 31.5941 73.7963 0.0000 -1.9999 0.0000
# 2 31.5941 68.5766 56.1743 0.0000 2.1851 0.0000
# 3 73.7963 56.1743 162.6388 0.0000 6.9889 0.0000
# 4 0.0000 0.0000 0.0000 20.1295 0.0000 -7.2291
# 5 -1.9999 2.1851 6.9889 0.0000 41.3488 0.0000
# 6 0.0000 0.0000 0.0000 -7.2291 0.0000 14.0955
#
#
#
# Elastic Compliance Matrix: (Units=1/GPa)
#
#
# Indices 1 2 3 4 5 6 
#
# 1 0.011557 -0.001428 -0.004813 0.000000 0.001448 0.000000
# 2 -0.001428 0.020513 -0.006434 0.000000 -0.000066 0.000000
# 3 -0.004813 -0.006434 0.010627 0.000000 -0.001689 0.000000
# 4 0.000000 0.000000 0.000000 0.060894 0.000000 0.031231
# 5 0.001448 -0.000066 -0.001689 0.000000 0.024543 0.000000
# 6 0.000000 0.000000 0.000000 0.031231 0.000000 0.086962
#
#
# Mechanical properties :
#
#
# Convention : Reuss Voigt Hill
#
# Bulk Modulus (GPa) = 57.64787 75.08469 66.36628
# Shear Modulus (GPa) = 20.30636 27.85265 24.07950
#
# Velocity S-wave (km/s) = 3.27633 3.83711 3.56775
# Velocity P-wave (km/s) = 6.69224 7.70210 7.21486
#
# Compressibility (1/GPa) = 0.01734669
#
# Stress axis : x y z
#
# Youngs Moduli (GPa) = 86.53053 48.75008 94.09804
#
# Poissons Ratio (x) = 0.06962 0.45287
# Poissons Ratio (y) = 0.12357 0.60544
# Poissons Ratio (z) = 0.41645 0.31367
#
# Static dielectric constant tensor:
#      x y z
#    x 1.684600 0.000000 -0.004590 
#    y 0.000000 1.666660 0.000000 
#    z -0.004590 0.000000 1.676530 
# 
# From -- ./inp_files/21988.got.cif
#   From: 2010.05.17/outbox.cif.g08.bks.cpg/sg5_11_cif.got.tgz:21988.got - 2010.06.03 18:56:24.
