data_PCOD9120176
_publ_section_title
;
Structure prediction by ZEFSAII (Michael W. Deem and Ramdas Pophale) SiO2 
 PCOD9120176
Probable space group: C 2
;
_chemical_formula_sum "Si O2"
_cell_formula_units_Z 30
_cell_length_a 22.388429
_cell_length_b 7.577923
_cell_length_c 7.702520
_cell_angle_alpha 90.000000
_cell_angle_beta 85.626795
_cell_angle_gamma 90.000000
_cell_volume 1302.987831
_symmetry_space_group_name_H-M "C 2"
_symmetry_group_IT_number 5
_symmetry_cell_setting 'monoclinic'
loop_
_space_group_symop_operation_xyz
x,y,z
-x,y,-z
1/2+x,1/2+y,z
1/2-x,1/2+y,-z
loop_
_atom_site_type_symbol
_atom_site_label
_atom_site_fract_x
_atom_site_fract_y
_atom_site_fract_z
Si Si1 0.278193 0.393200 0.312486
Si Si2 0.332748 0.711037 0.804242
Si Si3 0.400750 0.037812 0.768441
Si Si4 0.675444 0.040641 0.556313
Si Si5 0.468726 0.451385 0.277821
Si Si6 0.633173 0.684165 0.609137
Si Si7 0.592556 0.412324 0.080650
Si Si8 0.500000 0.139597 0.500000
O O1 0.138352 0.388377 0.659661
O O2 0.316650 0.221419 0.347520
O O3 0.238592 0.449412 0.490203
O O4 0.322341 0.560332 0.287909
O O5 0.269212 0.816222 0.819121
O O6 0.345242 0.677654 0.596376
O O7 0.348573 0.528675 0.894878
O O8 0.381795 0.853967 0.855408
O O9 0.353471 0.075567 0.624754
O O10 0.398572 0.205053 0.892073
O O11 0.462701 0.031373 0.648624
O O12 0.433936 0.612539 0.370982
O O13 0.539617 0.468097 0.227437
O O14 0.459988 0.276422 0.396250
O O15 0.436571 0.434826 0.100065
#
# Coordination Sequence:
#
# PCOD9120176 Si02
#       8
#     4   4   4   4   4   4   4   2
#     4  10  17  30  52  82 113 146 187 228 287 324
#     4  10  21  33  60  86 114 153 188 239 285 343
#     4   9  20  33  56  86 112 148 187 230 289 335
#     4  10  18  29  54  86 108 145 183 238 281 325
#     4  10  21  37  62  82 111 159 186 239 295 334
#     4  10  19  33  55  85 113 141 198 242 275 332
#     4  10  21  40  56  79 120 156 191 228 292 355
#     4  10  18  36  60  86 116 140 190 242 288 336
#
# _framework density 23.024004999999999
#
# number of rings (size 3 to 8) (size 9 to 14) (size 15 to 20)
#    0.000    2.400    2.667    3.200    0.000    2.133 
#    0.000    9.333    8.800    0.000    0.000    0.000 
#    0.000    0.000    0.000    0.000    0.000    0.000 
#
# Total GULP energy -83696.812023 kJ/mol
# GULP energy per Si atom -5579.787468 kJ/mol
# Density = 2.297160 g / cm^3
# Si number density = 23.024005 Si / 1000 Ang^3
#
#
#
# Elastic Constant Matrix: (Units=GPa)
#
#
# Indices 1 2 3 4 5 6 
#
# 1 46.1085 -2.7701 -0.8357 0.0000 3.2276 0.0000
# 2 -2.7701 41.2270 3.1371 0.0000 5.7868 0.0000
# 3 -0.8357 3.1371 50.3362 0.0000 5.6882 0.0000
# 4 0.0000 0.0000 0.0000 1.0055 0.0000 6.0673
# 5 3.2276 5.7868 5.6882 0.0000 20.2020 0.0000
# 6 0.0000 0.0000 0.0000 6.0673 0.0000 28.9081
#
#
#
# Elastic Compliance Matrix: (Units=1/GPa)
#
#
# Indices 1 2 3 4 5 6 
#
# 1 0.022126 0.002038 0.000729 0.000000 -0.004324 0.000000
# 2 0.002038 0.025490 -0.000716 0.000000 -0.007426 0.000000
# 3 0.000729 -0.000716 0.020568 0.000000 -0.005703 0.000000
# 4 0.000000 0.000000 0.000000 -3.732835 0.000000 0.783454
# 5 -0.004324 -0.007426 -0.005703 0.000000 0.053924 0.000000
# 6 0.000000 0.000000 0.000000 0.783454 0.000000 -0.129840
#
#
# Mechanical properties :
#
#
# Convention : Reuss Voigt Hill
#
# Bulk Modulus (GPa) = 13.83385 15.19272 14.51328
# Shear Modulus (GPa) = -1.34388 19.23248 8.94430
#
# Velocity S-wave (km/s) = -0.76482 2.89333 1.97312
# Velocity P-wave (km/s) = 2.28944 4.21602 3.39237
#
# Compressibility (1/GPa) = 0.07228646
#
# Stress axis : x y z
#
# Youngs Moduli (GPa) = 45.19505 39.23164 48.62033
#
# Poissons Ratio (x) = -0.07996 -0.03544
# Poissons Ratio (y) = -0.09212 0.03479
# Poissons Ratio (z) = -0.03294 0.02808
#
# Static dielectric constant tensor:
#      x y z
#    x 1.989650 0.000000 -0.039270 
#    y 0.000000 1.859080 0.000000 
#    z -0.039270 0.000000 1.875550 
# 
# From -- ./inp_files/31517.got.cif
#   From: 2010.05.17/outbox.cif.g08.bks.cpg/sg5_16_cif.got.tgz:31517.got - 2010.06.03 18:56:24.
