data_PCOD9120694
_publ_section_title
;
Structure prediction by ZEFSAII (Michael W. Deem and Ramdas Pophale) SiO2 
 PCOD9120694
Probable space group: C 2
;
_chemical_formula_sum "Si O2"
_cell_formula_units_Z 24
_cell_length_a 22.917174
_cell_length_b 8.077125
_cell_length_c 16.682764
_cell_angle_alpha 90.000000
_cell_angle_beta 159.751395
_cell_angle_gamma 90.000000
_cell_volume 1068.760050
_symmetry_space_group_name_H-M "C 2"
_symmetry_group_IT_number 5
_symmetry_cell_setting 'monoclinic'
loop_
_space_group_symop_operation_xyz
x,y,z
-x,y,-z
1/2+x,1/2+y,z
1/2-x,1/2+y,-z
loop_
_atom_site_type_symbol
_atom_site_label
_atom_site_fract_x
_atom_site_fract_y
_atom_site_fract_z
Si Si1 0.103988 0.690340 0.895661
Si Si2 0.762655 0.523738 0.083332
Si Si3 0.444497 0.614768 0.761917
Si Si4 0.000000 0.748685 0.500000
Si Si5 0.500000 0.570159 0.000000
Si Si6 0.904202 0.497721 0.757490
Si Si7 0.302330 0.328872 0.393474
O O1 0.172296 0.551015 0.922702
O O2 0.049488 0.613221 0.909841
O O3 0.942845 0.775045 0.640867
O O4 0.244716 0.831846 0.081550
O O5 0.881013 0.629692 0.294132
O O6 0.575740 0.593716 0.859532
O O7 0.258390 0.560886 0.500445
O O8 0.447478 0.807456 0.790986
O O9 0.494166 0.499743 0.902633
O O10 0.894530 0.853003 0.428291
O O11 0.673217 0.675679 0.218925
O O12 0.820267 0.477985 0.737134
#
# Coordination Sequence:
#
# PCOD9120694 Si02
#       7
#     4   4   4   2   2   4   4
#     4  11  22  39  64  96 126 163 218 262 323 374
#     4  11  22  40  64  96 125 171 214 266 317 389
#     4  11  20  36  62  92 126 167 216 261 317 375
#     4  10  22  38  66  96 128 172 214 256 326 390
#     4  10  18  34  58  92 122 166 210 256 312 376
#     4  11  20  37  63  97 126 163 220 267 306 385
#     4  10  20  36  63  95 121 163 215 259 310 382
#
# _framework density 22.455929000000001
#
# number of rings (size 3 to 8) (size 9 to 14) (size 15 to 20)
#    0.000    1.333    6.667    1.000    0.000    0.000 
#    0.000    0.000    7.333   20.000    0.000    0.000 
#    0.000    0.000    0.000    0.000    0.000    0.000 
#
# Total GULP energy -66911.916729 kJ/mol
# GULP energy per Si atom -5575.993061 kJ/mol
# Density = 2.240482 g / cm^3
# Si number density = 22.455929 Si / 1000 Ang^3
#
#
#
# Elastic Constant Matrix: (Units=GPa)
#
#
# Indices 1 2 3 4 5 6 
#
# 1 173.8939 55.6429 13.6666 0.0000 41.3650 0.0000
# 2 55.6429 83.6927 7.2320 0.0000 17.5119 0.0000
# 3 13.6666 7.2320 49.7027 0.0000 13.2743 0.0000
# 4 0.0000 0.0000 0.0000 29.3481 0.0000 14.9271
# 5 41.3650 17.5119 13.2743 0.0000 31.0436 0.0000
# 6 0.0000 0.0000 0.0000 14.9271 0.0000 29.4878
#
#
#
# Elastic Compliance Matrix: (Units=1/GPa)
#
#
# Indices 1 2 3 4 5 6 
#
# 1 0.009589 -0.004194 0.000851 0.000000 -0.010775 0.000000
# 2 -0.004194 0.015382 -0.000294 0.000000 -0.002963 0.000000
# 3 0.000851 -0.000294 0.022790 0.000000 -0.010714 0.000000
# 4 0.000000 0.000000 0.000000 0.045889 0.000000 -0.023229
# 5 -0.010775 -0.002963 -0.010714 0.000000 0.052823 0.000000
# 6 0.000000 0.000000 0.000000 -0.023229 0.000000 0.045671
#
#
# Mechanical properties :
#
#
# Convention : Reuss Voigt Hill
#
# Bulk Modulus (GPa) = 24.69856 51.15249 37.92553
# Shear Modulus (GPa) = 23.48379 33.35909 28.42144
#
# Velocity S-wave (km/s) = 3.23735 3.85845 3.56146
# Velocity P-wave (km/s) = 4.99965 6.53289 5.81701
#
# Compressibility (1/GPa) = 0.04048819
#
# Stress axis : x y z
#
# Youngs Moduli (GPa) = 104.28722 65.00972 43.87962
#
# Poissons Ratio (x) = 0.27266 -0.03736
# Poissons Ratio (y) = 0.43740 0.01288
# Poissons Ratio (z) = -0.08879 0.01909
#
# Static dielectric constant tensor:
#      x y z
#    x 1.919310 0.000000 -0.018470 
#    y 0.000000 1.853760 0.000000 
#    z -0.018470 0.000000 1.851590 
# 
# From -- ./inp_files/22879.got.cif
#   From: 2010.05.17/outbox.cif.g08.bks.cpg/sg5_12_cif.got.tgz:22879.got - 2010.06.03 18:56:24.
