data_PCOD9120160
_publ_section_title
;
Structure prediction by ZEFSAII (Michael W. Deem and Ramdas Pophale) SiO2 
 PCOD9120160
Probable space group: C 2
;
_chemical_formula_sum "Si O2"
_cell_formula_units_Z 28
_cell_length_a 11.218464
_cell_length_b 18.385685
_cell_length_c 14.400246
_cell_angle_alpha 90.000000
_cell_angle_beta 148.171737
_cell_angle_gamma 90.000000
_cell_volume 1566.399866
_symmetry_space_group_name_H-M "C 2"
_symmetry_group_IT_number 5
_symmetry_cell_setting 'monoclinic'
loop_
_space_group_symop_operation_xyz
x,y,z
-x,y,-z
1/2+x,1/2+y,z
1/2-x,1/2+y,-z
loop_
_atom_site_type_symbol
_atom_site_label
_atom_site_fract_x
_atom_site_fract_y
_atom_site_fract_z
Si Si1 0.907952 0.110680 0.540558
Si Si2 0.516193 0.413393 0.196870
Si Si3 0.886081 0.602762 0.179380
Si Si4 0.852816 0.250730 0.273033
Si Si5 0.771000 0.529944 0.905915
Si Si6 0.500000 0.508940 0.000000
Si Si7 0.405186 0.246341 0.087175
Si Si8 0.000000 0.379288 0.500000
O O1 0.646937 0.091054 0.378886
O O2 0.000000 0.089033 0.500000
O O3 0.939430 0.197490 0.571333
O O4 0.081353 0.077837 0.729413
O O5 0.348776 0.453180 0.155816
O O6 0.455720 0.328343 0.152512
O O7 0.782866 0.421269 0.394194
O O8 0.490551 0.455328 0.081852
O O9 0.851138 0.688436 0.131828
O O10 0.835089 0.565510 0.046443
O O11 0.715919 0.562908 0.137371
O O12 0.635364 0.220854 0.186510
O O13 0.909741 0.328037 0.356572
O O14 0.780441 0.251527 0.117848
O O15 0.000000 0.525330 0.000000
#
# Coordination Sequence:
#
# PCOD9120160 Si02
#       8
#     4   4   4   4   4   2   4   2
#     4  12  19  32  60  92 110 142 186 244 293 334
#     4  10  22  37  57  80 119 155 192 235 293 346
#     4  11  22  38  62  85 120 149 196 235 292 348
#     4  10  17  29  57  89 112 133 196 247 287 327
#     4  11  22  38  56  87 116 152 191 239 289 345
#     4  10  24  42  54  86 120 164 184 236 300 358
#     4  10  18  35  58  85 111 155 188 245 285 339
#     4  10  18  32  52  88 114 144 190 242 288 344
#
# _framework density 17.875385000000001
#
# number of rings (size 3 to 8) (size 9 to 14) (size 15 to 20)
#    0.000    1.429    5.000    2.571    2.000    0.000 
#    1.286    0.000    0.000    0.000    0.000    0.000 
#    0.000    0.000    0.000    0.000    0.000    0.000 
#
# Total GULP energy -78081.359582 kJ/mol
# GULP energy per Si atom -5577.239970 kJ/mol
# Density = 1.783470 g / cm^3
# Si number density = 17.875385 Si / 1000 Ang^3
#
#
#
# Elastic Constant Matrix: (Units=GPa)
#
#
# Indices 1 2 3 4 5 6 
#
# 1 35.8321 20.7314 13.3647 0.0004 15.9041 -0.0002
# 2 20.7314 83.9199 8.8326 0.0000 17.1264 -0.0001
# 3 13.3647 8.8326 101.2444 0.0011 20.8963 -0.0009
# 4 0.0004 0.0000 0.0011 -9.0815 0.0008 30.6471
# 5 15.9041 17.1264 20.8963 0.0008 26.8844 -0.0004
# 6 -0.0002 -0.0001 -0.0009 30.6471 -0.0004 11.1920
#
#
#
# Elastic Compliance Matrix: (Units=1/GPa)
#
#
# Indices 1 2 3 4 5 6 
#
# 1 0.040237 -0.005890 -0.000785 0.000000 -0.019441 0.000000
# 2 -0.005890 0.014603 0.000839 0.000000 -0.006471 0.000000
# 3 -0.000785 0.000839 0.011818 0.000000 -0.009256 0.000000
# 4 0.000000 0.000000 0.000000 -0.010752 0.000001 0.029443
# 5 -0.019441 -0.006471 -0.009256 0.000001 0.060013 -0.000001
# 6 0.000000 0.000000 0.000000 0.029443 -0.000001 0.008725
#
#
# Mechanical properties :
#
#
# Convention : Reuss Voigt Hill
#
# Bulk Modulus (GPa) = 18.18626 34.09487 26.14057
# Shear Modulus (GPa) = 32.33197 17.67015 25.00106
#
# Velocity S-wave (km/s) = 4.25755 3.14748 3.74388
# Velocity P-wave (km/s) = 5.86216 5.68541 5.77446
#
# Compressibility (1/GPa) = 0.05498656
#
# Stress axis : x y z
#
# Youngs Moduli (GPa) = 24.85245 68.47706 84.61773
#
# Poissons Ratio (x) = 0.40333 0.06644
# Poissons Ratio (y) = 0.14638 -0.07100
# Poissons Ratio (z) = 0.01951 -0.05745
#
# Static dielectric constant tensor:
#      x y z
#    x 1.660380 0.000000 -0.020700 
#    y 0.000000 1.650320 0.000000 
#    z -0.020700 0.000000 1.641920 
# 
# From -- ./inp_files/53350.got.cif
#   From: 2010.05.17/outbox.cif.g08.bks.cpg/sg5_27_cif.got.tgz:53350.got - 2010.06.03 18:56:24.
