data_PCOD9120177
_publ_section_title
;
Structure prediction by ZEFSAII (Michael W. Deem and Ramdas Pophale) SiO2 
 PCOD9120177
Probable space group: C 2
;
_chemical_formula_sum "Si O2"
_cell_formula_units_Z 26
_cell_length_a 31.398726
_cell_length_b 5.107361
_cell_length_c 20.937801
_cell_angle_alpha 90.000000
_cell_angle_beta 162.879606
_cell_angle_gamma 90.000000
_cell_volume 988.436353
_symmetry_space_group_name_H-M "C 2"
_symmetry_group_IT_number 5
_symmetry_cell_setting 'monoclinic'
loop_
_space_group_symop_operation_xyz
x,y,z
-x,y,-z
1/2+x,1/2+y,z
1/2-x,1/2+y,-z
loop_
_atom_site_type_symbol
_atom_site_label
_atom_site_fract_x
_atom_site_fract_y
_atom_site_fract_z
Si Si1 0.816046 0.025190 0.345478
Si Si2 0.888687 0.431608 0.139364
Si Si3 0.238434 0.024289 0.310513
Si Si4 0.000000 0.793800 0.500000
Si Si5 0.493589 0.053791 0.820316
Si Si6 0.289246 0.937435 0.133432
Si Si7 0.921148 0.050602 0.789015
O O1 0.820672 0.283694 0.395202
O O2 0.809093 0.789374 0.385973
O O3 0.662209 0.037258 0.086579
O O4 0.945183 0.973122 0.480219
O O5 0.004685 0.499752 0.252463
O O6 0.890751 0.481855 0.217490
O O7 0.848591 0.126453 0.074750
O O8 0.759934 0.638429 0.934453
O O9 0.196340 0.006595 0.324483
O O10 0.078003 0.028003 0.047748
O O11 0.131397 0.586305 0.696210
O O12 0.428812 0.331625 0.745760
O O13 0.413194 0.833225 0.745721
#
# Coordination Sequence:
#
# PCOD9120177 Si02
#       7
#     4   4   4   2   4   4   4
#     4  10  21  30  50  72 114 146 183 223 273 332
#     4  10  20  39  54  81 112 155 187 244 282 330
#     4   9  18  33  44  75 109 144 171 232 285 328
#     4  12  24  38  56  88 112 166 194 230 274 352
#     4  10  17  30  53  78 103 143 180 231 274 340
#     4  10  23  36  57  76 117 154 198 230 282 334
#     4   9  17  28  52  75 104 138 181 223 290 335
#
# _framework density 26.304172000000001
#
# number of rings (size 3 to 8) (size 9 to 14) (size 15 to 20)
#    0.000    2.154    1.538    1.846    4.308    6.154 
#    0.000    0.000    0.000    0.000    0.000    4.308 
#    0.000    0.000    0.000    0.000    0.000    0.000 
#
# Total GULP energy -72832.341368 kJ/mol
# GULP energy per Si atom -5602.487798 kJ/mol
# Density = 2.624430 g / cm^3
# Si number density = 26.304172 Si / 1000 Ang^3
#
#
#
# Elastic Constant Matrix: (Units=GPa)
#
#
# Indices 1 2 3 4 5 6 
#
# 1 158.3561 19.9551 12.3594 0.0002 30.6958 0.0001
# 2 19.9551 109.7416 2.4816 0.0019 13.3698 -0.0014
# 3 12.3594 2.4816 72.6404 0.0001 31.7489 -0.0003
# 4 0.0002 0.0019 0.0001 9.7678 -0.0002 0.1015
# 5 30.6958 13.3698 31.7489 -0.0002 49.1913 0.0002
# 6 0.0001 -0.0014 -0.0003 0.1015 0.0002 38.8117
#
#
#
# Elastic Compliance Matrix: (Units=1/GPa)
#
#
# Indices 1 2 3 4 5 6 
#
# 1 0.007297 -0.000743 0.000955 0.000000 -0.004968 0.000000
# 2 -0.000743 0.009565 0.001021 -0.000002 -0.002795 0.000000
# 3 0.000955 0.001021 0.019433 -0.000001 -0.013416 0.000000
# 4 0.000000 -0.000002 -0.000001 0.102380 0.000002 -0.000268
# 5 -0.004968 -0.002795 -0.013416 0.000002 0.032847 0.000000
# 6 0.000000 0.000000 0.000000 -0.000268 0.000000 0.025766
#
#
# Mechanical properties :
#
#
# Convention : Reuss Voigt Hill
#
# Bulk Modulus (GPa) = 25.79913 45.59226 35.69570
# Shear Modulus (GPa) = 24.06834 39.95029 32.00932
#
# Velocity S-wave (km/s) = 3.02818 3.90138 3.49218
# Velocity P-wave (km/s) = 4.69636 6.13716 5.46445
#
# Compressibility (1/GPa) = 0.03876099
#
# Stress axis : x y z
#
# Youngs Moduli (GPa) = 137.04334 104.54907 51.45975
#
# Poissons Ratio (x) = 0.07770 -0.04915
# Poissons Ratio (y) = 0.10185 -0.05256
# Poissons Ratio (z) = -0.13089 -0.10678
#
# Static dielectric constant tensor:
#      x y z
#    x 1.954750 0.000000 -0.051510 
#    y 0.000000 1.938500 0.000000 
#    z -0.051510 0.000000 2.267660 
# 
# From -- ./inp_files/67693.got.cif
#   From: 2010.05.17/outbox.cif.g08.bks.cpg/sg5_34_cif.got.tgz:67693.got - 2010.06.03 18:56:24.
