data_PCOD9120314
_publ_section_title
;
Structure prediction by ZEFSAII (Michael W. Deem and Ramdas Pophale) SiO2 
 PCOD9120314
Probable space group: C 2
;
_chemical_formula_sum "Si O2"
_cell_formula_units_Z 26
_cell_length_a 12.520061
_cell_length_b 10.734561
_cell_length_c 7.308595
_cell_angle_alpha 90.000000
_cell_angle_beta 109.851619
_cell_angle_gamma 90.000000
_cell_volume 923.885515
_symmetry_space_group_name_H-M "C 2"
_symmetry_group_IT_number 5
_symmetry_cell_setting 'monoclinic'
loop_
_space_group_symop_operation_xyz
x,y,z
-x,y,-z
1/2+x,1/2+y,z
1/2-x,1/2+y,-z
loop_
_atom_site_type_symbol
_atom_site_label
_atom_site_fract_x
_atom_site_fract_y
_atom_site_fract_z
Si Si1 0.395069 0.445300 0.829992
Si Si2 0.680471 0.061973 0.205086
Si Si3 0.585781 0.802592 0.282647
Si Si4 0.802183 0.658229 0.377605
Si Si5 0.500000 0.224242 0.000000
Si Si6 0.649740 0.888510 0.726876
Si Si7 0.373645 0.437944 0.411545
O O1 0.470272 0.322095 0.826201
O O2 0.282226 0.390489 0.868561
O O3 0.335864 0.468662 0.598747
O O4 0.500000 0.513845 0.000000
O O5 0.676841 0.134401 0.394809
O O6 0.628087 0.926597 0.206116
O O7 0.809511 0.031254 0.238741
O O8 0.605850 0.137998 0.023716
O O9 0.665575 0.687962 0.257068
O O10 0.627999 0.821738 0.517905
O O11 0.448665 0.820960 0.209795
O O12 0.861800 0.538392 0.317135
O O13 0.853824 0.793578 0.363404
O O14 0.500000 0.479328 0.500000
#
# Coordination Sequence:
#
# PCOD9120314 Si02
#       7
#     4   4   4   4   2   4   4
#     4  10  20  39  61  87 126 162 212 267 313 404
#     4  10  19  38  57  88 125 165 208 264 323 386
#     4   9  19  32  58  90 119 158 225 258 313 406
#     4  10  17  35  62  87 120 161 210 269 313 374
#     4  10  20  36  64  80 124 170 200 254 332 378
#     4  10  18  34  60  90 117 170 211 266 322 389
#     4  11  22  38  63  94 123 162 219 263 319 402
#
# _framework density 28.142012000000001
#
# number of rings (size 3 to 8) (size 9 to 14) (size 15 to 20)
#    0.462    1.538    6.154    0.000    4.308    0.000 
#    8.308    0.000    6.769    0.000    0.000    0.000 
#    0.000    0.000    0.000    0.000    0.000    0.000 
#
# Total GULP energy -72387.594171 kJ/mol
# GULP energy per Si atom -5568.276475 kJ/mol
# Density = 2.807796 g / cm^3
# Si number density = 28.142012 Si / 1000 Ang^3
#
#
#
# Elastic Constant Matrix: (Units=GPa)
#
#
# Indices 1 2 3 4 5 6 
#
# 1 83.4925 -39.4474 16.2829 0.0000 30.3336 0.0000
# 2 -39.4474 52.2032 -10.3275 0.0000 -4.4394 0.0000
# 3 16.2829 -10.3275 103.5659 0.0000 22.7292 0.0000
# 4 0.0000 0.0000 0.0000 32.5199 0.0000 18.5884
# 5 30.3336 -4.4394 22.7292 0.0000 50.2564 0.0000
# 6 0.0000 0.0000 0.0000 18.5884 0.0000 19.1903
#
#
#
# Elastic Compliance Matrix: (Units=1/GPa)
#
#
# Indices 1 2 3 4 5 6 
#
# 1 0.025661 0.018360 0.000932 0.000000 -0.014288 0.000000
# 2 0.018360 0.032718 0.002413 0.000000 -0.009283 0.000000
# 3 0.000932 0.002413 0.010909 0.000000 -0.005283 0.000000
# 4 0.000000 0.000000 0.000000 0.068897 0.000000 -0.066737
# 5 -0.014288 -0.009283 -0.005283 0.000000 0.030091 0.000000
# 6 0.000000 0.000000 0.000000 -0.066737 0.000000 0.116753
#
#
# Mechanical properties :
#
#
# Convention : Reuss Voigt Hill
#
# Bulk Modulus (GPa) = 8.87326 19.14196 14.00761
# Shear Modulus (GPa) = 17.90927 38.57687 28.24307
#
# Velocity S-wave (km/s) = 2.52541 3.70644 3.17139
# Velocity P-wave (km/s) = 3.41518 5.01334 4.28935
#
# Compressibility (1/GPa) = 0.11269810
#
# Stress axis : x y z
#
# Youngs Moduli (GPa) = 38.97003 30.56464 91.66499
#
# Poissons Ratio (x) = -0.56116 -0.08544
# Poissons Ratio (y) = -0.71549 -0.22121
# Poissons Ratio (z) = -0.03632 -0.07376
#
# Static dielectric constant tensor:
#      x y z
#    x 2.609680 0.000000 0.062440 
#    y 0.000000 2.205020 0.000000 
#    z 0.062440 0.000000 2.356880 
# 
# From -- ./inp_files/42532.got.cif
#   From: 2010.05.17/outbox.cif.g08.bks.cpg/sg5_22_cif.got.tgz:42532.got - 2010.06.03 18:56:24.
