data_PCOD9120372
_publ_section_title
;
Structure prediction by ZEFSAII (Michael W. Deem and Ramdas Pophale) SiO2 
 PCOD9120372
Probable space group: C 2
;
_chemical_formula_sum "Si O2"
_cell_formula_units_Z 26
_cell_length_a 29.711009
_cell_length_b 7.103676
_cell_length_c 9.885692
_cell_angle_alpha 90.000000
_cell_angle_beta 145.632578
_cell_angle_gamma 90.000000
_cell_volume 1177.795370
_symmetry_space_group_name_H-M "C 2"
_symmetry_group_IT_number 5
_symmetry_cell_setting 'monoclinic'
loop_
_space_group_symop_operation_xyz
x,y,z
-x,y,-z
1/2+x,1/2+y,z
1/2-x,1/2+y,-z
loop_
_atom_site_type_symbol
_atom_site_label
_atom_site_fract_x
_atom_site_fract_y
_atom_site_fract_z
Si Si1 0.027608 0.781370 0.421064
Si Si2 0.421487 0.691428 0.359828
Si Si3 0.912972 0.915394 0.925009
Si Si4 0.210301 0.058684 0.181012
Si Si5 0.500000 0.744936 0.000000
Si Si6 0.848798 0.835837 0.487789
Si Si7 0.148651 0.285326 0.544139
O O1 0.107570 0.737010 0.532291
O O2 0.000000 0.708387 0.500000
O O3 0.043129 0.003231 0.484995
O O4 0.954606 0.777592 0.135034
O O5 0.500000 0.793190 0.500000
O O6 0.378146 0.809072 0.367503
O O7 0.360827 0.613770 0.097275
O O8 0.903036 0.820007 0.755443
O O9 0.830213 0.989342 0.781605
O O10 0.964295 0.104004 0.024972
O O11 0.266243 0.240352 0.321313
O O12 0.270020 0.894834 0.280995
O O13 0.576021 0.841211 0.261488
O O14 0.839045 0.059805 0.442151
#
# Coordination Sequence:
#
# PCOD9120372 Si02
#       7
#     4   4   4   4   2   4   4
#     4  10  17  38  66  89 116 176 211 248 323 386
#     4  10  19  39  66  90 126 176 210 254 329 383
#     4  11  19  39  65  88 126 173 207 256 321 386
#     4  12  25  38  67  99 129 162 222 268 318 377
#     4  10  18  42  64  80 128 168 210 250 320 372
#     4  10  24  41  63  95 130 166 210 270 320 368
#     4  10  23  41  65  93 126 171 213 266 318 380
#
# _framework density 22.075142
#
# number of rings (size 3 to 8) (size 9 to 14) (size 15 to 20)
#    0.000    1.538    7.692    0.000    8.615    0.000 
#    2.769    0.769    3.385    0.923    0.000    0.000 
#    0.000    0.000    0.000    0.000    0.000    0.000 
#
# Total GULP energy -72521.366453 kJ/mol
# GULP energy per Si atom -5578.566650 kJ/mol
# Density = 2.202490 g / cm^3
# Si number density = 22.075142 Si / 1000 Ang^3
#
#
#
# Elastic Constant Matrix: (Units=GPa)
#
#
# Indices 1 2 3 4 5 6 
#
# 1 153.1275 23.4161 33.1025 0.0000 13.3669 0.0000
# 2 23.4161 72.2560 20.8095 0.0000 6.9086 0.0000
# 3 33.1025 20.8095 98.1436 0.0000 2.2700 0.0000
# 4 0.0000 0.0000 0.0000 -23.1608 0.0000 -30.4087
# 5 13.3669 6.9086 2.2700 0.0000 44.5483 0.0000
# 6 0.0000 0.0000 0.0000 -30.4087 0.0000 -38.4182
#
#
#
# Elastic Compliance Matrix: (Units=1/GPa)
#
#
# Indices 1 2 3 4 5 6 
#
# 1 0.007395 -0.001611 -0.002110 0.000000 -0.001862 0.000000
# 2 -0.001611 0.015295 -0.002659 0.000000 -0.001753 0.000000
# 3 -0.002110 -0.002659 0.011454 0.000000 0.000462 0.000000
# 4 0.000000 0.000000 0.000000 1.100924 0.000000 -0.871403
# 5 -0.001862 -0.001753 0.000462 0.000000 0.023255 0.000000
# 6 0.000000 0.000000 0.000000 -0.871403 0.000000 0.663703
#
#
# Mechanical properties :
#
#
# Convention : Reuss Voigt Hill
#
# Bulk Modulus (GPa) = 46.76238 53.13149 49.94693
# Shear Modulus (GPa) = 2.71457 13.00713 7.86085
#
# Velocity S-wave (km/s) = 1.11012 2.43002 1.88910
# Velocity P-wave (km/s) = 4.78251 5.65633 5.23767
#
# Compressibility (1/GPa) = 0.02138471
#
# Stress axis : x y z
#
# Youngs Moduli (GPa) = 135.21819 65.37988 87.30667
#
# Poissons Ratio (x) = 0.10533 0.18419
# Poissons Ratio (y) = 0.21784 0.23216
# Poissons Ratio (z) = 0.28527 0.17385
#
# Static dielectric constant tensor:
#      x y z
#    x 1.893520 0.000000 0.008170 
#    y 0.000000 1.840550 0.000000 
#    z 0.008170 0.000000 1.870350 
# 
# From -- ./inp_files/31694.got.cif
#   From: 2010.05.17/outbox.cif.g08.bks.cpg/sg5_16_cif.got.tgz:31694.got - 2010.06.03 18:56:24.
