data_PCOD9120727
_publ_section_title
;
Structure prediction by ZEFSAII (Michael W. Deem and Ramdas Pophale) SiO2 
 PCOD9120727
Probable space group: C 2
;
_chemical_formula_sum "Si O2"
_cell_formula_units_Z 26
_cell_length_a 14.303727
_cell_length_b 7.197910
_cell_length_c 11.802266
_cell_angle_alpha 90.000000
_cell_angle_beta 53.011627
_cell_angle_gamma 90.000000
_cell_volume 970.590503
_symmetry_space_group_name_H-M "C 2"
_symmetry_group_IT_number 5
_symmetry_cell_setting 'monoclinic'
loop_
_space_group_symop_operation_xyz
x,y,z
-x,y,-z
1/2+x,1/2+y,z
1/2-x,1/2+y,-z
loop_
_atom_site_type_symbol
_atom_site_label
_atom_site_fract_x
_atom_site_fract_y
_atom_site_fract_z
Si Si1 0.219655 0.564680 0.865969
Si Si2 0.631549 0.243971 0.150185
Si Si3 0.592627 0.061121 0.625548
Si Si4 0.950317 0.154050 0.260540
Si Si5 0.500000 0.790235 0.000000
Si Si6 0.298862 0.125798 0.665861
Si Si7 0.335394 0.558050 0.565164
O O1 0.314743 0.441786 0.862517
O O2 0.114155 0.426162 0.901819
O O3 0.295176 0.658178 0.710986
O O4 0.161604 0.692645 0.001433
O O5 0.494064 0.222263 0.272539
O O6 0.683137 0.112962 0.213352
O O7 0.609813 0.021432 0.480644
O O8 0.722231 0.105339 0.572583
O O9 0.550547 0.874601 0.714253
O O10 0.830875 0.087253 0.284473
O O11 0.941400 0.084762 0.399231
O O12 0.030194 0.162956 0.088110
O O13 0.329689 0.342160 0.608798
#
# Coordination Sequence:
#
# PCOD9120727 Si02
#       7
#     4   4   4   4   2   4   4
#     4  11  22  39  64  87 128 161 205 250 307 364
#     4  11  21  37  57  87 127 166 194 253 314 366
#     4  10  18  34  61  87 117 160 205 248 306 357
#     4  10  19  35  67  85 114 156 215 244 295 361
#     4  12  18  42  66  90 116 174 200 250 302 370
#     4   9  19  36  56  89 121 155 195 255 304 355
#     4   9  19  38  60  91 115 159 205 256 289 364
#
# _framework density 26.787818999999999
#
# number of rings (size 3 to 8) (size 9 to 14) (size 15 to 20)
#    0.000    1.846    6.154    0.462    0.000    1.231 
#    2.769    0.000    0.000    1.846    0.000    0.000 
#    0.000    0.000    0.000    0.000    0.000    0.000 
#
# Total GULP energy -72535.871703 kJ/mol
# GULP energy per Si atom -5579.682439 kJ/mol
# Density = 2.672685 g / cm^3
# Si number density = 26.787819 Si / 1000 Ang^3
#
#
#
# Elastic Constant Matrix: (Units=GPa)
#
#
# Indices 1 2 3 4 5 6 
#
# 1 76.4448 12.1188 24.3109 0.0000 -4.5212 0.0000
# 2 12.1188 29.7279 38.5523 0.0000 -1.7491 0.0000
# 3 24.3109 38.5523 223.4523 0.0000 33.9989 0.0000
# 4 0.0000 0.0000 0.0000 46.0140 0.0000 7.2817
# 5 -4.5212 -1.7491 33.9989 0.0000 48.2325 0.0000
# 6 0.0000 0.0000 0.0000 7.2817 0.0000 21.8056
#
#
#
# Elastic Compliance Matrix: (Units=1/GPa)
#
#
# Indices 1 2 3 4 5 6 
#
# 1 0.014224 -0.004236 -0.001116 0.000000 0.001966 0.000000
# 2 -0.004236 0.047281 -0.008846 0.000000 0.007553 0.000000
# 3 -0.001116 -0.008846 0.006931 0.000000 -0.005311 0.000000
# 4 0.000000 0.000000 0.000000 0.022945 0.000000 -0.007662
# 5 0.001966 0.007553 -0.005311 0.000000 0.024935 0.000000
# 6 0.000000 0.000000 0.000000 -0.007662 0.000000 0.048419
#
#
# Mechanical properties :
#
#
# Convention : Reuss Voigt Hill
#
# Bulk Modulus (GPa) = 24.97427 53.28765 39.13096
# Shear Modulus (GPa) = 24.21588 40.18660 32.20124
#
# Velocity S-wave (km/s) = 3.00990 3.87742 3.47087
# Velocity P-wave (km/s) = 4.62845 6.32309 5.54094
#
# Compressibility (1/GPa) = 0.04004122
#
# Stress axis : x y z
#
# Youngs Moduli (GPa) = 70.30372 21.15014 144.28185
#
# Poissons Ratio (x) = 0.08958 0.16101
# Poissons Ratio (y) = 0.29778 1.27629
# Poissons Ratio (z) = 0.07845 0.18709
#
# Static dielectric constant tensor:
#      x y z
#    x 2.155760 0.000000 -0.006900 
#    y 0.000000 2.181850 0.000000 
#    z -0.006900 0.000000 2.207480 
# 
# From -- ./inp_files/41630.got.cif
#   From: 2010.05.17/outbox.cif.g08.bks.cpg/sg5_21_cif.got.tgz:41630.got - 2010.06.03 18:56:24.
