data_PCOD9120932
_publ_section_title
;
Structure prediction by ZEFSAII (Michael W. Deem and Ramdas Pophale) SiO2 
 PCOD9120932
Probable space group: C 2
;
_chemical_formula_sum "Si O2"
_cell_formula_units_Z 24
_cell_length_a 10.238114
_cell_length_b 11.236065
_cell_length_c 15.399275
_cell_angle_alpha 90.000000
_cell_angle_beta 34.075460
_cell_angle_gamma 90.000000
_cell_volume 992.528343
_symmetry_space_group_name_H-M "C 2"
_symmetry_group_IT_number 5
_symmetry_cell_setting 'monoclinic'
loop_
_space_group_symop_operation_xyz
x,y,z
-x,y,-z
1/2+x,1/2+y,z
1/2-x,1/2+y,-z
loop_
_atom_site_type_symbol
_atom_site_label
_atom_site_fract_x
_atom_site_fract_y
_atom_site_fract_z
Si Si1 0.000000 0.269220 0.500000
Si Si2 0.052343 0.376543 0.653938
Si Si3 0.846939 0.016994 0.166165
Si Si4 0.998326 0.788530 0.193411
Si Si5 0.792762 0.435252 0.174554
Si Si6 0.053484 0.227188 0.137508
Si Si7 0.500000 0.456763 0.500000
O O1 0.943448 0.347486 0.448213
O O2 0.740323 0.217800 0.655338
O O3 0.299546 0.384571 0.562173
O O4 0.907882 0.498359 0.733713
O O5 0.920430 0.273431 0.779427
O O6 0.885023 0.115470 0.218335
O O7 0.933983 0.892199 0.158777
O O8 0.000000 0.053319 0.000000
O O9 0.115514 0.861900 0.208941
O O10 0.195587 0.706202 0.042959
O O11 0.639275 0.502322 0.334180
O O12 0.940432 0.335971 0.145972
O O13 0.000000 0.494181 0.000000
#
# Coordination Sequence:
#
# PCOD9120932 Si02
#       7
#     2   4   4   4   4   4   2
#     4  10  20  34  67  93 148 188 214 290 366 400
#     4  10  21  39  65 105 134 187 231 288 354 421
#     4  11  21  38  69 101 134 181 236 293 350 420
#     4  10  19  37  62  96 133 183 227 286 354 411
#     4   9  18  34  61  90 121 179 232 277 345 413
#     4  10  21  39  69  95 132 177 243 280 345 434
#     4  10  18  36  65  91 134 186 232 286 358 412
#
# _framework density 24.180668000000001
#
# number of rings (size 3 to 8) (size 9 to 14) (size 15 to 20)
#    0.000    2.000    3.333    1.500    0.000    0.000 
#    0.000   13.333   22.000    5.000    0.000    0.000 
#    0.000    0.000    0.000    0.000    0.000    0.000 
#
# Total GULP energy -66838.161151 kJ/mol
# GULP energy per Si atom -5569.846763 kJ/mol
# Density = 2.412563 g / cm^3
# Si number density = 24.180668 Si / 1000 Ang^3
#
#
#
# Elastic Constant Matrix: (Units=GPa)
#
#
# Indices 1 2 3 4 5 6 
#
# 1 147.5627 16.2084 51.7639 -0.0006 6.2667 0.0002
# 2 16.2084 50.8101 21.6101 -0.0017 4.7671 0.0005
# 3 51.7639 21.6101 168.3029 -0.0071 -8.3220 0.0019
# 4 -0.0006 -0.0017 -0.0071 -13.4390 0.0017 -9.5267
# 5 6.2667 4.7671 -8.3220 0.0017 43.5111 -0.0003
# 6 0.0002 0.0005 0.0019 -9.5267 -0.0003 34.7588
#
#
#
# Elastic Compliance Matrix: (Units=1/GPa)
#
#
# Indices 1 2 3 4 5 6 
#
# 1 0.007791 -0.001380 -0.002289 0.000001 -0.001409 0.000000
# 2 -0.001380 0.021411 -0.002454 -0.000001 -0.002616 -0.000001
# 3 -0.002289 -0.002454 0.007057 -0.000002 0.001948 -0.000001
# 4 0.000001 -0.000001 -0.000002 -0.062305 0.000002 -0.017077
# 5 -0.001409 -0.002616 0.001948 0.000002 0.023845 0.000001
# 6 0.000000 -0.000001 -0.000001 -0.017077 0.000001 0.024089
#
#
# Mechanical properties :
#
#
# Convention : Reuss Voigt Hill
#
# Bulk Modulus (GPa) = 41.64344 60.64896 51.14620
# Shear Modulus (GPa) = 118.65916 31.43906 75.04911
#
# Velocity S-wave (km/s) = 7.01273 3.60970 5.57711
# Velocity P-wave (km/s) = 9.10112 6.51992 7.91643
#
# Compressibility (1/GPa) = 0.02401338
#
# Stress axis : x y z
#
# Youngs Moduli (GPa) = 128.35273 46.70600 141.70237
#
# Poissons Ratio (x) = 0.06444 0.32432
# Poissons Ratio (y) = 0.17709 0.34776
# Poissons Ratio (z) = 0.29377 0.11462
#
# Static dielectric constant tensor:
#      x y z
#    x 1.917760 0.000000 -0.005710 
#    y 0.000000 1.961200 0.000000 
#    z -0.005710 0.000000 2.055780 
# 
# From -- ./inp_files/60462.got.cif
#   From: 2010.05.17/outbox.cif.g08.bks.cpg/sg5_31_cif.got.tgz:60462.got - 2010.06.03 18:56:24.
