data_PCOD9120103
_publ_section_title
;
Structure prediction by ZEFSAII (Michael W. Deem and Ramdas Pophale) SiO2 
 PCOD9120103
Probable space group: C 2
;
_chemical_formula_sum "Si O2"
_cell_formula_units_Z 22
_cell_length_a 20.416196
_cell_length_b 7.390304
_cell_length_c 18.446669
_cell_angle_alpha 90.000000
_cell_angle_beta 160.467627
_cell_angle_gamma 90.000000
_cell_volume 930.556314
_symmetry_space_group_name_H-M "C 2"
_symmetry_group_IT_number 5
_symmetry_cell_setting 'monoclinic'
loop_
_space_group_symop_operation_xyz
x,y,z
-x,y,-z
1/2+x,1/2+y,z
1/2-x,1/2+y,-z
loop_
_atom_site_type_symbol
_atom_site_label
_atom_site_fract_x
_atom_site_fract_y
_atom_site_fract_z
Si Si1 0.000000 0.267951 0.500000
Si Si2 0.441851 0.036311 0.624723
Si Si3 0.142940 0.927968 0.435309
Si Si4 0.143762 0.184302 0.796000
Si Si5 0.679352 0.479858 0.222915
Si Si6 0.462273 0.089508 0.875098
O O1 0.005540 0.161189 0.579780
O O2 0.188931 0.393402 0.702374
O O3 0.280767 0.945624 0.509130
O O4 0.615284 0.894618 0.789669
O O5 0.329142 0.073951 0.431785
O O6 0.470359 0.236882 0.683984
O O7 0.300428 0.969548 0.664444
O O8 0.970305 0.074040 0.261620
O O9 0.346445 0.101585 0.977844
O O10 0.600546 0.300694 0.181911
O O11 0.500000 0.582744 0.000000
O O12 0.500000 0.036056 0.000000
#
# Coordination Sequence:
#
# PCOD9120103 Si02
#       6
#     2   4   4   4   4   4
#     4  10  16  36  68  92 124 178 206 266 340 386
#     4  11  24  44  68  93 138 178 221 274 337 396
#     4  12  23  46  64  96 135 180 222 275 331 402
#     4  11  21  42  67  96 130 176 216 274 334 391
#     4  10  19  38  67  94 129 168 218 266 332 387
#     4  11  21  41  73  97 132 178 219 274 338 395
#
# _framework density 23.641770999999999
#
# number of rings (size 3 to 8) (size 9 to 14) (size 15 to 20)
#    0.000    1.091    9.091    0.000    0.000    0.727 
#    9.818   10.909    0.000    0.000    0.000    0.000 
#    0.000    0.000    0.000    0.000    0.000    0.000 
#
# Total GULP energy -61309.326963 kJ/mol
# GULP energy per Si atom -5573.575178 kJ/mol
# Density = 2.358796 g / cm^3
# Si number density = 23.641771 Si / 1000 Ang^3
#
#
#
# Elastic Constant Matrix: (Units=GPa)
#
#
# Indices 1 2 3 4 5 6 
#
# 1 101.8391 12.6103 29.2335 0.0003 12.8374 0.0000
# 2 12.6103 103.4877 21.1365 0.0009 12.2336 0.0003
# 3 29.2335 21.1365 102.0755 0.0013 18.0209 0.0005
# 4 0.0003 0.0009 0.0013 23.7630 0.0006 -4.3646
# 5 12.8374 12.2336 18.0209 0.0006 54.1958 0.0001
# 6 0.0000 0.0003 0.0005 -4.3646 0.0001 17.7660
#
#
#
# Elastic Compliance Matrix: (Units=1/GPa)
#
#
# Indices 1 2 3 4 5 6 
#
# 1 0.010866 -0.000587 -0.002719 0.000000 -0.001537 0.000000
# 2 -0.000587 0.010268 -0.001671 0.000000 -0.001623 0.000000
# 3 -0.002719 -0.001671 0.011411 -0.000001 -0.002773 0.000000
# 4 0.000000 0.000000 -0.000001 0.044071 0.000000 0.010827
# 5 -0.001537 -0.001623 -0.002773 0.000000 0.020104 0.000000
# 6 0.000000 0.000000 0.000000 0.010827 0.000000 0.058947
#
#
# Mechanical properties :
#
#
# Convention : Reuss Voigt Hill
#
# Bulk Modulus (GPa) = 44.26733 48.15144 46.20939
# Shear Modulus (GPa) = 28.87625 35.43975 32.15800
#
# Velocity S-wave (km/s) = 3.49866 3.87593 3.69212
# Velocity P-wave (km/s) = 5.92331 6.35939 6.14522
#
# Compressibility (1/GPa) = 0.02259002
#
# Stress axis : x y z
#
# Youngs Moduli (GPa) = 92.02663 97.39226 87.63429
#
# Poissons Ratio (x) = 0.05717 0.23829
# Poissons Ratio (y) = 0.05402 0.14648
# Poissons Ratio (z) = 0.25023 0.16279
#
# Static dielectric constant tensor:
#      x y z
#    x 1.962960 0.000000 -0.049690 
#    y 0.000000 1.893950 0.000000 
#    z -0.049690 0.000000 1.990020 
# 
# From -- ./inp_files/67064.got.cif
#   From: 2010.05.17/outbox.cif.g08.bks.cpg/sg5_34_cif.got.tgz:67064.got - 2010.06.03 18:56:24.
