data_PCOD9120833
_publ_section_title
;
Structure prediction by ZEFSAII (Michael W. Deem and Ramdas Pophale) SiO2 
 PCOD9120833
Probable space group: C 2
;
_chemical_formula_sum "Si O2"
_cell_formula_units_Z 24
_cell_length_a 8.081655
_cell_length_b 18.512065
_cell_length_c 14.523491
_cell_angle_alpha 90.000000
_cell_angle_beta 151.288713
_cell_angle_gamma 90.000000
_cell_volume 1043.820521
_symmetry_space_group_name_H-M "C 2"
_symmetry_group_IT_number 5
_symmetry_cell_setting 'monoclinic'
loop_
_space_group_symop_operation_xyz
x,y,z
-x,y,-z
1/2+x,1/2+y,z
1/2-x,1/2+y,-z
loop_
_atom_site_type_symbol
_atom_site_label
_atom_site_fract_x
_atom_site_fract_y
_atom_site_fract_z
Si Si1 0.110495 0.363680 0.921974
Si Si2 0.417043 0.696720 0.352477
Si Si3 0.347829 0.847493 0.609251
Si Si4 0.029967 0.920717 0.285020
Si Si5 0.097005 0.199355 0.944741
Si Si6 0.081476 0.082001 0.788471
O O1 0.974801 0.281311 0.868849
O O2 0.126566 0.374016 0.820441
O O3 0.822710 0.415577 0.825887
O O4 0.437687 0.374136 0.148828
O O5 0.500000 0.699274 0.500000
O O6 0.589897 0.764394 0.386453
O O7 0.513482 0.620705 0.353542
O O8 0.008888 0.704082 0.137060
O O9 0.000000 0.854619 0.500000
O O10 0.304115 0.890064 0.491905
O O11 0.078049 0.003310 0.280782
O O12 0.971626 0.139748 0.812103
O O13 0.000000 0.177718 0.000000
O O14 0.500000 0.075010 0.000000
#
# Coordination Sequence:
#
# PCOD9120833 Si02
#       6
#     4   4   4   4   4   4
#     4  10  18  35  68  91 123 173 224 263 329 403
#     4  11  24  37  64 101 136 171 230 288 331 406
#     4  10  22  38  65  99 128 175 229 277 331 406
#     4  10  19  37  66  97 129 175 217 277 339 398
#     4  11  22  41  69  96 128 187 231 271 340 410
#     4  10  21  40  63  97 137 172 224 277 344 404
#
# _framework density 22.992459
#
# number of rings (size 3 to 8) (size 9 to 14) (size 15 to 20)
#    0.000    1.667    5.000    1.000    2.333    2.000 
#    0.000    0.000    7.333    5.000    0.000    0.000 
#    0.000    0.000    0.000    0.000    0.000    0.000 
#
# Total GULP energy -67106.379477 kJ/mol
# GULP energy per Si atom -5592.198290 kJ/mol
# Density = 2.294013 g / cm^3
# Si number density = 22.992459 Si / 1000 Ang^3
#
#
#
# Elastic Constant Matrix: (Units=GPa)
#
#
# Indices 1 2 3 4 5 6 
#
# 1 92.9571 33.4357 47.8102 0.0043 -42.0792 0.0042
# 2 33.4357 150.5919 32.5165 0.0024 -27.3767 0.0058
# 3 47.8102 32.5165 131.3780 0.0387 -38.3865 0.0404
# 4 0.0043 0.0024 0.0387 40.5312 0.0076 -11.2288
# 5 -42.0792 -27.3767 -38.3865 0.0076 61.3438 0.0085
# 6 0.0042 0.0058 0.0404 -11.2288 0.0085 25.9866
#
#
#
# Elastic Compliance Matrix: (Units=1/GPa)
#
#
# Indices 1 2 3 4 5 6 
#
# 1 0.017004 -0.001446 -0.003195 -0.000001 0.009019 -0.000001
# 2 -0.001446 0.007467 -0.000781 0.000000 0.001852 -0.000001
# 3 -0.003195 -0.000781 0.010066 -0.000016 0.003759 -0.000023
# 4 -0.000001 0.000000 -0.000016 0.028028 -0.000016 0.012111
# 5 0.009019 0.001852 0.003759 -0.000016 0.025667 -0.000023
# 6 -0.000001 -0.000001 -0.000023 0.012111 -0.000023 0.043715
#
#
# Mechanical properties :
#
#
# Convention : Reuss Voigt Hill
#
# Bulk Modulus (GPa) = 42.20553 66.93910 54.57232
# Shear Modulus (GPa) = 33.18159 42.98327 38.08243
#
# Velocity S-wave (km/s) = 3.80300 4.32841 4.07418
# Velocity P-wave (km/s) = 6.13839 7.35913 6.77631
#
# Compressibility (1/GPa) = 0.02369358
#
# Stress axis : x y z
#
# Youngs Moduli (GPa) = 58.81083 133.92733 99.34665
#
# Poissons Ratio (x) = 0.19363 0.31738
# Poissons Ratio (y) = 0.08503 0.07757
# Poissons Ratio (z) = 0.18788 0.10457
#
# Static dielectric constant tensor:
#      x y z
#    x 1.866560 0.000000 0.032400 
#    y 0.000000 1.780200 0.000000 
#    z 0.032400 0.000000 1.949440 
# 
# From -- ./inp_files/51441.got.cif
#   From: 2010.05.17/outbox.cif.g08.bks.cpg/sg5_26_cif.got.tgz:51441.got - 2010.06.03 18:56:24.
