data_PCOD9120003
_publ_section_title
;
Structure prediction by ZEFSAII (Michael W. Deem and Ramdas Pophale) SiO2 
 PCOD9120003
Probable space group: C 2
;
_chemical_formula_sum "Si O2"
_cell_formula_units_Z 32
_cell_length_a 22.174043
_cell_length_b 9.156002
_cell_length_c 13.934655
_cell_angle_alpha 90.000000
_cell_angle_beta 144.266026
_cell_angle_gamma 90.000000
_cell_volume 1652.253454
_symmetry_space_group_name_H-M "C 2"
_symmetry_group_IT_number 5
_symmetry_cell_setting 'monoclinic'
loop_
_space_group_symop_operation_xyz
x,y,z
-x,y,-z
1/2+x,1/2+y,z
1/2-x,1/2+y,-z
loop_
_atom_site_type_symbol
_atom_site_label
_atom_site_fract_x
_atom_site_fract_y
_atom_site_fract_z
Si Si1 0.643946 0.408470 0.270073
Si Si2 0.736395 0.723344 0.433041
Si Si3 0.383948 0.640651 0.389790
Si Si4 0.272660 0.376915 0.829418
Si Si5 0.943475 0.287928 0.663200
Si Si6 0.068450 0.528400 0.500318
Si Si7 0.388260 0.350411 0.483751
Si Si8 0.535764 0.502373 0.831272
O O1 0.716313 0.551284 0.388851
O O2 0.678507 0.269226 0.377990
O O3 0.661197 0.361842 0.183190
O O4 0.533143 0.465403 0.163280
O O5 0.631726 0.789446 0.342630
O O6 0.782011 0.804005 0.399146
O O7 0.500000 0.661987 0.500000
O O8 0.292476 0.733751 0.224068
O O9 0.383855 0.704637 0.498736
O O10 0.366316 0.468329 0.373457
O O11 0.184253 0.490149 0.682675
O O12 0.351289 0.437669 0.009341
O O13 0.961924 0.442939 0.636536
O O14 0.034397 0.176153 0.808304
O O15 0.060052 0.699967 0.478786
O O16 0.000000 0.475423 0.500000
O O17 0.468267 0.427918 0.660162
#
# Coordination Sequence:
#
# PCOD9120003 Si02
#       8
#     4   4   4   4   4   4   4   4
#     4  10  18  30  55  83 113 142 182 226 290 344
#     4  10  16  30  54  85 104 141 179 234 273 340
#     4  10  20  35  57  79 111 150 199 232 270 336
#     4  11  19  36  53  83 110 150 190 231 286 336
#     4   9  17  34  55  82 109 143 184 225 283 340
#     4  11  21  36  59  82 110 150 199 233 267 338
#     4  10  20  36  55  83 113 145 191 235 284 331
#     4   9  21  33  55  81 117 145 182 232 293 347
#
# _framework density 19.367488999999999
#
# number of rings (size 3 to 8) (size 9 to 14) (size 15 to 20)
#    0.000    2.000    3.750    3.000    0.000    0.000 
#    0.000    5.000    0.000    0.000    0.000    0.000 
#    0.000    0.000    0.000    0.000    0.000    0.000 
#
# Total GULP energy -89068.493988 kJ/mol
# GULP energy per Si atom -5566.780874 kJ/mol
# Density = 1.932341 g / cm^3
# Si number density = 19.367489 Si / 1000 Ang^3
#
#
#
# Elastic Constant Matrix: (Units=GPa)
#
#
# Indices 1 2 3 4 5 6 
#
# 1 76.8884 30.5436 17.4956 0.0000 13.9077 0.0000
# 2 30.5436 122.7151 35.0227 0.0000 9.5494 0.0000
# 3 17.4956 35.0227 74.7387 0.0000 18.7041 0.0000
# 4 0.0000 0.0000 0.0000 20.8184 0.0000 2.8354
# 5 13.9077 9.5494 18.7041 0.0000 13.5133 0.0000
# 6 0.0000 0.0000 0.0000 2.8354 0.0000 12.7339
#
#
#
# Elastic Compliance Matrix: (Units=1/GPa)
#
#
# Indices 1 2 3 4 5 6 
#
# 1 0.017194 -0.003479 0.002171 0.000000 -0.018241 0.000000
# 2 -0.003479 0.010117 -0.004641 0.000000 0.002855 0.000000
# 3 0.002171 -0.004641 0.022620 0.000000 -0.030264 0.000000
# 4 0.000000 0.000000 0.000000 0.049537 0.000000 -0.011030
# 5 -0.018241 0.002855 -0.030264 0.000000 0.132645 0.000000
# 6 0.000000 0.000000 0.000000 -0.011030 0.000000 0.080987
#
#
# Mechanical properties :
#
#
# Convention : Reuss Voigt Hill
#
# Bulk Modulus (GPa) = 26.29400 48.94067 37.61733
# Shear Modulus (GPa) = 14.80706 22.16514 18.48610
#
# Velocity S-wave (km/s) = 2.76802 3.38664 3.09284
# Velocity P-wave (km/s) = 4.88075 6.37313 5.67620
#
# Compressibility (1/GPa) = 0.03803149
#
# Stress axis : x y z
#
# Youngs Moduli (GPa) = 58.16122 98.84004 44.20788
#
# Poissons Ratio (x) = 0.34391 -0.09596
# Poissons Ratio (y) = 0.20237 0.20517
# Poissons Ratio (z) = -0.12624 0.45872
#
# Static dielectric constant tensor:
#      x y z
#    x 1.759010 0.000000 0.009530 
#    y 0.000000 1.721900 0.000000 
#    z 0.009530 0.000000 1.667790 
# 
# From -- ./inp_files/57719.got.cif
#   From: 2010.05.17/outbox.cif.g08.bks.cpg/sg5_29_cif.got.tgz:57719.got - 2010.06.03 18:56:24.
