data_PCOD9120970
_publ_section_title
;
Structure prediction by ZEFSAII (Michael W. Deem and Ramdas Pophale) SiO2 
 PCOD9120970
Probable space group: C 2
;
_chemical_formula_sum "Si O2"
_cell_formula_units_Z 28
_cell_length_a 7.095580
_cell_length_b 12.781090
_cell_length_c 15.467846
_cell_angle_alpha 90.000000
_cell_angle_beta 44.548794
_cell_angle_gamma 90.000000
_cell_volume 984.064302
_symmetry_space_group_name_H-M "C 2"
_symmetry_group_IT_number 5
_symmetry_cell_setting 'monoclinic'
loop_
_space_group_symop_operation_xyz
x,y,z
-x,y,-z
1/2+x,1/2+y,z
1/2-x,1/2+y,-z
loop_
_atom_site_type_symbol
_atom_site_label
_atom_site_fract_x
_atom_site_fract_y
_atom_site_fract_z
Si Si1 0.000000 0.855520 0.500000
Si Si2 0.236037 0.968008 0.262553
Si Si3 0.758627 0.737759 0.978943
Si Si4 0.000000 0.472462 0.500000
Si Si5 0.790419 0.464697 0.987392
Si Si6 0.612071 0.162548 0.576907
Si Si7 0.012046 0.093174 0.805344
Si Si8 0.630318 0.303561 0.710978
O O1 0.830775 0.929921 0.619278
O O2 0.841271 0.768238 0.494961
O O3 0.537777 0.011073 0.147354
O O4 0.136410 0.861333 0.243359
O O5 0.073984 0.054193 0.260243
O O6 0.023750 0.758763 0.835930
O O7 0.500000 0.717815 0.000000
O O8 0.724802 0.846777 0.037252
O O9 0.717943 0.655415 0.067932
O O10 0.842105 0.554693 0.489120
O O11 0.840586 0.395729 0.617434
O O12 0.505640 0.496155 0.121193
O O13 0.000000 0.465417 0.000000
O O14 0.730912 0.198595 0.628823
O O15 0.292864 0.150096 0.703687
#
# Coordination Sequence:
#
# PCOD9120970 Si02
#       8
#     2   4   4   2   4   4   4   4
#     4   9  20  34  64  93 132 181 232 274 335 416
#     4  10  18  37  62  92 132 176 219 281 346 403
#     4  11  17  33  62  98 123 167 225 276 342 413
#     4  11  22  40  66  97 144 195 220 284 367 398
#     4   9  17  33  59  93 126 162 211 279 343 401
#     4  10  20  37  64 104 129 184 241 278 342 435
#     4  11  19  33  68  99 129 174 230 284 353 411
#     4  11  20  38  66  96 142 182 233 293 344 417
#
# _framework density 28.453427000000001
#
# number of rings (size 3 to 8) (size 9 to 14) (size 15 to 20)
#    0.000    1.714    7.143    0.857    0.000    0.000 
#    0.000    4.286    9.429    4.286    0.000    0.000 
#    0.000    0.000    0.000    0.000    0.000    0.000 
#
# Total GULP energy -78047.564629 kJ/mol
# GULP energy per Si atom -5574.826045 kJ/mol
# Density = 2.838867 g / cm^3
# Si number density = 28.453427 Si / 1000 Ang^3
#
#
#
# Elastic Constant Matrix: (Units=GPa)
#
#
# Indices 1 2 3 4 5 6 
#
# 1 82.7193 43.0207 36.3526 -0.0049 -0.7922 0.0054
# 2 43.0207 122.4642 75.9055 -0.0028 20.8071 0.0041
# 3 36.3526 75.9055 270.3716 -0.0064 12.4942 0.0110
# 4 -0.0049 -0.0028 -0.0064 51.4112 0.0049 38.5971
# 5 -0.7922 20.8071 12.4942 0.0049 28.0155 -0.0071
# 6 0.0054 0.0041 0.0110 38.5971 -0.0071 -1.9696
#
#
#
# Elastic Compliance Matrix: (Units=1/GPa)
#
#
# Indices 1 2 3 4 5 6 
#
# 1 0.015500 -0.005904 -0.000663 0.000000 0.005119 0.000001
# 2 -0.005904 0.013329 -0.002535 -0.000001 -0.008936 0.000003
# 3 -0.000663 -0.002535 0.004506 -0.000001 -0.000145 0.000002
# 4 0.000000 -0.000001 -0.000001 0.001238 0.000007 0.024260
# 5 0.005119 -0.008936 -0.000145 0.000007 0.042541 -0.000015
# 6 0.000001 0.000003 0.000002 0.024260 -0.000015 -0.032314
#
#
# Mechanical properties :
#
#
# Convention : Reuss Voigt Hill
#
# Bulk Modulus (GPa) = 66.08924 87.34587 76.71755
# Shear Modulus (GPa) = 73.47708 36.84318 55.16013
#
# Velocity S-wave (km/s) = 5.08721 3.60232 4.40774
# Velocity P-wave (km/s) = 7.60157 6.93302 7.27498
#
# Compressibility (1/GPa) = 0.01513106
#
# Stress axis : x y z
#
# Youngs Moduli (GPa) = 64.51659 75.02281 221.91135
#
# Poissons Ratio (x) = 0.44291 0.14716
# Poissons Ratio (y) = 0.38088 0.56264
# Poissons Ratio (z) = 0.04278 0.19021
#
# Static dielectric constant tensor:
#      x y z
#    x 2.477430 0.000000 -0.297350 
#    y 0.000000 2.311620 0.000000 
#    z -0.297350 0.000000 2.664470 
# 
# From -- ./inp_files/65301.got.cif
#   From: 2010.05.17/outbox.cif.g08.bks.cpg/sg5_33_cif.got.tgz:65301.got - 2010.06.03 18:56:24.
