data_PCOD9120012
_publ_section_title
;
Structure prediction by ZEFSAII (Michael W. Deem and Ramdas Pophale) SiO2 
 PCOD9120012
Probable space group: C 2
;
_chemical_formula_sum "Si O2"
_cell_formula_units_Z 32
_cell_length_a 16.574821
_cell_length_b 12.323432
_cell_length_c 11.771308
_cell_angle_alpha 90.000000
_cell_angle_beta 51.376479
_cell_angle_gamma 90.000000
_cell_volume 1878.465480
_symmetry_space_group_name_H-M "C 2"
_symmetry_group_IT_number 5
_symmetry_cell_setting 'monoclinic'
loop_
_space_group_symop_operation_xyz
x,y,z
-x,y,-z
1/2+x,1/2+y,z
1/2-x,1/2+y,-z
loop_
_atom_site_type_symbol
_atom_site_label
_atom_site_fract_x
_atom_site_fract_y
_atom_site_fract_z
Si Si1 0.559550 0.232150 0.681785
Si Si2 0.318337 0.214512 0.655788
Si Si3 0.387345 0.072866 0.813200
Si Si4 0.826481 0.109135 0.898573
Si Si5 0.386049 0.357634 0.151639
Si Si6 0.370332 0.385723 0.777760
Si Si7 0.886270 0.105198 0.108534
Si Si8 0.792825 0.342585 0.878660
O O1 0.627702 0.205945 0.512059
O O2 0.493710 0.123161 0.764586
O O3 0.622702 0.282817 0.730169
O O4 0.473920 0.325020 0.727208
O O5 0.366292 0.135651 0.711866
O O6 0.339296 0.334384 0.685511
O O7 0.198773 0.181918 0.761557
O O8 0.368518 0.945987 0.806754
O O9 0.298211 0.103471 0.982496
O O10 0.852502 0.229676 0.837451
O O11 0.874681 0.014816 0.780614
O O12 0.856416 0.084826 0.003029
O O13 0.388760 0.488262 0.168198
O O14 0.290436 0.340330 0.150204
O O15 0.500000 0.332303 0.000000
O O16 0.278546 0.354926 0.946184
O O17 0.000000 0.153261 0.000000
#
# Coordination Sequence:
#
# PCOD9120012 Si02
#       8
#     4   4   4   4   4   4   4   4
#     4  11  20  33  57  81 112 147 194 236 283 340
#     4  10  19  34  55  80 109 150 186 234 286 347
#     4   9  17  32  53  85 109 145 186 231 279 337
#     4  10  17  30  55  84 109 138 187 244 283 324
#     4  11  18  32  56  87 109 139 194 243 280 325
#     4  10  16  31  52  83 109 138 191 236 278 328
#     4  10  18  32  57  83 105 138 187 240 283 338
#     4  11  17  31  58  84 113 145 191 242 284 330
#
# _framework density 17.03518
#
# number of rings (size 3 to 8) (size 9 to 14) (size 15 to 20)
#    0.000    1.750    8.750    2.250    0.000    0.000 
#    0.000    1.250    5.500    3.000    0.000    0.000 
#    0.000    0.000    0.000    0.000    0.000    0.000 
#
# Total GULP energy -89112.435188 kJ/mol
# GULP energy per Si atom -5569.527199 kJ/mol
# Density = 1.699641 g / cm^3
# Si number density = 17.035180 Si / 1000 Ang^3
#
#
#
# Elastic Constant Matrix: (Units=GPa)
#
#
# Indices 1 2 3 4 5 6 
#
# 1 45.6321 22.1451 10.7710 0.0000 -2.7403 0.0000
# 2 22.1451 127.6297 18.2346 0.0000 -0.8897 0.0000
# 3 10.7710 18.2346 40.2141 0.0000 -1.7407 0.0000
# 4 0.0000 0.0000 0.0000 14.1980 0.0000 -1.7299
# 5 -2.7403 -0.8897 -1.7407 0.0000 14.3596 0.0000
# 6 0.0000 0.0000 0.0000 -1.7299 0.0000 24.4616
#
#
#
# Elastic Compliance Matrix: (Units=1/GPa)
#
#
# Indices 1 2 3 4 5 6 
#
# 1 0.025067 -0.003622 -0.004900 0.000000 0.003965 0.000000
# 2 -0.003622 0.008901 -0.003088 0.000000 -0.000514 0.000000
# 3 -0.004900 -0.003088 0.027676 0.000000 0.002229 0.000000
# 4 0.000000 0.000000 0.000000 0.071045 0.000000 0.005024
# 5 0.003965 -0.000514 0.002229 0.000000 0.070635 0.000000
# 6 0.000000 0.000000 0.000000 0.005024 0.000000 0.041236
#
#
# Mechanical properties :
#
#
# Convention : Reuss Voigt Hill
#
# Bulk Modulus (GPa) = 26.02545 35.08638 30.55591
# Shear Modulus (GPa) = 17.81977 21.42552 19.62265
#
# Velocity S-wave (km/s) = 3.23779 3.55029 3.39763
# Velocity P-wave (km/s) = 5.41187 6.11941 5.77648
#
# Compressibility (1/GPa) = 0.03842393
#
# Stress axis : x y z
#
# Youngs Moduli (GPa) = 39.89359 112.34420 36.13215
#
# Poissons Ratio (x) = 0.40687 0.17705
# Poissons Ratio (y) = 0.14448 0.11159
# Poissons Ratio (z) = 0.19548 0.34696
#
# Static dielectric constant tensor:
#      x y z
#    x 1.626320 0.000000 -0.003700 
#    y 0.000000 1.615860 0.000000 
#    z -0.003700 0.000000 1.558540 
# 
# From -- ./inp_files/44604.got.cif
#   From: 2010.05.17/outbox.cif.g08.bks.cpg/sg5_23_cif.got.tgz:44604.got - 2010.06.03 18:56:24.
