data_PCOD9120735
_publ_section_title
;
Structure prediction by ZEFSAII (Michael W. Deem and Ramdas Pophale) SiO2 
 PCOD9120735
Probable space group: C 2
;
_chemical_formula_sum "Si O2"
_cell_formula_units_Z 26
_cell_length_a 11.968266
_cell_length_b 6.755985
_cell_length_c 14.167935
_cell_angle_alpha 90.000000
_cell_angle_beta 119.823253
_cell_angle_gamma 90.000000
_cell_volume 993.865997
_symmetry_space_group_name_H-M "C 2"
_symmetry_group_IT_number 5
_symmetry_cell_setting 'monoclinic'
loop_
_space_group_symop_operation_xyz
x,y,z
-x,y,-z
1/2+x,1/2+y,z
1/2-x,1/2+y,-z
loop_
_atom_site_type_symbol
_atom_site_label
_atom_site_fract_x
_atom_site_fract_y
_atom_site_fract_z
Si Si1 0.615262 0.357230 0.184597
Si Si2 0.000000 0.717493 0.500000
Si Si3 0.911887 0.181041 0.558276
Si Si4 0.117054 0.731090 0.381834
Si Si5 0.853603 0.402650 0.926202
Si Si6 0.162515 0.954620 0.013819
Si Si7 0.713198 0.768366 0.304056
O O1 0.591552 0.212797 0.261891
O O2 0.683293 0.309322 0.113063
O O3 0.694386 0.539582 0.263351
O O4 0.471104 0.411047 0.093416
O O5 0.043020 0.595280 0.425753
O O6 0.143071 0.794645 0.593950
O O7 0.767702 0.206120 0.458370
O O8 0.891922 0.283387 0.655075
O O9 0.000000 0.206531 0.500000
O O10 0.930218 0.949058 0.600251
O O11 0.804031 0.401392 0.797149
O O12 0.853414 0.166680 0.945575
O O13 0.770083 0.470235 0.980193
O O14 0.000000 0.474718 0.000000
#
# Coordination Sequence:
#
# PCOD9120735 Si02
#       7
#     4   2   4   4   4   4   4
#     4   9  18  39  59  86 121 164 196 251 307 356
#     4  10  18  34  62  88 118 168 200 246 300 364
#     4  10  21  39  58  85 122 157 200 250 295 361
#     4  10  20  37  59  84 121 155 204 245 301 354
#     4  11  21  41  64  93 121 162 201 253 304 367
#     4  10  20  39  67  84 125 160 197 255 310 354
#     4   9  19  36  64  87 122 163 203 241 309 357
#
# _framework density 26.16047
#
# number of rings (size 3 to 8) (size 9 to 14) (size 15 to 20)
#    0.000    2.154    3.846    0.923    0.000    1.231 
#   15.231    0.000   10.154    0.000    0.000    0.000 
#    0.000    0.000    0.000    0.000    0.000    0.000 
#
# Total GULP energy -72495.748737 kJ/mol
# GULP energy per Si atom -5576.596057 kJ/mol
# Density = 2.610093 g / cm^3
# Si number density = 26.160470 Si / 1000 Ang^3
#
#
#
# Elastic Constant Matrix: (Units=GPa)
#
#
# Indices 1 2 3 4 5 6 
#
# 1 267.5204 48.8328 87.1994 0.0000 -60.3187 0.0000
# 2 48.8328 38.6250 42.7356 0.0000 -24.4073 0.0000
# 3 87.1994 42.7356 184.2349 0.0000 -47.6372 0.0000
# 4 0.0000 0.0000 0.0000 37.4389 0.0000 -20.4933
# 5 -60.3187 -24.4073 -47.6372 0.0000 46.1419 0.0000
# 6 0.0000 0.0000 0.0000 -20.4933 0.0000 46.2125
#
#
#
# Elastic Compliance Matrix: (Units=1/GPa)
#
#
# Indices 1 2 3 4 5 6 
#
# 1 0.005679 -0.003317 -0.000617 0.000000 0.005032 0.000000
# 2 -0.003317 0.044605 -0.005180 0.000000 0.013910 0.000000
# 3 -0.000617 -0.005180 0.008191 0.000000 0.004909 0.000000
# 4 0.000000 0.000000 0.000000 0.035272 0.000000 0.015642
# 5 0.005032 0.013910 0.004909 0.000000 0.040677 0.000000
# 6 0.000000 0.000000 0.000000 0.015642 0.000000 0.028576
#
#
# Mechanical properties :
#
#
# Convention : Reuss Voigt Hill
#
# Bulk Modulus (GPa) = 24.84718 94.21288 59.53003
# Shear Modulus (GPa) = 25.68781 46.73283 36.21032
#
# Velocity S-wave (km/s) = 3.13698 4.23116 3.72447
# Velocity P-wave (km/s) = 4.75809 7.74351 6.42656
#
# Compressibility (1/GPa) = 0.04024602
#
# Stress axis : x y z
#
# Youngs Moduli (GPa) = 176.07254 22.41905 122.08481
#
# Poissons Ratio (x) = 0.07437 0.07538
# Poissons Ratio (y) = 0.58410 0.63238
# Poissons Ratio (z) = 0.10871 0.11613
#
# Static dielectric constant tensor:
#      x y z
#    x 2.072380 0.000000 -0.162030 
#    y 0.000000 2.303170 0.000000 
#    z -0.162030 0.000000 2.054840 
# 
# From -- ./inp_files/52332.got.cif
#   From: 2010.05.17/outbox.cif.g08.bks.cpg/sg5_27_cif.got.tgz:52332.got - 2010.06.03 18:56:24.
