data_PCOD9120910
_publ_section_title
;
Structure prediction by ZEFSAII (Michael W. Deem and Ramdas Pophale) SiO2 
 PCOD9120910
Probable space group: C 2
;
_chemical_formula_sum "Si O2"
_cell_formula_units_Z 20
_cell_length_a 11.160145
_cell_length_b 8.421873
_cell_length_c 19.942191
_cell_angle_alpha 90.000000
_cell_angle_beta 154.464242
_cell_angle_gamma 90.000000
_cell_volume 807.985450
_symmetry_space_group_name_H-M "C 2"
_symmetry_group_IT_number 5
_symmetry_cell_setting 'monoclinic'
loop_
_space_group_symop_operation_xyz
x,y,z
-x,y,-z
1/2+x,1/2+y,z
1/2-x,1/2+y,-z
loop_
_atom_site_type_symbol
_atom_site_label
_atom_site_fract_x
_atom_site_fract_y
_atom_site_fract_z
Si Si1 0.317354 0.216220 0.555584
Si Si2 0.117666 0.227091 0.302032
Si Si3 0.647086 0.495725 0.677587
Si Si4 0.856892 0.045266 0.806828
Si Si5 0.618128 0.209044 0.968387
O O1 0.220279 0.224640 0.428525
O O2 0.452643 0.390437 0.629393
O O3 0.576042 0.098486 0.701205
O O4 0.042609 0.137932 0.447069
O O5 0.236583 0.377805 0.320734
O O6 0.211580 0.074380 0.306239
O O7 0.785959 0.225746 0.123000
O O8 0.905555 0.567612 0.848007
O O9 0.966867 0.872019 0.875573
O O10 0.116667 0.166980 0.946766
#
# Coordination Sequence:
#
# PCOD9120910 Si02
#       5
#     4   4   4   4   4
#     4  11  22  38  62  88 130 157 214 259 314 369
#     4   9  20  39  61  86 124 168 202 255 315 375
#     4  11  21  38  61  92 120 167 208 259 309 383
#     4   9  17  34  59  88 116 172 200 252 318 377
#     4  10  18  36  63  83 125 166 208 248 321 374
#
# _framework density 24.75292
#
# number of rings (size 3 to 8) (size 9 to 14) (size 15 to 20)
#    1.200    0.800    2.000    3.600    0.000    0.800 
#    0.000    8.000    0.000    0.000    0.000    0.000 
#    0.000    0.000    0.000    0.000    0.000    0.000 
#
# Total GULP energy -55801.516326 kJ/mol
# GULP energy per Si atom -5580.151633 kJ/mol
# Density = 2.469658 g / cm^3
# Si number density = 24.752920 Si / 1000 Ang^3
#
#
#
# Elastic Constant Matrix: (Units=GPa)
#
#
# Indices 1 2 3 4 5 6 
#
# 1 59.3061 21.0949 30.4657 0.0013 -1.0085 0.0007
# 2 21.0949 112.9091 66.1681 0.0031 -2.2288 0.0012
# 3 30.4657 66.1681 178.9553 0.0131 33.4259 0.0013
# 4 0.0013 0.0031 0.0131 64.8813 0.0016 23.9091
# 5 -1.0085 -2.2288 33.4259 0.0016 36.7769 0.0003
# 6 0.0007 0.0012 0.0013 23.9091 0.0003 31.4354
#
#
#
# Elastic Compliance Matrix: (Units=1/GPa)
#
#
# Indices 1 2 3 4 5 6 
#
# 1 0.019190 -0.001562 -0.003337 0.000001 0.003464 -0.000001
# 2 -0.001562 0.012401 -0.005362 0.000001 0.005582 -0.000001
# 3 -0.003337 -0.005362 0.009896 -0.000002 -0.009411 0.000001
# 4 0.000001 0.000001 -0.000002 0.021415 0.000001 -0.016288
# 5 0.003464 0.005582 -0.009411 0.000001 0.036178 -0.000001
# 6 -0.000001 -0.000001 0.000001 -0.016288 -0.000001 0.044199
#
#
# Mechanical properties :
#
#
# Convention : Reuss Voigt Hill
#
# Bulk Modulus (GPa) = 47.69387 65.18089 56.43738
# Shear Modulus (GPa) = 29.27586 42.18148 35.72867
#
# Velocity S-wave (km/s) = 3.44281 4.13255 3.80335
# Velocity P-wave (km/s) = 5.92568 7.01145 6.49131
#
# Compressibility (1/GPa) = 0.02096705
#
# Stress axis : x y z
#
# Youngs Moduli (GPa) = 52.11032 80.63919 101.04619
#
# Poissons Ratio (x) = 0.12592 0.33715
# Poissons Ratio (y) = 0.08137 0.54181
# Poissons Ratio (z) = 0.17387 0.43239
#
# Static dielectric constant tensor:
#      x y z
#    x 2.077190 0.000000 0.069780 
#    y 0.000000 1.990680 0.000000 
#    z 0.069780 0.000000 1.973390 
# 
# From -- ./inp_files/68736.got.cif
#   From: 2010.05.17/outbox.cif.g08.bks.cpg/sg5_35_cif.got.tgz:68736.got - 2010.06.03 18:56:24.
