data_PCOD9120812
_publ_section_title
;
Structure prediction by ZEFSAII (Michael W. Deem and Ramdas Pophale) SiO2 
 PCOD9120812
Probable space group: C 2
;
_chemical_formula_sum "Si O2"
_cell_formula_units_Z 24
_cell_length_a 21.408421
_cell_length_b 8.078095
_cell_length_c 10.976174
_cell_angle_alpha 90.000000
_cell_angle_beta 146.062684
_cell_angle_gamma 90.000000
_cell_volume 1059.744024
_symmetry_space_group_name_H-M "C 2"
_symmetry_group_IT_number 5
_symmetry_cell_setting 'monoclinic'
loop_
_space_group_symop_operation_xyz
x,y,z
-x,y,-z
1/2+x,1/2+y,z
1/2-x,1/2+y,-z
loop_
_atom_site_type_symbol
_atom_site_label
_atom_site_fract_x
_atom_site_fract_y
_atom_site_fract_z
Si Si1 0.145751 0.263550 0.649807
Si Si2 0.500000 0.484723 0.500000
Si Si3 0.414967 0.065637 0.610153
Si Si4 0.160523 0.948562 0.966090
Si Si5 0.140346 0.483137 0.867159
Si Si6 0.000000 0.445396 0.000000
Si Si7 0.687124 0.747186 0.165986
O O1 0.085839 0.090210 0.554194
O O2 0.119647 0.381973 0.494068
O O3 0.105114 0.340497 0.713393
O O4 0.279647 0.287218 0.880670
O O5 0.576036 0.402937 0.724253
O O6 0.529755 0.083776 0.719991
O O7 0.453837 0.054033 0.812548
O O8 0.310704 0.186898 0.410956
O O9 0.258858 0.051739 0.052446
O O10 0.128414 0.080841 0.016153
O O11 0.187597 0.386262 0.060616
O O12 0.895643 0.329784 0.870504
#
# Coordination Sequence:
#
# PCOD9120812 Si02
#       7
#     4   2   4   4   4   2   4
#     4   9  16  29  53  84 108 138 182 226 283 348
#     4  12  14  30  52  72 120 146 160 216 284 340
#     4  10  18  35  62  79 113 157 189 240 281 325
#     4   9  18  28  54  85 109 140 176 225 290 342
#     4   9  17  34  53  92 111 132 191 228 293 362
#     4  10  22  38  58  86 106 160 216 216 264 350
#     4  10  19  36  60  83 116 154 186 240 285 329
#
# _framework density 22.646979000000002
#
# number of rings (size 3 to 8) (size 9 to 14) (size 15 to 20)
#    1.000    1.333    3.333    1.000    0.000    0.000 
#    0.000   10.000    0.000    5.000    0.000    0.000 
#    0.000    0.000    0.000    0.000    0.000    0.000 
#
# Total GULP energy -66811.690767 kJ/mol
# GULP energy per Si atom -5567.640897 kJ/mol
# Density = 2.259543 g / cm^3
# Si number density = 22.646979 Si / 1000 Ang^3
#
#
#
# Elastic Constant Matrix: (Units=GPa)
#
#
# Indices 1 2 3 4 5 6 
#
# 1 51.8119 -0.4485 12.4476 0.0000 -0.0726 0.0000
# 2 -0.4485 45.0155 26.2995 0.0000 10.3912 0.0000
# 3 12.4476 26.2995 168.6288 0.0000 -2.4389 0.0000
# 4 0.0000 0.0000 0.0000 32.8537 0.0000 -1.6434
# 5 -0.0726 10.3912 -2.4389 0.0000 33.9773 0.0000
# 6 0.0000 0.0000 0.0000 -1.6434 0.0000 6.6646
#
#
#
# Elastic Compliance Matrix: (Units=1/GPa)
#
#
# Indices 1 2 3 4 5 6 
#
# 1 0.019710 0.001274 -0.001660 0.000000 -0.000467 0.000000
# 2 0.001274 0.026752 -0.004389 0.000000 -0.008494 0.000000
# 3 -0.001660 -0.004389 0.006764 0.000000 0.001824 0.000000
# 4 0.000000 0.000000 0.000000 0.030818 0.000000 0.007599
# 5 -0.000467 -0.008494 0.001824 0.000000 0.032159 0.000000
# 6 0.000000 0.000000 0.000000 0.007599 0.000000 0.151920
#
#
# Mechanical properties :
#
#
# Convention : Reuss Voigt Hill
#
# Bulk Modulus (GPa) = 22.89641 38.00593 30.45117
# Shear Modulus (GPa) = 17.10966 29.84295 23.47630
#
# Velocity S-wave (km/s) = 2.75161 3.63401 3.22315
# Velocity P-wave (km/s) = 4.49747 5.86740 5.22751
#
# Compressibility (1/GPa) = 0.04367497
#
# Stress axis : x y z
#
# Youngs Moduli (GPa) = 50.73602 37.37995 147.84859
#
# Poissons Ratio (x) = -0.04763 0.24548
# Poissons Ratio (y) = -0.06465 0.64894
# Poissons Ratio (z) = 0.08424 0.16407
#
# Static dielectric constant tensor:
#      x y z
#    x 1.830240 0.000000 0.066350 
#    y 0.000000 1.941930 0.000000 
#    z 0.066350 0.000000 1.978680 
# 
# From -- ./inp_files/47429.got.cif
#   From: 2010.05.17/outbox.cif.g08.bks.cpg/sg5_24_cif.got.tgz:47429.got - 2010.06.03 18:56:24.
