data_PCOD9120076
_publ_section_title
;
Structure prediction by ZEFSAII (Michael W. Deem and Ramdas Pophale) SiO2 
 PCOD9120076
Probable space group: C 2
;
_chemical_formula_sum "Si O2"
_cell_formula_units_Z 28
_cell_length_a 5.043654
_cell_length_b 19.477815
_cell_length_c 14.440229
_cell_angle_alpha 90.000000
_cell_angle_beta 108.829765
_cell_angle_gamma 90.000000
_cell_volume 1342.677873
_symmetry_space_group_name_H-M "C 2"
_symmetry_group_IT_number 5
_symmetry_cell_setting 'monoclinic'
loop_
_space_group_symop_operation_xyz
x,y,z
-x,y,-z
1/2+x,1/2+y,z
1/2-x,1/2+y,-z
loop_
_atom_site_type_symbol
_atom_site_label
_atom_site_fract_x
_atom_site_fract_y
_atom_site_fract_z
Si Si1 0.000000 0.162670 0.000000
Si Si2 0.512685 0.261931 0.400622
Si Si3 0.414035 0.640094 0.685700
Si Si4 0.747350 0.732199 0.850657
Si Si5 0.230926 0.556300 0.836603
Si Si6 0.291710 0.969815 0.888351
Si Si7 0.305740 0.318357 0.197974
Si Si8 0.000000 0.154684 0.500000
O O1 0.215238 0.115622 0.082007
O O2 0.820137 0.203342 0.055582
O O3 0.500000 0.296576 0.500000
O O4 0.258098 0.209499 0.354811
O O5 0.497663 0.312203 0.311926
O O6 0.763814 0.207728 0.438015
O O7 0.682459 0.669618 0.771781
O O8 0.251913 0.591119 0.738227
O O9 0.446112 0.610707 0.586204
O O10 0.503318 0.789892 0.813858
O O11 0.037932 0.767754 0.856731
O O12 0.500467 0.506901 0.877537
O O13 0.954224 0.514057 0.828987
O O14 0.225554 0.893621 0.846271
O O15 0.500000 0.968158 0.000000
#
# Coordination Sequence:
#
# PCOD9120076 Si02
#       8
#     2   4   4   4   4   4   4   2
#     4  10  22  40  62  94 128 162 208 278 328 386
#     4   9  19  36  62  96 128 161 199 265 350 395
#     4   9  20  34  63  95 128 161 204 269 325 402
#     4  10  22  37  61  94 125 161 201 270 337 373
#     4  11  24  42  65  89 128 173 230 256 317 385
#     4  12  25  44  64  88 126 188 224 264 305 373
#     4  11  23  41  62  92 131 164 219 260 321 390
#     4  10  16  34  64 100 128 158 200 258 360 392
#
# _framework density 20.853850000000001
#
# number of rings (size 3 to 8) (size 9 to 14) (size 15 to 20)
#    0.000    1.714    2.857    0.857    3.000    5.143 
#    0.000    0.000    1.571    0.000    0.000    0.000 
#    0.000    0.000    0.000    0.000    0.000    0.000 
#
# Total GULP energy -78198.455782 kJ/mol
# GULP energy per Si atom -5585.603984 kJ/mol
# Density = 2.080639 g / cm^3
# Si number density = 20.853850 Si / 1000 Ang^3
#
#
#
# Elastic Constant Matrix: (Units=GPa)
#
#
# Indices 1 2 3 4 5 6 
#
# 1 63.5864 12.7004 13.5222 0.0000 -5.4840 0.0000
# 2 12.7004 81.2534 38.1785 0.0000 -15.5702 0.0000
# 3 13.5222 38.1785 132.0085 0.0000 -35.2438 0.0000
# 4 0.0000 0.0000 0.0000 9.2405 0.0000 4.4101
# 5 -5.4840 -15.5702 -35.2438 0.0000 37.8054 0.0000
# 6 0.0000 0.0000 0.0000 4.4101 0.0000 23.3300
#
#
#
# Elastic Compliance Matrix: (Units=1/GPa)
#
#
# Indices 1 2 3 4 5 6 
#
# 1 0.016380 -0.001997 -0.000913 0.000000 0.000703 0.000000
# 2 -0.001997 0.014696 -0.003338 0.000000 0.002651 0.000000
# 3 -0.000913 -0.003338 0.010959 0.000000 0.008710 0.000000
# 4 0.000000 0.000000 0.000000 0.118950 0.000000 -0.022485
# 5 0.000703 0.002651 0.008710 0.000000 0.035765 0.000000
# 6 0.000000 0.000000 0.000000 -0.022485 0.000000 0.047114
#
#
# Mechanical properties :
#
#
# Convention : Reuss Voigt Hill
#
# Bulk Modulus (GPa) = 33.85180 45.07228 39.46204
# Shear Modulus (GPa) = 18.78248 28.23833 23.51041
#
# Velocity S-wave (km/s) = 3.00438 3.68381 3.36130
# Velocity P-wave (km/s) = 5.32007 6.30510 5.83341
#
# Compressibility (1/GPa) = 0.02954053
#
# Stress axis : x y z
#
# Youngs Moduli (GPa) = 61.04935 68.04738 91.24535
#
# Poissons Ratio (x) = 0.13588 0.08329
# Poissons Ratio (y) = 0.12190 0.30456
# Poissons Ratio (z) = 0.05572 0.22713
#
# Static dielectric constant tensor:
#      x y z
#    x 1.896370 0.000000 0.050140 
#    y 0.000000 1.718360 0.000000 
#    z 0.050140 0.000000 1.898060 
# 
# From -- ./inp_files/49387.got.cif
#   From: 2010.05.17/outbox.cif.g08.bks.cpg/sg5_25_cif.got.tgz:49387.got - 2010.06.03 18:56:24.
