data_PCOD9120889
_publ_section_title
;
Structure prediction by ZEFSAII (Michael W. Deem and Ramdas Pophale) SiO2 
 PCOD9120889
Probable space group: C 2
;
_chemical_formula_sum "Si O2"
_cell_formula_units_Z 30
_cell_length_a 14.371523
_cell_length_b 11.815221
_cell_length_c 7.184970
_cell_angle_alpha 90.000000
_cell_angle_beta 105.744907
_cell_angle_gamma 90.000000
_cell_volume 1174.251242
_symmetry_space_group_name_H-M "C 2"
_symmetry_group_IT_number 5
_symmetry_cell_setting 'monoclinic'
loop_
_space_group_symop_operation_xyz
x,y,z
-x,y,-z
1/2+x,1/2+y,z
1/2-x,1/2+y,-z
loop_
_atom_site_type_symbol
_atom_site_label
_atom_site_fract_x
_atom_site_fract_y
_atom_site_fract_z
Si Si1 0.412462 0.522330 0.680279
Si Si2 0.417006 0.289742 0.827940
Si Si3 0.500000 0.074307 0.000000
Si Si4 0.616743 0.024238 0.547884
Si Si5 0.813629 0.453022 0.832757
Si Si6 0.379311 0.582055 0.231209
Si Si7 0.292095 0.798231 0.268458
Si Si8 0.235082 0.206967 0.322183
O O1 0.395713 0.387348 0.669487
O O2 0.396815 0.557446 0.459366
O O3 0.521060 0.545239 0.801810
O O4 0.339342 0.603076 0.752532
O O5 0.314502 0.279917 0.873736
O O6 0.500000 0.340984 0.000000
O O7 0.462514 0.165241 0.823380
O O8 0.590642 0.995256 0.008199
O O9 0.500000 0.015056 0.500000
O O10 0.660619 0.994790 0.365060
O O11 0.666960 0.923085 0.692472
O O12 0.660364 0.146103 0.632017
O O13 0.719855 0.516678 0.861617
O O14 0.789447 0.320138 0.805096
O O15 0.364973 0.715356 0.205382
O O16 0.278620 0.747750 0.470611
#
# Coordination Sequence:
#
# PCOD9120889 Si02
#       8
#     4   4   2   4   4   4   4   4
#     4  10  19  35  60  95 111 152 197 247 303 347
#     4  10  19  36  63  80 117 162 202 239 289 358
#     4  10  22  40  66  76 114 178 206 234 300 370
#     4  11  22  37  63  94 123 151 198 251 307 357
#     4  11  21  41  58  87 121 163 197 246 302 352
#     4  10  19  34  63  88 120 147 199 247 297 356
#     4  10  18  36  61  85 117 159 195 244 297 354
#     4  10  20  37  58  87 126 145 195 261 295 347
#
# _framework density 25.548195
#
# number of rings (size 3 to 8) (size 9 to 14) (size 15 to 20)
#    0.400    1.333    5.333    0.800    5.600    0.000 
#    8.400    1.333    2.933    0.000    0.000    0.000 
#    0.000    0.000    0.000    0.000    0.000    0.000 
#
# Total GULP energy -83796.338478 kJ/mol
# GULP energy per Si atom -5586.422565 kJ/mol
# Density = 2.549005 g / cm^3
# Si number density = 25.548195 Si / 1000 Ang^3
#
#
#
# Elastic Constant Matrix: (Units=GPa)
#
#
# Indices 1 2 3 4 5 6 
#
# 1 141.9739 59.6177 52.0315 0.0000 45.6330 0.0000
# 2 59.6177 204.6519 60.9741 0.0000 24.8534 0.0000
# 3 52.0315 60.9741 69.2732 0.0000 19.1836 0.0000
# 4 0.0000 0.0000 0.0000 27.1627 0.0000 6.8006
# 5 45.6330 24.8534 19.1836 0.0000 56.0294 0.0000
# 6 0.0000 0.0000 0.0000 6.8006 0.0000 33.6751
#
#
#
# Elastic Compliance Matrix: (Units=1/GPa)
#
#
# Indices 1 2 3 4 5 6 
#
# 1 0.012028 -0.000716 -0.006385 0.000000 -0.007293 0.000000
# 2 -0.000716 0.006721 -0.005208 0.000000 -0.000615 0.000000
# 3 -0.006385 -0.005208 0.024012 0.000000 -0.000711 0.000000
# 4 0.000000 0.000000 0.000000 0.038776 0.000000 -0.007831
# 5 -0.007293 -0.000615 -0.000711 0.000000 0.024304 0.000000
# 6 0.000000 0.000000 0.000000 -0.007831 0.000000 0.031277
#
#
# Mechanical properties :
#
#
# Convention : Reuss Voigt Hill
#
# Bulk Modulus (GPa) = 55.11349 84.57176 69.84263
# Shear Modulus (GPa) = 29.80047 39.59184 34.69615
#
# Velocity S-wave (km/s) = 3.41903 3.94088 3.68919
# Velocity P-wave (km/s) = 6.09963 7.34044 6.74862
#
# Compressibility (1/GPa) = 0.01814438
#
# Stress axis : x y z
#
# Youngs Moduli (GPa) = 83.13885 148.78110 41.64584
#
# Poissons Ratio (x) = 0.10654 0.26589
# Poissons Ratio (y) = 0.05953 0.21689
# Poissons Ratio (z) = 0.53080 0.77483
#
# Static dielectric constant tensor:
#      x y z
#    x 1.977530 0.000000 -0.039320 
#    y 0.000000 1.990850 0.000000 
#    z -0.039320 0.000000 2.163340 
# 
# From -- ./inp_files/42509.got.cif
#   From: 2010.05.17/outbox.cif.g08.bks.cpg/sg5_22_cif.got.tgz:42509.got - 2010.06.03 18:56:24.
