data_PCOD9120817
_publ_section_title
;
Structure prediction by ZEFSAII (Michael W. Deem and Ramdas Pophale) SiO2 
 PCOD9120817
Probable space group: C 2
;
_chemical_formula_sum "Si O2"
_cell_formula_units_Z 30
_cell_length_a 17.345921
_cell_length_b 9.356282
_cell_length_c 10.416028
_cell_angle_alpha 90.000000
_cell_angle_beta 49.303808
_cell_angle_gamma 90.000000
_cell_volume 1281.662855
_symmetry_space_group_name_H-M "C 2"
_symmetry_group_IT_number 5
_symmetry_cell_setting 'monoclinic'
loop_
_space_group_symop_operation_xyz
x,y,z
-x,y,-z
1/2+x,1/2+y,z
1/2-x,1/2+y,-z
loop_
_atom_site_type_symbol
_atom_site_label
_atom_site_fract_x
_atom_site_fract_y
_atom_site_fract_z
Si Si1 0.869803 0.845860 0.218425
Si Si2 0.271545 0.408165 0.583767
Si Si3 0.000000 0.095242 0.000000
Si Si4 0.433242 0.046483 0.239967
Si Si5 0.920863 0.302671 0.890189
Si Si6 0.297229 0.875714 0.794802
Si Si7 0.575879 0.659794 0.518881
Si Si8 0.886570 0.649636 0.577377
O O1 0.786605 0.854031 0.421662
O O2 0.930390 0.702182 0.180777
O O3 0.814670 0.852934 0.140925
O O4 0.939202 0.985536 0.155687
O O5 0.155749 0.452046 0.726303
O O6 0.339834 0.549410 0.526064
O O7 0.316109 0.285953 0.626741
O O8 0.077764 0.195328 0.992429
O O9 0.403094 0.072190 0.421662
O O10 0.536347 0.958121 0.119765
O O11 0.820784 0.323797 0.913011
O O12 0.008588 0.233776 0.702118
O O13 0.369879 0.780857 0.624855
O O14 0.334002 0.037652 0.730758
O O15 0.500000 0.583815 0.500000
O O16 0.000000 0.688613 0.500000
#
# Coordination Sequence:
#
# PCOD9120817 Si02
#       8
#     4   4   2   4   4   4   4   4
#     4  11  24  41  63  92 132 168 214 258 312 381
#     4  11  21  33  63 102 132 159 199 262 330 385
#     4  12  28  46  66  86 122 186 226 256 292 382
#     4  11  22  38  64  98 131 161 201 270 330 374
#     4  11  23  42  65  92 126 171 216 251 319 380
#     4  11  20  40  67  95 128 159 199 274 333 372
#     4  10  18  35  62  98 131 155 196 265 330 376
#     4  11  20  34  58 102 136 158 187 254 345 388
#
# _framework density 23.407091000000001
#
# number of rings (size 3 to 8) (size 9 to 14) (size 15 to 20)
#    0.000    1.067    6.667    0.800    3.733    0.533 
#    0.000    2.667    0.000    0.000    0.000    0.000 
#    0.000    0.000    0.000    0.000    0.000    0.000 
#
# Total GULP energy -83964.826659 kJ/mol
# GULP energy per Si atom -5597.655111 kJ/mol
# Density = 2.335382 g / cm^3
# Si number density = 23.407091 Si / 1000 Ang^3
#
#
#
# Elastic Constant Matrix: (Units=GPa)
#
#
# Indices 1 2 3 4 5 6 
#
# 1 141.0369 49.4673 -2.4355 0.0000 21.4372 0.0000
# 2 49.4673 134.3293 13.0234 0.0000 24.6150 0.0000
# 3 -2.4355 13.0234 44.9466 0.0000 9.0027 0.0000
# 4 0.0000 0.0000 0.0000 16.0580 0.0000 -0.2181
# 5 21.4372 24.6150 9.0027 0.0000 11.8914 0.0000
# 6 0.0000 0.0000 0.0000 -0.2181 0.0000 31.9195
#
#
#
# Elastic Compliance Matrix: (Units=1/GPa)
#
#
# Indices 1 2 3 4 5 6 
#
# 1 0.010731 -0.000305 0.005208 0.000000 -0.022657 0.000000
# 2 -0.000305 0.012122 0.001635 0.000000 -0.025782 0.000000
# 3 0.005208 0.001635 0.029016 0.000000 -0.034740 0.000000
# 4 0.000000 0.000000 0.000000 0.062280 0.000000 0.000425
# 5 -0.022657 -0.025782 -0.034740 0.000000 0.204610 0.000000
# 6 0.000000 0.000000 0.000000 0.000425 0.000000 0.031332
#
#
# Mechanical properties :
#
#
# Convention : Reuss Voigt Hill
#
# Bulk Modulus (GPa) = 15.39753 48.93590 32.16671
# Shear Modulus (GPa) = 13.94067 29.32427 21.63247
#
# Velocity S-wave (km/s) = 2.44309 3.54332 3.04334
# Velocity P-wave (km/s) = 3.81453 6.13938 5.11090
#
# Compressibility (1/GPa) = 0.06494547
#
# Stress axis : x y z
#
# Youngs Moduli (GPa) = 93.18737 82.49134 34.46433
#
# Poissons Ratio (x) = 0.02515 -0.17949
# Poissons Ratio (y) = 0.02841 -0.05635
# Poissons Ratio (z) = -0.48532 -0.13487
#
# Static dielectric constant tensor:
#      x y z
#    x 1.889900 0.000000 0.031750 
#    y 0.000000 1.839590 0.000000 
#    z 0.031750 0.000000 1.930830 
# 
# From -- ./inp_files/44303.got.cif
#   From: 2010.05.17/outbox.cif.g08.bks.cpg/sg5_23_cif.got.tgz:44303.got - 2010.06.03 18:56:24.
