data_PCOD9120680
_publ_section_title
;
Structure prediction by ZEFSAII (Michael W. Deem and Ramdas Pophale) SiO2 
 PCOD9120680
Probable space group: C 2
;
_chemical_formula_sum "Si O2"
_cell_formula_units_Z 30
_cell_length_a 13.918648
_cell_length_b 6.952546
_cell_length_c 17.267134
_cell_angle_alpha 90.000000
_cell_angle_beta 48.050442
_cell_angle_gamma 90.000000
_cell_volume 1242.735199
_symmetry_space_group_name_H-M "C 2"
_symmetry_group_IT_number 5
_symmetry_cell_setting 'monoclinic'
loop_
_space_group_symop_operation_xyz
x,y,z
-x,y,-z
1/2+x,1/2+y,z
1/2-x,1/2+y,-z
loop_
_atom_site_type_symbol
_atom_site_label
_atom_site_fract_x
_atom_site_fract_y
_atom_site_fract_z
Si Si1 0.029707 0.150590 0.245785
Si Si2 0.649220 0.111395 0.762357
Si Si3 0.882425 0.506921 0.883246
Si Si4 0.000000 0.817342 0.500000
Si Si5 0.224963 0.165625 0.688486
Si Si6 0.068193 0.204942 0.391379
Si Si7 0.143164 0.070875 0.901888
Si Si8 0.305383 0.008348 0.096777
O O1 0.067066 0.287847 0.153268
O O2 0.038470 0.272195 0.321045
O O3 0.883649 0.086386 0.311707
O O4 0.149760 0.006308 0.188049
O O5 0.781071 0.214385 0.668940
O O6 0.509878 0.136773 0.798523
O O7 0.687627 0.889401 0.724851
O O8 0.641825 0.132372 0.859894
O O9 0.758370 0.505395 0.895697
O O10 0.841033 0.565752 0.991306
O O11 0.129788 0.690734 0.422024
O O12 0.015397 0.980632 0.423194
O O13 0.194063 0.059817 0.786286
O O14 0.000000 0.302124 0.500000
O O15 0.139519 0.298395 0.920667
O O16 0.000000 0.996345 0.000000
#
# Coordination Sequence:
#
# PCOD9120680 Si02
#       8
#     4   4   4   2   4   4   4   4
#     4  10  20  35  59  85 113 143 189 238 278 334
#     4   8  16  31  54  78 105 139 194 227 256 328
#     4  11  20  33  54  84 118 146 175 233 292 325
#     4   8  16  34  60  78 106 148 196 234 260 334
#     4   9  17  34  54  80 109 145 188 227 279 328
#     4   8  16  33  58  79 103 143 190 234 271 317
#     4  11  22  37  56  79 117 155 185 228 279 343
#     4  10  18  34  58  82 107 151 196 218 267 334
#
# _framework density 24.140298000000001
#
# number of rings (size 3 to 8) (size 9 to 14) (size 15 to 20)
#    0.400    2.133    0.000    5.200    0.000    0.000 
#    2.400    8.667    4.400    0.000    0.000    0.000 
#    0.000    0.000    0.000    0.000    0.000    0.000 
#
# Total GULP energy -83636.083275 kJ/mol
# GULP energy per Si atom -5575.738885 kJ/mol
# Density = 2.408535 g / cm^3
# Si number density = 24.140298 Si / 1000 Ang^3
#
#
#
# Elastic Constant Matrix: (Units=GPa)
#
#
# Indices 1 2 3 4 5 6 
#
# 1 173.0655 16.8883 74.4652 0.0000 -47.6116 0.0000
# 2 16.8883 51.9318 28.5809 0.0000 -19.4600 0.0001
# 3 74.4652 28.5809 145.5262 0.0000 -37.6973 0.0000
# 4 0.0000 0.0000 0.0000 16.0848 0.0000 -4.7088
# 5 -47.6116 -19.4600 -37.6973 0.0000 41.5624 0.0000
# 6 0.0000 0.0001 0.0000 -4.7088 0.0000 27.8360
#
#
#
# Elastic Compliance Matrix: (Units=1/GPa)
#
#
# Indices 1 2 3 4 5 6 
#
# 1 0.009258 0.001879 -0.002786 0.000000 0.008959 0.000000
# 2 0.001879 0.024335 -0.002917 0.000000 0.010901 0.000000
# 3 -0.002786 -0.002917 0.010051 0.000000 0.004559 0.000000
# 4 0.000000 0.000000 0.000000 0.065410 0.000000 0.011065
# 5 0.008959 0.010901 0.004559 0.000000 0.043562 0.000000
# 6 0.000000 0.000000 0.000000 0.011065 0.000000 0.037796
#
#
# Mechanical properties :
#
#
# Convention : Reuss Voigt Hill
#
# Bulk Modulus (GPa) = 27.77982 67.82136 47.80059
# Shear Modulus (GPa) = 23.80285 33.80257 28.80271
#
# Velocity S-wave (km/s) = 3.14350 3.74606 3.45793
# Velocity P-wave (km/s) = 4.97073 6.84589 5.98224
#
# Compressibility (1/GPa) = 0.03599735
#
# Stress axis : x y z
#
# Youngs Moduli (GPa) = 108.01461 41.09267 99.49222
#
# Poissons Ratio (x) = -0.07723 0.27716
# Poissons Ratio (y) = -0.20301 0.29024
# Poissons Ratio (z) = 0.30090 0.11988
#
# Static dielectric constant tensor:
#      x y z
#    x 1.936200 0.000000 -0.016410 
#    y 0.000000 2.019200 0.000000 
#    z -0.016410 0.000000 1.930600 
# 
# From -- ./inp_files/61376.got.cif
#   From: 2010.05.17/outbox.cif.g08.bks.cpg/sg5_31_cif.got.tgz:61376.got - 2010.06.03 18:56:24.
