data_PCOD9120572
_publ_section_title
;
Structure prediction by ZEFSAII (Michael W. Deem and Ramdas Pophale) SiO2 
 PCOD9120572
Probable space group: C 2
;
_chemical_formula_sum "Si O2"
_cell_formula_units_Z 26
_cell_length_a 15.405323
_cell_length_b 8.426508
_cell_length_c 9.419905
_cell_angle_alpha 90.000000
_cell_angle_beta 83.833481
_cell_angle_gamma 90.000000
_cell_volume 1215.751464
_symmetry_space_group_name_H-M "C 2"
_symmetry_group_IT_number 5
_symmetry_cell_setting 'monoclinic'
loop_
_space_group_symop_operation_xyz
x,y,z
-x,y,-z
1/2+x,1/2+y,z
1/2-x,1/2+y,-z
loop_
_atom_site_type_symbol
_atom_site_label
_atom_site_fract_x
_atom_site_fract_y
_atom_site_fract_z
Si Si1 0.703801 0.229450 0.871297
Si Si2 0.179760 0.691111 0.206076
Si Si3 0.256225 0.969625 0.340376
Si Si4 0.866533 0.214270 0.485380
Si Si5 0.870945 0.036829 0.217294
Si Si6 0.500000 0.715903 0.000000
Si Si7 0.897414 0.363521 0.767046
O O1 0.643332 0.349734 0.793319
O O2 0.802806 0.296049 0.836660
O O3 0.702737 0.054547 0.804503
O O4 0.676731 0.229532 0.039720
O O5 0.180768 0.850396 0.298494
O O6 0.275238 0.615511 0.219397
O O7 0.112602 0.551648 0.253015
O O8 0.326092 0.868581 0.415486
O O9 0.213998 0.107946 0.441306
O O10 0.908528 0.102020 0.358604
O O11 0.915993 0.275791 0.615577
O O12 0.925957 0.103515 0.077568
O O13 0.464470 0.821340 0.877947
#
# Coordination Sequence:
#
# PCOD9120572 Si02
#       7
#     4   4   4   4   4   2   4
#     4  10  19  35  64  96 120 162 208 270 300 374
#     4  10  19  35  64  96 120 162 208 270 300 374
#     4  10  18  32  62  96 130 148 216 260 324 352
#     4  10  20  35  58  94 122 167 196 268 306 387
#     4  10  22  37  61  90 127 163 213 245 330 363
#     4  12  24  42  62  92 128 176 206 268 304 392
#     4  10  22  37  61  90 127 163 213 245 330 363
#
# _framework density 21.385950000000001
#
# number of rings (size 3 to 8) (size 9 to 14) (size 15 to 20)
#    0.000    1.846    1.538    5.538    4.308    0.615 
#    0.000    0.769    0.000    0.000    8.000    0.000 
#    0.000    0.000    0.000    0.000    0.000    0.000 
#
# Total GULP energy -72631.946016 kJ/mol
# GULP energy per Si atom -5587.072770 kJ/mol
# Density = 2.133727 g / cm^3
# Si number density = 21.385950 Si / 1000 Ang^3
#
#
#
# Elastic Constant Matrix: (Units=GPa)
#
#
# Indices 1 2 3 4 5 6 
#
# 1 32.7397 25.9342 14.1607 0.0000 20.0316 0.0000
# 2 25.9342 103.9858 28.5875 0.0000 28.8934 0.0000
# 3 14.1607 28.5875 105.6678 0.0000 35.7737 0.0000
# 4 0.0000 0.0000 0.0000 32.6309 0.0000 3.2750
# 5 20.0316 28.8934 35.7737 0.0000 31.2013 0.0000
# 6 0.0000 0.0000 0.0000 3.2750 0.0000 15.2562
#
#
#
# Elastic Compliance Matrix: (Units=1/GPa)
#
#
# Indices 1 2 3 4 5 6 
#
# 1 0.055296 -0.004864 0.007191 0.000000 -0.039241 0.000000
# 2 -0.004864 0.013430 0.000280 0.000000 -0.009635 0.000000
# 3 0.007191 0.000280 0.016467 0.000000 -0.023756 0.000000
# 4 0.000000 0.000000 0.000000 0.031321 0.000000 -0.006724
# 5 -0.039241 -0.009635 -0.023756 0.000000 0.093403 0.000000
# 6 0.000000 0.000000 0.000000 -0.006724 0.000000 0.066990
#
#
# Mechanical properties :
#
#
# Convention : Reuss Voigt Hill
#
# Bulk Modulus (GPa) = 11.06120 42.19535 26.62827
# Shear Modulus (GPa) = 16.56568 27.39841 21.98205
#
# Velocity S-wave (km/s) = 2.78619 3.58319 3.20952
# Velocity P-wave (km/s) = 3.94131 6.07390 5.11987
#
# Compressibility (1/GPa) = 0.09040613
#
# Stress axis : x y z
#
# Youngs Moduli (GPa) = 18.08440 74.46017 60.72865
#
# Poissons Ratio (x) = 0.36221 -0.43667
# Poissons Ratio (y) = 0.08797 -0.01703
# Poissons Ratio (z) = -0.13004 -0.02089
#
# Static dielectric constant tensor:
#      x y z
#    x 1.791840 0.000000 0.010490 
#    y 0.000000 1.782100 0.000000 
#    z 0.010490 0.000000 1.791310 
# 
# From -- ./inp_files/26688.got.cif
#   From: 2010.05.17/outbox.cif.g08.bks.cpg/sg5_14_cif.got.tgz:26688.got - 2010.06.03 18:56:24.
