data_PCOD9120243
_publ_section_title
;
Structure prediction by ZEFSAII (Michael W. Deem and Ramdas Pophale) SiO2 
 PCOD9120243
Probable space group: C 2
;
_chemical_formula_sum "Si O2"
_cell_formula_units_Z 22
_cell_length_a 10.433431
_cell_length_b 19.314088
_cell_length_c 5.242241
_cell_angle_alpha 90.000000
_cell_angle_beta 85.489949
_cell_angle_gamma 90.000000
_cell_volume 1053.104531
_symmetry_space_group_name_H-M "C 2"
_symmetry_group_IT_number 5
_symmetry_cell_setting 'monoclinic'
loop_
_space_group_symop_operation_xyz
x,y,z
-x,y,-z
1/2+x,1/2+y,z
1/2-x,1/2+y,-z
loop_
_atom_site_type_symbol
_atom_site_label
_atom_site_fract_x
_atom_site_fract_y
_atom_site_fract_z
Si Si1 0.332847 0.926180 0.907901
Si Si2 0.870768 0.742611 0.190248
Si Si3 0.000000 0.637989 0.500000
Si Si4 0.000000 0.338069 0.500000
Si Si5 0.500000 0.046371 0.000000
Si Si6 0.418700 0.401313 0.270887
Si Si7 0.647386 0.782326 0.873694
O O1 0.443955 0.890129 0.719904
O O2 0.213445 0.941813 0.746692
O O3 0.381004 0.993397 0.044383
O O4 0.298444 0.860770 0.090290
O O5 0.881874 0.820069 0.299843
O O6 0.885306 0.688130 0.418122
O O7 0.749215 0.737560 0.016507
O O8 0.000000 0.733350 0.000000
O O9 0.975277 0.590471 0.750442
O O10 0.885700 0.287803 0.420578
O O11 0.500000 0.422950 0.500000
O O12 0.500000 0.408615 0.000000
O O13 0.500000 0.771671 0.000000
#
# Coordination Sequence:
#
# PCOD9120243 Si02
#       7
#     4   4   2   2   2   4   4
#     4  10  21  35  57  91 125 154 205 253 309 367
#     4  10  21  38  57  89 127 156 211 248 304 373
#     4  12  25  40  60  88 122 173 206 248 296 352
#     4  10  17  32  60  92 128 157 192 248 338 362
#     4  12  24  40  62  88 122 168 208 254 284 364
#     4  10  22  35  61  90 123 157 188 260 321 367
#     4   9  19  34  58  94 122 156 191 264 323 365
#
# _framework density 20.890611
#
# number of rings (size 3 to 8) (size 9 to 14) (size 15 to 20)
#    0.000    1.818    4.545    0.545    7.636    1.455 
#    0.000    0.000    0.000    3.273    0.000    0.000 
#    0.000    0.000    0.000    0.000    0.000    0.000 
#
# Total GULP energy -61290.787132 kJ/mol
# GULP energy per Si atom -5571.889739 kJ/mol
# Density = 2.084306 g / cm^3
# Si number density = 20.890611 Si / 1000 Ang^3
#
#
#
# Elastic Constant Matrix: (Units=GPa)
#
#
# Indices 1 2 3 4 5 6 
#
# 1 103.7901 18.6327 49.5840 0.0000 44.5558 0.0000
# 2 18.6327 66.6204 41.6705 0.0000 20.0410 0.0000
# 3 49.5840 41.6705 143.4535 0.0000 41.7240 0.0000
# 4 0.0000 0.0000 0.0000 33.1592 0.0000 12.8945
# 5 44.5558 20.0410 41.7240 0.0000 54.0773 0.0000
# 6 0.0000 0.0000 0.0000 12.8945 0.0000 12.5818
#
#
#
# Elastic Compliance Matrix: (Units=1/GPa)
#
#
# Indices 1 2 3 4 5 6 
#
# 1 0.015394 0.000424 -0.002204 0.000000 -0.011140 0.000000
# 2 0.000424 0.018873 -0.004503 0.000000 -0.003869 0.000000
# 3 -0.002204 -0.004503 0.010350 0.000000 -0.004501 0.000000
# 4 0.000000 0.000000 0.000000 0.050140 0.000000 -0.051386
# 5 -0.011140 -0.003869 -0.004501 0.000000 0.032577 0.000000
# 6 0.000000 0.000000 0.000000 -0.051386 0.000000 0.132143
#
#
# Mechanical properties :
#
#
# Convention : Reuss Voigt Hill
#
# Bulk Modulus (GPa) = 31.20090 59.29316 45.24703
# Shear Modulus (GPa) = 17.68494 33.56211 25.62353
#
# Velocity S-wave (km/s) = 2.91271 4.01255 3.50602
# Velocity P-wave (km/s) = 5.12637 7.06482 6.17217
#
# Compressibility (1/GPa) = 0.03205035
#
# Stress axis : x y z
#
# Youngs Moduli (GPa) = 64.96073 52.98708 96.61936
#
# Poissons Ratio (x) = -0.02249 0.21294
# Poissons Ratio (y) = -0.02757 0.43512
# Poissons Ratio (z) = 0.14317 0.23862
#
# Static dielectric constant tensor:
#      x y z
#    x 1.842440 0.000000 -0.020700 
#    y 0.000000 1.756920 0.000000 
#    z -0.020700 0.000000 1.915620 
# 
# From -- ./inp_files/5123.got.cif
#   From: 2010.05.17/outbox.cif.g08.bks.cpg/sg5_3_cif.got.tgz:5123.got - 2010.06.03 18:56:24.
