data_PCOD9120723
_publ_section_title
;
Structure prediction by ZEFSAII (Michael W. Deem and Ramdas Pophale) SiO2 
 PCOD9120723
Probable space group: C 2
;
_chemical_formula_sum "Si O2"
_cell_formula_units_Z 30
_cell_length_a 20.836150
_cell_length_b 14.771017
_cell_length_c 14.862937
_cell_angle_alpha 90.000000
_cell_angle_beta 18.616920
_cell_angle_gamma 90.000000
_cell_volume 1460.322234
_symmetry_space_group_name_H-M "C 2"
_symmetry_group_IT_number 5
_symmetry_cell_setting 'monoclinic'
loop_
_space_group_symop_operation_xyz
x,y,z
-x,y,-z
1/2+x,1/2+y,z
1/2-x,1/2+y,-z
loop_
_atom_site_type_symbol
_atom_site_label
_atom_site_fract_x
_atom_site_fract_y
_atom_site_fract_z
Si Si1 0.889585 0.456420 0.334078
Si Si2 0.500000 0.304859 0.000000
Si Si3 0.769311 0.077888 0.792090
Si Si4 0.265440 0.459294 0.067217
Si Si5 0.381551 0.752110 0.404224
Si Si6 0.130005 0.062661 0.543284
Si Si7 0.792085 0.461851 0.658926
Si Si8 0.835064 0.266258 0.795389
O O1 0.913291 0.347403 0.311091
O O2 0.760338 0.487782 0.421012
O O3 0.771817 0.489852 0.581364
O O4 0.102841 0.506122 0.042005
O O5 0.642470 0.252236 0.743769
O O6 0.665738 0.368620 0.826318
O O7 0.765080 0.092609 0.689334
O O8 0.744485 0.171953 0.880168
O O9 0.000000 0.048635 0.500000
O O10 0.275778 0.500106 0.154811
O O11 0.312647 0.351805 0.001103
O O12 0.033340 0.459688 0.346431
O O13 0.414791 0.517476 0.809678
O O14 0.406879 0.648344 0.341994
O O15 0.536418 0.755848 0.283693
O O16 0.000000 0.290267 0.500000
#
# Coordination Sequence:
#
# PCOD9120723 Si02
#       8
#     4   2   4   4   4   4   4   4
#     4  11  24  42  63  97 140 177 220 281 344 409
#     4  10  18  34  60  96 126 160 214 282 326 370
#     4  11  24  40  68 100 131 174 229 284 339 396
#     4  11  20  38  66 101 132 173 222 281 339 392
#     4  11  23  38  64  97 133 174 220 277 340 392
#     4  12  26  40  67 102 137 178 222 283 340 414
#     4  10  20  35  64  93 127 172 223 269 333 386
#     4  11  18  36  66 101 124 162 223 292 320 380
#
# _framework density 20.543412
#
# number of rings (size 3 to 8) (size 9 to 14) (size 15 to 20)
#    0.000    1.067    6.667    2.800    1.867    1.067 
#    0.000    0.000   11.733    0.000    0.000    0.000 
#    0.000    0.000    0.000    0.000    0.000    0.000 
#
# Total GULP energy -83512.146324 kJ/mol
# GULP energy per Si atom -5567.476422 kJ/mol
# Density = 2.049665 g / cm^3
# Si number density = 20.543412 Si / 1000 Ang^3
#
#
#
# Elastic Constant Matrix: (Units=GPa)
#
#
# Indices 1 2 3 4 5 6 
#
# 1 82.9069 21.7685 6.9102 -0.0006 -6.4891 -0.0017
# 2 21.7685 145.1984 58.8596 -0.0070 -5.2462 0.0026
# 3 6.9102 58.8596 81.2175 -0.0069 -11.4609 -0.0022
# 4 -0.0006 -0.0070 -0.0069 32.4709 0.0018 -1.8511
# 5 -6.4891 -5.2462 -11.4609 0.0018 26.6365 0.0028
# 6 -0.0017 0.0026 -0.0022 -1.8511 0.0028 30.4763
#
#
#
# Elastic Compliance Matrix: (Units=1/GPa)
#
#
# Indices 1 2 3 4 5 6 
#
# 1 0.012799 -0.002184 0.000930 0.000000 0.003088 0.000001
# 2 -0.002184 0.010161 -0.007421 0.000001 -0.001724 -0.000001
# 3 0.000930 -0.007421 0.018564 0.000002 0.006753 0.000002
# 4 0.000000 0.000001 0.000002 0.030904 -0.000001 0.001877
# 5 0.003088 -0.001724 0.006753 -0.000001 0.040861 -0.000003
# 6 0.000001 -0.000001 0.000002 0.001877 -0.000003 0.032926
#
#
# Mechanical properties :
#
#
# Convention : Reuss Voigt Hill
#
# Bulk Modulus (GPa) = 41.36759 53.82216 47.59487
# Shear Modulus (GPa) = 29.13344 32.70239 30.91792
#
# Velocity S-wave (km/s) = 3.76991 3.99415 3.88365
# Velocity P-wave (km/s) = 6.25540 6.89399 6.58244
#
# Compressibility (1/GPa) = 0.02417352
#
# Stress axis : x y z
#
# Youngs Moduli (GPa) = 78.12846 98.41975 53.86626
#
# Poissons Ratio (x) = 0.21497 -0.05008
# Poissons Ratio (y) = 0.17065 0.39974
# Poissons Ratio (z) = -0.07264 0.73037
#
# Static dielectric constant tensor:
#      x y z
#    x 1.841300 0.000000 -0.003850 
#    y 0.000000 1.777450 0.000000 
#    z -0.003850 0.000000 1.725610 
# 
# From -- ./inp_files/57134.got.cif
#   From: 2010.05.17/outbox.cif.g08.bks.cpg/sg5_29_cif.got.tgz:57134.got - 2010.06.03 18:56:24.
