data_PCOD9120873
_publ_section_title
;
Structure prediction by ZEFSAII (Michael W. Deem and Ramdas Pophale) SiO2 
 PCOD9120873
Probable space group: C 2
;
_chemical_formula_sum "Si O2"
_cell_formula_units_Z 30
_cell_length_a 15.664801
_cell_length_b 7.019430
_cell_length_c 23.378916
_cell_angle_alpha 90.000000
_cell_angle_beta 29.390679
_cell_angle_gamma 90.000000
_cell_volume 1261.601051
_symmetry_space_group_name_H-M "C 2"
_symmetry_group_IT_number 5
_symmetry_cell_setting 'monoclinic'
loop_
_space_group_symop_operation_xyz
x,y,z
-x,y,-z
1/2+x,1/2+y,z
1/2-x,1/2+y,-z
loop_
_atom_site_type_symbol
_atom_site_label
_atom_site_fract_x
_atom_site_fract_y
_atom_site_fract_z
Si Si1 0.870921 0.561130 0.301379
Si Si2 0.818991 0.342619 0.714266
Si Si3 0.433689 0.316980 0.375007
Si Si4 0.500000 0.728410 0.500000
Si Si5 0.545837 0.334041 0.108296
Si Si6 0.588259 0.754260 0.648193
Si Si7 0.833176 0.494989 0.024516
Si Si8 0.212939 0.420778 0.813644
O O1 0.906204 0.673991 0.339432
O O2 0.667635 0.598282 0.411016
O O3 0.912780 0.340853 0.287905
O O4 0.983690 0.668260 0.188542
O O5 0.632550 0.435662 0.808442
O O6 0.950612 0.353677 0.583987
O O7 0.934424 0.360657 0.703303
O O8 0.762735 0.119899 0.754933
O O9 0.431476 0.529660 0.349266
O O10 0.274228 0.303403 0.511534
O O11 0.622065 0.286793 0.294239
O O12 0.687506 0.445961 0.062744
O O13 0.625962 0.219565 0.007848
O O14 0.788065 0.450300 0.116714
O O15 0.015940 0.381514 0.909739
#
# Coordination Sequence:
#
# PCOD9120873 Si02
#       8
#     4   4   4   2   4   4   4   4
#     4  11  21  38  61  88 123 158 198 241 301 359
#     4   9  19  35  58  86 114 159 191 236 302 360
#     4  11  19  35  59  90 117 156 193 244 285 353
#     4  10  18  36  60  84 128 160 180 240 310 354
#     4  10  22  39  59  84 118 155 194 254 314 341
#     4  11  21  36  62  94 120 157 201 238 287 370
#     4  10  20  38  58  81 111 155 199 250 297 348
#     4   9  19  36  59  78 112 160 202 233 296 357
#
# _framework density 23.779308
#
# number of rings (size 3 to 8) (size 9 to 14) (size 15 to 20)
#    0.000    1.867    4.000    0.800    0.000    2.133 
#    2.400    0.667    0.000    0.000    0.000    0.000 
#    0.000    0.000    0.000    0.000    0.000    0.000 
#
# Total GULP energy -83738.633138 kJ/mol
# GULP energy per Si atom -5582.575543 kJ/mol
# Density = 2.372519 g / cm^3
# Si number density = 23.779308 Si / 1000 Ang^3
#
#
#
# Elastic Constant Matrix: (Units=GPa)
#
#
# Indices 1 2 3 4 5 6 
#
# 1 86.9853 6.1249 32.6902 0.0009 -36.2371 -0.0013
# 2 6.1249 50.4289 12.1067 0.0010 -1.3856 -0.0013
# 3 32.6902 12.1067 113.6791 -0.0010 -37.9328 -0.0008
# 4 0.0009 0.0010 -0.0010 15.3040 -0.0006 3.2985
# 5 -36.2371 -1.3856 -37.9328 -0.0006 34.1755 0.0006
# 6 -0.0013 -0.0013 -0.0008 3.2985 0.0006 36.7160
#
#
#
# Elastic Compliance Matrix: (Units=1/GPa)
#
#
# Indices 1 2 3 4 5 6 
#
# 1 0.021237 -0.002509 0.002605 0.000000 0.025307 0.000000
# 2 -0.002509 0.020783 -0.003333 -0.000002 -0.005517 0.000001
# 3 0.002605 -0.003333 0.014737 0.000002 0.018985 0.000000
# 4 0.000000 -0.000002 0.000002 0.066633 0.000003 -0.005986
# 5 0.025307 -0.005517 0.018985 0.000003 0.076943 0.000000
# 6 0.000000 0.000001 0.000000 -0.005986 0.000000 0.027774
#
#
# Mechanical properties :
#
#
# Convention : Reuss Voigt Hill
#
# Bulk Modulus (GPa) = 19.88755 39.21520 29.55138
# Shear Modulus (GPa) = 19.89323 30.58387 25.23855
#
# Velocity S-wave (km/s) = 2.89550 3.59019 3.26140
# Velocity P-wave (km/s) = 4.42268 5.80630 5.16107
#
# Compressibility (1/GPa) = 0.05028272
#
# Stress axis : x y z
#
# Youngs Moduli (GPa) = 47.08850 48.11577 67.85462
#
# Poissons Ratio (x) = 0.12074 -0.17676
# Poissons Ratio (y) = 0.11816 0.22615
# Poissons Ratio (z) = -0.12266 0.16036
#
# Static dielectric constant tensor:
#      x y z
#    x 1.957740 0.000000 -0.017050 
#    y 0.000000 1.944300 0.000000 
#    z -0.017050 0.000000 1.981810 
# 
# From -- ./inp_files/68698.got.cif
#   From: 2010.05.17/outbox.cif.g08.bks.cpg/sg5_35_cif.got.tgz:68698.got - 2010.06.03 18:56:24.
