data_PCOD9120039
_publ_section_title
;
Structure prediction by ZEFSAII (Michael W. Deem and Ramdas Pophale) SiO2 
 PCOD9120039
Probable space group: C 2
;
_chemical_formula_sum "Si O2"
_cell_formula_units_Z 26
_cell_length_a 8.887558
_cell_length_b 12.948644
_cell_length_c 14.055335
_cell_angle_alpha 90.000000
_cell_angle_beta 39.855016
_cell_angle_gamma 90.000000
_cell_volume 1036.578927
_symmetry_space_group_name_H-M "C 2"
_symmetry_group_IT_number 5
_symmetry_cell_setting 'monoclinic'
loop_
_space_group_symop_operation_xyz
x,y,z
-x,y,-z
1/2+x,1/2+y,z
1/2-x,1/2+y,-z
loop_
_atom_site_type_symbol
_atom_site_label
_atom_site_fract_x
_atom_site_fract_y
_atom_site_fract_z
Si Si1 0.568561 0.356200 0.763299
Si Si2 0.480162 0.567467 0.266682
Si Si3 0.678582 0.191562 0.996059
Si Si4 0.131261 0.803677 0.334956
Si Si5 0.000000 0.253609 0.500000
Si Si6 0.603722 0.001120 0.790885
Si Si7 0.113092 0.607615 0.590943
O O1 0.525784 0.474566 0.806743
O O2 0.378230 0.276202 0.896875
O O3 0.533421 0.353675 0.666614
O O4 0.833361 0.318745 0.651037
O O5 0.672923 0.546055 0.257395
O O6 0.229470 0.568621 0.438423
O O7 0.570760 0.671803 0.173021
O O8 0.596318 0.076725 0.069970
O O9 0.500000 0.223836 0.000000
O O10 0.000000 0.815661 0.500000
O O11 0.108715 0.682373 0.318541
O O12 0.361063 0.877594 0.216207
O O13 0.181214 0.182084 0.467747
O O14 0.591877 0.024709 0.684539
#
# Coordination Sequence:
#
# PCOD9120039 Si02
#       7
#     4   4   4   4   2   4   4
#     4  10  20  36  62  91 123 162 212 265 308 383
#     4  10  20  34  60  91 123 163 212 250 322 381
#     4  10  19  36  63  87 122 168 210 257 312 383
#     4  10  21  34  60  96 126 155 209 264 317 376
#     4  10  16  32  62  90 112 152 202 256 316 356
#     4  10  17  35  63  92 122 158 212 261 310 382
#     4  11  18  36  64  91 123 160 202 272 315 367
#
# _framework density 25.082511
#
# number of rings (size 3 to 8) (size 9 to 14) (size 15 to 20)
#    0.000    1.846    4.615    2.769    0.000    0.000 
#    4.154    0.000   10.154    0.000    0.000    0.000 
#    0.000    0.000    0.000    0.000    0.000    0.000 
#
# Total GULP energy -72501.075094 kJ/mol
# GULP energy per Si atom -5577.005776 kJ/mol
# Density = 2.502542 g / cm^3
# Si number density = 25.082511 Si / 1000 Ang^3
#
#
#
# Elastic Constant Matrix: (Units=GPa)
#
#
# Indices 1 2 3 4 5 6 
#
# 1 80.0906 27.8219 32.2541 -0.0010 -1.0952 0.0003
# 2 27.8219 121.6558 12.9743 -0.0016 0.8053 0.0008
# 3 32.2541 12.9743 62.4195 -0.0061 6.2461 0.0021
# 4 -0.0010 -0.0016 -0.0061 25.0099 0.0019 -0.4907
# 5 -1.0952 0.8053 6.2461 0.0019 29.2315 -0.0003
# 6 0.0003 0.0008 0.0021 -0.4907 -0.0003 30.0890
#
#
#
# Elastic Compliance Matrix: (Units=1/GPa)
#
#
# Indices 1 2 3 4 5 6 
#
# 1 0.016935 -0.002996 -0.008379 -0.000002 0.002507 0.000001
# 2 -0.002996 0.008937 -0.000280 0.000000 -0.000299 0.000000
# 3 -0.008379 -0.000280 0.020886 0.000005 -0.004769 -0.000001
# 4 -0.000002 0.000000 0.000005 0.039997 -0.000004 0.000652
# 5 0.002507 -0.000299 -0.004769 -0.000004 0.035331 0.000001
# 6 0.000001 0.000000 -0.000001 0.000652 0.000001 0.033245
#
#
# Mechanical properties :
#
#
# Convention : Reuss Voigt Hill
#
# Bulk Modulus (GPa) = 42.64673 45.58517 44.11595
# Shear Modulus (GPa) = 26.81585 29.60712 28.21148
#
# Velocity S-wave (km/s) = 3.27326 3.43941 3.35736
# Velocity P-wave (km/s) = 5.59689 5.82977 5.71452
#
# Compressibility (1/GPa) = 0.02344845
#
# Stress axis : x y z
#
# Youngs Moduli (GPa) = 59.04802 111.89596 47.87954
#
# Poissons Ratio (x) = 0.33524 0.40119
# Poissons Ratio (y) = 0.17691 0.01339
# Poissons Ratio (z) = 0.49478 0.03128
#
# Static dielectric constant tensor:
#      x y z
#    x 2.006080 0.000000 0.006350 
#    y 0.000000 2.056860 0.000000 
#    z 0.006350 0.000000 2.155510 
# 
# From -- ./inp_files/50854.got.cif
#   From: 2010.05.17/outbox.cif.g08.bks.cpg/sg5_26_cif.got.tgz:50854.got - 2010.06.03 18:56:24.
