data_PCOD9120897
_publ_section_title
;
Structure prediction by ZEFSAII (Michael W. Deem and Ramdas Pophale) SiO2 
 PCOD9120897
Probable space group: C 2
;
_chemical_formula_sum "Si O2"
_cell_formula_units_Z 26
_cell_length_a 12.025343
_cell_length_b 8.110685
_cell_length_c 19.960408
_cell_angle_alpha 90.000000
_cell_angle_beta 146.534868
_cell_angle_gamma 90.000000
_cell_volume 1073.530403
_symmetry_space_group_name_H-M "C 2"
_symmetry_group_IT_number 5
_symmetry_cell_setting 'monoclinic'
loop_
_space_group_symop_operation_xyz
x,y,z
-x,y,-z
1/2+x,1/2+y,z
1/2-x,1/2+y,-z
loop_
_atom_site_type_symbol
_atom_site_label
_atom_site_fract_x
_atom_site_fract_y
_atom_site_fract_z
Si Si1 0.462173 0.582300 0.335467
Si Si2 0.837462 0.053056 0.120428
Si Si3 0.211082 0.608018 0.823728
Si Si4 0.000000 0.432706 0.500000
Si Si5 0.279174 0.381391 0.747529
Si Si6 0.584622 0.776667 0.952133
Si Si7 0.331785 0.261115 0.572958
O O1 0.379672 0.561915 0.219463
O O2 0.306626 0.695603 0.298924
O O3 0.532945 0.401689 0.393961
O O4 0.676771 0.678340 0.443900
O O5 0.632766 0.961079 0.998097
O O6 0.003626 0.928270 0.171189
O O7 0.864580 0.226866 0.097609
O O8 0.265391 0.433168 0.818414
O O9 0.282671 0.651620 0.934193
O O10 0.981882 0.645240 0.690148
O O11 0.356121 0.731008 0.854144
O O12 0.125168 0.498661 0.626924
O O13 0.181522 0.338672 0.553113
#
# Coordination Sequence:
#
# PCOD9120897 Si02
#       7
#     4   4   4   2   4   4   4
#     4  11  23  40  70  99 133 181 224 286 354 409
#     4  11  23  45  65  99 134 179 235 284 340 416
#     4  10  21  41  64  91 133 177 226 282 346 406
#     4  10  18  36  62  90 132 166 210 278 344 400
#     4  10  22  38  68  94 129 182 224 276 353 408
#     4  10  23  41  65  91 135 181 223 290 343 399
#     4  11  21  40  67  96 133 178 223 285 351 413
#
# _framework density 24.219155000000001
#
# number of rings (size 3 to 8) (size 9 to 14) (size 15 to 20)
#    0.000    1.538    3.077    1.846    2.154    1.231 
#    0.000    0.000   20.308    0.923    0.000    0.000 
#    0.000    0.000    0.000    0.000    0.000    0.000 
#
# Total GULP energy -72564.710571 kJ/mol
# GULP energy per Si atom -5581.900813 kJ/mol
# Density = 2.416403 g / cm^3
# Si number density = 24.219155 Si / 1000 Ang^3
#
#
#
# Elastic Constant Matrix: (Units=GPa)
#
#
# Indices 1 2 3 4 5 6 
#
# 1 50.2737 12.0766 14.9213 0.0000 0.1423 0.0000
# 2 12.0766 49.8076 11.0523 0.0000 1.8569 0.0000
# 3 14.9213 11.0523 87.1192 0.0001 4.7566 0.0000
# 4 0.0000 0.0000 0.0001 47.5839 0.0001 0.4438
# 5 0.1423 1.8569 4.7566 0.0001 39.6666 0.0000
# 6 0.0000 0.0000 0.0000 0.4438 0.0000 21.1506
#
#
#
# Elastic Compliance Matrix: (Units=1/GPa)
#
#
# Indices 1 2 3 4 5 6 
#
# 1 0.021952 -0.004632 -0.003201 0.000000 0.000522 0.000000
# 2 -0.004632 0.021653 -0.001912 0.000000 -0.000768 0.000000
# 3 -0.003201 -0.001912 0.012345 0.000000 -0.001379 0.000000
# 4 0.000000 0.000000 0.000000 0.021020 0.000000 -0.000441
# 5 0.000522 -0.000768 -0.001379 0.000000 0.025410 0.000000
# 6 0.000000 0.000000 0.000000 -0.000441 0.000000 0.047289
#
#
# Mechanical properties :
#
#
# Convention : Reuss Voigt Hill
#
# Bulk Modulus (GPa) = 27.42638 29.25566 28.34102
# Shear Modulus (GPa) = 27.57691 31.62356 29.60023
#
# Velocity S-wave (km/s) = 3.37804 3.61740 3.49977
# Velocity P-wave (km/s) = 5.15400 5.43629 5.29702
#
# Compressibility (1/GPa) = 0.03646125
#
# Stress axis : x y z
#
# Youngs Moduli (GPa) = 45.55330 46.18262 81.00719
#
# Poissons Ratio (x) = 0.21391 0.25928
# Poissons Ratio (y) = 0.21100 0.15487
# Poissons Ratio (z) = 0.14580 0.08829
#
# Static dielectric constant tensor:
#      x y z
#    x 1.932320 0.000000 0.004560 
#    y 0.000000 2.026230 0.000000 
#    z 0.004560 0.000000 1.943090 
# 
# From -- ./inp_files/68653.got.cif
#   From: 2010.05.17/outbox.cif.g08.bks.cpg/sg5_35_cif.got.tgz:68653.got - 2010.06.03 18:56:24.
