data_PCOD9120246
_publ_section_title
;
Structure prediction by ZEFSAII (Michael W. Deem and Ramdas Pophale) SiO2 
 PCOD9120246
Probable space group: C 2
;
_chemical_formula_sum "Si O2"
_cell_formula_units_Z 26
_cell_length_a 16.514904
_cell_length_b 7.286298
_cell_length_c 16.918609
_cell_angle_alpha 90.000000
_cell_angle_beta 148.817332
_cell_angle_gamma 90.000000
_cell_volume 1054.102982
_symmetry_space_group_name_H-M "C 2"
_symmetry_group_IT_number 5
_symmetry_cell_setting 'monoclinic'
loop_
_space_group_symop_operation_xyz
x,y,z
-x,y,-z
1/2+x,1/2+y,z
1/2-x,1/2+y,-z
loop_
_atom_site_type_symbol
_atom_site_label
_atom_site_fract_x
_atom_site_fract_y
_atom_site_fract_z
Si Si1 0.224881 0.998120 0.946423
Si Si2 0.598429 0.113734 0.772418
Si Si3 0.500000 0.581834 0.500000
Si Si4 0.653694 0.372354 0.480860
Si Si5 0.185074 0.588368 0.151357
Si Si6 0.602434 0.619160 0.285286
Si Si7 0.173659 0.146235 0.173239
O O1 0.164054 0.804940 0.863536
O O2 0.271538 0.102461 0.905217
O O3 0.082089 0.088344 0.875458
O O4 0.364447 0.980155 0.125041
O O5 0.427729 0.175886 0.604126
O O6 0.697714 0.067685 0.778126
O O7 0.562835 0.463817 0.477875
O O8 0.334610 0.666937 0.327095
O O9 0.638762 0.497493 0.392013
O O10 0.831648 0.322805 0.646192
O O11 0.185622 0.370246 0.177268
O O12 0.000000 0.647221 0.000000
O O13 0.684156 0.572153 0.270669
O O14 0.000000 0.101204 0.000000
#
# Coordination Sequence:
#
# PCOD9120246 Si02
#       7
#     4   4   2   4   4   4   4
#     4  10  21  38  61  92 123 155 210 255 312 368
#     4  10  20  37  60  90 121 155 204 259 304 376
#     4  12  18  40  64  90 128 156 222 258 290 388
#     4  11  23  37  60  92 122 164 205 259 313 365
#     4  10  21  36  63  95 114 164 215 255 303 368
#     4  11  21  37  61  89 124 158 204 255 310 368
#     4  10  17  32  63  87 111 156 209 242 300 367
#
# _framework density 24.665521999999999
#
# number of rings (size 3 to 8) (size 9 to 14) (size 15 to 20)
#    0.000    1.538    7.692    0.000    0.000    2.462 
#    0.000    0.000   10.154    0.923    0.000    0.000 
#    0.000    0.000    0.000    0.000    0.000    0.000 
#
# Total GULP energy -72551.806506 kJ/mol
# GULP energy per Si atom -5580.908193 kJ/mol
# Density = 2.460938 g / cm^3
# Si number density = 24.665522 Si / 1000 Ang^3
#
#
#
# Elastic Constant Matrix: (Units=GPa)
#
#
# Indices 1 2 3 4 5 6 
#
# 1 178.3928 36.5245 87.2826 0.0000 -16.2593 0.0000
# 2 36.5245 48.5142 19.1222 0.0000 2.8528 0.0000
# 3 87.2826 19.1222 136.7336 0.0000 11.9376 0.0000
# 4 0.0000 0.0000 0.0000 32.7884 0.0000 -1.0599
# 5 -16.2593 2.8528 11.9376 0.0000 57.7864 0.0000
# 6 0.0000 0.0000 0.0000 -1.0599 0.0000 3.3908
#
#
#
# Elastic Compliance Matrix: (Units=1/GPa)
#
#
# Indices 1 2 3 4 5 6 
#
# 1 0.010082 -0.005461 -0.006052 0.000000 0.004357 0.000000
# 2 -0.005461 0.024785 0.000266 0.000000 -0.002815 0.000000
# 3 -0.006052 0.000266 0.011497 0.000000 -0.004091 0.000000
# 4 0.000000 0.000000 0.000000 0.030810 0.000000 0.009631
# 5 0.004357 -0.002815 -0.004091 0.000000 0.019515 0.000000
# 6 0.000000 0.000000 0.000000 0.009631 0.000000 0.297930
#
#
# Mechanical properties :
#
#
# Convention : Reuss Voigt Hill
#
# Bulk Modulus (GPa) = 41.89678 72.16659 57.03169
# Shear Modulus (GPa) = 11.76275 33.50720 22.63498
#
# Velocity S-wave (km/s) = 2.18615 3.68973 3.03260
# Velocity P-wave (km/s) = 4.83686 6.89012 5.95269
#
# Compressibility (1/GPa) = 0.02386818
#
# Stress axis : x y z
#
# Youngs Moduli (GPa) = 99.18584 40.34740 86.97880
#
# Poissons Ratio (x) = 0.22034 0.52643
# Poissons Ratio (y) = 0.54165 -0.02310
# Poissons Ratio (z) = 0.60032 -0.01072
#
# Static dielectric constant tensor:
#      x y z
#    x 1.901550 0.000000 -0.013540 
#    y 0.000000 2.018570 0.000000 
#    z -0.013540 0.000000 2.089310 
# 
# From -- ./inp_files/54274.got.cif
#   From: 2010.05.17/outbox.cif.g08.bks.cpg/sg5_28_cif.got.tgz:54274.got - 2010.06.03 18:56:24.
