data_PCOD9120489
_publ_section_title
;
Structure prediction by ZEFSAII (Michael W. Deem and Ramdas Pophale) SiO2 
 PCOD9120489
Probable space group: C 2
;
_chemical_formula_sum "Si O2"
_cell_formula_units_Z 32
_cell_length_a 13.352248
_cell_length_b 15.543850
_cell_length_c 13.001682
_cell_angle_alpha 90.000000
_cell_angle_beta 146.846644
_cell_angle_gamma 90.000000
_cell_volume 1475.727017
_symmetry_space_group_name_H-M "C 2"
_symmetry_group_IT_number 5
_symmetry_cell_setting 'monoclinic'
loop_
_space_group_symop_operation_xyz
x,y,z
-x,y,-z
1/2+x,1/2+y,z
1/2-x,1/2+y,-z
loop_
_atom_site_type_symbol
_atom_site_label
_atom_site_fract_x
_atom_site_fract_y
_atom_site_fract_z
Si Si1 0.824100 0.930530 0.030593
Si Si2 0.922160 0.221179 0.707808
Si Si3 0.206445 0.742143 0.312542
Si Si4 0.269096 0.448550 0.671413
Si Si5 0.576221 0.032400 0.701937
Si Si6 0.715738 0.236896 0.083271
Si Si7 0.184962 0.708130 0.695762
Si Si8 0.107667 0.351303 0.002532
O O1 0.020039 0.967188 0.169416
O O2 0.785038 0.841850 0.932520
O O3 0.785723 0.897476 0.111622
O O4 0.674057 0.003917 0.888068
O O5 0.807988 0.213556 0.503915
O O6 0.808179 0.179977 0.703588
O O7 0.127919 0.195221 0.852767
O O8 0.966383 0.317812 0.792574
O O9 0.237905 0.845487 0.342201
O O10 0.259843 0.717500 0.240931
O O11 0.991358 0.717040 0.129132
O O12 0.194415 0.479969 0.717177
O O13 0.128156 0.496662 0.475765
O O14 0.604579 0.128891 0.690892
O O15 0.000000 0.755978 0.500000
O O16 0.312264 0.765841 0.875451
O O17 0.000000 0.399385 0.000000
#
# Coordination Sequence:
#
# PCOD9120489 Si02
#       8
#     4   4   4   4   4   4   4   4
#     4  10  19  34  59  85 121 156 201 263 304 355
#     4  10  21  33  55  78 116 168 197 244 305 363
#     4  10  18  31  55  86 126 149 195 258 311 349
#     4  10  19  30  51  87 117 148 190 245 301 359
#     4  11  21  37  55  85 125 155 197 248 314 364
#     4   9  18  31  51  89 122 153 194 254 302 360
#     4  11  24  40  55  83 131 169 200 250 304 378
#     4   9  21  40  56  86 121 163 215 253 307 363
#
# _framework density 21.684225999999999
#
# number of rings (size 3 to 8) (size 9 to 14) (size 15 to 20)
#    0.000    2.000    2.500    2.250    7.000    3.000 
#    0.000    0.000    0.000    0.000    0.000   10.500 
#    0.000    0.000    0.000    0.000    0.000    0.000 
#
# Total GULP energy -89145.907781 kJ/mol
# GULP energy per Si atom -5571.619236 kJ/mol
# Density = 2.163487 g / cm^3
# Si number density = 21.684226 Si / 1000 Ang^3
#
#
#
# Elastic Constant Matrix: (Units=GPa)
#
#
# Indices 1 2 3 4 5 6 
#
# 1 70.8080 -4.4978 44.1707 -0.0001 -11.4496 -0.0001
# 2 -4.4978 19.1197 20.1231 0.0000 2.2758 0.0000
# 3 44.1707 20.1231 113.6921 -0.0001 0.7543 -0.0001
# 4 -0.0001 0.0000 -0.0001 15.1989 -0.0001 4.6308
# 5 -11.4496 2.2758 0.7543 -0.0001 23.4922 -0.0001
# 6 -0.0001 0.0000 -0.0001 4.6308 -0.0001 8.5409
#
#
#
# Elastic Compliance Matrix: (Units=1/GPa)
#
#
# Indices 1 2 3 4 5 6 
#
# 1 0.025287 0.018509 -0.013173 0.000000 0.010954 0.000000
# 2 0.018509 0.078641 -0.021124 0.000000 0.002081 0.000000
# 3 -0.013173 -0.021124 0.017685 0.000000 -0.004942 0.000000
# 4 0.000000 0.000000 0.000000 0.078814 0.000000 -0.042732
# 5 0.010954 0.002081 -0.004942 0.000000 0.047863 0.000000
# 6 0.000000 0.000000 0.000000 -0.042732 0.000000 0.140253
#
#
# Mechanical properties :
#
#
# Convention : Reuss Voigt Hill
#
# Bulk Modulus (GPa) = 11.10649 35.91242 23.50945
# Shear Modulus (GPa) = 11.10786 19.03466 15.07126
#
# Velocity S-wave (km/s) = 2.26576 2.96600 2.63921
# Velocity P-wave (km/s) = 3.46092 5.32232 4.48915
#
# Compressibility (1/GPa) = 0.09003745
#
# Stress axis : x y z
#
# Youngs Moduli (GPa) = 39.54562 12.71604 56.54430
#
# Poissons Ratio (x) = -0.23536 0.74486
# Poissons Ratio (y) = -0.73196 1.19444
# Poissons Ratio (z) = 0.52094 0.26861
#
# Static dielectric constant tensor:
#      x y z
#    x 1.855210 0.000000 -0.032420 
#    y 0.000000 1.821260 0.000000 
#    z -0.032420 0.000000 1.861490 
# 
# From -- ./inp_files/54913.got.cif
#   From: 2010.05.17/outbox.cif.g08.bks.cpg/sg5_28_cif.got.tgz:54913.got - 2010.06.03 18:56:24.
