data_PCOD9120019
_publ_section_title
;
Structure prediction by ZEFSAII (Michael W. Deem and Ramdas Pophale) SiO2 
 PCOD9120019
Probable space group: C 2
;
_chemical_formula_sum "Si O2"
_cell_formula_units_Z 20
_cell_length_a 13.922453
_cell_length_b 5.092681
_cell_length_c 20.547749
_cell_angle_alpha 90.000000
_cell_angle_beta 149.875485
_cell_angle_gamma 90.000000
_cell_volume 731.184742
_symmetry_space_group_name_H-M "C 2"
_symmetry_group_IT_number 5
_symmetry_cell_setting 'monoclinic'
loop_
_space_group_symop_operation_xyz
x,y,z
-x,y,-z
1/2+x,1/2+y,z
1/2-x,1/2+y,-z
loop_
_atom_site_type_symbol
_atom_site_label
_atom_site_fract_x
_atom_site_fract_y
_atom_site_fract_z
Si Si1 0.764398 0.645300 0.466239
Si Si2 0.727775 0.432358 0.118510
Si Si3 0.637141 0.820214 0.659772
Si Si4 0.841591 0.317572 0.731252
Si Si5 0.862760 0.438343 0.983383
O O1 0.671015 0.402172 0.452904
O O2 0.647825 0.788550 0.340229
O O3 0.937291 0.475815 0.535529
O O4 0.177074 0.035649 0.652610
O O5 0.825128 0.329217 0.240642
O O6 0.784576 0.711536 0.122694
O O7 0.500000 0.475620 0.000000
O O8 0.759953 0.713674 0.928899
O O9 0.791244 0.022462 0.722724
O O10 0.006145 0.394758 0.878124
O O11 0.000000 0.473365 0.000000
#
# Coordination Sequence:
#
# PCOD9120019 Si02
#       5
#     4   4   4   4   4
#     4  12  29  48  61  92 152 196 222 272 351 414
#     4  10  16  31  58 104 137 149 198 296 363 368
#     4  12  22  40  72 102 128 171 238 291 324 401
#     4  12  22  40  72 102 128 171 238 291 324 401
#     4  10  16  31  58 104 137 149 198 296 363 368
#
# _framework density 27.352871
#
# number of rings (size 3 to 8) (size 9 to 14) (size 15 to 20)
#    0.000    0.800    8.000    3.000    0.000    1.600 
#    0.000    0.000    0.000    4.800    0.000    0.000 
#    0.000    0.000    0.000    0.000    0.000    0.000 
#
# Total GULP energy -55932.782925 kJ/mol
# GULP energy per Si atom -5593.278293 kJ/mol
# Density = 2.729061 g / cm^3
# Si number density = 27.352871 Si / 1000 Ang^3
#
#
#
# Elastic Constant Matrix: (Units=GPa)
#
#
# Indices 1 2 3 4 5 6 
#
# 1 135.5620 31.6147 48.0807 -0.0003 -28.5364 0.0011
# 2 31.6147 151.5000 5.8402 -0.0019 -6.5164 0.0069
# 3 48.0807 5.8402 137.3692 0.0007 -38.3058 -0.0006
# 4 -0.0003 -0.0019 0.0007 39.2537 -0.0005 -3.1676
# 5 -28.5364 -6.5164 -38.3058 -0.0005 25.3563 0.0006
# 6 0.0011 0.0069 -0.0006 -3.1676 0.0006 9.2657
#
#
#
# Elastic Compliance Matrix: (Units=1/GPa)
#
#
# Indices 1 2 3 4 5 6 
#
# 1 0.010089 -0.001654 -0.000714 0.000000 0.009851 -0.000001
# 2 -0.001654 0.006955 0.000454 0.000000 0.000611 -0.000005
# 3 -0.000714 0.000454 0.012646 0.000000 0.018417 0.000000
# 4 0.000000 0.000000 0.000000 0.026198 0.000000 0.008956
# 5 0.009851 0.000611 0.018417 0.000000 0.078504 -0.000005
# 6 -0.000001 -0.000005 0.000000 0.008956 -0.000005 0.110987
#
#
# Mechanical properties :
#
#
# Convention : Reuss Voigt Hill
#
# Bulk Modulus (GPa) = 38.66850 66.16692 52.41771
# Shear Modulus (GPa) = 19.39269 37.36818 28.38044
#
# Velocity S-wave (km/s) = 2.66556 3.70016 3.22462
# Velocity P-wave (km/s) = 4.86222 6.51901 5.75060
#
# Compressibility (1/GPa) = 0.02586084
#
# Stress axis : x y z
#
# Youngs Moduli (GPa) = 99.11368 143.78877 79.07619
#
# Poissons Ratio (x) = 0.23786 0.05647
# Poissons Ratio (y) = 0.16395 -0.03588
# Poissons Ratio (z) = 0.07078 -0.06524
#
# Static dielectric constant tensor:
#      x y z
#    x 2.353540 0.000000 0.132640 
#    y 0.000000 2.162380 0.000000 
#    z 0.132640 0.000000 2.245540 
# 
# From -- ./inp_files/60246.got.cif
#   From: 2010.05.17/outbox.cif.g08.bks.cpg/sg5_31_cif.got.tgz:60246.got - 2010.06.03 18:56:24.
