data_PCOD9120245
_publ_section_title
;
Structure prediction by ZEFSAII (Michael W. Deem and Ramdas Pophale) SiO2 
 PCOD9120245
Probable space group: C 2
;
_chemical_formula_sum "Si O2"
_cell_formula_units_Z 32
_cell_length_a 19.533105
_cell_length_b 15.106480
_cell_length_c 14.240554
_cell_angle_alpha 90.000000
_cell_angle_beta 158.363586
_cell_angle_gamma 90.000000
_cell_volume 1549.361349
_symmetry_space_group_name_H-M "C 2"
_symmetry_group_IT_number 5
_symmetry_cell_setting 'monoclinic'
loop_
_space_group_symop_operation_xyz
x,y,z
-x,y,-z
1/2+x,1/2+y,z
1/2-x,1/2+y,-z
loop_
_atom_site_type_symbol
_atom_site_label
_atom_site_fract_x
_atom_site_fract_y
_atom_site_fract_z
Si Si1 0.830126 0.076760 0.542938
Si Si2 0.894437 0.261306 0.583190
Si Si3 0.195795 0.050014 0.125258
Si Si4 0.818266 0.028654 0.309336
Si Si5 0.215527 0.353428 0.743379
Si Si6 0.001183 0.576121 0.353891
Si Si7 0.746806 0.195342 0.079037
Si Si8 0.478453 0.941845 0.780998
O O1 0.772178 0.179801 0.464897
O O2 0.852639 0.050543 0.461803
O O3 0.695039 0.001674 0.409450
O O4 0.007625 0.080177 0.837435
O O5 0.789279 0.309970 0.364603
O O6 0.946111 0.338000 0.723219
O O7 0.080533 0.218319 0.771029
O O8 0.353520 0.067602 0.248837
O O9 0.290973 0.086924 0.341425
O O10 0.181609 0.945595 0.124275
O O11 0.797419 0.119149 0.220505
O O12 0.000000 0.982140 0.500000
O O13 0.640827 0.968536 0.060303
O O14 0.295003 0.284184 0.918531
O O15 0.000000 0.368316 0.500000
O O16 0.976006 0.486035 0.262105
O O17 0.927592 0.656616 0.198274
#
# Coordination Sequence:
#
# PCOD9120245 Si02
#       8
#     4   4   4   4   4   4   4   4
#     4  12  24  42  66  94 138 177 218 267 335 406
#     4  11  20  41  65  95 132 173 220 270 326 393
#     4  11  20  37  65  93 128 170 221 278 324 386
#     4  11  20  42  72  98 124 170 222 282 333 381
#     4  10  17  32  62  96 122 155 220 286 318 367
#     4  10  19  38  61  95 128 168 216 271 333 380
#     4  10  18  34  69 101 120 158 222 284 327 369
#     4  11  25  41  64  97 139 175 213 276 337 398
#
# _framework density 20.653670999999999
#
# number of rings (size 3 to 8) (size 9 to 14) (size 15 to 20)
#    0.000    1.250    6.250    2.250    0.000    0.500 
#    4.500    2.500    2.750    0.000    0.000    0.000 
#    0.000    0.000    0.000    0.000    0.000    0.000 
#
# Total GULP energy -89293.351745 kJ/mol
# GULP energy per Si atom -5580.834484 kJ/mol
# Density = 2.060666 g / cm^3
# Si number density = 20.653671 Si / 1000 Ang^3
#
#
#
# Elastic Constant Matrix: (Units=GPa)
#
#
# Indices 1 2 3 4 5 6 
#
# 1 29.2231 20.1584 11.2289 0.0000 -6.5901 0.0000
# 2 20.1584 92.5316 11.8914 0.0000 -12.8969 0.0000
# 3 11.2289 11.8914 83.7131 0.0000 -27.2513 0.0000
# 4 0.0000 0.0000 0.0000 28.7042 0.0000 -7.4539
# 5 -6.5901 -12.8969 -27.2513 0.0000 26.7666 0.0000
# 6 0.0000 0.0000 0.0000 -7.4539 0.0000 25.5213
#
#
#
# Elastic Compliance Matrix: (Units=1/GPa)
#
#
# Indices 1 2 3 4 5 6 
#
# 1 0.041922 -0.008300 -0.003569 0.000000 0.002689 0.000000
# 2 -0.008300 0.013232 0.000963 0.000000 0.005313 0.000000
# 3 -0.003569 0.000963 0.018177 0.000000 0.018091 0.000000
# 4 0.000000 0.000000 0.000000 0.037697 0.000000 0.011010
# 5 0.002689 0.005313 0.018091 0.000000 0.059001 0.000000
# 6 0.000000 0.000000 0.000000 0.011010 0.000000 0.042399
#
#
# Mechanical properties :
#
#
# Convention : Reuss Voigt Hill
#
# Bulk Modulus (GPa) = 19.40983 32.44724 25.92854
# Shear Modulus (GPa) = 19.88769 27.01101 23.44935
#
# Velocity S-wave (km/s) = 3.10645 3.62028 3.37317
# Velocity P-wave (km/s) = 4.72069 5.76364 5.26804
#
# Compressibility (1/GPa) = 0.05152028
#
# Stress axis : x y z
#
# Youngs Moduli (GPa) = 23.85364 75.57484 55.01532
#
# Poissons Ratio (x) = 0.62724 0.19635
# Poissons Ratio (y) = 0.19797 -0.05299
# Poissons Ratio (z) = 0.08513 -0.07279
#
# Static dielectric constant tensor:
#      x y z
#    x 1.846240 0.000000 0.008460 
#    y 0.000000 1.726040 0.000000 
#    z 0.008460 0.000000 1.764060 
# 
# From -- ./inp_files/20651.got.cif
#   From: 2010.05.17/outbox.cif.g08.bks.cpg/sg5_11_cif.got.tgz:20651.got - 2010.06.03 18:56:24.
