data_PCOD9120779
_publ_section_title
;
Structure prediction by ZEFSAII (Michael W. Deem and Ramdas Pophale) SiO2 
 PCOD9120779
Probable space group: C 2
;
_chemical_formula_sum "Si O2"
_cell_formula_units_Z 24
_cell_length_a 9.948685
_cell_length_b 15.727283
_cell_length_c 12.020876
_cell_angle_alpha 90.000000
_cell_angle_beta 40.529102
_cell_angle_gamma 90.000000
_cell_volume 1222.244409
_symmetry_space_group_name_H-M "C 2"
_symmetry_group_IT_number 5
_symmetry_cell_setting 'monoclinic'
loop_
_space_group_symop_operation_xyz
x,y,z
-x,y,-z
1/2+x,1/2+y,z
1/2-x,1/2+y,-z
loop_
_atom_site_type_symbol
_atom_site_label
_atom_site_fract_x
_atom_site_fract_y
_atom_site_fract_z
Si Si1 0.643518 0.483960 0.249791
Si Si2 0.992415 0.815324 0.628799
Si Si3 0.683410 0.129411 0.232503
Si Si4 0.561688 0.628965 0.147991
Si Si5 0.389649 0.734276 0.460650
Si Si6 0.708158 0.050114 0.615898
O O1 0.645009 0.384404 0.220512
O O2 0.678632 0.549398 0.128906
O O3 0.402000 0.505458 0.432875
O O4 0.786776 0.509656 0.264312
O O5 0.907252 0.720156 0.674535
O O6 0.000000 0.851072 0.500000
O O7 0.222602 0.802407 0.527336
O O8 0.507946 0.059701 0.313540
O O9 0.841627 0.103447 0.230545
O O10 0.802883 0.153223 0.043525
O O11 0.517931 0.698406 0.273000
O O12 0.500000 0.769546 0.500000
O O13 0.278071 0.649020 0.578206
#
# Coordination Sequence:
#
# PCOD9120779 Si02
#       6
#     4   4   4   4   4   4
#     4  10  19  36  58  82 116 141 187 249 276 322
#     4  11  20  36  59  87 113 144 192 244 281 329
#     4  10  22  36  59  85 112 157 191 222 288 341
#     4  10  20  38  58  81 119 151 189 232 274 354
#     4  10  18  35  57  83 109 151 191 231 275 335
#     4   9  17  33  58  83 104 145 195 221 275 332
#
# _framework density 19.636008
#
# number of rings (size 3 to 8) (size 9 to 14) (size 15 to 20)
#    0.000    2.000    6.667    0.000    0.000    0.667 
#    3.000    5.000    3.667    0.000    0.000    0.000 
#    0.000    0.000    0.000    0.000    0.000    0.000 
#
# Total GULP energy -66804.641565 kJ/mol
# GULP energy per Si atom -5567.053464 kJ/mol
# Density = 1.959132 g / cm^3
# Si number density = 19.636008 Si / 1000 Ang^3
#
#
#
# Elastic Constant Matrix: (Units=GPa)
#
#
# Indices 1 2 3 4 5 6 
#
# 1 97.9451 13.2315 22.8261 0.0003 7.4427 -0.0002
# 2 13.2315 62.7317 -2.3996 0.0003 5.0073 -0.0002
# 3 22.8261 -2.3996 41.5870 0.0007 14.0353 -0.0004
# 4 0.0003 0.0003 0.0007 7.4902 -0.0003 3.5185
# 5 7.4427 5.0073 14.0353 -0.0003 28.8058 0.0002
# 6 -0.0002 -0.0002 -0.0004 3.5185 0.0002 18.5592
#
#
#
# Elastic Compliance Matrix: (Units=1/GPa)
#
#
# Indices 1 2 3 4 5 6 
#
# 1 0.012206 -0.002915 -0.007150 0.000000 0.000837 0.000000
# 2 -0.002915 0.017039 0.003984 -0.000001 -0.004150 0.000001
# 3 -0.007150 0.003984 0.033284 -0.000005 -0.015062 0.000002
# 4 0.000000 -0.000001 -0.000005 0.146560 0.000004 -0.027785
# 5 0.000837 -0.004150 -0.015062 0.000004 0.042559 -0.000002
# 6 0.000000 0.000001 0.000002 -0.027785 -0.000002 0.059149
#
#
# Mechanical properties :
#
#
# Convention : Reuss Voigt Hill
#
# Bulk Modulus (GPa) = 19.85456 29.95330 24.90393
# Shear Modulus (GPa) = 14.71671 22.21144 18.46407
#
# Velocity S-wave (km/s) = 2.74062 3.36692 3.06979
# Velocity P-wave (km/s) = 4.48865 5.51382 5.02743
#
# Compressibility (1/GPa) = 0.05036626
#
# Stress axis : x y z
#
# Youngs Moduli (GPa) = 81.92438 58.68771 30.04455
#
# Poissons Ratio (x) = 0.17107 0.21483
# Poissons Ratio (y) = 0.23880 -0.11969
# Poissons Ratio (z) = 0.58579 -0.23379
#
# Static dielectric constant tensor:
#      x y z
#    x 1.737970 0.000000 -0.027470 
#    y 0.000000 1.676330 0.000000 
#    z -0.027470 0.000000 1.723360 
# 
# From -- ./inp_files/36772.got.cif
#   From: 2010.05.17/outbox.cif.g08.bks.cpg/sg5_19_cif.got.tgz:36772.got - 2010.06.03 18:56:24.
