data_PCOD9121370
_publ_section_title
;
Structure prediction by ZEFSAII (Michael W. Deem and Ramdas Pophale) SiO2 
 PCOD9121370
Probable space group: C 2
;
_chemical_formula_sum "Si O2"
_cell_formula_units_Z 24
_cell_length_a 23.292005
_cell_length_b 7.723675
_cell_length_c 17.313499
_cell_angle_alpha 90.000000
_cell_angle_beta 21.475829
_cell_angle_gamma 90.000000
_cell_volume 1140.317379
_symmetry_space_group_name_H-M "C 2"
_symmetry_group_IT_number 5
_symmetry_cell_setting 'monoclinic'
loop_
_space_group_symop_operation_xyz
x,y,z
-x,y,-z
1/2+x,1/2+y,z
1/2-x,1/2+y,-z
loop_
_atom_site_type_symbol
_atom_site_label
_atom_site_fract_x
_atom_site_fract_y
_atom_site_fract_z
Si Si1 0.186154 0.054920 0.334189
Si Si2 0.732185 0.190862 0.084359
Si Si3 0.000000 0.394046 0.000000
Si Si4 0.843797 0.581640 0.986588
Si Si5 0.000000 0.736164 0.500000
Si Si6 0.425140 0.607445 0.366551
Si Si7 0.862496 0.393829 0.324639
O O1 0.085967 0.139615 0.527573
O O2 0.107163 0.869364 0.414963
O O3 0.772804 0.143437 0.798880
O O4 0.353822 0.013436 0.161481
O O5 0.662306 0.181676 0.086001
O O6 0.608062 0.134885 0.304567
O O7 0.781634 0.387396 0.043696
O O8 0.894225 0.085426 0.882041
O O9 0.053210 0.300776 0.854681
O O10 0.018482 0.550491 0.801728
O O11 0.308273 0.454772 0.487980
O O12 0.361181 0.771069 0.399519
#
# Coordination Sequence:
#
# PCOD9121370 Si02
#       7
#     4   4   2   4   2   4   4
#     4   9  17  33  56  77 101 138 175 207 254 317
#     4  10  20  35  54  78 105 137 177 216 256 307
#     4   8  16  32  52  74 100 136 176 208 246 312
#     4   9  19  35  55  79 105 136 175 215 257 309
#     4  10  20  34  54  78 104 142 178 208 258 318
#     4  10  19  33  55  81 105 135 175 217 257 307
#     4   9  19  33  53  77 106 139 175 213 256 306
#
# _framework density 21.046771
#
# number of rings (size 3 to 8) (size 9 to 14) (size 15 to 20)
#    0.000    2.667    0.000    3.000    0.000    4.000 
#    0.000    3.333    0.000   20.000    0.000    0.000 
#    0.000    0.000    0.000    0.000    0.000    0.000 
#
# Total GULP energy -66884.242470 kJ/mol
# GULP energy per Si atom -5573.686872 kJ/mol
# Density = 2.099887 g / cm^3
# Si number density = 21.046771 Si / 1000 Ang^3
#
#
#
# Elastic Constant Matrix: (Units=GPa)
#
#
# Indices 1 2 3 4 5 6 
#
# 1 141.0544 15.6225 74.6314 0.0000 25.6756 0.0000
# 2 15.6225 17.6054 21.1228 0.0000 11.6947 0.0000
# 3 74.6314 21.1228 154.7198 0.0000 26.0229 0.0000
# 4 0.0000 0.0000 0.0000 31.3832 0.0000 -2.9357
# 5 25.6756 11.6947 26.0229 0.0000 56.2542 0.0000
# 6 0.0000 0.0000 0.0000 -2.9357 0.0000 39.0118
#
#
#
# Elastic Compliance Matrix: (Units=1/GPa)
#
#
# Indices 1 2 3 4 5 6 
#
# 1 0.009912 -0.002488 -0.004085 0.000000 -0.002117 0.000000
# 2 -0.002488 0.075008 -0.007166 0.000000 -0.011143 0.000000
# 3 -0.004085 -0.007166 0.009595 0.000000 -0.001084 0.000000
# 4 0.000000 0.000000 0.000000 0.032090 0.000000 0.002415
# 5 -0.002117 -0.011143 -0.001084 0.000000 0.021561 0.000000
# 6 0.000000 0.000000 0.000000 0.002415 0.000000 0.025815
#
#
# Mechanical properties :
#
#
# Convention : Reuss Voigt Hill
#
# Bulk Modulus (GPa) = 14.91738 59.57034 37.24386
# Shear Modulus (GPa) = 22.34096 38.79669 30.56882
#
# Velocity S-wave (km/s) = 3.26159 4.29809 3.81520
# Velocity P-wave (km/s) = 4.61379 7.27988 6.09441
#
# Compressibility (1/GPa) = 0.06703589
#
# Stress axis : x y z
#
# Youngs Moduli (GPa) = 100.88844 13.33193 104.22458
#
# Poissons Ratio (x) = 0.03316 0.42581
# Poissons Ratio (y) = 0.25097 0.74690
# Poissons Ratio (z) = 0.41218 0.09554
#
# Static dielectric constant tensor:
#      x y z
#    x 1.791050 0.000000 0.024120 
#    y 0.000000 1.762850 0.000000 
#    z 0.024120 0.000000 1.823140 
# 
# From -- ./inp_files/19369.got.cif
#   From: 2010.05.17/outbox.cif.g08.bks.cpg/sg5_10_cif.got.tgz:19369.got - 2010.06.03 18:56:24.
