data_PCOD9121077
_publ_section_title
;
Structure prediction by ZEFSAII (Michael W. Deem and Ramdas Pophale) SiO2 
 PCOD9121077
Probable space group: C 2
;
_chemical_formula_sum "Si O2"
_cell_formula_units_Z 18
_cell_length_a 7.178343
_cell_length_b 12.276512
_cell_length_c 10.398415
_cell_angle_alpha 90.000000
_cell_angle_beta 100.830528
_cell_angle_gamma 90.000000
_cell_volume 900.037587
_symmetry_space_group_name_H-M "C 2"
_symmetry_group_IT_number 5
_symmetry_cell_setting 'monoclinic'
loop_
_space_group_symop_operation_xyz
x,y,z
-x,y,-z
1/2+x,1/2+y,z
1/2-x,1/2+y,-z
loop_
_atom_site_type_symbol
_atom_site_label
_atom_site_fract_x
_atom_site_fract_y
_atom_site_fract_z
Si Si1 0.500000 0.900730 0.000000
Si Si2 0.296764 0.311202 0.844214
Si Si3 0.125955 0.163629 0.641844
Si Si4 0.087014 0.050237 0.149594
Si Si5 0.466245 0.087512 0.802918
O O1 0.657707 0.832236 0.945848
O O2 0.412111 0.983697 0.883185
O O3 0.172748 0.285178 0.699971
O O4 0.419773 0.419000 0.843050
O O5 0.414753 0.200401 0.867047
O O6 0.328574 0.100418 0.661656
O O7 0.000000 0.160463 0.500000
O O8 0.020260 0.107234 0.748144
O O9 0.309964 0.078877 0.187374
O O10 0.000000 0.081456 0.000000
#
# Coordination Sequence:
#
# PCOD9121077 Si02
#       5
#     2   4   4   4   4
#     4  10  18  38  66  98 122 166 206 270 316 364
#     4   9  23  40  62  94 128 165 206 259 316 374
#     4  10  23  45  63  94 133 166 211 259 309 382
#     4  11  23  42  68  94 125 167 210 267 319 366
#     4   9  22  42  58  95 128 158 211 261 306 377
#
# _framework density 19.999165000000001
#
# number of rings (size 3 to 8) (size 9 to 14) (size 15 to 20)
#    1.333    0.889    0.000    2.667    3.111    0.889 
#   20.000    0.000    0.000    0.000    0.000    0.000 
#    0.000    0.000    0.000    0.000    0.000    0.000 
#
# Total GULP energy -50159.282859 kJ/mol
# GULP energy per Si atom -5573.253651 kJ/mol
# Density = 1.995365 g / cm^3
# Si number density = 19.999165 Si / 1000 Ang^3
#
#
#
# Elastic Constant Matrix: (Units=GPa)
#
#
# Indices 1 2 3 4 5 6 
#
# 1 92.9100 20.7945 39.1307 0.0000 24.1080 0.0000
# 2 20.7945 88.5512 6.5618 0.0000 -3.0084 0.0000
# 3 39.1307 6.5618 114.5435 0.0000 38.4548 0.0000
# 4 0.0000 0.0000 0.0000 7.1540 0.0000 26.7319
# 5 24.1080 -3.0084 38.4548 0.0000 40.1479 0.0000
# 6 0.0000 0.0000 0.0000 26.7319 0.0000 12.6290
#
#
#
# Elastic Compliance Matrix: (Units=1/GPa)
#
#
# Indices 1 2 3 4 5 6 
#
# 1 0.014239 -0.003373 -0.002529 0.000000 -0.006381 0.000000
# 2 -0.003373 0.012270 -0.000795 0.000000 0.003706 0.000000
# 3 -0.002529 -0.000795 0.013487 0.000000 -0.011459 0.000000
# 4 0.000000 0.000000 0.000000 -0.020231 0.000000 0.042823
# 5 -0.006381 0.003706 -0.011459 0.000000 0.039993 0.000000
# 6 0.000000 0.000000 0.000000 0.042823 0.000000 -0.011460
#
#
# Mechanical properties :
#
#
# Convention : Reuss Voigt Hill
#
# Bulk Modulus (GPa) = 37.59157 47.66430 42.62794
# Shear Modulus (GPa) = 70.86351 27.28736 49.07544
#
# Velocity S-wave (km/s) = 5.95904 3.69782 4.95903
# Velocity P-wave (km/s) = 8.13537 6.48974 7.35870
#
# Compressibility (1/GPa) = 0.02660171
#
# Stress axis : x y z
#
# Youngs Moduli (GPa) = 70.23083 81.50084 74.14621
#
# Poissons Ratio (x) = 0.27491 0.18751
# Poissons Ratio (y) = 0.23689 0.05893
# Poissons Ratio (z) = 0.17761 0.06478
#
# Static dielectric constant tensor:
#      x y z
#    x 1.798190 0.000000 0.049610 
#    y 0.000000 1.719080 0.000000 
#    z 0.049610 0.000000 1.713930 
# 
# From -- ./inp_files/14064.got.cif
#   From: 2010.05.17/outbox.cif.g08.bks.cpg/sg5_8_cif.got.tgz:14064.got - 2010.06.03 18:56:24.
