data_PCOD9121729
_publ_section_title
;
Structure prediction by ZEFSAII (Michael W. Deem and Ramdas Pophale) SiO2 
 PCOD9121729
Probable space group: C 2
;
_chemical_formula_sum "Si O2"
_cell_formula_units_Z 32
_cell_length_a 13.598532
_cell_length_b 20.241436
_cell_length_c 7.552152
_cell_angle_alpha 90.000000
_cell_angle_beta 139.103865
_cell_angle_gamma 90.000000
_cell_volume 1360.942137
_symmetry_space_group_name_H-M "C 2"
_symmetry_group_IT_number 5
_symmetry_cell_setting 'monoclinic'
loop_
_space_group_symop_operation_xyz
x,y,z
-x,y,-z
1/2+x,1/2+y,z
1/2-x,1/2+y,-z
loop_
_atom_site_type_symbol
_atom_site_label
_atom_site_fract_x
_atom_site_fract_y
_atom_site_fract_z
Si Si1 0.756884 0.169170 0.533499
Si Si2 0.904876 0.311938 0.117022
Si Si3 0.331574 0.528964 0.979692
Si Si4 0.699988 0.025654 0.407008
Si Si5 0.734842 0.809412 0.463805
Si Si6 0.609184 0.671316 0.909355
Si Si7 0.075250 0.926716 0.418675
Si Si8 0.074093 0.454697 0.786791
O O1 0.685486 0.103849 0.349852
O O2 0.689899 0.239666 0.387399
O O3 0.934472 0.176693 0.729265
O O4 0.768229 0.165672 0.763857
O O5 0.863575 0.241566 0.151836
O O6 0.843666 0.385720 0.059995
O O7 0.085872 0.322798 0.378021
O O8 0.845339 0.299238 0.836877
O O9 0.295761 0.531047 0.721161
O O10 0.181762 0.513518 0.880576
O O11 0.391048 0.595662 0.152468
O O12 0.442852 0.467950 0.149501
O O13 0.792621 0.982381 0.392394
O O14 0.551815 0.983669 0.253566
O O15 0.851395 0.868450 0.597008
O O16 0.000000 0.903586 0.500000
O O17 0.000000 0.437586 0.500000
#
# Coordination Sequence:
#
# PCOD9121729 Si02
#       8
#     4   4   4   4   4   4   4   4
#     4   8  14  29  53  77  95 133 181 222 257 308
#     4   9  16  32  52  75 105 141 175 218 262 320
#     4  10  20  35  54  80 111 138 181 229 268 315
#     4  10  19  36  57  77 105 145 182 220 270 319
#     4   9  18  31  53  78 103 139 177 217 268 316
#     4   8  14  27  53  76  98 132 180 220 261 305
#     4  12  22  33  51  85 116 138 177 224 276 325
#     4  10  20  33  52  79 108 141 180 218 269 330
#
# _framework density 23.513121000000002
#
# number of rings (size 3 to 8) (size 9 to 14) (size 15 to 20)
#    0.000    2.500    2.500    2.625    0.000    0.000 
#    0.000    6.250    0.000    0.000    0.000    5.250 
#    0.000    0.000    0.000    0.000    0.000    0.000 
#
# Total GULP energy -89082.071651 kJ/mol
# GULP energy per Si atom -5567.629478 kJ/mol
# Density = 2.345960 g / cm^3
# Si number density = 23.513121 Si / 1000 Ang^3
#
#
#
# Elastic Constant Matrix: (Units=GPa)
#
#
# Indices 1 2 3 4 5 6 
#
# 1 44.6778 14.4206 5.2041 0.0000 10.6796 0.0000
# 2 14.4206 201.2234 13.7773 0.0000 8.4595 0.0000
# 3 5.2041 13.7773 25.7274 0.0000 0.6884 0.0000
# 4 0.0000 0.0000 0.0000 90.6619 0.0000 69.4176
# 5 10.6796 8.4595 0.6884 0.0000 20.8904 0.0000
# 6 0.0000 0.0000 0.0000 69.4176 0.0000 78.9385
#
#
#
# Elastic Compliance Matrix: (Units=1/GPa)
#
#
# Indices 1 2 3 4 5 6 
#
# 1 0.026313 -0.001041 -0.004420 0.000000 -0.012885 0.000000
# 2 -0.001041 0.005285 -0.002579 0.000000 -0.001523 0.000000
# 3 -0.004420 -0.002579 0.041092 0.000000 0.001950 0.000000
# 4 0.000000 0.000000 0.000000 0.033765 0.000000 -0.029692
# 5 -0.012885 -0.001523 0.001950 0.000000 0.055008 0.000000
# 6 0.000000 0.000000 0.000000 -0.029692 0.000000 0.038779
#
#
# Mechanical properties :
#
#
# Convention : Reuss Voigt Hill
#
# Bulk Modulus (GPa) = 17.66484 37.60363 27.63423
# Shear Modulus (GPa) = 21.25920 53.97994 37.61957
#
# Velocity S-wave (km/s) = 3.01016 4.79658 4.00426
# Velocity P-wave (km/s) = 4.42837 6.83400 5.75821
#
# Compressibility (1/GPa) = 0.05660962
#
# Stress axis : x y z
#
# Youngs Moduli (GPa) = 38.00352 189.22168 24.33565
#
# Poissons Ratio (x) = 0.19706 0.10757
# Poissons Ratio (y) = 0.03958 0.06275
# Poissons Ratio (z) = 0.16798 0.48794
#
# Static dielectric constant tensor:
#      x y z
#    x 1.927720 0.000000 0.004580 
#    y 0.000000 2.026150 0.000000 
#    z 0.004580 0.000000 1.668420 
# 
# From -- ./inp_files/25432.got.cif
#   From: 2010.05.17/outbox.cif.g08.bks.cpg/sg5_13_cif.got.tgz:25432.got - 2010.06.03 18:56:24.
