data_PCOD9121335
_publ_section_title
;
Structure prediction by ZEFSAII (Michael W. Deem and Ramdas Pophale) SiO2 
 PCOD9121335
Probable space group: C 2
;
_chemical_formula_sum "Si O2"
_cell_formula_units_Z 24
_cell_length_a 24.647039
_cell_length_b 8.727030
_cell_length_c 18.854771
_cell_angle_alpha 90.000000
_cell_angle_beta 19.019372
_cell_angle_gamma 90.000000
_cell_volume 1321.662638
_symmetry_space_group_name_H-M "C 2"
_symmetry_group_IT_number 5
_symmetry_cell_setting 'monoclinic'
loop_
_space_group_symop_operation_xyz
x,y,z
-x,y,-z
1/2+x,1/2+y,z
1/2-x,1/2+y,-z
loop_
_atom_site_type_symbol
_atom_site_label
_atom_site_fract_x
_atom_site_fract_y
_atom_site_fract_z
Si Si1 0.897231 0.055800 0.360192
Si Si2 0.075575 0.423061 0.682305
Si Si3 0.267639 0.061300 0.140894
Si Si4 0.234520 0.400852 0.349829
Si Si5 0.576535 0.391657 0.015626
Si Si6 0.915731 0.068860 0.497312
O O1 0.903485 0.239759 0.347463
O O2 0.919899 0.002579 0.413164
O O3 0.719107 0.996693 0.553172
O O4 0.033896 0.987978 0.137783
O O5 0.110731 0.482159 0.558285
O O6 0.900568 0.464606 0.932840
O O7 0.211308 0.998229 0.287880
O O8 0.097808 0.073486 0.306403
O O9 0.348907 0.228202 0.053977
O O10 0.401184 0.369142 0.190574
O O11 0.149035 0.242237 0.433345
O O12 0.300478 0.469499 0.194242
#
# Coordination Sequence:
#
# PCOD9121335 Si02
#       6
#     4   4   4   4   4   4
#     4  10  20  34  52  76 102 129 164 204 248 294
#     4  10  19  33  51  74 102 132 163 204 246 291
#     4  10  19  33  53  74  98 132 170 203 241 291
#     4   8  16  32  53  74  99 127 161 201 245 296
#     4   9  17  33  56  77  97 126 164 205 246 295
#     4   9  19  33  51  73 100 134 168 199 242 299
#
# _framework density 18.158947000000001
#
# number of rings (size 3 to 8) (size 9 to 14) (size 15 to 20)
#    0.000    2.667    0.000    3.000    0.000    4.667 
#    0.000    8.333    0.000    8.000    0.000    0.000 
#    0.000    0.000    0.000    0.000    0.000    0.000 
#
# Total GULP energy -66805.841588 kJ/mol
# GULP energy per Si atom -5567.153466 kJ/mol
# Density = 1.811762 g / cm^3
# Si number density = 18.158947 Si / 1000 Ang^3
#
#
#
# Elastic Constant Matrix: (Units=GPa)
#
#
# Indices 1 2 3 4 5 6 
#
# 1 97.1025 13.6674 74.4838 0.0000 42.2688 0.0000
# 2 13.6674 33.6645 33.7694 0.0000 12.4132 0.0000
# 3 74.4838 33.7694 147.8207 0.0000 46.1642 0.0000
# 4 0.0000 0.0000 0.0000 15.7698 0.0000 9.1628
# 5 42.2688 12.4132 46.1642 0.0000 32.2266 0.0000
# 6 0.0000 0.0000 0.0000 9.1628 0.0000 16.9528
#
#
#
# Elastic Compliance Matrix: (Units=1/GPa)
#
#
# Indices 1 2 3 4 5 6 
#
# 1 0.026193 0.005432 -0.005531 0.000000 -0.028525 0.000000
# 2 0.005432 0.039955 -0.008746 0.000000 -0.009986 0.000000
# 3 -0.005531 -0.008746 0.014896 0.000000 -0.010715 0.000000
# 4 0.000000 0.000000 0.000000 0.092444 0.000000 -0.049965
# 5 -0.028525 -0.009986 -0.010715 0.000000 0.087640 0.000000
# 6 0.000000 0.000000 0.000000 -0.049965 0.000000 0.085993
#
#
# Mechanical properties :
#
#
# Convention : Reuss Voigt Hill
#
# Bulk Modulus (GPa) = 15.78416 58.04766 36.91591
# Shear Modulus (GPa) = 12.95572 23.43431 18.19502
#
# Velocity S-wave (km/s) = 2.67397 3.59626 3.16885
# Velocity P-wave (km/s) = 4.27137 7.01997 5.81053
#
# Compressibility (1/GPa) = 0.06335467
#
# Stress axis : x y z
#
# Youngs Moduli (GPa) = 38.17786 25.02806 67.13063
#
# Poissons Ratio (x) = -0.13595 0.37130
# Poissons Ratio (y) = -0.20738 0.58713
# Poissons Ratio (z) = 0.21116 0.21890
#
# Static dielectric constant tensor:
#      x y z
#    x 1.647410 0.000000 0.056650 
#    y 0.000000 1.601550 0.000000 
#    z 0.056650 0.000000 1.665360 
# 
# From -- ./inp_files/26499.got.cif
#   From: 2010.05.17/outbox.cif.g08.bks.cpg/sg5_14_cif.got.tgz:26499.got - 2010.06.03 18:56:24.
