data_PCOD9121703
_publ_section_title
;
Structure prediction by ZEFSAII (Michael W. Deem and Ramdas Pophale) SiO2 
 PCOD9121703
Probable space group: C 2
;
_chemical_formula_sum "Si O2"
_cell_formula_units_Z 26
_cell_length_a 11.880204
_cell_length_b 7.706675
_cell_length_c 25.757893
_cell_angle_alpha 90.000000
_cell_angle_beta 25.339310
_cell_angle_gamma 90.000000
_cell_volume 1009.305795
_symmetry_space_group_name_H-M "C 2"
_symmetry_group_IT_number 5
_symmetry_cell_setting 'monoclinic'
loop_
_space_group_symop_operation_xyz
x,y,z
-x,y,-z
1/2+x,1/2+y,z
1/2-x,1/2+y,-z
loop_
_atom_site_type_symbol
_atom_site_label
_atom_site_fract_x
_atom_site_fract_y
_atom_site_fract_z
Si Si1 0.305470 0.115370 0.901226
Si Si2 0.053744 0.553493 0.263638
Si Si3 0.500000 0.593651 0.500000
Si Si4 0.160061 0.108057 0.757194
Si Si5 0.631577 0.253648 0.020204
Si Si6 0.524713 0.655489 0.271246
Si Si7 0.597872 0.483048 0.345986
O O1 0.262795 0.139755 0.857482
O O2 0.285936 0.258846 0.953574
O O3 0.617184 0.073911 0.771000
O O4 0.166437 0.941276 0.980034
O O5 0.793205 0.671218 0.375281
O O6 0.207658 0.501877 0.251898
O O7 0.954919 0.358626 0.289976
O O8 0.468583 0.504367 0.456143
O O9 0.333442 0.282906 0.691426
O O10 0.131319 0.056302 0.709445
O O11 0.861592 0.146622 0.897196
O O12 0.345427 0.166074 0.132291
O O13 0.459358 0.575925 0.354720
#
# Coordination Sequence:
#
# PCOD9121703 Si02
#       7
#     4   4   2   4   4   4   4
#     4   9  19  38  58  91 120 168 204 251 299 379
#     4  11  23  41  68  86 130 162 215 256 317 355
#     4  10  20  46  68  86 122 174 196 278 312 350
#     4  11  22  40  62  96 126 165 206 255 303 388
#     4  10  19  35  65  87 130 169 198 243 319 359
#     4  11  21  41  64  93 130 163 203 259 302 385
#     4   9  21  41  64  88 125 157 212 256 312 356
#
# _framework density 25.760280999999999
#
# number of rings (size 3 to 8) (size 9 to 14) (size 15 to 20)
#    0.000    1.846    4.615    1.385    0.000    3.077 
#   11.077    0.000    0.000    0.000    0.000    0.000 
#    0.000    0.000    0.000    0.000    0.000    0.000 
#
# Total GULP energy -72512.507757 kJ/mol
# GULP energy per Si atom -5577.885212 kJ/mol
# Density = 2.570165 g / cm^3
# Si number density = 25.760281 Si / 1000 Ang^3
#
#
#
# Elastic Constant Matrix: (Units=GPa)
#
#
# Indices 1 2 3 4 5 6 
#
# 1 211.6165 23.0900 49.6254 -0.0002 20.3563 0.0006
# 2 23.0900 53.1313 13.5750 0.0007 13.9238 0.0003
# 3 49.6254 13.5750 69.4407 -0.0059 35.8032 0.0010
# 4 -0.0002 0.0007 -0.0059 1.2630 0.0005 5.1133
# 5 20.3563 13.9238 35.8032 0.0005 41.9371 0.0002
# 6 0.0006 0.0003 0.0010 5.1133 0.0002 32.5334
#
#
#
# Elastic Compliance Matrix: (Units=1/GPa)
#
#
# Indices 1 2 3 4 5 6 
#
# 1 0.005869 -0.001809 -0.004790 -0.000059 0.001841 0.000009
# 2 -0.001809 0.021204 0.000580 -0.000016 -0.006657 0.000002
# 3 -0.004790 0.000580 0.029672 0.000410 -0.023200 -0.000065
# 4 -0.000059 -0.000016 0.000410 2.177007 -0.000339 -0.342160
# 5 0.001841 -0.006657 -0.023200 -0.000339 0.044968 0.000054
# 6 0.000009 0.000002 -0.000065 -0.342160 0.000054 0.084515
#
#
# Mechanical properties :
#
#
# Convention : Reuss Voigt Hill
#
# Bulk Modulus (GPa) = 22.36777 56.30770 39.33774
# Shear Modulus (GPa) = 2.09190 31.67323 16.88256
#
# Velocity S-wave (km/s) = 0.90212 3.51028 2.56280
# Velocity P-wave (km/s) = 3.12842 6.19154 4.90521
#
# Compressibility (1/GPa) = 0.04470718
#
# Stress axis : x y z
#
# Youngs Moduli (GPa) = 170.38384 47.16107 33.70162
#
# Poissons Ratio (x) = 0.08533 0.16143
# Poissons Ratio (y) = 0.30827 -0.01955
# Poissons Ratio (z) = 0.81613 -0.02736
#
# Static dielectric constant tensor:
#      x y z
#    x 2.243950 0.000000 0.051640 
#    y 0.000000 2.007840 0.000000 
#    z 0.051640 0.000000 2.059770 
# 
# From -- ./inp_files/68262.got.cif
#   From: 2010.05.17/outbox.cif.g08.bks.cpg/sg5_35_cif.got.tgz:68262.got - 2010.06.03 18:56:24.
