data_PCOD9121943
_publ_section_title
;
Structure prediction by ZEFSAII (Michael W. Deem and Ramdas Pophale) SiO2 
 PCOD9121943
Probable space group: C 2
;
_chemical_formula_sum "Si O2"
_cell_formula_units_Z 24
_cell_length_a 18.584142
_cell_length_b 8.796896
_cell_length_c 7.808466
_cell_angle_alpha 90.000000
_cell_angle_beta 126.050922
_cell_angle_gamma 90.000000
_cell_volume 1032.083052
_symmetry_space_group_name_H-M "C 2"
_symmetry_group_IT_number 5
_symmetry_cell_setting 'monoclinic'
loop_
_space_group_symop_operation_xyz
x,y,z
-x,y,-z
1/2+x,1/2+y,z
1/2-x,1/2+y,-z
loop_
_atom_site_type_symbol
_atom_site_label
_atom_site_fract_x
_atom_site_fract_y
_atom_site_fract_z
Si Si1 0.315182 0.125000 0.060547
Si Si2 0.181227 0.500889 0.402876
Si Si3 0.010625 0.208293 0.814913
Si Si4 0.190815 0.307902 0.063902
Si Si5 0.003471 0.565707 0.296967
Si Si6 0.677498 0.689133 0.568192
O O1 0.285523 0.225680 0.179475
O O2 0.413881 0.158299 0.126939
O O3 0.237092 0.152596 0.814888
O O4 0.314634 0.943710 0.082484
O O5 0.172658 0.398990 0.215683
O O6 0.096109 0.604728 0.333347
O O7 0.269904 0.598597 0.506957
O O8 0.185243 0.367886 0.546126
O O9 0.005964 0.391114 0.779145
O O10 0.927158 0.147432 0.589060
O O11 0.114156 0.183204 0.922111
O O12 0.000000 0.172307 0.000000
O O13 0.000000 0.567350 0.500000
#
# Coordination Sequence:
#
# PCOD9121943 Si02
#       6
#     4   4   4   4   4   4
#     4  10  24  38  62  95 125 164 212 268 307 378
#     4  10  22  41  65  92 127 167 211 262 313 381
#     4  10  19  37  61  91 118 163 211 253 303 379
#     4  10  21  40  64  90 129 163 210 260 319 371
#     4  10  22  37  64  91 123 165 219 252 311 374
#     4  10  22  37  63  92 127 163 216 257 317 368
#
# _framework density 23.253941999999999
#
# number of rings (size 3 to 8) (size 9 to 14) (size 15 to 20)
#    0.000    2.000    3.333    0.000   11.667    0.000 
#    0.000    1.667    0.000    0.000    0.000    0.000 
#    0.000    0.000    0.000    0.000    0.000    0.000 
#
# Total GULP energy -66857.642343 kJ/mol
# GULP energy per Si atom -5571.470195 kJ/mol
# Density = 2.320102 g / cm^3
# Si number density = 23.253942 Si / 1000 Ang^3
#
#
#
# Elastic Constant Matrix: (Units=GPa)
#
#
# Indices 1 2 3 4 5 6 
#
# 1 158.9063 41.7737 50.1323 0.0000 30.2018 0.0000
# 2 41.7737 23.2911 15.5024 0.0000 12.0175 0.0000
# 3 50.1323 15.5024 122.6432 0.0000 9.8043 0.0000
# 4 0.0000 0.0000 0.0000 25.8921 0.0000 9.1773
# 5 30.2018 12.0175 9.8043 0.0000 53.7938 0.0000
# 6 0.0000 0.0000 0.0000 9.1773 0.0000 37.0027
#
#
#
# Elastic Compliance Matrix: (Units=1/GPa)
#
#
# Indices 1 2 3 4 5 6 
#
# 1 0.012804 -0.020143 -0.002509 0.000000 -0.002231 0.000000
# 2 -0.020143 0.083935 -0.001807 0.000000 -0.007113 0.000000
# 3 -0.002509 -0.001807 0.009400 0.000000 0.000099 0.000000
# 4 0.000000 0.000000 0.000000 0.042344 0.000000 -0.010502
# 5 -0.002231 -0.007113 0.000099 0.000000 0.021413 0.000000
# 6 0.000000 0.000000 0.000000 -0.010502 0.000000 0.029630
#
#
# Mechanical properties :
#
#
# Convention : Reuss Voigt Hill
#
# Bulk Modulus (GPa) = 17.47642 57.73971 37.60807
# Shear Modulus (GPa) = 18.69024 36.49985 27.59504
#
# Velocity S-wave (km/s) = 2.83812 3.96614 3.44856
# Velocity P-wave (km/s) = 4.27453 6.77183 5.66257
#
# Compressibility (1/GPa) = 0.05721995
#
# Stress axis : x y z
#
# Youngs Moduli (GPa) = 78.10023 11.91393 106.38354
#
# Poissons Ratio (x) = 0.23998 0.26695
# Poissons Ratio (y) = 1.57319 0.19225
# Poissons Ratio (z) = 0.19598 0.02153
#
# Static dielectric constant tensor:
#      x y z
#    x 2.032780 0.000000 -0.005900 
#    y 0.000000 1.874050 0.000000 
#    z -0.005900 0.000000 2.036240 
# 
# From -- ./inp_files/27311.got.cif
#   From: 2010.05.17/outbox.cif.g08.bks.cpg/sg5_14_cif.got.tgz:27311.got - 2010.06.03 18:56:24.
