data_PCOD9121921
_publ_section_title
;
Structure prediction by ZEFSAII (Michael W. Deem and Ramdas Pophale) SiO2 
 PCOD9121921
Probable space group: C 2
;
_chemical_formula_sum "Si O2"
_cell_formula_units_Z 28
_cell_length_a 14.389388
_cell_length_b 5.654916
_cell_length_c 14.210092
_cell_angle_alpha 90.000000
_cell_angle_beta 73.489826
_cell_angle_gamma 90.000000
_cell_volume 1108.611769
_symmetry_space_group_name_H-M "C 2"
_symmetry_group_IT_number 5
_symmetry_cell_setting 'monoclinic'
loop_
_space_group_symop_operation_xyz
x,y,z
-x,y,-z
1/2+x,1/2+y,z
1/2-x,1/2+y,-z
loop_
_atom_site_type_symbol
_atom_site_label
_atom_site_fract_x
_atom_site_fract_y
_atom_site_fract_z
Si Si1 0.038401 0.103720 0.578796
Si Si2 0.242605 0.016608 0.092928
Si Si3 0.984991 0.022927 0.894633
Si Si4 0.783816 0.368223 0.536770
Si Si5 0.490783 0.908152 0.754077
Si Si6 0.134403 0.786717 0.708676
Si Si7 0.210526 0.533344 0.135678
O O1 0.103856 0.304889 0.510485
O O2 0.000000 0.964916 0.500000
O O3 0.971215 0.223776 0.676250
O O4 0.097104 0.929023 0.628021
O O5 0.270303 0.773406 0.137674
O O6 0.128129 0.986236 0.100292
O O7 0.252200 0.268980 0.141469
O O8 0.296491 0.027202 0.977128
O O9 0.066204 0.879473 0.812870
O O10 0.998790 0.288134 0.853464
O O11 0.000000 0.988111 0.000000
O O12 0.762264 0.634190 0.504693
O O13 0.747072 0.334067 0.655464
O O14 0.394200 0.062081 0.787217
O O15 0.594991 0.023167 0.707051
#
# Coordination Sequence:
#
# PCOD9121921 Si02
#       7
#     4   4   4   4   4   4   4
#     4  10  22  39  62  93 125 159 207 266 318 374
#     4   9  17  32  52  79 108 152 185 241 288 345
#     4  10  21  36  57  84 121 157 207 250 299 364
#     4  10  20  39  65  92 126 169 206 256 323 383
#     4  10  19  37  60  82 115 161 201 251 313 371
#     4  10  20  38  64  85 122 168 205 250 320 380
#     4   9  17  31  56  77 108 146 197 229 294 353
#
# _framework density 25.256813999999999
#
# number of rings (size 3 to 8) (size 9 to 14) (size 15 to 20)
#    0.000    2.286    2.857    0.000    0.000    1.143 
#    2.571    0.000    3.143    0.000    0.000    0.000 
#    0.000    0.000    0.000    0.000    0.000    0.000 
#
# Total GULP energy -78009.592723 kJ/mol
# GULP energy per Si atom -5572.113766 kJ/mol
# Density = 2.519933 g / cm^3
# Si number density = 25.256814 Si / 1000 Ang^3
#
#
#
# Elastic Constant Matrix: (Units=GPa)
#
#
# Indices 1 2 3 4 5 6 
#
# 1 73.6359 4.3308 29.9077 0.0000 -11.5479 0.0000
# 2 4.3308 126.8731 15.3766 0.0000 -3.0776 0.0000
# 3 29.9077 15.3766 152.1658 0.0000 -16.0298 0.0000
# 4 0.0000 0.0000 0.0000 29.9092 0.0000 -32.2364
# 5 -11.5479 -3.0776 -16.0298 0.0000 39.4034 0.0000
# 6 0.0000 0.0000 0.0000 -32.2364 0.0000 8.8032
#
#
#
# Elastic Compliance Matrix: (Units=1/GPa)
#
#
# Indices 1 2 3 4 5 6 
#
# 1 0.015179 -0.000119 -0.002616 0.000000 0.003375 0.000000
# 2 -0.000119 0.007984 -0.000754 0.000000 0.000282 0.000000
# 3 -0.002616 -0.000754 0.007392 0.000000 0.002182 0.000000
# 4 0.000000 0.000000 0.000000 -0.011346 0.000000 -0.041548
# 5 0.003375 0.000282 0.002182 0.000000 0.027277 0.000000
# 6 0.000000 0.000000 0.000000 -0.041548 0.000000 -0.038548
#
#
# Mechanical properties :
#
#
# Convention : Reuss Voigt Hill
#
# Bulk Modulus (GPa) = 42.41300 50.21168 46.31234
# Shear Modulus (GPa) = 219.54334 35.82713 127.68523
#
# Velocity S-wave (km/s) = 9.33344 3.77040 7.11790
# Velocity P-wave (km/s) = 11.53169 6.23524 9.26979
#
# Compressibility (1/GPa) = 0.02357768
#
# Stress axis : x y z
#
# Youngs Moduli (GPa) = 65.88022 125.24827 135.28342
#
# Poissons Ratio (x) = 0.01494 0.35387
# Poissons Ratio (y) = 0.00786 0.10196
# Poissons Ratio (z) = 0.17233 0.09439
#
# Static dielectric constant tensor:
#      x y z
#    x 2.177140 0.000000 -0.021950 
#    y 0.000000 2.088420 0.000000 
#    z -0.021950 0.000000 2.023310 
# 
# From -- ./inp_files/55272.got.cif
#   From: 2010.05.17/outbox.cif.g08.bks.cpg/sg5_28_cif.got.tgz:55272.got - 2010.06.03 18:56:24.
