data_PCOD9121293
_publ_section_title
;
Structure prediction by ZEFSAII (Michael W. Deem and Ramdas Pophale) SiO2 
 PCOD9121293
Probable space group: C 2
;
_chemical_formula_sum "Si O2"
_cell_formula_units_Z 32
_cell_length_a 13.497740
_cell_length_b 24.796076
_cell_length_c 13.282397
_cell_angle_alpha 90.000000
_cell_angle_beta 157.819206
_cell_angle_gamma 90.000000
_cell_volume 1678.310878
_symmetry_space_group_name_H-M "C 2"
_symmetry_group_IT_number 5
_symmetry_cell_setting 'monoclinic'
loop_
_space_group_symop_operation_xyz
x,y,z
-x,y,-z
1/2+x,1/2+y,z
1/2-x,1/2+y,-z
loop_
_atom_site_type_symbol
_atom_site_label
_atom_site_fract_x
_atom_site_fract_y
_atom_site_fract_z
Si Si1 0.895490 0.448520 0.273917
Si Si2 0.992950 0.486159 0.847691
Si Si3 0.982663 0.923147 0.377556
Si Si4 0.277337 0.068092 0.215377
Si Si5 0.593129 0.382879 0.257758
Si Si6 0.562197 0.656977 0.442036
Si Si7 0.903839 0.602525 0.106851
Si Si8 0.270351 0.270919 0.702458
O O1 0.969977 0.472649 0.234687
O O2 0.798672 0.502606 0.237130
O O3 0.158918 0.416767 0.551617
O O4 0.662496 0.406463 0.037361
O O5 0.089699 0.547089 0.951377
O O6 0.691596 0.472280 0.585565
O O7 0.192344 0.446097 0.089855
O O8 0.000000 0.892098 0.500000
O O9 0.062181 0.893478 0.348735
O O10 0.500000 0.088838 0.500000
O O11 0.318703 0.088552 0.140655
O O12 0.000000 0.083777 0.000000
O O13 0.626992 0.320181 0.267216
O O14 0.500000 0.642785 0.500000
O O15 0.674111 0.717873 0.552607
O O16 0.797691 0.622501 0.617025
O O17 0.297755 0.644962 0.131523
O O18 0.000000 0.290107 0.500000
O O19 0.500000 0.257422 0.000000
#
# Coordination Sequence:
#
# PCOD9121293 Si02
#       8
#     4   4   4   4   4   4   4   4
#     4   9  19  33  50  77 111 145 181 218 257 315
#     4   9  19  32  48  75 108 141 179 216 257 315
#     4  10  19  32  51  77 112 146 177 216 263 323
#     4  11  22  36  56  84 119 155 189 224 269 332
#     4  10  20  35  54  79 110 145 182 222 273 327
#     4  11  23  39  58  82 108 140 186 240 293 337
#     4  11  22  38  58  82 113 149 187 230 282 336
#     4  11  23  39  58  82 108 137 181 234 287 335
#
# _framework density 19.066790000000001
#
# number of rings (size 3 to 8) (size 9 to 14) (size 15 to 20)
#    0.000    1.750    0.000    5.250    0.000   10.000 
#    0.000    0.000    0.000    2.250    0.000    1.750 
#    0.000    0.000    0.000    0.000    0.000    0.000 
#
# Total GULP energy -89305.417866 kJ/mol
# GULP energy per Si atom -5581.588617 kJ/mol
# Density = 1.902339 g / cm^3
# Si number density = 19.066790 Si / 1000 Ang^3
#
#
#
# Elastic Constant Matrix: (Units=GPa)
#
#
# Indices 1 2 3 4 5 6 
#
# 1 92.1568 20.6891 25.8517 0.0085 5.8320 0.0019
# 2 20.6891 66.0800 8.4703 0.0057 -1.9848 0.0008
# 3 25.8517 8.4703 108.4705 0.0228 11.4791 0.0041
# 4 0.0085 0.0057 0.0228 -23.7166 0.0112 -8.6029
# 5 5.8320 -1.9848 11.4791 0.0112 37.0982 0.0022
# 6 0.0019 0.0008 0.0041 -8.6029 0.0022 12.3660
#
#
#
# Elastic Compliance Matrix: (Units=1/GPa)
#
#
# Indices 1 2 3 4 5 6 
#
# 1 0.012463 -0.003617 -0.002543 0.000001 -0.001366 0.000000
# 2 -0.003617 0.016390 -0.000590 0.000002 0.001628 0.000001
# 3 -0.002543 -0.000590 0.010165 0.000007 -0.002777 0.000002
# 4 0.000001 0.000002 0.000007 -0.033668 0.000010 -0.023423
# 5 -0.001366 0.001628 -0.002777 0.000010 0.028117 0.000003
# 6 0.000000 0.000001 0.000002 -0.023423 0.000003 0.064572
#
#
# Mechanical properties :
#
#
# Convention : Reuss Voigt Hill
#
# Bulk Modulus (GPa) = 39.18898 41.85884 40.52391
# Shear Modulus (GPa) = 41.65094 19.26261 30.45677
#
# Velocity S-wave (km/s) = 4.67891 3.18192 4.00105
# Velocity P-wave (km/s) = 7.05604 5.95827 6.53026
#
# Compressibility (1/GPa) = 0.02551738
#
# Stress axis : x y z
#
# Youngs Moduli (GPa) = 80.23769 61.01210 98.37470
#
# Poissons Ratio (x) = 0.22068 0.25020
# Poissons Ratio (y) = 0.29022 0.05805
# Poissons Ratio (z) = 0.20407 0.03601
#
# Static dielectric constant tensor:
#      x y z
#    x 1.718770 0.000000 -0.043530 
#    y 0.000000 1.652740 0.000000 
#    z -0.043530 0.000000 1.742480 
# 
# From -- ./inp_files/55046.got.cif
#   From: 2010.05.17/outbox.cif.g08.bks.cpg/sg5_28_cif.got.tgz:55046.got - 2010.06.03 18:56:24.
