data_PCOD9121440
_publ_section_title
;
Structure prediction by ZEFSAII (Michael W. Deem and Ramdas Pophale) SiO2 
 PCOD9121440
Probable space group: C 2
;
_chemical_formula_sum "Si O2"
_cell_formula_units_Z 32
_cell_length_a 13.287830
_cell_length_b 23.980054
_cell_length_c 5.366286
_cell_angle_alpha 90.000000
_cell_angle_beta 62.873674
_cell_angle_gamma 90.000000
_cell_volume 1521.842472
_symmetry_space_group_name_H-M "C 2"
_symmetry_group_IT_number 5
_symmetry_cell_setting 'monoclinic'
loop_
_space_group_symop_operation_xyz
x,y,z
-x,y,-z
1/2+x,1/2+y,z
1/2-x,1/2+y,-z
loop_
_atom_site_type_symbol
_atom_site_label
_atom_site_fract_x
_atom_site_fract_y
_atom_site_fract_z
Si Si1 0.573998 0.807690 0.664243
Si Si2 0.575106 0.679983 0.664470
Si Si3 0.163002 0.990313 0.058350
Si Si4 0.260535 0.596434 0.281944
Si Si5 0.031401 0.898843 0.709055
Si Si6 0.713465 0.917389 0.466634
Si Si7 0.152608 0.519608 0.788535
Si Si8 0.565690 0.114709 0.174400
O O1 0.500000 0.813271 0.500000
O O2 0.616961 0.744010 0.611305
O O3 0.665804 0.855816 0.530612
O O4 0.500000 0.815104 0.000000
O O5 0.500000 0.669167 0.500000
O O6 0.676795 0.638080 0.604522
O O7 0.500000 0.675049 0.000000
O O8 0.049408 0.954109 0.201139
O O9 0.220797 0.012265 0.242960
O O10 0.255641 0.948105 0.828523
O O11 0.156889 0.046581 0.902258
O O12 0.166283 0.563518 0.549872
O O13 0.196530 0.625543 0.118862
O O14 0.161798 0.913683 0.555645
O O15 0.000000 0.865471 0.500000
O O16 0.000000 0.869274 0.000000
O O17 0.629139 0.958887 0.706737
O O18 0.919703 0.548508 0.913040
O O19 0.500000 0.129104 0.500000
O O20 0.500000 0.137723 0.000000
#
# Coordination Sequence:
#
# PCOD9121440 Si02
#       8
#     4   4   4   4   4   4   4   4
#     4  10  24  45  64  89 121 160 216 269 306 355
#     4  10  24  44  66  94 123 161 212 266 321 371
#     4   9  20  35  53  92 132 161 197 248 311 384
#     4  10  22  39  62  92 126 166 208 251 320 381
#     4  10  19  34  54  80 123 159 183 240 299 369
#     4  10  21  37  58  87 120 167 202 247 315 366
#     4  10  20  36  55  90 126 162 209 241 311 378
#     4  11  22  39  57  85 127 166 202 252 301 369
#
# _framework density 21.027145000000001
#
# number of rings (size 3 to 8) (size 9 to 14) (size 15 to 20)
#    0.000    2.000    2.500    0.000    5.250    3.000 
#    4.500    0.000    0.000    0.750    9.750    0.000 
#    0.000    0.000    0.000    0.000    0.000    0.000 
#
# Total GULP energy -89079.394050 kJ/mol
# GULP energy per Si atom -5567.462128 kJ/mol
# Density = 2.097929 g / cm^3
# Si number density = 21.027145 Si / 1000 Ang^3
#
#
#
# Elastic Constant Matrix: (Units=GPa)
#
#
# Indices 1 2 3 4 5 6 
#
# 1 89.9796 57.7655 31.5636 0.0000 21.4812 0.0000
# 2 57.7655 82.5008 29.6471 0.0000 -2.1197 0.0000
# 3 31.5636 29.6471 97.0314 0.0000 25.6659 0.0000
# 4 0.0000 0.0000 0.0000 13.3454 0.0000 3.4796
# 5 21.4812 -2.1197 25.6659 0.0000 42.5932 0.0000
# 6 0.0000 0.0000 0.0000 3.4796 0.0000 30.6144
#
#
#
# Elastic Compliance Matrix: (Units=1/GPa)
#
#
# Indices 1 2 3 4 5 6 
#
# 1 0.027054 -0.019820 0.001339 0.000000 -0.015437 0.000000
# 2 -0.019820 0.028671 -0.006346 0.000000 0.015247 0.000000
# 3 0.001339 -0.006346 0.014360 0.000000 -0.009644 0.000000
# 4 0.000000 0.000000 0.000000 0.077221 0.000000 -0.008777
# 5 -0.015437 0.015247 -0.009644 0.000000 0.037834 0.000000
# 6 0.000000 0.000000 0.000000 -0.008777 0.000000 0.033662
#
#
# Mechanical properties :
#
#
# Convention : Reuss Voigt Hill
#
# Bulk Modulus (GPa) = 48.94570 56.38493 52.66531
# Shear Modulus (GPa) = 18.16425 27.34629 22.75527
#
# Velocity S-wave (km/s) = 2.94232 3.61019 3.29323
# Velocity P-wave (km/s) = 5.90516 6.65218 6.28977
#
# Compressibility (1/GPa) = 0.02043080
#
# Stress axis : x y z
#
# Youngs Moduli (GPa) = 36.96353 34.87847 69.63629
#
# Poissons Ratio (x) = 0.69130 -0.09323
# Poissons Ratio (y) = 0.73263 0.44189
# Poissons Ratio (z) = -0.04949 0.22133
#
# Static dielectric constant tensor:
#      x y z
#    x 1.852600 0.000000 0.005150 
#    y 0.000000 1.739600 0.000000 
#    z 0.005150 0.000000 1.894460 
# 
# From -- ./inp_files/6023.got.cif
#   From: 2010.05.17/outbox.cif.g08.bks.cpg/sg5_4_cif.got.tgz:6023.got - 2010.06.03 18:56:24.
