data_PCOD9121196
_publ_section_title
;
Structure prediction by ZEFSAII (Michael W. Deem and Ramdas Pophale) SiO2 
 PCOD9121196
Probable space group: C 2
;
_chemical_formula_sum "Si O2"
_cell_formula_units_Z 22
_cell_length_a 18.460444
_cell_length_b 8.133541
_cell_length_c 8.126464
_cell_angle_alpha 90.000000
_cell_angle_beta 130.674680
_cell_angle_gamma 90.000000
_cell_volume 925.410856
_symmetry_space_group_name_H-M "C 2"
_symmetry_group_IT_number 5
_symmetry_cell_setting 'monoclinic'
loop_
_space_group_symop_operation_xyz
x,y,z
-x,y,-z
1/2+x,1/2+y,z
1/2-x,1/2+y,-z
loop_
_atom_site_type_symbol
_atom_site_label
_atom_site_fract_x
_atom_site_fract_y
_atom_site_fract_z
Si Si1 0.128418 0.855340 0.801049
Si Si2 0.500000 0.493632 0.000000
Si Si3 0.117133 0.404876 0.355391
Si Si4 0.414466 0.269092 0.615491
Si Si5 0.097380 0.296102 0.983257
Si Si6 0.812660 0.228905 0.210443
O O1 0.142017 0.788708 0.637333
O O2 0.023991 0.800497 0.711639
O O3 0.151041 0.048018 0.791931
O O4 0.201204 0.767267 0.032668
O O5 0.578181 0.391846 0.218837
O O6 0.559601 0.611181 0.965479
O O7 0.127961 0.597991 0.386065
O O8 0.153235 0.345119 0.231241
O O9 0.150013 0.295133 0.559247
O O10 0.002587 0.389493 0.177992
O O11 0.147625 0.331334 0.886583
#
# Coordination Sequence:
#
# PCOD9121196 Si02
#       6
#     4   2   4   4   4   4
#     4  11  26  41  68  95 135 173 227 264 340 383
#     4  10  18  42  68  92 132 166 228 268 326 386
#     4  10  23  41  71  96 133 170 222 267 335 384
#     4  11  23  44  66 100 127 177 220 276 323 410
#     4  10  22  40  70 100 126 179 219 273 324 401
#     4  12  24  46  66 101 133 177 215 285 322 396
#
# _framework density 23.773225
#
# number of rings (size 3 to 8) (size 9 to 14) (size 15 to 20)
#    0.000    1.455    1.818    4.909   10.182    0.000 
#    3.273    0.000    0.000    0.000    0.000    0.000 
#    0.000    0.000    0.000    0.000    0.000    0.000 
#
# Total GULP energy -61319.256083 kJ/mol
# GULP energy per Si atom -5574.477826 kJ/mol
# Density = 2.371912 g / cm^3
# Si number density = 23.773225 Si / 1000 Ang^3
#
#
#
# Elastic Constant Matrix: (Units=GPa)
#
#
# Indices 1 2 3 4 5 6 
#
# 1 35.3980 -42.6390 1.7364 0.0000 -2.2681 0.0000
# 2 -42.6390 56.3138 -1.7432 0.0000 -1.1052 0.0000
# 3 1.7364 -1.7432 116.2289 0.0000 -24.6753 0.0000
# 4 0.0000 0.0000 0.0000 26.2468 0.0000 11.0840
# 5 -2.2681 -1.1052 -24.6753 0.0000 26.9963 0.0000
# 6 0.0000 0.0000 0.0000 11.0840 0.0000 -14.5363
#
#
#
# Elastic Compliance Matrix: (Units=1/GPa)
#
#
# Indices 1 2 3 4 5 6 
#
# 1 0.371368 0.282498 0.009638 0.000000 0.051575 0.000000
# 2 0.282498 0.232693 0.007855 0.000000 0.040440 0.000000
# 3 0.009638 0.007855 0.010941 0.000000 0.011131 0.000000
# 4 0.000000 0.000000 0.000000 0.028820 0.000000 0.021975
# 5 0.051575 0.040440 0.011131 0.000000 0.053205 0.000000
# 6 0.000000 0.000000 0.000000 0.021975 0.000000 -0.052037
#
#
# Mechanical properties :
#
#
# Convention : Reuss Voigt Hill
#
# Bulk Modulus (GPa) = 0.82306 13.62768 7.22537
# Shear Modulus (GPa) = 11.11108 24.44714 17.77911
#
# Velocity S-wave (km/s) = 2.16424 3.21027 2.73768
# Velocity P-wave (km/s) = 2.56753 4.41428 3.61096
#
# Compressibility (1/GPa) = 1.21498503
#
# Stress axis : x y z
#
# Youngs Moduli (GPa) = 2.69275 4.29750 91.40154
#
# Poissons Ratio (x) = -1.21404 -0.88096
# Poissons Ratio (y) = -0.76070 -0.71795
# Poissons Ratio (z) = -0.02595 -0.03376
#
# Static dielectric constant tensor:
#      x y z
#    x 2.026140 0.000000 0.005650 
#    y 0.000000 2.007990 0.000000 
#    z 0.005650 0.000000 1.961130 
# 
# From -- ./inp_files/30640.got.cif
#   From: 2010.05.17/outbox.cif.g08.bks.cpg/sg5_16_cif.got.tgz:30640.got - 2010.06.03 18:56:24.
