data_PCOD9121340
_publ_section_title
;
Structure prediction by ZEFSAII (Michael W. Deem and Ramdas Pophale) SiO2 
 PCOD9121340
Probable space group: C 2
;
_chemical_formula_sum "Si O2"
_cell_formula_units_Z 20
_cell_length_a 25.557256
_cell_length_b 4.854105
_cell_length_c 6.722572
_cell_angle_alpha 90.000000
_cell_angle_beta 122.005884
_cell_angle_gamma 90.000000
_cell_volume 707.214999
_symmetry_space_group_name_H-M "C 2"
_symmetry_group_IT_number 5
_symmetry_cell_setting 'monoclinic'
loop_
_space_group_symop_operation_xyz
x,y,z
-x,y,-z
1/2+x,1/2+y,z
1/2-x,1/2+y,-z
loop_
_atom_site_type_symbol
_atom_site_label
_atom_site_fract_x
_atom_site_fract_y
_atom_site_fract_z
Si Si1 0.218559 0.231410 0.683402
Si Si2 0.451795 0.329213 0.238664
Si Si3 0.049455 0.437284 0.221003
Si Si4 0.617247 0.798829 0.754937
Si Si5 0.671931 0.226808 0.349884
O O1 0.187230 0.219292 0.836029
O O2 0.289834 0.177766 0.775312
O O3 0.205821 0.539423 0.583145
O O4 0.181845 0.030452 0.456092
O O5 0.500000 0.438263 0.500000
O O6 0.500453 0.156988 0.207897
O O7 0.408084 0.595374 0.125145
O O8 0.404555 0.104127 0.234358
O O9 0.082724 0.279253 0.468334
O O10 0.102936 0.609970 0.215933
O O11 0.000000 0.250935 0.000000
#
# Coordination Sequence:
#
# PCOD9121340 Si02
#       5
#     4   4   4   4   4
#     4   9  16  31  52  74  99 134 185 225 253 306
#     4  10  19  33  52  75 105 141 180 214 258 321
#     4  10  21  36  56  85 117 143 176 227 283 329
#     4  10  19  34  54  76 102 141 182 218 260 315
#     4   9  18  30  49  76 104 135 174 224 268 307
#
# _framework density 28.279944
#
# number of rings (size 3 to 8) (size 9 to 14) (size 15 to 20)
#    0.000    2.400    0.000    5.400    0.000    1.600 
#    0.000   25.000    0.000    2.400    0.000    0.000 
#    0.000    0.000    0.000    0.000    0.000    0.000 
#
# Total GULP energy -55865.807931 kJ/mol
# GULP energy per Si atom -5586.580793 kJ/mol
# Density = 2.821558 g / cm^3
# Si number density = 28.279944 Si / 1000 Ang^3
#
#
#
# Elastic Constant Matrix: (Units=GPa)
#
#
# Indices 1 2 3 4 5 6 
#
# 1 296.4345 40.2630 23.9925 0.0000 17.5606 0.0000
# 2 40.2630 99.6879 -17.9543 0.0000 1.4828 0.0000
# 3 23.9925 -17.9543 71.7153 0.0000 24.5714 0.0000
# 4 0.0000 0.0000 0.0000 9.6163 0.0000 -2.3849
# 5 17.5606 1.4828 24.5714 0.0000 37.0822 0.0000
# 6 0.0000 0.0000 0.0000 -2.3849 0.0000 50.7731
#
#
#
# Elastic Compliance Matrix: (Units=1/GPa)
#
#
# Indices 1 2 3 4 5 6 
#
# 1 0.003777 -0.001775 -0.001448 0.000000 -0.000758 0.000000
# 2 -0.001775 0.011568 0.004348 0.000000 -0.002503 0.000000
# 3 -0.001448 0.004348 0.019847 0.000000 -0.012639 0.000000
# 4 0.000000 0.000000 0.000000 0.105215 0.000000 0.004942
# 5 -0.000758 -0.002503 -0.012639 0.000000 0.035801 0.000000
# 6 0.000000 0.000000 0.000000 0.004942 0.000000 0.019928
#
#
# Mechanical properties :
#
#
# Convention : Reuss Voigt Hill
#
# Bulk Modulus (GPa) = 26.70832 62.27112 44.48972
# Shear Modulus (GPa) = 24.22854 47.59675 35.91264
#
# Velocity S-wave (km/s) = 2.93019 4.10696 3.56743
# Velocity P-wave (km/s) = 4.57305 6.67509 5.72143
#
# Compressibility (1/GPa) = 0.03744151
#
# Stress axis : x y z
#
# Youngs Moduli (GPa) = 264.78814 86.44231 50.38422
#
# Poissons Ratio (x) = 0.15342 0.07296
# Poissons Ratio (y) = 0.46997 -0.21905
# Poissons Ratio (z) = 0.38345 -0.37581
#
# Static dielectric constant tensor:
#      x y z
#    x 2.266560 0.000000 -0.083610 
#    y 0.000000 2.062520 0.000000 
#    z -0.083610 0.000000 2.394510 
# 
# From -- ./inp_files/28350.got.cif
#   From: 2010.05.17/outbox.cif.g08.bks.cpg/sg5_15_cif.got.tgz:28350.got - 2010.06.03 18:56:24.
