data_PCOD9121417
_publ_section_title
;
Structure prediction by ZEFSAII (Michael W. Deem and Ramdas Pophale) SiO2 
 PCOD9121417
Probable space group: C 2
;
_chemical_formula_sum "Si O2"
_cell_formula_units_Z 28
_cell_length_a 15.798320
_cell_length_b 5.024003
_cell_length_c 17.550798
_cell_angle_alpha 90.000000
_cell_angle_beta 72.116295
_cell_angle_gamma 90.000000
_cell_volume 1325.712704
_symmetry_space_group_name_H-M "C 2"
_symmetry_group_IT_number 5
_symmetry_cell_setting 'monoclinic'
loop_
_space_group_symop_operation_xyz
x,y,z
-x,y,-z
1/2+x,1/2+y,z
1/2-x,1/2+y,-z
loop_
_atom_site_type_symbol
_atom_site_label
_atom_site_fract_x
_atom_site_fract_y
_atom_site_fract_z
Si Si1 0.256721 0.413330 0.050467
Si Si2 0.727052 0.046034 0.321071
Si Si3 0.526912 0.185638 0.756791
Si Si4 0.694214 0.837864 0.490904
Si Si5 0.094742 0.197458 0.657159
Si Si6 0.822576 0.675564 0.168589
Si Si7 0.164773 0.756551 0.194600
O O1 0.336155 0.327236 0.084852
O O2 0.185364 0.510424 0.132694
O O3 0.273204 0.661906 0.990916
O O4 0.806237 0.233650 0.331980
O O5 0.658080 0.198485 0.286742
O O6 0.685039 0.895581 0.404118
O O7 0.773078 0.852836 0.246511
O O8 0.573150 0.398330 0.687783
O O9 0.585040 0.118041 0.815482
O O10 0.434206 0.327522 0.802660
O O11 0.526355 0.907007 0.711553
O O12 0.768156 0.610262 0.483177
O O13 0.610323 0.743733 0.563558
O O14 0.752428 0.442121 0.167246
#
# Coordination Sequence:
#
# PCOD9121417 Si02
#       7
#     4   4   4   4   4   4   4
#     4  11  23  42  71  93 126 161 202 256 322 389
#     4   9  20  35  63  90 122 168 223 258 318 381
#     4  11  24  39  65  95 129 162 223 261 317 385
#     4  10  19  33  60  89 123 170 218 264 321 373
#     4  10  20  38  58  91 127 168 210 276 315 369
#     4  10  21  42  67  93 123 171 205 265 316 383
#     4  11  23  41  70  94 126 172 211 263 325 390
#
# _framework density 21.120716000000002
#
# number of rings (size 3 to 8) (size 9 to 14) (size 15 to 20)
#    0.000    1.714    2.857    2.571    6.000    0.000 
#    0.000    1.429    6.286    0.000    0.000    0.000 
#    0.000    0.000    0.000    0.000    0.000    0.000 
#
# Total GULP energy -77971.284178 kJ/mol
# GULP energy per Si atom -5569.377441 kJ/mol
# Density = 2.107264 g / cm^3
# Si number density = 21.120716 Si / 1000 Ang^3
#
#
#
# Elastic Constant Matrix: (Units=GPa)
#
#
# Indices 1 2 3 4 5 6 
#
# 1 72.9711 8.2920 14.9965 -0.0001 5.8575 0.0006
# 2 8.2920 88.8260 31.8399 0.0003 11.6406 0.0023
# 3 14.9965 31.8399 121.0700 -0.0003 30.0067 -0.0006
# 4 -0.0001 0.0003 -0.0003 48.0863 -0.0001 4.7650
# 5 5.8575 11.6406 30.0067 -0.0001 12.9837 0.0000
# 6 0.0006 0.0023 -0.0006 4.7650 0.0000 13.4605
#
#
#
# Elastic Compliance Matrix: (Units=1/GPa)
#
#
# Indices 1 2 3 4 5 6 
#
# 1 0.014249 -0.000531 -0.000351 0.000000 -0.005141 -0.000001
# 2 -0.000531 0.012854 -0.001212 0.000000 -0.008484 -0.000002
# 3 -0.000351 -0.001212 0.019460 0.000000 -0.043729 0.000001
# 4 0.000000 0.000000 0.000000 0.021552 0.000000 -0.007629
# 5 -0.005141 -0.008484 -0.043729 0.000000 0.188008 -0.000001
# 6 -0.000001 -0.000002 0.000001 -0.007629 -0.000001 0.076992
#
#
# Mechanical properties :
#
#
# Convention : Reuss Voigt Hill
#
# Bulk Modulus (GPa) = 23.59875 43.68045 33.63960
# Shear Modulus (GPa) = 14.22765 30.08868 22.15816
#
# Velocity S-wave (km/s) = 2.59826 3.77849 3.24253
# Velocity P-wave (km/s) = 4.49431 6.30573 5.47545
#
# Compressibility (1/GPa) = 0.04237513
#
# Stress axis : x y z
#
# Youngs Moduli (GPa) = 70.17935 77.79848 51.38731
#
# Poissons Ratio (x) = 0.04128 0.01806
# Poissons Ratio (y) = 0.03723 0.06228
# Poissons Ratio (z) = 0.02466 0.09429
#
# Static dielectric constant tensor:
#      x y z
#    x 1.828830 0.000000 0.006650 
#    y 0.000000 1.841720 0.000000 
#    z 0.006650 0.000000 1.777720 
# 
# From -- ./inp_files/60973.got.cif
#   From: 2010.05.17/outbox.cif.g08.bks.cpg/sg5_31_cif.got.tgz:60973.got - 2010.06.03 18:56:24.
