data_PCOD9121357
_publ_section_title
;
Structure prediction by ZEFSAII (Michael W. Deem and Ramdas Pophale) SiO2 
 PCOD9121357
Probable space group: C 2
;
_chemical_formula_sum "Si O2"
_cell_formula_units_Z 28
_cell_length_a 22.156946
_cell_length_b 13.327020
_cell_length_c 13.028468
_cell_angle_alpha 90.000000
_cell_angle_beta 161.178035
_cell_angle_gamma 90.000000
_cell_volume 1241.192483
_symmetry_space_group_name_H-M "C 2"
_symmetry_group_IT_number 5
_symmetry_cell_setting 'monoclinic'
loop_
_space_group_symop_operation_xyz
x,y,z
-x,y,-z
1/2+x,1/2+y,z
1/2-x,1/2+y,-z
loop_
_atom_site_type_symbol
_atom_site_label
_atom_site_fract_x
_atom_site_fract_y
_atom_site_fract_z
Si Si1 0.841070 0.101590 0.528846
Si Si2 0.770354 0.888794 0.905329
Si Si3 0.275184 0.389445 0.350296
Si Si4 0.152154 0.004573 0.164665
Si Si5 0.248676 0.675700 0.177252
Si Si6 0.773104 0.963425 0.128372
Si Si7 0.826730 0.693473 0.556151
O O1 0.884775 0.142996 0.487288
O O2 0.737879 0.183652 0.431220
O O3 0.025666 0.072661 0.886688
O O4 0.728818 0.996075 0.330772
O O5 0.702067 0.938617 0.900470
O O6 0.997450 0.890322 0.282772
O O7 0.740316 0.933713 0.742496
O O8 0.700665 0.775873 0.797491
O O9 0.206822 0.399729 0.122211
O O10 0.232999 0.286996 0.344168
O O11 0.273177 0.084895 0.421888
O O12 0.000000 0.956410 0.000000
O O13 0.226111 0.579003 0.071629
O O14 0.048704 0.700357 0.906507
O O15 0.000000 0.953900 0.500000
#
# Coordination Sequence:
#
# PCOD9121357 Si02
#       7
#     4   4   4   4   4   4   4
#     4   9  18  34  53  76 106 138 169 204 252 314
#     4   9  18  33  55  75  99 137 173 209 254 306
#     4   8  17  33  53  74 102 143 175 196 251 323
#     4   9  19  35  53  77 107 138 168 202 253 313
#     4  10  20  34  54  79 100 131 175 217 255 296
#     4   9  18  36  54  71 101 140 176 206 251 319
#     4  10  19  33  54  80 106 133 169 216 256 295
#
# _framework density 22.558952000000001
#
# number of rings (size 3 to 8) (size 9 to 14) (size 15 to 20)
#    0.000    2.857    0.000    1.286    0.000    5.714 
#    0.000   15.000    0.000    0.000    0.000    0.000 
#    0.000    0.000    0.000    0.000    0.000    0.000 
#
# Total GULP energy -78060.327404 kJ/mol
# GULP energy per Si atom -5575.737672 kJ/mol
# Density = 2.250761 g / cm^3
# Si number density = 22.558952 Si / 1000 Ang^3
#
#
#
# Elastic Constant Matrix: (Units=GPa)
#
#
# Indices 1 2 3 4 5 6 
#
# 1 111.4831 73.9322 12.7604 0.0000 -27.9732 0.0000
# 2 73.9322 113.3055 -7.2769 0.0000 -26.5198 0.0000
# 3 12.7604 -7.2769 28.2809 0.0000 -5.5124 0.0000
# 4 0.0000 0.0000 0.0000 11.3860 0.0000 1.1002
# 5 -27.9732 -26.5198 -5.5124 0.0000 38.4112 0.0000
# 6 0.0000 0.0000 0.0000 1.1002 0.0000 26.3853
#
#
#
# Elastic Compliance Matrix: (Units=1/GPa)
#
#
# Indices 1 2 3 4 5 6 
#
# 1 0.019614 -0.012598 -0.011319 0.000000 0.003962 0.000000
# 2 -0.012598 0.019138 0.011724 0.000000 0.005721 0.000000
# 3 -0.011319 0.011724 0.044705 0.000000 0.006267 0.000000
# 4 0.000000 0.000000 0.000000 0.088182 0.000000 -0.003677
# 5 0.003962 0.005721 0.006267 0.000000 0.033769 0.000000
# 6 0.000000 0.000000 0.000000 -0.003677 0.000000 0.038053
#
#
# Mechanical properties :
#
#
# Convention : Reuss Voigt Hill
#
# Bulk Modulus (GPa) = 16.92909 45.76676 31.34793
# Shear Modulus (GPa) = 17.38894 26.81342 22.10118
#
# Velocity S-wave (km/s) = 2.77938 3.45134 3.13342
# Velocity P-wave (km/s) = 4.22145 6.01781 5.19782
#
# Compressibility (1/GPa) = 0.05906993
#
# Stress axis : x y z
#
# Youngs Moduli (GPa) = 50.98289 52.25203 22.36884
#
# Poissons Ratio (x) = 0.65828 0.25320
# Poissons Ratio (y) = 0.64229 -0.26225
# Poissons Ratio (z) = 0.57710 -0.61259
#
# Static dielectric constant tensor:
#      x y z
#    x 1.896410 0.000000 0.037970 
#    y 0.000000 1.854520 0.000000 
#    z 0.037970 0.000000 1.866570 
# 
# From -- ./inp_files/36289.got.cif
#   From: 2010.05.17/outbox.cif.g08.bks.cpg/sg5_19_cif.got.tgz:36289.got - 2010.06.03 18:56:24.
