data_PCOD9121241
_publ_section_title
;
Structure prediction by ZEFSAII (Michael W. Deem and Ramdas Pophale) SiO2 
 PCOD9121241
Probable space group: C 2
;
_chemical_formula_sum "Si O2"
_cell_formula_units_Z 26
_cell_length_a 17.367444
_cell_length_b 5.164855
_cell_length_c 12.411550
_cell_angle_alpha 90.000000
_cell_angle_beta 115.823748
_cell_angle_gamma 90.000000
_cell_volume 1002.142089
_symmetry_space_group_name_H-M "C 2"
_symmetry_group_IT_number 5
_symmetry_cell_setting 'monoclinic'
loop_
_space_group_symop_operation_xyz
x,y,z
-x,y,-z
1/2+x,1/2+y,z
1/2-x,1/2+y,-z
loop_
_atom_site_type_symbol
_atom_site_label
_atom_site_fract_x
_atom_site_fract_y
_atom_site_fract_z
Si Si1 0.365748 0.076870 0.178813
Si Si2 0.958785 0.767356 0.672918
Si Si3 0.832146 0.101266 0.291631
Si Si4 0.916891 0.949986 0.871693
Si Si5 0.000000 0.131553 0.500000
Si Si6 0.784523 0.807619 0.478720
Si Si7 0.395307 0.956790 0.950104
O O1 0.468880 0.054868 0.262621
O O2 0.347136 0.366302 0.213031
O O3 0.313029 0.851286 0.205681
O O4 0.363547 0.032399 0.048722
O O5 0.951766 0.948311 0.773311
O O6 0.868634 0.663292 0.578144
O O7 0.985406 0.945987 0.591506
O O8 0.909180 0.244060 0.410300
O O9 0.790001 0.937090 0.364157
O O10 0.867474 0.681967 0.853183
O O11 0.000000 0.927423 0.000000
O O12 0.864295 0.185852 0.886047
O O13 0.721829 0.562514 0.448305
O O14 0.500000 0.934977 0.000000
#
# Coordination Sequence:
#
# PCOD9121241 Si02
#       7
#     4   4   4   4   2   4   4
#     4  11  20  35  59  91 129 154 188 257 333 395
#     4  10  21  38  60  90 129 162 196 265 317 380
#     4  10  22  36  58  86 118 162 198 257 327 366
#     4  10  19  32  52  84 126 155 193 235 315 397
#     4   8  20  32  52  84 120 144 190 236 330 378
#     4  11  25  45  63  88 124 175 235 262 293 369
#     4  10  19  30  49  86 128 155 188 226 307 411
#
# _framework density 25.944424000000001
#
# number of rings (size 3 to 8) (size 9 to 14) (size 15 to 20)
#    0.000    1.846    3.077    1.846    6.462    8.615 
#    0.000    0.000    0.000    0.000    0.000   21.538 
#    0.000    0.000    0.000    0.000    0.000    0.000 
#
# Total GULP energy -72451.465337 kJ/mol
# GULP energy per Si atom -5573.189641 kJ/mol
# Density = 2.588537 g / cm^3
# Si number density = 25.944424 Si / 1000 Ang^3
#
#
#
# Elastic Constant Matrix: (Units=GPa)
#
#
# Indices 1 2 3 4 5 6 
#
# 1 46.0355 7.7673 20.2959 0.0000 6.8318 0.0000
# 2 7.7673 162.4009 23.0568 0.0000 -7.0150 0.0000
# 3 20.2959 23.0568 154.6245 0.0000 -31.7040 0.0000
# 4 0.0000 0.0000 0.0000 45.3983 0.0000 -18.2284
# 5 6.8318 -7.0150 -31.7040 0.0000 26.9274 0.0000
# 6 0.0000 0.0000 0.0000 -18.2284 0.0000 26.8660
#
#
#
# Elastic Compliance Matrix: (Units=1/GPa)
#
#
# Indices 1 2 3 4 5 6 
#
# 1 0.026860 -0.001011 -0.006362 0.000000 -0.014568 0.000000
# 2 -0.001011 0.006339 -0.000555 0.000000 0.001254 0.000000
# 3 -0.006362 -0.000555 0.010133 0.000000 0.013399 0.000000
# 4 0.000000 0.000000 0.000000 0.030275 0.000000 0.020541
# 5 -0.014568 0.001254 0.013399 0.000000 0.056936 0.000000
# 6 0.000000 0.000000 0.000000 0.020541 0.000000 0.051159
#
#
# Mechanical properties :
#
#
# Convention : Reuss Voigt Hill
#
# Bulk Modulus (GPa) = 36.39684 51.70012 44.04848
# Shear Modulus (GPa) = 24.18780 40.63440 32.41110
#
# Velocity S-wave (km/s) = 3.05666 3.96183 3.53831
# Velocity P-wave (km/s) = 5.14945 6.39520 5.80583
#
# Compressibility (1/GPa) = 0.02747491
#
# Stress axis : x y z
#
# Youngs Moduli (GPa) = 37.23052 157.75447 98.69180
#
# Poissons Ratio (x) = 0.15944 0.62787
# Poissons Ratio (y) = 0.03763 0.05482
# Poissons Ratio (z) = 0.23686 0.08763
#
# Static dielectric constant tensor:
#      x y z
#    x 2.764820 0.000000 0.224330 
#    y 0.000000 2.051450 0.000000 
#    z 0.224330 0.000000 2.095580 
# 
# From -- ./inp_files/45321.got.cif
#   From: 2010.05.17/outbox.cif.g08.bks.cpg/sg5_23_cif.got.tgz:45321.got - 2010.06.03 18:56:24.
