data_PCOD9121307
_publ_section_title
;
Structure prediction by ZEFSAII (Michael W. Deem and Ramdas Pophale) SiO2 
 PCOD9121307
Probable space group: C 2
;
_chemical_formula_sum "Si O2"
_cell_formula_units_Z 32
_cell_length_a 23.808050
_cell_length_b 8.014441
_cell_length_c 12.643151
_cell_angle_alpha 90.000000
_cell_angle_beta 143.648168
_cell_angle_gamma 90.000000
_cell_volume 1429.940925
_symmetry_space_group_name_H-M "C 2"
_symmetry_group_IT_number 5
_symmetry_cell_setting 'monoclinic'
loop_
_space_group_symop_operation_xyz
x,y,z
-x,y,-z
1/2+x,1/2+y,z
1/2-x,1/2+y,-z
loop_
_atom_site_type_symbol
_atom_site_label
_atom_site_fract_x
_atom_site_fract_y
_atom_site_fract_z
Si Si1 0.254315 0.807530 0.218535
Si Si2 0.754315 0.670882 0.218535
Si Si3 0.083715 0.679329 0.357401
Si Si4 0.386689 0.183553 0.827146
Si Si5 0.916285 0.299082 0.642599
Si Si6 0.335942 0.489206 0.247818
Si Si7 0.886689 0.294859 0.827146
Si Si8 0.994710 0.989206 0.318675
O O1 0.164476 0.782891 0.158537
O O2 0.341831 0.805407 0.434425
O O3 0.272930 0.653604 0.169506
O O4 0.253056 0.989206 0.165090
O O5 0.841831 0.673005 0.434424
O O6 0.772930 0.824808 0.169506
O O7 0.664476 0.695521 0.158536
O O8 0.136598 0.729171 0.329280
O O9 0.045859 0.489206 0.284860
O O10 0.008229 0.820820 0.271857
O O11 0.360788 0.989206 0.803791
O O12 0.500000 0.200291 0.000000
O O13 0.863402 0.249241 0.670720
O O14 0.991771 0.157591 0.728143
O O15 0.398185 0.489206 0.237082
O O16 0.417310 0.489206 0.463917
O O17 0.000000 0.278121 0.000000
#
# Coordination Sequence:
#
# PCOD9121307 Si02
#       8
#     4   4   4   4   4   4   4   4
#     4  10  19  32  53  78 105 136 168 211 257 304
#     4  10  19  32  53  78 105 136 168 211 257 304
#     4   9  19  33  51  79 106 133 170 211 255 304
#     4  10  20  34  52  77 107 140 167 211 258 305
#     4   9  19  33  51  79 106 133 170 211 255 304
#     4   9  18  34  51  78 106 130 173 212 254 303
#     4  10  20  34  52  77 107 140 167 211 258 305
#     4   9  18  32  55  76 102 138 167 212 258 299
#
# _framework density 22.378546
#
# number of rings (size 3 to 8) (size 9 to 14) (size 15 to 20)
#    0.000    2.500    1.250    0.750    1.750    1.500 
#    0.000    5.000    0.000    1.500    0.000    0.000 
#    0.000    0.000    0.000    0.000    0.000    0.000 
#
# Total GULP energy -89396.756232 kJ/mol
# GULP energy per Si atom -5587.297265 kJ/mol
# Density = 2.232761 g / cm^3
# Si number density = 22.378546 Si / 1000 Ang^3
#
#
#
# Elastic Constant Matrix: (Units=GPa)
#
#
# Indices 1 2 3 4 5 6 
#
# 1 98.2623 71.7081 49.7567 0.0000 44.8541 0.0000
# 2 71.7081 137.1782 67.5252 0.0000 40.7941 0.0000
# 3 49.7567 67.5252 -10.3120 0.0000 -19.8122 0.0000
# 4 0.0000 0.0000 0.0000 3.5560 0.0000 8.3866
# 5 44.8541 40.7941 -19.8122 0.0000 20.7913 0.0000
# 6 0.0000 0.0000 0.0000 8.3866 0.0000 29.7295
#
#
#
# Elastic Compliance Matrix: (Units=1/GPa)
#
#
# Indices 1 2 3 4 5 6 
#
# 1 0.015813 -0.011403 0.008546 0.000000 -0.003598 0.000000
# 2 -0.011403 0.010470 0.002029 0.000000 0.005991 0.000000
# 3 0.008546 0.002029 0.000219 0.000000 -0.022209 0.000000
# 4 0.000000 0.000000 0.000000 0.840173 0.000000 -0.237009
# 5 -0.003598 0.005991 -0.022209 0.000000 0.022942 0.000000
# 6 0.000000 0.000000 0.000000 -0.237009 0.000000 0.100496
#
#
# Mechanical properties :
#
#
# Convention : Reuss Voigt Hill
#
# Bulk Modulus (GPa) = 40.24565 67.01204 53.62884
# Shear Modulus (GPa) = 4.99975 13.22461 9.11218
#
# Velocity S-wave (km/s) = 1.49634 2.43358 2.02007
# Velocity P-wave (km/s) = 4.58350 6.15680 5.42746
#
# Compressibility (1/GPa) = 0.02484741
#
# Stress axis : x y z
#
# Youngs Moduli (GPa) = 63.23792 95.51129 4559.15664
#
# Poissons Ratio (x) = 1.08910 -38.96198
# Poissons Ratio (y) = 0.72109 -9.25220
# Poissons Ratio (z) = -0.54042 -0.19383
#
# Static dielectric constant tensor:
#      x y z
#    x 1.769330 0.000000 -0.039550 
#    y 0.000000 1.825160 0.000000 
#    z -0.039550 0.000000 1.880590 
# 
# From -- ./inp_files/56835.got.cif
#   From: 2010.05.17/outbox.cif.g08.bks.cpg/sg5_29_cif.got.tgz:56835.got - 2010.06.03 18:56:24.
