data_PCOD9121508
_publ_section_title
;
Structure prediction by ZEFSAII (Michael W. Deem and Ramdas Pophale) SiO2 
 PCOD9121508
Probable space group: C 2
;
_chemical_formula_sum "Si O2"
_cell_formula_units_Z 28
_cell_length_a 13.287060
_cell_length_b 7.121405
_cell_length_c 15.806447
_cell_angle_alpha 90.000000
_cell_angle_beta 54.099892
_cell_angle_gamma 90.000000
_cell_volume 1211.533961
_symmetry_space_group_name_H-M "C 2"
_symmetry_group_IT_number 5
_symmetry_cell_setting 'monoclinic'
loop_
_space_group_symop_operation_xyz
x,y,z
-x,y,-z
1/2+x,1/2+y,z
1/2-x,1/2+y,-z
loop_
_atom_site_type_symbol
_atom_site_label
_atom_site_fract_x
_atom_site_fract_y
_atom_site_fract_z
Si Si1 0.368574 0.989670 0.594500
Si Si2 0.352028 0.507852 0.764720
Si Si3 0.687164 0.421178 0.401557
Si Si4 0.624797 0.262729 0.889552
Si Si5 0.942262 0.578748 0.254980
Si Si6 0.803611 0.567513 0.813540
Si Si7 0.615868 0.424753 0.622773
O O1 0.500000 0.911772 0.500000
O O2 0.348029 0.972056 0.704075
O O3 0.246747 0.921933 0.605666
O O4 0.364457 0.212856 0.580005
O O5 0.356263 0.530444 0.660352
O O6 0.246312 0.640472 0.853626
O O7 0.495734 0.530134 0.720911
O O8 0.305905 0.293208 0.803915
O O9 0.836833 0.423078 0.318977
O O10 0.644306 0.491423 0.513950
O O11 0.595048 0.208590 0.806652
O O12 0.669289 0.473877 0.889959
O O13 0.500000 0.214833 0.000000
O O14 0.930243 0.708828 0.345080
O O15 0.085052 0.519842 0.176701
#
# Coordination Sequence:
#
# PCOD9121508 Si02
#       7
#     4   4   4   4   4   4   4
#     4  11  21  35  56  89 130 173 211 251 323 392
#     4   9  22  39  63  91 129 167 218 265 322 396
#     4  10  19  34  58  88 127 169 200 260 316 383
#     4  11  24  46  66  94 126 164 222 280 329 384
#     4  10  22  41  61  94 126 161 222 261 317 399
#     4  10  21  43  63  90 131 167 207 273 323 385
#     4  11  19  36  59  90 129 165 214 255 319 396
#
# _framework density 23.111196
#
# number of rings (size 3 to 8) (size 9 to 14) (size 15 to 20)
#    0.000    1.714    1.429    4.714    2.000    0.571 
#    7.714    0.714    0.000    0.000    0.000    0.000 
#    0.000    0.000    0.000    0.000    0.000    0.000 
#
# Total GULP energy -78154.745186 kJ/mol
# GULP energy per Si atom -5582.481799 kJ/mol
# Density = 2.305859 g / cm^3
# Si number density = 23.111196 Si / 1000 Ang^3
#
#
#
# Elastic Constant Matrix: (Units=GPa)
#
#
# Indices 1 2 3 4 5 6 
#
# 1 113.2672 24.5611 34.6560 0.0000 -41.8223 0.0000
# 2 24.5611 61.5970 30.0666 0.0000 -12.4784 0.0000
# 3 34.6560 30.0666 100.2474 0.0000 -34.7003 0.0000
# 4 0.0000 0.0000 0.0000 18.9228 0.0000 -13.8277
# 5 -41.8223 -12.4784 -34.7003 0.0000 29.2083 0.0000
# 6 0.0000 0.0000 0.0000 -13.8277 0.0000 32.8921
#
#
#
# Elastic Compliance Matrix: (Units=1/GPa)
#
#
# Indices 1 2 3 4 5 6 
#
# 1 0.021089 -0.004262 0.006471 0.000000 0.036063 0.000000
# 2 -0.004262 0.019971 -0.006242 0.000000 -0.004986 0.000000
# 3 0.006471 -0.006242 0.020203 0.000000 0.030600 0.000000
# 4 0.000000 0.000000 0.000000 0.076279 0.000000 0.032068
# 5 0.036063 -0.004986 0.030600 0.000000 0.120096 0.000000
# 6 0.000000 0.000000 0.000000 0.032068 0.000000 0.043884
#
#
# Mechanical properties :
#
#
# Convention : Reuss Voigt Hill
#
# Bulk Modulus (GPa) = 18.79873 50.40879 34.60376
# Shear Modulus (GPa) = 15.27558 28.59317 21.93438
#
# Velocity S-wave (km/s) = 2.57370 3.52120 3.08406
# Velocity P-wave (km/s) = 4.12112 6.19601 5.26185
#
# Compressibility (1/GPa) = 0.05319509
#
# Stress axis : x y z
#
# Youngs Moduli (GPa) = 47.41902 50.07329 49.49875
#
# Poissons Ratio (x) = 0.21340 -0.32029
# Poissons Ratio (y) = 0.20208 0.30899
# Poissons Ratio (z) = -0.30684 0.31258
#
# Static dielectric constant tensor:
#      x y z
#    x 1.942860 0.000000 -0.022570 
#    y 0.000000 1.938120 0.000000 
#    z -0.022570 0.000000 1.871880 
# 
# From -- ./inp_files/61435.got.cif
#   From: 2010.05.17/outbox.cif.g08.bks.cpg/sg5_31_cif.got.tgz:61435.got - 2010.06.03 18:56:24.
