data_PCOD9121312
_publ_section_title
;
Structure prediction by ZEFSAII (Michael W. Deem and Ramdas Pophale) SiO2 
 PCOD9121312
Probable space group: C 2
;
_chemical_formula_sum "Si O2"
_cell_formula_units_Z 28
_cell_length_a 8.182046
_cell_length_b 34.183035
_cell_length_c 5.291239
_cell_angle_alpha 90.000000
_cell_angle_beta 60.850339
_cell_angle_gamma 90.000000
_cell_volume 1292.463898
_symmetry_space_group_name_H-M "C 2"
_symmetry_group_IT_number 5
_symmetry_cell_setting 'monoclinic'
loop_
_space_group_symop_operation_xyz
x,y,z
-x,y,-z
1/2+x,1/2+y,z
1/2-x,1/2+y,-z
loop_
_atom_site_type_symbol
_atom_site_label
_atom_site_fract_x
_atom_site_fract_y
_atom_site_fract_z
Si Si1 0.372057 0.165020 0.847240
Si Si2 0.770201 0.375551 0.658886
Si Si3 0.776199 0.508200 0.162173
Si Si4 0.872539 0.751142 0.845300
Si Si5 0.720736 0.834344 0.849683
Si Si6 0.384071 0.591664 0.839482
Si Si7 0.270689 0.965158 0.664280
O O1 0.500000 0.161110 0.500000
O O2 0.278399 0.208203 0.918122
O O3 0.500000 0.164446 0.000000
O O4 0.234466 0.128847 0.980535
O O5 0.706992 0.347091 0.479808
O O6 0.716560 0.420410 0.655211
O O7 0.000000 0.374457 0.500000
O O8 0.702437 0.360746 0.981425
O O9 0.731834 0.553411 0.150852
O O10 0.707169 0.492846 0.483907
O O11 0.707450 0.481693 0.981494
O O12 0.000000 0.503910 0.000000
O O13 0.748199 0.789444 0.906982
O O14 0.000000 0.750867 0.500000
O O15 0.000000 0.754698 0.000000
O O16 0.500000 0.841952 0.000000
O O17 0.500000 0.602481 0.500000
O O18 0.500000 0.579992 0.000000
O O19 0.500000 0.965749 0.500000
#
# Coordination Sequence:
#
# PCOD9121312 Si02
#       7
#     4   4   4   4   4   4   4
#     4  10  22  42  65  86 112 153 198 237 278 340
#     4   9  17  30  51  81 112 141 184 238 280 315
#     4  10  20  35  58  82 108 148 194 234 276 336
#     4  10  21  38  59  82 112 147 185 230 279 332
#     4  10  19  32  54  82 112 146 182 228 282 334
#     4  12  25  40  60  89 122 152 183 236 299 348
#     4   9  17  31  54  82 107 141 193 241 273 317
#
# _framework density 21.664048999999999
#
# number of rings (size 3 to 8) (size 9 to 14) (size 15 to 20)
#    0.000    2.000    0.000    3.857    0.000    5.714 
#    0.000    2.143    0.000   17.143    0.000    0.000 
#    0.000    0.000    0.000    0.000    0.000    0.000 
#
# Total GULP energy -78256.707000 kJ/mol
# GULP energy per Si atom -5589.764786 kJ/mol
# Density = 2.161474 g / cm^3
# Si number density = 21.664049 Si / 1000 Ang^3
#
#
#
# Elastic Constant Matrix: (Units=GPa)
#
#
# Indices 1 2 3 4 5 6 
#
# 1 63.4210 31.9074 41.6042 0.0000 30.9844 0.0000
# 2 31.9074 138.2924 33.5403 0.0000 29.1095 0.0000
# 3 41.6042 33.5403 128.0656 0.0000 38.2894 0.0000
# 4 0.0000 0.0000 0.0000 32.3197 0.0000 9.1409
# 5 30.9844 29.1095 38.2894 0.0000 37.7598 0.0000
# 6 0.0000 0.0000 0.0000 9.1409 0.0000 49.9716
#
#
#
# Elastic Compliance Matrix: (Units=1/GPa)
#
#
# Indices 1 2 3 4 5 6 
#
# 1 0.027518 -0.001799 -0.003060 0.000000 -0.018091 0.000000
# 2 -0.001799 0.008763 -0.000190 0.000000 -0.005087 0.000000
# 3 -0.003060 -0.000190 0.011564 0.000000 -0.009069 0.000000
# 4 0.000000 0.000000 0.000000 0.032629 0.000000 -0.005969
# 5 -0.018091 -0.005087 -0.009069 0.000000 0.054446 0.000000
# 6 0.000000 0.000000 0.000000 -0.005969 0.000000 0.021103
#
#
# Mechanical properties :
#
#
# Convention : Reuss Voigt Hill
#
# Bulk Modulus (GPa) = 26.49138 60.43141 43.46140
# Shear Modulus (GPa) = 27.97950 38.85870 33.41910
#
# Velocity S-wave (km/s) = 3.59767 4.23980 3.93186
# Velocity P-wave (km/s) = 5.43254 7.20578 6.38105
#
# Compressibility (1/GPa) = 0.03774812
#
# Stress axis : x y z
#
# Youngs Moduli (GPa) = 36.33938 114.11763 86.47817
#
# Poissons Ratio (x) = 0.20530 0.26460
# Poissons Ratio (y) = 0.06538 0.01640
# Poissons Ratio (z) = 0.11119 0.02164
#
# Static dielectric constant tensor:
#      x y z
#    x 1.867860 0.000000 0.012700 
#    y 0.000000 1.767590 0.000000 
#    z 0.012700 0.000000 1.793930 
# 
# From -- ./inp_files/3873.got.cif
#   From: 2010.05.17/outbox.cif.g08.bks.cpg/sg5_2_cif.got.tgz:3873.got - 2010.06.03 18:56:24.
