data_PCOD9121829
_publ_section_title
;
Structure prediction by ZEFSAII (Michael W. Deem and Ramdas Pophale) SiO2 
 PCOD9121829
Probable space group: C 2
;
_chemical_formula_sum "Si O2"
_cell_formula_units_Z 28
_cell_length_a 5.452245
_cell_length_b 17.339993
_cell_length_c 14.842426
_cell_angle_alpha 90.000000
_cell_angle_beta 112.695224
_cell_angle_gamma 90.000000
_cell_volume 1294.579188
_symmetry_space_group_name_H-M "C 2"
_symmetry_group_IT_number 5
_symmetry_cell_setting 'monoclinic'
loop_
_space_group_symop_operation_xyz
x,y,z
-x,y,-z
1/2+x,1/2+y,z
1/2-x,1/2+y,-z
loop_
_atom_site_type_symbol
_atom_site_label
_atom_site_fract_x
_atom_site_fract_y
_atom_site_fract_z
Si Si1 0.963797 0.543650 0.750355
Si Si2 0.920074 0.992055 0.142378
Si Si3 0.499941 0.932989 0.400744
Si Si4 0.195599 0.140817 0.949776
Si Si5 0.686899 0.694702 0.750160
Si Si6 0.280871 0.275303 0.396273
Si Si7 0.515685 0.346235 0.246142
O O1 0.763792 0.515524 0.799115
O O2 0.889123 0.496185 0.651248
O O3 0.899542 0.634354 0.739680
O O4 0.270833 0.520560 0.811472
O O5 0.899953 0.899547 0.149333
O O6 0.803983 0.046972 0.048113
O O7 0.500000 0.965258 0.500000
O O8 0.660373 0.852978 0.422936
O O9 0.210970 0.906007 0.325285
O O10 0.103064 0.166642 0.837465
O O11 0.500000 0.167014 0.000000
O O12 0.000000 0.168925 0.000000
O O13 0.435738 0.708724 0.650190
O O14 0.818449 0.778319 0.775607
O O15 0.500000 0.249883 0.500000
O O16 0.359527 0.305152 0.306388
#
# Coordination Sequence:
#
# PCOD9121829 Si02
#       7
#     4   4   4   4   4   4   4
#     4  10  21  39  65  94 128 177 225 276 343 403
#     4  10  21  41  69  96 125 170 230 280 341 410
#     4  10  19  36  62  94 126 180 239 287 323 400
#     4  11  24  45  74  98 134 178 229 282 353 418
#     4  10  25  40  68 101 138 184 223 288 352 415
#     4  11  21  38  70  96 138 188 235 278 342 411
#     4  10  21  38  67  92 134 181 223 282 344 402
#
# _framework density 21.628647999999998
#
# number of rings (size 3 to 8) (size 9 to 14) (size 15 to 20)
#    0.000    1.714    2.857    1.714    6.000    0.000 
#    0.000    1.429   15.714    0.000    0.000    0.000 
#    0.000    0.000    0.000    0.000    0.000    0.000 
#
# Total GULP energy -78024.203021 kJ/mol
# GULP energy per Si atom -5573.157359 kJ/mol
# Density = 2.157942 g / cm^3
# Si number density = 21.628648 Si / 1000 Ang^3
#
#
#
# Elastic Constant Matrix: (Units=GPa)
#
#
# Indices 1 2 3 4 5 6 
#
# 1 132.4557 25.8829 35.1614 0.0000 -9.7178 0.0000
# 2 25.8829 57.0669 16.5653 0.0000 5.6653 0.0000
# 3 35.1614 16.5653 52.6546 0.0000 -4.8625 0.0000
# 4 0.0000 0.0000 0.0000 25.6803 0.0000 -7.0860
# 5 -9.7178 5.6653 -4.8625 0.0000 38.6592 0.0000
# 6 0.0000 0.0000 0.0000 -7.0860 0.0000 25.6388
#
#
#
# Elastic Compliance Matrix: (Units=1/GPa)
#
#
# Indices 1 2 3 4 5 6 
#
# 1 0.009729 -0.003090 -0.005319 0.000000 0.002229 0.000000
# 2 -0.003090 0.020783 -0.004885 0.000000 -0.004437 0.000000
# 3 -0.005319 -0.004885 0.024305 0.000000 0.002436 0.000000
# 4 0.000000 0.000000 0.000000 0.042155 0.000000 0.011651
# 5 0.002229 -0.004437 0.002436 0.000000 0.027384 0.000000
# 6 0.000000 0.000000 0.000000 0.011651 0.000000 0.042223
#
#
# Mechanical properties :
#
#
# Convention : Reuss Voigt Hill
#
# Bulk Modulus (GPa) = 35.42299 44.15516 39.78908
# Shear Modulus (GPa) = 24.68196 28.96683 26.82440
#
# Velocity S-wave (km/s) = 3.38179 3.66359 3.52550
# Velocity P-wave (km/s) = 5.62690 6.19316 5.91681
#
# Compressibility (1/GPa) = 0.02823025
#
# Stress axis : x y z
#
# Youngs Moduli (GPa) = 102.78574 48.11578 41.14355
#
# Poissons Ratio (x) = 0.14868 0.21883
# Poissons Ratio (y) = 0.31761 0.20098
# Poissons Ratio (z) = 0.54669 0.23503
#
# Static dielectric constant tensor:
#      x y z
#    x 1.831370 0.000000 0.034310 
#    y 0.000000 1.816860 0.000000 
#    z 0.034310 0.000000 1.856990 
# 
# From -- ./inp_files/49377.got.cif
#   From: 2010.05.17/outbox.cif.g08.bks.cpg/sg5_25_cif.got.tgz:49377.got - 2010.06.03 18:56:24.
