data_PCOD9121601
_publ_section_title
;
Structure prediction by ZEFSAII (Michael W. Deem and Ramdas Pophale) SiO2 
 PCOD9121601
Probable space group: C 2
;
_chemical_formula_sum "Si O2"
_cell_formula_units_Z 24
_cell_length_a 7.323512
_cell_length_b 26.011690
_cell_length_c 5.068598
_cell_angle_alpha 90.000000
_cell_angle_beta 83.273578
_cell_angle_gamma 90.000000
_cell_volume 958.906181
_symmetry_space_group_name_H-M "C 2"
_symmetry_group_IT_number 5
_symmetry_cell_setting 'monoclinic'
loop_
_space_group_symop_operation_xyz
x,y,z
-x,y,-z
1/2+x,1/2+y,z
1/2-x,1/2+y,-z
loop_
_atom_site_type_symbol
_atom_site_label
_atom_site_fract_x
_atom_site_fract_y
_atom_site_fract_z
Si Si1 0.719774 0.886260 0.426673
Si Si2 0.793951 0.216890 0.133948
Si Si3 0.280473 0.541131 0.579271
Si Si4 0.814275 0.656628 0.358503
Si Si5 0.281921 0.489640 0.085183
Si Si6 0.775046 0.331162 0.069732
O O1 0.500000 0.883226 0.500000
O O2 0.789249 0.874448 0.709460
O O3 0.756555 0.938090 0.258098
O O4 0.789694 0.842496 0.214600
O O5 0.805726 0.187022 0.406377
O O6 0.720743 0.274851 0.177184
O O7 0.692113 0.186312 0.916974
O O8 0.000000 0.222728 0.000000
O O9 0.500000 0.534107 0.500000
O O10 0.247982 0.598473 0.682145
O O11 0.205309 0.532780 0.297930
O O12 0.206412 0.499700 0.804547
O O13 0.000000 0.654809 0.500000
O O14 0.500000 0.495304 0.000000
O O15 0.000000 0.334095 0.000000
#
# Coordination Sequence:
#
# PCOD9121601 Si02
#       6
#     4   4   4   4   4   4
#     4  10  19  35  57  86 121 154 194 251 311 361
#     4  11  22  41  67  91 121 170 219 253 304 381
#     4  10  21  39  61  85 117 163 210 249 298 375
#     4  12  25  41  62  94 131 161 205 269 326 369
#     4  10  21  37  59  86 117 154 203 252 300 365
#     4   9  19  35  59  88 117 154 204 252 295 361
#
# _framework density 25.028518999999999
#
# number of rings (size 3 to 8) (size 9 to 14) (size 15 to 20)
#    0.000    1.667    0.000    5.000    0.000    4.667 
#    0.000    5.000    0.000    1.000    0.000    0.000 
#    0.000    0.000    0.000    0.000    0.000    0.000 
#
# Total GULP energy -67063.082356 kJ/mol
# GULP energy per Si atom -5588.590196 kJ/mol
# Density = 2.497155 g / cm^3
# Si number density = 25.028519 Si / 1000 Ang^3
#
#
#
# Elastic Constant Matrix: (Units=GPa)
#
#
# Indices 1 2 3 4 5 6 
#
# 1 48.1169 -5.9163 37.2261 0.0000 4.8803 0.0000
# 2 -5.9163 136.4869 70.2739 0.0000 -2.6040 0.0000
# 3 37.2261 70.2739 177.5676 0.0000 23.4512 0.0000
# 4 0.0000 0.0000 0.0000 47.6184 0.0000 9.3590
# 5 4.8803 -2.6040 23.4512 0.0000 22.2936 0.0000
# 6 0.0000 0.0000 0.0000 9.3590 0.0000 13.6508
#
#
#
# Elastic Compliance Matrix: (Units=1/GPa)
#
#
# Indices 1 2 3 4 5 6 
#
# 1 0.027705 0.005652 -0.008514 0.000000 0.003552 0.000000
# 2 0.005652 0.011023 -0.006450 0.000000 0.006835 0.000000
# 3 -0.008514 -0.006450 0.011408 0.000000 -0.010890 0.000000
# 4 0.000000 0.000000 0.000000 0.024271 0.000000 -0.016640
# 5 0.003552 0.006835 -0.010890 0.000000 0.056332 0.000000
# 6 0.000000 0.000000 0.000000 -0.016640 0.000000 0.084665
#
#
# Mechanical properties :
#
#
# Convention : Reuss Voigt Hill
#
# Bulk Modulus (GPa) = 31.73469 62.81542 47.27505
# Shear Modulus (GPa) = 20.44735 34.08506 27.26621
#
# Velocity S-wave (km/s) = 2.86136 3.69433 3.30420
# Velocity P-wave (km/s) = 4.86039 6.58403 5.78675
#
# Compressibility (1/GPa) = 0.03151126
#
# Stress axis : x y z
#
# Youngs Moduli (GPa) = 36.09510 90.71729 87.66121
#
# Poissons Ratio (x) = -0.51277 0.74637
# Poissons Ratio (y) = -0.20403 0.56544
# Poissons Ratio (z) = 0.30732 0.58515
#
# Static dielectric constant tensor:
#      x y z
#    x 2.043190 0.000000 -0.004120 
#    y 0.000000 1.997830 0.000000 
#    z -0.004120 0.000000 1.930380 
# 
# From -- ./inp_files/3345.got.cif
#   From: 2010.05.17/outbox.cif.g08.bks.cpg/sg5_2_cif.got.tgz:3345.got - 2010.06.03 18:56:24.
