data_PCOD9121432
_publ_section_title
;
Structure prediction by ZEFSAII (Michael W. Deem and Ramdas Pophale) SiO2 
 PCOD9121432
Probable space group: C 2
;
_chemical_formula_sum "Si O2"
_cell_formula_units_Z 26
_cell_length_a 8.916020
_cell_length_b 10.722294
_cell_length_c 23.108896
_cell_angle_alpha 90.000000
_cell_angle_beta 41.362928
_cell_angle_gamma 90.000000
_cell_volume 1459.907425
_symmetry_space_group_name_H-M "C 2"
_symmetry_group_IT_number 5
_symmetry_cell_setting 'monoclinic'
loop_
_space_group_symop_operation_xyz
x,y,z
-x,y,-z
1/2+x,1/2+y,z
1/2-x,1/2+y,-z
loop_
_atom_site_type_symbol
_atom_site_label
_atom_site_fract_x
_atom_site_fract_y
_atom_site_fract_z
Si Si1 0.408575 0.870930 0.652726
Si Si2 0.931332 0.770334 0.791097
Si Si3 0.051024 0.375847 0.053075
Si Si4 0.626936 0.635012 0.553956
Si Si5 0.838786 0.611296 0.373539
Si Si6 0.000000 0.457745 0.500000
Si Si7 0.250696 0.629607 0.046814
O O1 0.552031 0.744624 0.618837
O O2 0.146013 0.856748 0.744802
O O3 0.529463 0.986206 0.647593
O O4 0.421440 0.884528 0.579323
O O5 0.694202 0.840675 0.849555
O O6 0.892549 0.678838 0.856889
O O7 0.008072 0.695470 0.712151
O O8 0.153008 0.502776 0.048695
O O9 0.209047 0.250364 0.007085
O O10 0.000000 0.396541 0.000000
O O11 0.767642 0.673831 0.455394
O O12 0.392102 0.582445 0.595238
O O13 0.787209 0.539738 0.540694
O O14 0.500000 0.602091 0.000000
#
# Coordination Sequence:
#
# PCOD9121432 Si02
#       7
#     4   4   4   4   4   2   4
#     4  10  19  34  52  72 105 139 172 219 261 302
#     4   9  19  33  53  80 107 133 170 216 264 312
#     4   9  20  38  59  79 106 138 174 214 261 319
#     4   9  19  34  50  72  99 138 182 216 253 304
#     4   9  18  34  52  72 104 139 173 216 264 304
#     4  10  20  32  52  74  98 138 184 216 254 306
#     4   9  20  38  58  81 107 138 173 214 262 319
#
# _framework density 17.809348
#
# number of rings (size 3 to 8) (size 9 to 14) (size 15 to 20)
#    0.000    3.077    0.000    1.846    0.000   10.462 
#    0.000    4.615    0.000    0.000    0.000    0.000 
#    0.000    0.000    0.000    0.000    0.000    0.000 
#
# Total GULP energy -72392.792478 kJ/mol
# GULP energy per Si atom -5568.676344 kJ/mol
# Density = 1.776881 g / cm^3
# Si number density = 17.809348 Si / 1000 Ang^3
#
#
#
# Elastic Constant Matrix: (Units=GPa)
#
#
# Indices 1 2 3 4 5 6 
#
# 1 48.9301 47.0589 31.2895 0.0000 -8.7533 0.0000
# 2 47.0589 111.5217 44.8417 0.0000 -16.1173 0.0000
# 3 31.2895 44.8417 105.2760 0.0000 -22.4550 0.0000
# 4 0.0000 0.0000 0.0000 8.4985 0.0000 -0.7507
# 5 -8.7533 -16.1173 -22.4550 0.0000 15.4294 0.0000
# 6 0.0000 0.0000 0.0000 -0.7507 0.0000 43.2209
#
#
#
# Elastic Compliance Matrix: (Units=1/GPa)
#
#
# Indices 1 2 3 4 5 6 
#
# 1 0.036617 -0.013444 -0.005396 0.000000 -0.001123 0.000000
# 2 -0.013444 0.016250 -0.001352 0.000000 0.007380 0.000000
# 3 -0.005396 -0.001352 0.015552 0.000000 0.018160 0.000000
# 4 0.000000 0.000000 0.000000 0.117849 0.000000 0.002047
# 5 -0.001123 0.007380 0.018160 0.000000 0.098312 0.000000
# 6 0.000000 0.000000 0.000000 0.002047 0.000000 0.023173
#
#
# Mechanical properties :
#
#
# Convention : Reuss Voigt Hill
#
# Bulk Modulus (GPa) = 35.66970 56.90092 46.28531
# Shear Modulus (GPa) = 13.98678 22.93227 18.45953
#
# Velocity S-wave (km/s) = 2.80547 3.59228 3.22298
# Velocity P-wave (km/s) = 5.52868 7.01608 6.31632
#
# Compressibility (1/GPa) = 0.02803500
#
# Stress axis : x y z
#
# Youngs Moduli (GPa) = 27.30985 61.53897 64.30098
#
# Poissons Ratio (x) = 0.82732 0.34699
# Poissons Ratio (y) = 0.36715 0.08691
# Poissons Ratio (z) = 0.14737 0.08318
#
# Static dielectric constant tensor:
#      x y z
#    x 1.591700 0.000000 -0.003510 
#    y 0.000000 1.631840 0.000000 
#    z -0.003510 0.000000 1.628290 
# 
# From -- ./inp_files/50097.got.cif
#   From: 2010.05.17/outbox.cif.g08.bks.cpg/sg5_26_cif.got.tgz:50097.got - 2010.06.03 18:56:24.
