data_PCOD9121656
_publ_section_title
;
Structure prediction by ZEFSAII (Michael W. Deem and Ramdas Pophale) SiO2 
 PCOD9121656
Probable space group: C 2
;
_chemical_formula_sum "Si O2"
_cell_formula_units_Z 32
_cell_length_a 24.226826
_cell_length_b 8.799314
_cell_length_c 18.920752
_cell_angle_alpha 90.000000
_cell_angle_beta 21.541933
_cell_angle_gamma 90.000000
_cell_volume 1481.034576
_symmetry_space_group_name_H-M "C 2"
_symmetry_group_IT_number 5
_symmetry_cell_setting 'monoclinic'
loop_
_space_group_symop_operation_xyz
x,y,z
-x,y,-z
1/2+x,1/2+y,z
1/2-x,1/2+y,-z
loop_
_atom_site_type_symbol
_atom_site_label
_atom_site_fract_x
_atom_site_fract_y
_atom_site_fract_z
Si Si1 0.915070 0.444140 0.697519
Si Si2 0.905855 0.850327 0.416971
Si Si3 0.094513 0.560273 0.135751
Si Si4 0.681309 0.380115 0.630608
Si Si5 0.779661 0.589677 0.641024
Si Si6 0.025019 0.246223 0.757668
Si Si7 0.392003 0.501685 0.020150
Si Si8 0.421685 0.626380 0.733372
O O1 0.866507 0.482314 0.835459
O O2 0.766165 0.466079 0.829360
O O3 0.977685 0.271380 0.622213
O O4 0.058251 0.553466 0.516175
O O5 0.848434 0.931926 0.414628
O O6 0.782351 0.760981 0.609541
O O7 0.007754 0.714022 0.261732
O O8 0.991040 0.967761 0.366121
O O9 0.011639 0.426628 0.191367
O O10 0.251049 0.601453 0.913834
O O11 0.764215 0.486447 0.589210
O O12 0.800191 0.246735 0.474382
O O13 0.514355 0.367507 0.863055
O O14 0.653777 0.544386 0.846351
O O15 0.929744 0.182308 0.805262
O O16 0.974861 0.145107 0.883639
#
# Coordination Sequence:
#
# PCOD9121656 Si02
#       8
#     4   4   4   4   4   4   4   4
#     4  10  21  40  64  97 133 179 217 272 335 414
#     4  11  22  37  67  98 132 174 225 280 332 395
#     4  10  19  35  61 100 130 165 229 278 328 392
#     4  12  22  41  63  98 127 176 224 279 324 397
#     4  11  25  43  69  98 137 176 227 273 343 413
#     4  11  22  37  64  96 128 171 232 275 324 399
#     4  12  24  43  71  98 135 181 223 279 348 404
#     4  11  19  36  66  97 130 167 230 281 326 385
#
# _framework density 21.606515999999999
#
# number of rings (size 3 to 8) (size 9 to 14) (size 15 to 20)
#    0.000    1.000    6.250    3.750    1.750    0.000 
#    0.000    0.000    8.250    0.000    0.000    0.000 
#    0.000    0.000    0.000    0.000    0.000    0.000 
#
# Total GULP energy -89179.233317 kJ/mol
# GULP energy per Si atom -5573.702082 kJ/mol
# Density = 2.155734 g / cm^3
# Si number density = 21.606516 Si / 1000 Ang^3
#
#
#
# Elastic Constant Matrix: (Units=GPa)
#
#
# Indices 1 2 3 4 5 6 
#
# 1 64.5285 37.5791 45.3236 0.0000 -5.3744 0.0000
# 2 37.5791 115.0804 33.9865 -0.0002 3.3473 0.0000
# 3 45.3236 33.9865 105.2609 -0.0001 -2.2275 0.0000
# 4 0.0000 -0.0002 -0.0001 30.2189 0.0000 -3.4224
# 5 -5.3744 3.3473 -2.2275 0.0000 40.9269 0.0000
# 6 0.0000 0.0000 0.0000 -3.4224 0.0000 16.5928
#
#
#
# Elastic Compliance Matrix: (Units=1/GPa)
#
#
# Indices 1 2 3 4 5 6 
#
# 1 0.025469 -0.005743 -0.009042 0.000000 0.003322 0.000000
# 2 -0.005743 0.010938 -0.001095 0.000000 -0.001708 0.000000
# 3 -0.009042 -0.001095 0.013740 0.000000 -0.000350 0.000000
# 4 0.000000 0.000000 0.000000 0.033883 0.000000 0.006989
# 5 0.003322 -0.001708 -0.000350 0.000000 0.024991 0.000000
# 6 0.000000 0.000000 0.000000 0.006989 0.000000 0.061708
#
#
# Mechanical properties :
#
#
# Convention : Reuss Voigt Hill
#
# Bulk Modulus (GPa) = 54.38676 57.62758 56.00717
# Shear Modulus (GPa) = 23.96717 28.74643 26.35680
#
# Velocity S-wave (km/s) = 3.33416 3.65149 3.49643
# Velocity P-wave (km/s) = 6.32837 6.67137 6.50213
#
# Compressibility (1/GPa) = 0.01838683
#
# Stress axis : x y z
#
# Youngs Moduli (GPa) = 39.26294 91.42410 72.78197
#
# Poissons Ratio (x) = 0.52506 0.65810
# Poissons Ratio (y) = 0.22549 0.07969
# Poissons Ratio (z) = 0.35502 0.10010
#
# Static dielectric constant tensor:
#      x y z
#    x 1.813680 0.000000 -0.047670 
#    y 0.000000 1.885660 0.000000 
#    z -0.047670 0.000000 1.843080 
# 
# From -- ./inp_files/67566.got.cif
#   From: 2010.05.17/outbox.cif.g08.bks.cpg/sg5_34_cif.got.tgz:67566.got - 2010.06.03 18:56:24.
