data_PCOD9121973
_publ_section_title
;
Structure prediction by ZEFSAII (Michael W. Deem and Ramdas Pophale) SiO2 
 PCOD9121973
Probable space group: C 2
;
_chemical_formula_sum "Si O2"
_cell_formula_units_Z 28
_cell_length_a 16.377783
_cell_length_b 11.523140
_cell_length_c 14.331693
_cell_angle_alpha 90.000000
_cell_angle_beta 24.897350
_cell_angle_gamma 90.000000
_cell_volume 1138.673492
_symmetry_space_group_name_H-M "C 2"
_symmetry_group_IT_number 5
_symmetry_cell_setting 'monoclinic'
loop_
_space_group_symop_operation_xyz
x,y,z
-x,y,-z
1/2+x,1/2+y,z
1/2-x,1/2+y,-z
loop_
_atom_site_type_symbol
_atom_site_label
_atom_site_fract_x
_atom_site_fract_y
_atom_site_fract_z
Si Si1 0.706793 0.192860 0.066053
Si Si2 0.790071 0.418314 0.637664
Si Si3 0.014899 0.491119 0.142439
Si Si4 0.853808 0.846820 0.038257
Si Si5 0.500000 0.817373 0.000000
Si Si6 0.885404 0.272612 0.381788
Si Si7 0.653340 0.181976 0.466935
Si Si8 0.500000 0.144045 0.000000
O O1 0.576774 0.208950 0.293236
O O2 0.685789 0.310381 0.025130
O O3 0.937622 0.193436 0.837160
O O4 0.643335 0.076069 0.074553
O O5 0.790804 0.421667 0.749824
O O6 0.889302 0.306466 0.486078
O O7 0.839105 0.546386 0.556440
O O8 0.566947 0.398655 0.833167
O O9 0.097905 0.399877 0.978582
O O10 0.894537 0.402619 0.329414
O O11 0.902587 0.572426 0.184600
O O12 0.854585 0.726216 0.095392
O O13 0.676838 0.745313 0.768373
O O14 0.701001 0.213114 0.526292
#
# Coordination Sequence:
#
# PCOD9121973 Si02
#       8
#     4   4   4   4   2   4   4   2
#     4  11  22  39  64  88 128 161 208 251 301 360
#     4  10  19  37  63  90 125 160 205 251 310 355
#     4   9  18  38  59  88 122 159 198 255 294 358
#     4   9  19  35  64  93 120 163 208 248 304 370
#     4   9  20  39  70  88 124 163 204 243 322 362
#     4  11  23  37  64  95 121 162 210 247 308 370
#     4  11  22  42  65  91 123 165 199 260 303 370
#     4   7  14  31  62  80 114 161 196 245 296 342
#
# _framework density 24.590017
#
# number of rings (size 3 to 8) (size 9 to 14) (size 15 to 20)
#    0.000    2.286    2.857    0.857    0.000    1.714 
#    0.000    2.857   15.714    0.000    0.000    0.000 
#    0.000    0.000    0.000    0.000    0.000    0.000 
#
# Total GULP energy -77974.523627 kJ/mol
# GULP energy per Si atom -5569.608831 kJ/mol
# Density = 2.453405 g / cm^3
# Si number density = 24.590017 Si / 1000 Ang^3
#
#
#
# Elastic Constant Matrix: (Units=GPa)
#
#
# Indices 1 2 3 4 5 6 
#
# 1 49.3891 24.7940 7.2272 -0.0006 3.4155 0.0001
# 2 24.7940 109.9599 37.5493 -0.0006 7.1952 0.0002
# 3 7.2272 37.5493 123.1468 -0.0013 21.0267 0.0005
# 4 -0.0006 -0.0006 -0.0013 23.7446 0.0008 8.8512
# 5 3.4155 7.1952 21.0267 0.0008 36.6049 -0.0002
# 6 0.0001 0.0002 0.0005 8.8512 -0.0002 41.4887
#
#
#
# Elastic Compliance Matrix: (Units=1/GPa)
#
#
# Indices 1 2 3 4 5 6 
#
# 1 0.022903 -0.005241 0.000491 0.000001 -0.001389 0.000000
# 2 -0.005241 0.011352 -0.003167 0.000000 0.000077 0.000000
# 3 0.000491 -0.003167 0.009933 0.000001 -0.005129 0.000000
# 4 0.000001 0.000000 0.000001 0.045753 -0.000002 -0.009761
# 5 -0.001389 0.000077 -0.005129 -0.000002 0.030379 0.000001
# 6 0.000000 0.000000 0.000000 -0.009761 0.000001 0.026185
#
#
# Mechanical properties :
#
#
# Convention : Reuss Voigt Hill
#
# Bulk Modulus (GPa) = 35.26814 46.84853 41.05833
# Shear Modulus (GPa) = 29.10506 34.56267 31.83386
#
# Velocity S-wave (km/s) = 3.44410 3.75314 3.60194
# Velocity P-wave (km/s) = 5.49448 6.15424 5.83370
#
# Compressibility (1/GPa) = 0.02835420
#
# Stress axis : x y z
#
# Youngs Moduli (GPa) = 43.66319 88.08690 100.67442
#
# Poissons Ratio (x) = 0.46166 -0.04944
# Poissons Ratio (y) = 0.22884 0.31884
# Poissons Ratio (z) = -0.02144 0.27898
#
# Static dielectric constant tensor:
#      x y z
#    x 2.070090 0.000000 0.045590 
#    y 0.000000 1.957970 0.000000 
#    z 0.045590 0.000000 2.061620 
# 
# From -- ./inp_files/62898.got.cif
#   From: 2010.05.17/outbox.cif.g08.bks.cpg/sg5_32_cif.got.tgz:62898.got - 2010.06.03 18:56:24.
