data_PCOD9121861
_publ_section_title
;
Structure prediction by ZEFSAII (Michael W. Deem and Ramdas Pophale) SiO2 
 PCOD9121861
Probable space group: C 2
;
_chemical_formula_sum "Si O2"
_cell_formula_units_Z 28
_cell_length_a 11.478207
_cell_length_b 8.088897
_cell_length_c 14.823551
_cell_angle_alpha 90.000000
_cell_angle_beta 115.696338
_cell_angle_gamma 90.000000
_cell_volume 1240.197588
_symmetry_space_group_name_H-M "C 2"
_symmetry_group_IT_number 5
_symmetry_cell_setting 'monoclinic'
loop_
_space_group_symop_operation_xyz
x,y,z
-x,y,-z
1/2+x,1/2+y,z
1/2-x,1/2+y,-z
loop_
_atom_site_type_symbol
_atom_site_label
_atom_site_fract_x
_atom_site_fract_y
_atom_site_fract_z
Si Si1 0.729922 0.138470 0.371372
Si Si2 0.700203 0.240035 0.171985
Si Si3 0.230116 0.257554 0.431387
Si Si4 0.948109 0.585223 0.288798
Si Si5 0.500000 0.037050 0.000000
Si Si6 0.917489 0.323615 0.118513
Si Si7 0.500000 0.074408 0.500000
Si Si8 0.835171 0.113440 0.772431
O O1 0.770778 0.159833 0.282138
O O2 0.805296 0.235691 0.475173
O O3 0.577585 0.191825 0.319386
O O4 0.728759 0.946442 0.399513
O O5 0.792035 0.235523 0.115437
O O6 0.668321 0.426236 0.193325
O O7 0.572552 0.145217 0.098642
O O8 0.375855 0.188427 0.476342
O O9 0.157138 0.144691 0.333114
O O10 0.946754 0.453089 0.208904
O O11 0.965880 0.494231 0.392269
O O12 0.809463 0.675694 0.247911
O O13 0.600280 0.922557 0.979572
O O14 0.042957 0.209904 0.147876
#
# Coordination Sequence:
#
# PCOD9121861 Si02
#       8
#     4   4   4   4   2   4   2   4
#     4  11  20  41  63 100 141 178 227 271 332 398
#     4  11  26  45  69 102 131 174 224 281 339 400
#     4  10  19  36  64  96 142 186 219 268 329 399
#     4   9  18  38  67  91 135 178 212 271 327 383
#     4  12  26  48  70  96 136 174 222 286 346 388
#     4  11  24  46  69  98 130 177 224 278 338 395
#     4   8  18  32  58  98 132 184 220 266 326 382
#     4  10  21  42  65  99 135 173 224 269 331 396
#
# _framework density 22.577047
#
# number of rings (size 3 to 8) (size 9 to 14) (size 15 to 20)
#    0.000    1.714    2.857    0.857    0.000    5.143 
#   12.857    0.000    0.000    0.000    0.000    0.000 
#    0.000    0.000    0.000    0.000    0.000    0.000 
#
# Total GULP energy -78112.833051 kJ/mol
# GULP energy per Si atom -5579.488075 kJ/mol
# Density = 2.252566 g / cm^3
# Si number density = 22.577047 Si / 1000 Ang^3
#
#
#
# Elastic Constant Matrix: (Units=GPa)
#
#
# Indices 1 2 3 4 5 6 
#
# 1 56.5845 25.7697 9.9737 0.0000 -9.8324 0.0000
# 2 25.7697 71.9018 46.8597 0.0000 -8.9639 0.0000
# 3 9.9737 46.8597 86.2196 0.0000 -20.8761 0.0000
# 4 0.0000 0.0000 0.0000 41.5243 0.0000 -1.4121
# 5 -9.8324 -8.9639 -20.8761 0.0000 33.5892 0.0000
# 6 0.0000 0.0000 0.0000 -1.4121 0.0000 28.7640
#
#
#
# Elastic Compliance Matrix: (Units=1/GPa)
#
#
# Indices 1 2 3 4 5 6 
#
# 1 0.022731 -0.010309 0.004612 0.000000 0.006769 0.000000
# 2 -0.010309 0.026304 -0.014284 0.000000 -0.004876 0.000000
# 3 0.004612 -0.014284 0.021462 0.000000 0.010877 0.000000
# 4 0.000000 0.000000 0.000000 0.024123 0.000000 0.001184
# 5 0.006769 -0.004876 0.010877 0.000000 0.037212 0.000000
# 6 0.000000 0.000000 0.000000 0.001184 0.000000 0.034824
#
#
# Mechanical properties :
#
#
# Convention : Reuss Voigt Hill
#
# Bulk Modulus (GPa) = 32.74887 42.21245 37.48066
# Shear Modulus (GPa) = 23.06341 29.58234 26.32288
#
# Velocity S-wave (km/s) = 3.19963 3.62371 3.41825
# Velocity P-wave (km/s) = 5.30914 6.02047 5.67596
#
# Compressibility (1/GPa) = 0.03053540
#
# Stress axis : x y z
#
# Youngs Moduli (GPa) = 43.99321 38.01740 46.59502
#
# Poissons Ratio (x) = 0.39191 -0.21491
# Poissons Ratio (y) = 0.45351 0.66556
# Poissons Ratio (z) = -0.20291 0.54304
#
# Static dielectric constant tensor:
#      x y z
#    x 1.912100 0.000000 -0.039190 
#    y 0.000000 1.843810 0.000000 
#    z -0.039190 0.000000 1.858840 
# 
# From -- ./inp_files/52319.got.cif
#   From: 2010.05.17/outbox.cif.g08.bks.cpg/sg5_27_cif.got.tgz:52319.got - 2010.06.03 18:56:24.
