data_PCOD9121578
_publ_section_title
;
Structure prediction by ZEFSAII (Michael W. Deem and Ramdas Pophale) SiO2 
 PCOD9121578
Probable space group: C 2
;
_chemical_formula_sum "Si O2"
_cell_formula_units_Z 30
_cell_length_a 5.298953
_cell_length_b 25.117888
_cell_length_c 11.835965
_cell_angle_alpha 90.000000
_cell_angle_beta 83.042829
_cell_angle_gamma 90.000000
_cell_volume 1563.749942
_symmetry_space_group_name_H-M "C 2"
_symmetry_group_IT_number 5
_symmetry_cell_setting 'monoclinic'
loop_
_space_group_symop_operation_xyz
x,y,z
-x,y,-z
1/2+x,1/2+y,z
1/2-x,1/2+y,-z
loop_
_atom_site_type_symbol
_atom_site_label
_atom_site_fract_x
_atom_site_fract_y
_atom_site_fract_z
Si Si1 0.137680 0.886670 0.596736
Si Si2 0.038586 0.279049 0.863736
Si Si3 0.229167 0.008282 0.560903
Si Si4 0.540684 0.218359 0.860820
Si Si5 0.362834 0.002215 0.803610
Si Si6 0.000000 0.043941 0.000000
Si Si7 0.905603 0.387216 0.262851
Si Si8 0.348387 0.099841 0.128191
O O1 0.393828 0.869449 0.648320
O O2 0.000000 0.855951 0.500000
O O3 0.892601 0.893408 0.691112
O O4 0.220920 0.944260 0.543927
O O5 0.286616 0.243616 0.823104
O O6 0.076615 0.339849 0.827364
O O7 0.784591 0.254669 0.823630
O O8 0.000000 0.275804 0.000000
O O9 0.500000 0.027403 0.500000
O O10 0.207706 0.013137 0.696888
O O11 0.000000 0.031307 0.500000
O O12 0.603839 0.157662 0.824669
O O13 0.500000 0.217605 0.000000
O O14 0.560235 0.050658 0.802574
O O15 0.204273 0.006165 0.928282
O O16 0.492285 0.944793 0.782001
O O17 0.927803 0.084129 0.902345
O O18 0.500000 0.098179 0.000000
#
# Coordination Sequence:
#
# PCOD9121578 Si02
#       8
#     4   4   4   4   4   2   4   4
#     4  10  19  35  56  79 106 143 189 237 275 313
#     4  10  21  36  52  79 110 150 181 224 269 330
#     4  10  20  35  56  79 111 151 195 237 270 322
#     4   9  19  35  56  73 104 143 196 234 264 305
#     4  10  22  35  54  85 118 155 183 229 289 347
#     4  10  22  34  54  84 126 150 192 222 294 354
#     4  11  22  35  55  82 119 145 183 220 277 357
#     4   9  20  34  54  81 107 149 189 237 274 332
#
# _framework density 19.184653999999998
#
# number of rings (size 3 to 8) (size 9 to 14) (size 15 to 20)
#    0.000    2.133    0.000    4.400   12.133    1.600 
#    3.600    0.000    0.000    0.000    0.000    9.333 
#    0.000    0.000    0.000    0.000    0.000    0.000 
#
# Total GULP energy -83514.742265 kJ/mol
# GULP energy per Si atom -5567.649484 kJ/mol
# Density = 1.914099 g / cm^3
# Si number density = 19.184654 Si / 1000 Ang^3
#
#
#
# Elastic Constant Matrix: (Units=GPa)
#
#
# Indices 1 2 3 4 5 6 
#
# 1 116.2503 27.3622 19.8580 0.0000 -2.9207 0.0000
# 2 27.3622 102.0042 17.8070 0.0000 -4.7175 0.0000
# 3 19.8580 17.8070 30.2997 0.0000 -1.6670 0.0000
# 4 0.0000 0.0000 0.0000 -6.1511 0.0000 0.8621
# 5 -2.9207 -4.7175 -1.6670 0.0000 28.4239 0.0000
# 6 0.0000 0.0000 0.0000 0.8621 0.0000 10.7044
#
#
#
# Elastic Compliance Matrix: (Units=1/GPa)
#
#
# Indices 1 2 3 4 5 6 
#
# 1 0.009951 -0.001689 -0.005506 0.000000 0.000419 0.000000
# 2 -0.001689 0.011270 -0.005441 0.000000 0.001378 0.000000
# 3 -0.005506 -0.005441 0.039858 0.000000 0.000869 0.000000
# 4 0.000000 0.000000 0.000000 -0.160758 0.000000 0.012947
# 5 0.000419 0.001378 0.000869 0.000000 0.035504 0.000000
# 6 0.000000 0.000000 0.000000 0.012947 0.000000 0.092377
#
#
# Mechanical properties :
#
#
# Convention : Reuss Voigt Hill
#
# Bulk Modulus (GPa) = 27.92734 42.06761 34.99747
# Shear Modulus (GPa) = 76.44318 18.83058 47.63688
#
# Velocity S-wave (km/s) = 6.31922 3.13636 4.98845
# Velocity P-wave (km/s) = 8.23602 5.92377 7.17367
#
# Compressibility (1/GPa) = 0.03580721
#
# Stress axis : x y z
#
# Youngs Moduli (GPa) = 100.49580 88.73098 25.08938
#
# Poissons Ratio (x) = 0.14983 0.13814
# Poissons Ratio (y) = 0.16970 0.13651
# Poissons Ratio (z) = 0.55333 0.48277
#
# Static dielectric constant tensor:
#      x y z
#    x 1.800690 0.000000 0.017170 
#    y 0.000000 1.633530 0.000000 
#    z 0.017170 0.000000 1.734020 
# 
# From -- ./inp_files/34208.got.cif
#   From: 2010.05.17/outbox.cif.g08.bks.cpg/sg5_18_cif.got.tgz:34208.got - 2010.06.03 18:56:24.
