data_PCOD9121573
_publ_section_title
;
Structure prediction by ZEFSAII (Michael W. Deem and Ramdas Pophale) SiO2 
 PCOD9121573
Probable space group: C 2
;
_chemical_formula_sum "Si O2"
_cell_formula_units_Z 26
_cell_length_a 20.457535
_cell_length_b 9.795543
_cell_length_c 8.218220
_cell_angle_alpha 90.000000
_cell_angle_beta 127.805791
_cell_angle_gamma 90.000000
_cell_volume 1301.181347
_symmetry_space_group_name_H-M "C 2"
_symmetry_group_IT_number 5
_symmetry_cell_setting 'monoclinic'
loop_
_space_group_symop_operation_xyz
x,y,z
-x,y,-z
1/2+x,1/2+y,z
1/2-x,1/2+y,-z
loop_
_atom_site_type_symbol
_atom_site_label
_atom_site_fract_x
_atom_site_fract_y
_atom_site_fract_z
Si Si1 0.500000 0.603500 0.500000
Si Si2 0.069113 0.798061 0.998406
Si Si3 0.184509 0.008990 0.748212
Si Si4 0.452551 0.607019 0.089285
Si Si5 0.301503 0.233843 0.059349
Si Si6 0.740650 0.621121 0.288164
Si Si7 0.777768 0.874920 0.540815
O O1 0.586003 0.522415 0.613046
O O2 0.486141 0.675671 0.304803
O O3 0.115518 0.725313 0.920974
O O4 0.032038 0.942517 0.877937
O O5 0.139432 0.838098 0.235561
O O6 0.000000 0.723075 0.000000
O O7 0.213847 0.893767 0.923452
O O8 0.205214 0.956320 0.599977
O O9 0.230349 0.151290 0.855502
O O10 0.500000 0.654424 0.000000
O O11 0.353450 0.618869 0.923105
O O12 0.301684 0.167347 0.238462
O O13 0.737451 0.734666 0.424110
O O14 0.767062 0.478321 0.406080
#
# Coordination Sequence:
#
# PCOD9121573 Si02
#       7
#     2   4   4   4   4   4   4
#     4  12  18  36  62  96 124 162 214 264 306 368
#     4  10  19  35  55  89 125 159 209 267 312 365
#     4  11  22  35  64  94 124 165 210 258 316 377
#     4  10  20  35  59  93 125 158 213 269 310 371
#     4  11  21  38  59  93 129 161 206 266 315 375
#     4  10  20  38  55  94 124 163 210 263 312 386
#     4  10  21  35  61  86 123 167 209 258 316 378
#
# _framework density 19.981843999999999
#
# number of rings (size 3 to 8) (size 9 to 14) (size 15 to 20)
#    0.000    1.538    3.077    4.615    0.000    0.000 
#    0.000    0.000    0.000    9.231    4.000    0.000 
#    0.000    0.000    0.000    0.000    0.000    0.000 
#
# Total GULP energy -72470.678262 kJ/mol
# GULP energy per Si atom -5574.667559 kJ/mol
# Density = 1.993636 g / cm^3
# Si number density = 19.981844 Si / 1000 Ang^3
#
#
#
# Elastic Constant Matrix: (Units=GPa)
#
#
# Indices 1 2 3 4 5 6 
#
# 1 131.2756 29.4385 25.5619 0.0000 -20.2933 0.0000
# 2 29.4385 58.3984 32.6785 0.0000 2.8503 0.0000
# 3 25.5619 32.6785 81.4012 0.0000 -24.9715 0.0000
# 4 0.0000 0.0000 0.0000 27.3593 0.0000 -9.5150
# 5 -20.2933 2.8503 -24.9715 0.0000 30.8145 0.0000
# 6 0.0000 0.0000 0.0000 -9.5150 0.0000 21.9398
#
#
#
# Elastic Compliance Matrix: (Units=1/GPa)
#
#
# Indices 1 2 3 4 5 6 
#
# 1 0.010134 -0.006938 0.002459 0.000000 0.009308 0.000000
# 2 -0.006938 0.030984 -0.016690 0.000000 -0.020960 0.000000
# 3 0.002459 -0.016690 0.025530 0.000000 0.023852 0.000000
# 4 0.000000 0.000000 0.000000 0.043042 0.000000 0.018667
# 5 0.009308 -0.020960 0.023852 0.000000 0.059850 0.000000
# 6 0.000000 0.000000 0.000000 0.018667 0.000000 0.053675
#
#
# Mechanical properties :
#
#
# Convention : Reuss Voigt Hill
#
# Bulk Modulus (GPa) = 41.13810 49.60366 45.37088
# Shear Modulus (GPa) = 18.27114 28.24915 23.26015
#
# Velocity S-wave (km/s) = 3.02716 3.76405 3.41554
# Velocity P-wave (km/s) = 5.73156 6.61582 6.18950
#
# Compressibility (1/GPa) = 0.02430836
#
# Stress axis : x y z
#
# Youngs Moduli (GPa) = 98.68132 32.27520 39.16983
#
# Poissons Ratio (x) = 0.22394 -0.09630
# Poissons Ratio (y) = 0.68469 0.65373
# Poissons Ratio (z) = -0.24262 0.53866
#
# Static dielectric constant tensor:
#      x y z
#    x 1.744480 0.000000 -0.050680 
#    y 0.000000 1.716640 0.000000 
#    z -0.050680 0.000000 1.736300 
# 
# From -- ./inp_files/29022.got.cif
#   From: 2010.05.17/outbox.cif.g08.bks.cpg/sg5_15_cif.got.tgz:29022.got - 2010.06.03 18:56:24.
