data_PCOD9121507
_publ_section_title
;
Structure prediction by ZEFSAII (Michael W. Deem and Ramdas Pophale) SiO2 
 PCOD9121507
Probable space group: C 2
;
_chemical_formula_sum "Si O2"
_cell_formula_units_Z 28
_cell_length_a 27.211471
_cell_length_b 9.072466
_cell_length_c 8.677354
_cell_angle_alpha 90.000000
_cell_angle_beta 40.595604
_cell_angle_gamma 90.000000
_cell_volume 1393.978717
_symmetry_space_group_name_H-M "C 2"
_symmetry_group_IT_number 5
_symmetry_cell_setting 'monoclinic'
loop_
_space_group_symop_operation_xyz
x,y,z
-x,y,-z
1/2+x,1/2+y,z
1/2-x,1/2+y,-z
loop_
_atom_site_type_symbol
_atom_site_label
_atom_site_fract_x
_atom_site_fract_y
_atom_site_fract_z
Si Si1 0.643517 0.728990 0.262218
Si Si2 0.375886 0.418627 0.831621
Si Si3 0.771881 0.311150 0.632049
Si Si4 0.199143 0.736318 0.254011
Si Si5 0.675858 0.117779 0.636223
Si Si6 0.595720 0.030823 0.375420
Si Si7 0.048227 0.677622 0.175814
O O1 0.613279 0.583352 0.252389
O O2 0.678890 0.732209 0.350815
O O3 0.583363 0.858739 0.410883
O O4 0.714942 0.774563 0.985304
O O5 0.354890 0.335371 0.722458
O O6 0.441461 0.341983 0.777820
O O7 0.301556 0.388058 0.113513
O O8 0.739772 0.181662 0.599195
O O9 0.812024 0.447262 0.445437
O O10 0.181821 0.722419 0.473039
O O11 0.179207 0.573525 0.233526
O O12 0.596416 0.146447 0.910299
O O13 0.585882 0.084336 0.225293
O O14 0.536395 0.117285 0.623823
#
# Coordination Sequence:
#
# PCOD9121507 Si02
#       7
#     4   4   4   4   4   4   4
#     4  11  19  36  60  88 117 153 206 249 292 359
#     4   9  19  36  57  84 119 159 203 248 293 371
#     4  10  22  33  53  93 126 159 194 250 314 340
#     4  10  19  34  58  87 119 156 195 245 304 351
#     4  11  21  35  55  92 129 154 197 255 300 358
#     4  10  20  40  59  84 115 160 208 239 292 372
#     4   9  22  38  58  85 117 162 200 243 304 363
#
# _framework density 20.086389
#
# number of rings (size 3 to 8) (size 9 to 14) (size 15 to 20)
#    0.000    2.000    2.857    1.714    4.000    0.571 
#    0.000    5.714    0.000    0.000   11.143    0.000 
#    0.000    0.000    0.000    0.000    0.000    0.000 
#
# Total GULP energy -78007.963359 kJ/mol
# GULP energy per Si atom -5571.997383 kJ/mol
# Density = 2.004067 g / cm^3
# Si number density = 20.086389 Si / 1000 Ang^3
#
#
#
# Elastic Constant Matrix: (Units=GPa)
#
#
# Indices 1 2 3 4 5 6 
#
# 1 41.2174 9.9042 19.7822 0.0000 10.3340 0.0000
# 2 9.9042 102.1050 27.6081 0.0000 -5.7443 0.0000
# 3 19.7822 27.6081 112.8324 0.0000 13.7620 0.0000
# 4 0.0000 0.0000 0.0000 20.7986 0.0000 5.7960
# 5 10.3340 -5.7443 13.7620 0.0000 30.1076 0.0000
# 6 0.0000 0.0000 0.0000 5.7960 0.0000 28.6823
#
#
#
# Elastic Compliance Matrix: (Units=1/GPa)
#
#
# Indices 1 2 3 4 5 6 
#
# 1 0.028640 -0.002356 -0.003379 0.000000 -0.008735 0.000000
# 2 -0.002356 0.011013 -0.002792 0.000000 0.004186 0.000000
# 3 -0.003379 -0.002792 0.010656 0.000000 -0.004244 0.000000
# 4 0.000000 0.000000 0.000000 0.050949 0.000000 -0.010296
# 5 -0.008735 0.004186 -0.004244 0.000000 0.038951 0.000000
# 6 0.000000 0.000000 0.000000 -0.010296 0.000000 0.036945
#
#
# Mechanical properties :
#
#
# Convention : Reuss Voigt Hill
#
# Bulk Modulus (GPa) = 30.07176 41.19375 35.63276
# Shear Modulus (GPa) = 24.35545 29.17506 26.76526
#
# Velocity S-wave (km/s) = 3.48593 3.81527 3.65431
# Velocity P-wave (km/s) = 5.58623 6.32149 5.96520
#
# Compressibility (1/GPa) = 0.03325379
#
# Stress axis : x y z
#
# Youngs Moduli (GPa) = 34.91663 90.80316 93.84397
#
# Poissons Ratio (x) = 0.21390 0.31714
# Poissons Ratio (y) = 0.08225 0.26203
# Poissons Ratio (z) = 0.11800 0.25354
#
# Static dielectric constant tensor:
#      x y z
#    x 1.759930 0.000000 -0.037120 
#    y 0.000000 1.806170 0.000000 
#    z -0.037120 0.000000 1.728570 
# 
# From -- ./inp_files/32465.got.cif
#   From: 2010.05.17/outbox.cif.g08.bks.cpg/sg5_17_cif.got.tgz:32465.got - 2010.06.03 18:56:24.
