data_PCOD9121457
_publ_section_title
;
Structure prediction by ZEFSAII (Michael W. Deem and Ramdas Pophale) SiO2 
 PCOD9121457
Probable space group: C 2
;
_chemical_formula_sum "Si O2"
_cell_formula_units_Z 28
_cell_length_a 27.787737
_cell_length_b 5.174316
_cell_length_c 14.332976
_cell_angle_alpha 90.000000
_cell_angle_beta 136.478239
_cell_angle_gamma 90.000000
_cell_volume 1419.150502
_symmetry_space_group_name_H-M "C 2"
_symmetry_group_IT_number 5
_symmetry_cell_setting 'monoclinic'
loop_
_space_group_symop_operation_xyz
x,y,z
-x,y,-z
1/2+x,1/2+y,z
1/2-x,1/2+y,-z
loop_
_atom_site_type_symbol
_atom_site_label
_atom_site_fract_x
_atom_site_fract_y
_atom_site_fract_z
Si Si1 0.219433 0.039170 0.665824
Si Si2 0.007842 0.948744 0.821715
Si Si3 0.843485 0.980328 0.623473
Si Si4 0.500958 0.940817 0.706588
Si Si5 0.349239 0.978614 0.749917
Si Si6 0.634038 0.032553 0.583569
Si Si7 0.000000 0.673530 0.000000
Si Si8 0.000000 0.467137 0.500000
O O1 0.198917 0.048242 0.527797
O O2 0.303419 0.034042 0.778072
O O3 0.332504 0.696786 0.686615
O O4 0.185451 0.771409 0.649588
O O5 0.924156 0.976347 0.706988
O O6 0.029553 0.231456 0.818831
O O7 0.026408 0.723505 0.773719
O O8 0.025241 0.850886 0.949365
O O9 0.830444 0.700115 0.648478
O O10 0.416052 0.976775 0.577467
O O11 0.517388 0.840121 0.624587
O O12 0.180336 0.275813 0.661228
O O13 0.432711 0.005646 0.878652
O O14 0.573094 0.098802 0.573181
#
# Coordination Sequence:
#
# PCOD9121457 Si02
#       8
#     4   4   4   4   4   4   2   2
#     4  12  20  34  52  82 111 150 179 232 295 347
#     4  11  20  35  56  77 113 155 189 233 272 316
#     4  11  18  34  51  76 105 144 189 234 281 334
#     4  10  19  34  55  83 114 143 176 231 293 346
#     4  11  24  34  52  73 110 152 198 235 271 312
#     4  10  20  33  55  82 120 135 174 224 292 367
#     4  10  26  40  54  80 116 162 214 232 250 328
#     4   8  20  34  56  90 118 138 172 230 302 376
#
# _framework density 19.730111999999998
#
# number of rings (size 3 to 8) (size 9 to 14) (size 15 to 20)
#    0.857    0.571    2.857    4.286    0.000    7.429 
#    0.000    0.000    0.000    0.000    0.000    4.000 
#    0.000    0.000    0.000    0.000    0.000    0.000 
#
# Total GULP energy -77940.062399 kJ/mol
# GULP energy per Si atom -5567.147314 kJ/mol
# Density = 1.968521 g / cm^3
# Si number density = 19.730112 Si / 1000 Ang^3
#
#
#
# Elastic Constant Matrix: (Units=GPa)
#
#
# Indices 1 2 3 4 5 6 
#
# 1 92.8306 25.8805 9.7023 0.0000 9.4995 0.0000
# 2 25.8805 96.5919 1.0710 0.0004 2.4121 0.0001
# 3 9.7023 1.0710 22.1648 0.0000 -3.0296 0.0000
# 4 0.0000 0.0004 0.0000 5.4938 0.0000 -1.5216
# 5 9.4995 2.4121 -3.0296 0.0000 27.1144 0.0000
# 6 0.0000 0.0001 0.0000 -1.5216 0.0000 10.2074
#
#
#
# Elastic Compliance Matrix: (Units=1/GPa)
#
#
# Indices 1 2 3 4 5 6 
#
# 1 0.012816 -0.003244 -0.006121 0.000000 -0.004886 0.000000
# 2 -0.003244 0.011206 0.000912 -0.000001 0.000242 0.000000
# 3 -0.006121 0.000912 0.048779 -0.000001 0.007514 0.000000
# 4 0.000000 -0.000001 -0.000001 0.189864 0.000000 0.028302
# 5 -0.004886 0.000242 0.007514 0.000000 0.039410 0.000000
# 6 0.000000 0.000000 0.000000 0.028302 0.000000 0.102187
#
#
# Mechanical properties :
#
#
# Convention : Reuss Voigt Hill
#
# Bulk Modulus (GPa) = 17.89104 31.65499 24.77302
# Shear Modulus (GPa) = 11.36876 20.22534 15.79705
#
# Velocity S-wave (km/s) = 2.40305 3.20519 2.83266
# Velocity P-wave (km/s) = 4.09721 5.45678 4.82512
#
# Compressibility (1/GPa) = 0.05589389
#
# Stress axis : x y z
#
# Youngs Moduli (GPa) = 78.02463 89.23862 20.50063
#
# Poissons Ratio (x) = 0.28950 0.12549
# Poissons Ratio (y) = 0.25312 -0.01869
# Poissons Ratio (z) = 0.47761 -0.08135
#
# Static dielectric constant tensor:
#      x y z
#    x 1.763180 0.000000 -0.004140 
#    y 0.000000 1.711410 0.000000 
#    z -0.004140 0.000000 1.736330 
# 
# From -- ./inp_files/58257.got.cif
#   From: 2010.05.17/outbox.cif.g08.bks.cpg/sg5_30_cif.got.tgz:58257.got - 2010.06.03 18:56:24.
