data_PCOD9121814
_publ_section_title
;
Structure prediction by ZEFSAII (Michael W. Deem and Ramdas Pophale) SiO2 
 PCOD9121814
Probable space group: C 2
;
_chemical_formula_sum "Si O2"
_cell_formula_units_Z 30
_cell_length_a 16.614211
_cell_length_b 9.804841
_cell_length_c 18.892821
_cell_angle_alpha 90.000000
_cell_angle_beta 27.035940
_cell_angle_gamma 90.000000
_cell_volume 1398.936794
_symmetry_space_group_name_H-M "C 2"
_symmetry_group_IT_number 5
_symmetry_cell_setting 'monoclinic'
loop_
_space_group_symop_operation_xyz
x,y,z
-x,y,-z
1/2+x,1/2+y,z
1/2-x,1/2+y,-z
loop_
_atom_site_type_symbol
_atom_site_label
_atom_site_fract_x
_atom_site_fract_y
_atom_site_fract_z
Si Si1 0.000000 0.748050 0.000000
Si Si2 0.148433 0.230667 0.793420
Si Si3 0.739417 0.403401 0.922953
Si Si4 0.764640 0.691477 0.846820
Si Si5 0.558198 0.032755 0.836162
Si Si6 0.802847 0.141169 0.404054
Si Si7 0.858764 0.960274 0.848739
Si Si8 0.117315 0.429804 0.637308
O O1 0.139262 0.840010 0.934834
O O2 0.087585 0.652977 0.870015
O O3 0.275568 0.175669 0.754482
O O4 0.188148 0.167145 0.686817
O O5 0.145737 0.394928 0.798200
O O6 0.944563 0.200917 0.971166
O O7 0.807760 0.555707 0.854201
O O8 0.931702 0.345457 0.790592
O O9 0.623813 0.405711 0.084107
O O10 0.854714 0.828456 0.802392
O O11 0.629809 0.022046 0.699214
O O12 0.341880 0.021824 0.000503
O O13 0.761595 0.293931 0.464466
O O14 0.658612 0.030334 0.540831
O O15 0.984801 0.066359 0.287070
#
# Coordination Sequence:
#
# PCOD9121814 Si02
#       8
#     2   4   4   4   4   4   4   4
#     4  12  22  36  68  98 130 156 210 266 336 358
#     4   9  18  37  61  92 126 158 202 259 322 376
#     4  11  24  36  61 101 124 161 205 276 308 387
#     4  10  19  36  61  95 124 157 206 263 321 376
#     4   9  20  38  63  95 121 160 207 267 311 385
#     4  11  22  42  66  90 123 176 210 266 305 388
#     4  10  21  37  69  90 125 163 214 256 322 371
#     4  10  25  41  63  91 132 162 222 253 320 374
#
# _framework density 21.444856000000001
#
# number of rings (size 3 to 8) (size 9 to 14) (size 15 to 20)
#    0.000    1.867    1.333    4.000    5.600    0.000 
#    0.000    0.667    0.000    5.600    0.000    0.000 
#    0.000    0.000    0.000    0.000    0.000    0.000 
#
# Total GULP energy -83574.078034 kJ/mol
# GULP energy per Si atom -5571.605202 kJ/mol
# Density = 2.139605 g / cm^3
# Si number density = 21.444856 Si / 1000 Ang^3
#
#
#
# Elastic Constant Matrix: (Units=GPa)
#
#
# Indices 1 2 3 4 5 6 
#
# 1 65.5825 17.6872 0.1744 0.0004 9.0413 -0.0002
# 2 17.6872 83.1606 19.6218 -0.0011 13.3073 0.0004
# 3 0.1744 19.6218 50.2674 -0.0005 2.2639 0.0005
# 4 0.0004 -0.0011 -0.0005 27.1750 0.0007 7.3512
# 5 9.0413 13.3073 2.2639 0.0007 13.9677 -0.0002
# 6 -0.0002 0.0004 0.0005 7.3512 -0.0002 32.8338
#
#
#
# Elastic Compliance Matrix: (Units=1/GPa)
#
#
# Indices 1 2 3 4 5 6 
#
# 1 0.017156 -0.002539 0.001332 0.000000 -0.008903 0.000000
# 2 -0.002539 0.015911 -0.005634 0.000001 -0.012602 0.000000
# 3 0.001332 -0.005634 0.022046 0.000000 0.000932 0.000000
# 4 0.000000 0.000001 0.000000 0.039171 -0.000003 -0.008770
# 5 -0.008903 -0.012602 0.000932 -0.000003 0.089212 0.000001
# 6 0.000000 0.000000 0.000000 -0.008770 0.000001 0.032420
#
#
# Mechanical properties :
#
#
# Convention : Reuss Voigt Hill
#
# Bulk Modulus (GPa) = 24.13580 30.44191 27.28885
# Shear Modulus (GPa) = 20.54159 25.56378 23.05269
#
# Velocity S-wave (km/s) = 3.09832 3.45638 3.28224
# Velocity P-wave (km/s) = 4.90701 5.49136 5.20739
#
# Compressibility (1/GPa) = 0.04143224
#
# Stress axis : x y z
#
# Youngs Moduli (GPa) = 58.28710 62.84988 45.35891
#
# Poissons Ratio (x) = 0.15956 -0.06044
# Poissons Ratio (y) = 0.14798 0.25557
# Poissons Ratio (z) = -0.07766 0.35412
#
# Static dielectric constant tensor:
#      x y z
#    x 1.920890 0.000000 -0.228030 
#    y 0.000000 1.828670 0.000000 
#    z -0.228030 0.000000 2.097940 
# 
# From -- ./inp_files/66604.got.cif
#   From: 2010.05.17/outbox.cif.g08.bks.cpg/sg5_34_cif.got.tgz:66604.got - 2010.06.03 18:56:24.
