data_PCOD9121124
_publ_section_title
;
Structure prediction by ZEFSAII (Michael W. Deem and Ramdas Pophale) SiO2 
 PCOD9121124
Probable space group: C 2
;
_chemical_formula_sum "Si O2"
_cell_formula_units_Z 26
_cell_length_a 18.754444
_cell_length_b 12.920730
_cell_length_c 10.370162
_cell_angle_alpha 90.000000
_cell_angle_beta 145.062812
_cell_angle_gamma 90.000000
_cell_volume 1439.087968
_symmetry_space_group_name_H-M "C 2"
_symmetry_group_IT_number 5
_symmetry_cell_setting 'monoclinic'
loop_
_space_group_symop_operation_xyz
x,y,z
-x,y,-z
1/2+x,1/2+y,z
1/2-x,1/2+y,-z
loop_
_atom_site_type_symbol
_atom_site_label
_atom_site_fract_x
_atom_site_fract_y
_atom_site_fract_z
Si Si1 0.801697 0.003130 0.347001
Si Si2 0.000000 0.858145 0.500000
Si Si3 0.548092 0.984251 0.824159
Si Si4 0.500000 0.850808 0.500000
Si Si5 0.254490 0.324820 0.462019
Si Si6 0.516190 0.222485 0.768501
Si Si7 0.500000 0.846462 0.000000
Si Si8 0.224552 0.240672 0.697319
O O1 0.819231 0.123840 0.400360
O O2 0.908505 0.935779 0.438863
O O3 0.768180 0.941317 0.427710
O O4 0.690481 0.998334 0.078649
O O5 0.950191 0.780899 0.315097
O O6 0.496086 0.099403 0.728072
O O7 0.531896 0.920139 0.670781
O O8 0.495734 0.919466 0.867727
O O9 0.621868 0.784874 0.642971
O O10 0.130782 0.285349 0.201302
O O11 0.229518 0.308346 0.575198
O O12 0.614856 0.269123 0.376539
O O13 0.635515 0.238229 0.038063
#
# Coordination Sequence:
#
# PCOD9121124 Si02
#       8
#     4   2   4   2   4   4   2   4
#     4   9  21  37  60  81 119 160 195 232 300 351
#     4  10  18  40  56  84 122 154 190 242 296 352
#     4  10  21  36  59  88 115 156 194 240 287 355
#     4  12  22  36  60  90 126 146 198 248 286 338
#     4  10  21  37  62  84 114 154 199 244 281 354
#     4  10  22  36  64  87 116 152 199 241 296 344
#     4  10  20  40  58  82 122 156 192 234 302 352
#     4  11  22  37  60  90 116 156 198 239 294 351
#
# _framework density 18.066998999999999
#
# number of rings (size 3 to 8) (size 9 to 14) (size 15 to 20)
#    0.000    1.846    1.538    2.308    6.462    0.000 
#    0.000    0.000   13.538    0.000    0.000    0.000 
#    0.000    0.000    0.000    0.000    0.000    0.000 
#
# Total GULP energy -72417.953960 kJ/mol
# GULP energy per Si atom -5570.611843 kJ/mol
# Density = 1.802588 g / cm^3
# Si number density = 18.066999 Si / 1000 Ang^3
#
#
#
# Elastic Constant Matrix: (Units=GPa)
#
#
# Indices 1 2 3 4 5 6 
#
# 1 109.8076 42.1538 51.6387 0.0000 -4.1781 0.0000
# 2 42.1538 90.7026 63.8093 0.0000 -5.2551 0.0000
# 3 51.6387 63.8093 88.6328 0.0000 -6.5803 0.0000
# 4 0.0000 0.0000 0.0000 29.0580 0.0000 0.7777
# 5 -4.1781 -5.2551 -6.5803 0.0000 40.5297 0.0000
# 6 0.0000 0.0000 0.0000 0.7777 0.0000 14.1873
#
#
#
# Elastic Compliance Matrix: (Units=1/GPa)
#
#
# Indices 1 2 3 4 5 6 
#
# 1 0.012632 -0.001404 -0.006342 0.000000 0.000090 0.000000
# 2 -0.001404 0.022498 -0.015359 0.000000 0.000279 0.000000
# 3 -0.006342 -0.015359 0.026154 0.000000 0.001601 0.000000
# 4 0.000000 0.000000 0.000000 0.034464 0.000000 -0.001889
# 5 0.000090 0.000279 0.001601 0.000000 0.024979 0.000000
# 6 0.000000 0.000000 0.000000 -0.001889 0.000000 0.070589
#
#
# Mechanical properties :
#
#
# Convention : Reuss Voigt Hill
#
# Bulk Modulus (GPa) = 66.33680 67.14962 66.74321
# Shear Modulus (GPa) = 20.61431 25.52442 23.06936
#
# Velocity S-wave (km/s) = 3.38152 3.76275 3.57722
# Velocity P-wave (km/s) = 7.21409 7.49169 7.35420
#
# Compressibility (1/GPa) = 0.01507459
#
# Stress axis : x y z
#
# Youngs Moduli (GPa) = 79.16662 44.44752 38.23549
#
# Poissons Ratio (x) = 0.06238 0.24250
# Poissons Ratio (y) = 0.11111 0.58725
# Poissons Ratio (z) = 0.50209 0.68266
#
# Static dielectric constant tensor:
#      x y z
#    x 1.659940 0.000000 0.031870 
#    y 0.000000 1.615100 0.000000 
#    z 0.031870 0.000000 1.618610 
# 
# From -- ./inp_files/29411.got.cif
#   From: 2010.05.17/outbox.cif.g08.bks.cpg/sg5_15_cif.got.tgz:29411.got - 2010.06.03 18:56:24.
