data_PCOD9121527
_publ_section_title
;
Structure prediction by ZEFSAII (Michael W. Deem and Ramdas Pophale) SiO2 
 PCOD9121527
Probable space group: C 2
;
_chemical_formula_sum "Si O2"
_cell_formula_units_Z 30
_cell_length_a 16.898902
_cell_length_b 5.212326
_cell_length_c 21.975879
_cell_angle_alpha 90.000000
_cell_angle_beta 140.589910
_cell_angle_gamma 90.000000
_cell_volume 1228.906333
_symmetry_space_group_name_H-M "C 2"
_symmetry_group_IT_number 5
_symmetry_cell_setting 'monoclinic'
loop_
_space_group_symop_operation_xyz
x,y,z
-x,y,-z
1/2+x,1/2+y,z
1/2-x,1/2+y,-z
loop_
_atom_site_type_symbol
_atom_site_label
_atom_site_fract_x
_atom_site_fract_y
_atom_site_fract_z
Si Si1 0.734552 0.575280 0.911175
Si Si2 0.544684 0.203696 0.402326
Si Si3 0.865188 0.080748 0.008245
Si Si4 0.226476 0.818246 0.316156
Si Si5 0.000000 0.466714 0.500000
Si Si6 0.984043 0.407238 0.253522
Si Si7 0.593668 0.841197 0.195694
Si Si8 0.322985 0.541861 0.591610
O O1 0.683459 0.564081 0.950512
O O2 0.620026 0.685803 0.804704
O O3 0.778775 0.289220 0.923074
O O4 0.842709 0.792607 0.971269
O O5 0.493443 0.147150 0.437197
O O6 0.466534 0.095504 0.299523
O O7 0.682785 0.073991 0.487650
O O8 0.584788 0.489251 0.409340
O O9 0.000848 0.213270 0.091341
O O10 0.373002 0.808174 0.417810
O O11 0.182355 0.589904 0.245879
O O12 0.167465 0.826757 0.349812
O O13 0.179743 0.094323 0.263420
O O14 0.993515 0.460080 0.186795
O O15 0.121144 0.288154 0.343608
#
# Coordination Sequence:
#
# PCOD9121527 Si02
#       8
#     4   4   4   4   2   4   4   4
#     4   9  18  28  47  79 121 143 182 234 306 333
#     4  11  20  39  54  83 115 161 198 252 288 357
#     4   9  17  30  47  80 115 151 177 239 292 351
#     4  10  21  38  56  87 113 160 194 247 281 355
#     4  10  26  40  56  88 126 154 200 248 310 336
#     4  10  20  31  54  84 109 157 193 247 282 360
#     4  10  19  34  60  82 116 154 204 231 290 351
#     4  10  20  33  58  78 113 152 212 233 295 342
#
# _framework density 24.411950000000001
#
# number of rings (size 3 to 8) (size 9 to 14) (size 15 to 20)
#    0.000    2.133    2.667    0.800    1.867    3.733 
#    2.400    0.000    0.000    0.000    0.000    5.600 
#    0.000    0.000    0.000    0.000    0.000    0.000 
#
# Total GULP energy -83569.525866 kJ/mol
# GULP energy per Si atom -5571.301724 kJ/mol
# Density = 2.435639 g / cm^3
# Si number density = 24.411950 Si / 1000 Ang^3
#
#
#
# Elastic Constant Matrix: (Units=GPa)
#
#
# Indices 1 2 3 4 5 6 
#
# 1 28.0572 -1.7708 -0.3090 0.0000 5.5323 -0.0005
# 2 -1.7708 106.1129 9.0346 0.0000 1.2329 -0.0008
# 3 -0.3090 9.0346 87.2212 0.0000 10.2448 -0.0001
# 4 0.0000 0.0000 0.0000 41.8066 -0.0001 1.7343
# 5 5.5323 1.2329 10.2448 -0.0001 13.3380 0.0000
# 6 -0.0005 -0.0008 -0.0001 1.7343 0.0000 6.4646
#
#
#
# Elastic Compliance Matrix: (Units=1/GPa)
#
#
# Indices 1 2 3 4 5 6 
#
# 1 0.039263 0.000679 0.002186 0.000000 -0.018027 0.000003
# 2 0.000679 0.009520 -0.000931 0.000000 -0.000446 0.000001
# 3 0.002186 -0.000931 0.012823 0.000000 -0.010670 0.000000
# 4 0.000000 0.000000 0.000000 0.024189 0.000000 -0.006489
# 5 -0.018027 -0.000446 -0.010670 0.000000 0.090687 -0.000002
# 6 0.000003 0.000001 0.000000 -0.006489 -0.000002 0.156429
#
#
# Mechanical properties :
#
#
# Convention : Reuss Voigt Hill
#
# Bulk Modulus (GPa) = 15.27364 26.14455 20.70909
# Shear Modulus (GPa) = 14.25039 26.61763 20.43401
#
# Velocity S-wave (km/s) = 2.41871 3.30563 2.89632
# Velocity P-wave (km/s) = 3.75105 5.03017 4.43695
#
# Compressibility (1/GPa) = 0.06547229
#
# Stress axis : x y z
#
# Youngs Moduli (GPa) = 25.46928 105.04507 77.98773
#
# Poissons Ratio (x) = -0.07128 -0.17050
# Poissons Ratio (y) = -0.01728 0.07263
# Poissons Ratio (z) = -0.05568 0.09783
#
# Static dielectric constant tensor:
#      x y z
#    x 2.050010 0.000000 -0.025800 
#    y 0.000000 2.030120 0.000000 
#    z -0.025800 0.000000 1.992880 
# 
# From -- ./inp_files/71004.got.cif
#   From: 2010.05.17/outbox.cif.g08.bks.cpg/sg5_36_cif.got.tgz:71004.got - 2010.06.03 18:56:24.
