data_PCOD9121616
_publ_section_title
;
Structure prediction by ZEFSAII (Michael W. Deem and Ramdas Pophale) SiO2 
 PCOD9121616
Probable space group: C 2
;
_chemical_formula_sum "Si O2"
_cell_formula_units_Z 30
_cell_length_a 5.786922
_cell_length_b 13.734864
_cell_length_c 23.378930
_cell_angle_alpha 90.000000
_cell_angle_beta 135.268416
_cell_angle_gamma 90.000000
_cell_volume 1307.788475
_symmetry_space_group_name_H-M "C 2"
_symmetry_group_IT_number 5
_symmetry_cell_setting 'monoclinic'
loop_
_space_group_symop_operation_xyz
x,y,z
-x,y,-z
1/2+x,1/2+y,z
1/2-x,1/2+y,-z
loop_
_atom_site_type_symbol
_atom_site_label
_atom_site_fract_x
_atom_site_fract_y
_atom_site_fract_z
Si Si1 0.661274 0.767720 0.646212
Si Si2 0.408557 0.635429 0.689505
Si Si3 0.220290 0.653219 0.487318
Si Si4 0.394333 0.751386 0.794976
Si Si5 0.972130 0.422410 0.116240
Si Si6 0.274984 0.446477 0.731944
Si Si7 0.500000 0.975421 0.000000
Si Si8 0.810642 0.066068 0.848584
O O1 0.636838 0.666739 0.677590
O O2 0.416691 0.743633 0.551074
O O3 0.561148 0.857768 0.669859
O O4 0.047745 0.787712 0.707149
O O5 0.538722 0.685984 0.769670
O O6 0.340919 0.524125 0.693009
O O7 0.057692 0.677511 0.607420
O O8 0.500000 0.597481 0.500000
O O9 0.000000 0.607032 0.500000
O O10 0.628069 0.836416 0.858313
O O11 0.312847 0.679161 0.833095
O O12 0.366105 0.409409 0.186072
O O13 0.870031 0.417481 0.032555
O O14 0.871750 0.524206 0.127789
O O15 0.162771 0.506688 0.767915
O O16 0.807023 0.037764 0.076215
#
# Coordination Sequence:
#
# PCOD9121616 Si02
#       8
#     4   4   4   4   4   4   2   4
#     4  10  19  35  58  83 121 159 200 257 305 363
#     4  10  19  35  58  83 121 159 200 257 305 363
#     4  10  20  36  58  84 126 170 202 256 320 362
#     4  10  20  35  62  88 106 154 204 242 306 367
#     4  10  20  38  59  84 117 152 194 251 301 364
#     4   9  20  35  58  88 114 154 212 246 302 373
#     4  10  22  40  52  82 122 148 186 244 304 366
#     4  10  20  38  59  84 117 152 194 251 301 364
#
# _framework density 22.939491
#
# number of rings (size 3 to 8) (size 9 to 14) (size 15 to 20)
#    0.000    2.133    1.333    2.000    0.000    0.000 
#    4.800    4.000    2.933    0.000    0.000    0.000 
#    0.000    0.000    0.000    0.000    0.000    0.000 
#
# Total GULP energy -83534.824435 kJ/mol
# GULP energy per Si atom -5568.988296 kJ/mol
# Density = 2.288728 g / cm^3
# Si number density = 22.939491 Si / 1000 Ang^3
#
#
#
# Elastic Constant Matrix: (Units=GPa)
#
#
# Indices 1 2 3 4 5 6 
#
# 1 66.4452 -0.6646 8.6779 -0.0002 -6.0298 -0.0001
# 2 -0.6646 79.7776 43.2719 -0.0001 -11.7852 -0.0001
# 3 8.6779 43.2719 112.3075 -0.0003 -3.6861 -0.0001
# 4 -0.0002 -0.0001 -0.0003 16.2265 -0.0002 2.1397
# 5 -6.0298 -11.7852 -3.6861 -0.0002 40.8068 0.0000
# 6 -0.0001 -0.0001 -0.0001 2.1397 0.0000 17.2596
#
#
#
# Elastic Compliance Matrix: (Units=1/GPa)
#
#
# Indices 1 2 3 4 5 6 
#
# 1 0.015512 0.001404 -0.001656 0.000000 0.002548 0.000000
# 2 0.001404 0.016666 -0.006384 0.000000 0.004444 0.000000
# 3 -0.001656 -0.006384 0.011457 0.000000 -0.001053 0.000000
# 4 0.000000 0.000000 0.000000 0.062652 0.000000 -0.007767
# 5 0.002548 0.004444 -0.001053 0.000000 0.026070 0.000000
# 6 0.000000 0.000000 0.000000 -0.007767 0.000000 0.058902
#
#
# Mechanical properties :
#
#
# Convention : Reuss Voigt Hill
#
# Bulk Modulus (GPa) = 32.93535 40.12228 36.52882
# Shear Modulus (GPa) = 23.29362 28.67491 25.98426
#
# Velocity S-wave (km/s) = 3.19005 3.53940 3.36926
# Velocity P-wave (km/s) = 5.28746 5.85078 5.57624
#
# Compressibility (1/GPa) = 0.03036251
#
# Stress axis : x y z
#
# Youngs Moduli (GPa) = 64.46829 60.00357 87.28146
#
# Poissons Ratio (x) = -0.08423 0.14452
# Poissons Ratio (y) = -0.09050 0.55719
# Poissons Ratio (z) = 0.10675 0.38305
#
# Static dielectric constant tensor:
#      x y z
#    x 2.034960 0.000000 -0.001860 
#    y 0.000000 1.869440 0.000000 
#    z -0.001860 0.000000 1.894420 
# 
# From -- ./inp_files/58902.got.cif
#   From: 2010.05.17/outbox.cif.g08.bks.cpg/sg5_30_cif.got.tgz:58902.got - 2010.06.03 18:56:24.
