data_PCOD9121743
_publ_section_title
;
Structure prediction by ZEFSAII (Michael W. Deem and Ramdas Pophale) SiO2 
 PCOD9121743
Probable space group: C 2
;
_chemical_formula_sum "Si O2"
_cell_formula_units_Z 28
_cell_length_a 8.588027
_cell_length_b 14.104738
_cell_length_c 15.517305
_cell_angle_alpha 90.000000
_cell_angle_beta 42.115370
_cell_angle_gamma 90.000000
_cell_volume 1260.534892
_symmetry_space_group_name_H-M "C 2"
_symmetry_group_IT_number 5
_symmetry_cell_setting 'monoclinic'
loop_
_space_group_symop_operation_xyz
x,y,z
-x,y,-z
1/2+x,1/2+y,z
1/2-x,1/2+y,-z
loop_
_atom_site_type_symbol
_atom_site_label
_atom_site_fract_x
_atom_site_fract_y
_atom_site_fract_z
Si Si1 0.583376 0.502980 0.778350
Si Si2 0.556037 0.691024 0.879990
Si Si3 0.378748 0.307957 0.141201
Si Si4 0.429975 0.398044 0.390990
Si Si5 0.402841 0.213451 0.309675
Si Si6 0.915593 0.516374 0.353822
Si Si7 0.550166 0.862407 0.775394
O O1 0.478417 0.603511 0.851756
O O2 0.535755 0.411558 0.859271
O O3 0.519310 0.470333 0.708754
O O4 0.861243 0.518384 0.675138
O O5 0.473750 0.796810 0.887265
O O6 0.833890 0.698514 0.765854
O O7 0.500000 0.666750 0.000000
O O8 0.416392 0.234721 0.202799
O O9 0.100955 0.313623 0.237995
O O10 0.500000 0.287823 0.000000
O O11 0.311608 0.306957 0.394569
O O12 0.265211 0.447649 0.526284
O O13 0.671886 0.364015 0.333042
O O14 0.293520 0.115241 0.383187
O O15 0.002740 0.471853 0.226352
#
# Coordination Sequence:
#
# PCOD9121743 Si02
#       7
#     4   4   4   4   4   4   4
#     4   9  20  35  58  86 111 150 198 230 283 360
#     4  10  19  36  58  84 117 152 189 239 289 339
#     4  10  19  37  60  84 116 152 189 240 292 341
#     4  10  20  38  58  82 117 152 190 244 292 337
#     4   9  21  37  57  84 113 151 200 233 280 361
#     4  10  20  38  57  81 117 153 192 241 288 340
#     4  10  22  35  55  85 115 148 195 237 287 350
#
# _framework density 22.212792
#
# number of rings (size 3 to 8) (size 9 to 14) (size 15 to 20)
#    0.000    2.286    0.000    2.143    0.000    2.286 
#    0.000   12.143    0.000    1.714    0.000    0.000 
#    0.000    0.000    0.000    0.000    0.000    0.000 
#
# Total GULP energy -77959.928403 kJ/mol
# GULP energy per Si atom -5568.566315 kJ/mol
# Density = 2.216223 g / cm^3
# Si number density = 22.212792 Si / 1000 Ang^3
#
#
#
# Elastic Constant Matrix: (Units=GPa)
#
#
# Indices 1 2 3 4 5 6 
#
# 1 75.0928 22.8157 21.3414 -0.0008 9.5898 0.0005
# 2 22.8157 118.9231 62.6060 -0.0004 25.7567 0.0004
# 3 21.3414 62.6060 81.0967 -0.0007 21.9445 0.0009
# 4 -0.0008 -0.0004 -0.0007 16.7215 0.0003 1.8787
# 5 9.5898 25.7567 21.9445 0.0003 34.1876 -0.0004
# 6 0.0005 0.0004 0.0009 1.8787 -0.0004 19.2472
#
#
#
# Elastic Compliance Matrix: (Units=1/GPa)
#
#
# Indices 1 2 3 4 5 6 
#
# 1 0.014584 -0.001107 -0.002544 0.000001 -0.001624 0.000000
# 2 -0.001107 0.014824 -0.009942 0.000000 -0.004477 0.000000
# 3 -0.002544 -0.009942 0.022335 0.000001 -0.006133 -0.000001
# 4 0.000001 0.000000 0.000001 0.060466 -0.000001 -0.005902
# 5 -0.001624 -0.004477 -0.006133 -0.000001 0.037015 0.000001
# 6 0.000000 0.000000 -0.000001 -0.005902 0.000001 0.052532
#
#
# Mechanical properties :
#
#
# Convention : Reuss Voigt Hill
#
# Bulk Modulus (GPa) = 40.72008 54.29318 47.50663
# Shear Modulus (GPa) = 21.08577 25.25458 23.17017
#
# Velocity S-wave (km/s) = 3.08435 3.37551 3.23321
# Velocity P-wave (km/s) = 5.57278 6.29980 5.94741
#
# Compressibility (1/GPa) = 0.02455791
#
# Stress axis : x y z
#
# Youngs Moduli (GPa) = 68.57055 67.45613 44.77329
#
# Poissons Ratio (x) = 0.07468 0.11389
# Poissons Ratio (y) = 0.07591 0.44512
# Poissons Ratio (z) = 0.17443 0.67062
#
# Static dielectric constant tensor:
#      x y z
#    x 1.842880 0.000000 -0.023240 
#    y 0.000000 1.905140 0.000000 
#    z -0.023240 0.000000 1.831770 
# 
# From -- ./inp_files/50876.got.cif
#   From: 2010.05.17/outbox.cif.g08.bks.cpg/sg5_26_cif.got.tgz:50876.got - 2010.06.03 18:56:24.
