data_PCOD9121395
_publ_section_title
;
Structure prediction by ZEFSAII (Michael W. Deem and Ramdas Pophale) SiO2 
 PCOD9121395
Probable space group: C 2
;
_chemical_formula_sum "Si O2"
_cell_formula_units_Z 30
_cell_length_a 9.552375
_cell_length_b 19.195651
_cell_length_c 8.931691
_cell_angle_alpha 90.000000
_cell_angle_beta 108.280062
_cell_angle_gamma 90.000000
_cell_volume 1555.101469
_symmetry_space_group_name_H-M "C 2"
_symmetry_group_IT_number 5
_symmetry_cell_setting 'monoclinic'
loop_
_space_group_symop_operation_xyz
x,y,z
-x,y,-z
1/2+x,1/2+y,z
1/2-x,1/2+y,-z
loop_
_atom_site_type_symbol
_atom_site_label
_atom_site_fract_x
_atom_site_fract_y
_atom_site_fract_z
Si Si1 0.245699 0.082740 0.103345
Si Si2 0.591094 0.058266 0.215428
Si Si3 0.275167 0.452448 0.086123
Si Si4 0.168445 0.834788 0.114029
Si Si5 0.059749 0.904354 0.365777
Si Si6 0.800690 0.182316 0.163184
Si Si7 0.766579 0.047941 0.554066
Si Si8 0.000000 0.153772 0.500000
O O1 0.421361 0.075617 0.129932
O O2 0.239242 0.073720 0.278003
O O3 0.175802 0.148676 0.994184
O O4 0.173238 0.015312 0.003128
O O5 0.688814 0.124299 0.194767
O O6 0.621555 0.047231 0.402203
O O7 0.652259 0.988930 0.150806
O O8 0.411530 0.429102 0.232614
O O9 0.241167 0.389020 0.960818
O O10 0.154363 0.858214 0.282341
O O11 0.228789 0.757388 0.121780
O O12 0.000000 0.836777 0.000000
O O13 0.000000 0.871192 0.500000
O O14 0.156333 0.972781 0.430474
O O15 0.933855 0.189924 0.328230
O O16 0.872297 0.103326 0.512163
#
# Coordination Sequence:
#
# PCOD9121395 Si02
#       8
#     4   4   4   4   4   4   4   2
#     4  11  21  34  61  85 117 154 197 243 295 354
#     4  10  20  36  58  86 120 155 193 244 300 350
#     4  10  19  33  57  84 111 154 194 242 291 345
#     4  10  21  36  59  86 116 155 203 244 297 361
#     4  11  19  35  58  86 117 150 195 250 296 342
#     4  10  21  40  59  82 119 153 196 248 302 357
#     4  11  19  35  60  90 114 148 196 252 295 351
#     4  10  22  38  62  80 118 152 192 252 308 348
#
# _framework density 19.291343999999999
#
# number of rings (size 3 to 8) (size 9 to 14) (size 15 to 20)
#    0.000    1.600    3.333    4.400    0.000    1.600 
#    0.000    9.333    5.867    0.000    0.000    0.000 
#    0.000    0.000    0.000    0.000    0.000    0.000 
#
# Total GULP energy -83584.350794 kJ/mol
# GULP energy per Si atom -5572.290053 kJ/mol
# Density = 1.924744 g / cm^3
# Si number density = 19.291344 Si / 1000 Ang^3
#
#
#
# Elastic Constant Matrix: (Units=GPa)
#
#
# Indices 1 2 3 4 5 6 
#
# 1 44.2980 10.6496 25.0008 0.0000 -6.6787 0.0000
# 2 10.6496 82.3156 31.9242 0.0000 -28.3993 0.0000
# 3 25.0008 31.9242 153.4140 0.0000 -19.0001 0.0000
# 4 0.0000 0.0000 0.0000 60.9952 0.0000 7.4283
# 5 -6.6787 -28.3993 -19.0001 0.0000 22.8079 0.0000
# 6 0.0000 0.0000 0.0000 7.4283 0.0000 16.4680
#
#
#
# Elastic Compliance Matrix: (Units=1/GPa)
#
#
# Indices 1 2 3 4 5 6 
#
# 1 0.025273 -0.000634 -0.003532 0.000000 0.003668 0.000000
# 2 -0.000634 0.021541 -0.001205 0.000000 0.025632 0.000000
# 3 -0.003532 -0.001205 0.007840 0.000000 0.003996 0.000000
# 4 0.000000 0.000000 0.000000 0.017348 0.000000 -0.007825
# 5 0.003668 0.025632 0.003996 0.000000 0.080164 0.000000
# 6 0.000000 0.000000 0.000000 -0.007825 0.000000 0.064253
#
#
# Mechanical properties :
#
#
# Convention : Reuss Voigt Hill
#
# Bulk Modulus (GPa) = 22.77302 46.13078 34.45190
# Shear Modulus (GPa) = 20.67836 34.21778 27.44807
#
# Velocity S-wave (km/s) = 3.27754 4.21615 3.77612
# Velocity P-wave (km/s) = 5.11404 6.90404 6.07533
#
# Compressibility (1/GPa) = 0.04391162
#
# Stress axis : x y z
#
# Youngs Moduli (GPa) = 39.56714 46.42329 127.55791
#
# Poissons Ratio (x) = 0.02944 0.45058
# Poissons Ratio (y) = 0.02510 0.15365
# Poissons Ratio (z) = 0.13976 0.05592
#
# Static dielectric constant tensor:
#      x y z
#    x 1.692950 0.000000 -0.027200 
#    y 0.000000 1.623630 0.000000 
#    z -0.027200 0.000000 1.783750 
# 
# From -- ./inp_files/21344.got.cif
#   From: 2010.05.17/outbox.cif.g08.bks.cpg/sg5_11_cif.got.tgz:21344.got - 2010.06.03 18:56:24.
