data_PCOD9121587
_publ_section_title
;
Structure prediction by ZEFSAII (Michael W. Deem and Ramdas Pophale) SiO2 
 PCOD9121587
Probable space group: C 2
;
_chemical_formula_sum "Si O2"
_cell_formula_units_Z 24
_cell_length_a 21.672242
_cell_length_b 7.488686
_cell_length_c 9.795854
_cell_angle_alpha 90.000000
_cell_angle_beta 48.819934
_cell_angle_gamma 90.000000
_cell_volume 1196.579030
_symmetry_space_group_name_H-M "C 2"
_symmetry_group_IT_number 5
_symmetry_cell_setting 'monoclinic'
loop_
_space_group_symop_operation_xyz
x,y,z
-x,y,-z
1/2+x,1/2+y,z
1/2-x,1/2+y,-z
loop_
_atom_site_type_symbol
_atom_site_label
_atom_site_fract_x
_atom_site_fract_y
_atom_site_fract_z
Si Si1 0.744015 0.044960 0.778030
Si Si2 0.080576 0.179466 0.115607
Si Si3 0.409279 0.906461 0.152586
Si Si4 0.916758 0.466207 0.662247
Si Si5 0.405534 0.692402 0.432840
Si Si6 0.255261 0.184462 0.940629
O O1 0.824987 0.074321 0.570004
O O2 0.664550 0.024834 0.798372
O O3 0.751845 0.866019 0.858609
O O4 0.737021 0.195592 0.906230
O O5 0.076468 0.372399 0.200075
O O6 0.992675 0.094711 0.278317
O O7 0.088066 0.228874 0.946751
O O8 0.165449 0.097158 0.043693
O O9 0.395996 0.835808 0.324601
O O10 0.500000 0.988613 0.000000
O O11 0.913454 0.302483 0.561328
O O12 0.834525 0.578057 0.775966
O O13 0.000000 0.567904 0.500000
#
# Coordination Sequence:
#
# PCOD9121587 Si02
#       6
#     4   4   4   4   4   4
#     4  11  21  35  62  88 116 151 197 239 291 331
#     4   9  18  35  59  79 115 154 192 227 281 351
#     4   9  19  35  57  81 112 156 192 230 280 353
#     4  10  19  35  56  84 116 152 194 231 283 347
#     4  10  20  36  58  85 112 155 198 232 280 351
#     4  11  19  36  56  85 117 146 194 240 282 338
#
# _framework density 20.057179000000001
#
# number of rings (size 3 to 8) (size 9 to 14) (size 15 to 20)
#    0.000    2.000    5.000    0.000    0.000    2.667 
#    3.000    0.000    0.000    0.000    0.000    1.167 
#    0.000    0.000    0.000    0.000    0.000    0.000 
#
# Total GULP energy -66847.027213 kJ/mol
# GULP energy per Si atom -5570.585601 kJ/mol
# Density = 2.001153 g / cm^3
# Si number density = 20.057179 Si / 1000 Ang^3
#
#
#
# Elastic Constant Matrix: (Units=GPa)
#
#
# Indices 1 2 3 4 5 6 
#
# 1 146.7845 19.2811 52.4416 0.0000 -36.0387 0.0000
# 2 19.2811 23.3438 13.8975 0.0000 -13.7331 0.0000
# 3 52.4416 13.8975 107.1037 0.0000 -39.0477 0.0000
# 4 0.0000 0.0000 0.0000 25.5685 0.0000 -9.2028
# 5 -36.0387 -13.7331 -39.0477 0.0000 65.5992 0.0000
# 6 0.0000 0.0000 0.0000 -9.2028 0.0000 33.0419
#
#
#
# Elastic Compliance Matrix: (Units=1/GPa)
#
#
# Indices 1 2 3 4 5 6 
#
# 1 0.009015 -0.004320 -0.003037 0.000000 0.002241 0.000000
# 2 -0.004320 0.051875 -0.001944 0.000000 0.007330 0.000000
# 3 -0.003037 -0.001944 0.013179 0.000000 0.005770 0.000000
# 4 0.000000 0.000000 0.000000 0.043468 0.000000 0.012107
# 5 0.002241 0.007330 0.005770 0.000000 0.021444 0.000000
# 6 0.000000 0.000000 0.000000 0.012107 0.000000 0.033637
#
#
# Mechanical properties :
#
#
# Convention : Reuss Voigt Hill
#
# Bulk Modulus (GPa) = 18.02807 49.83026 33.92916
# Shear Modulus (GPa) = 23.84251 37.61604 30.72927
#
# Velocity S-wave (km/s) = 3.45153 4.33533 3.91843
# Velocity P-wave (km/s) = 4.98918 7.06811 6.11760
#
# Compressibility (1/GPa) = 0.05546906
#
# Stress axis : x y z
#
# Youngs Moduli (GPa) = 110.92297 19.27693 75.87632
#
# Poissons Ratio (x) = 0.08328 0.23041
# Poissons Ratio (y) = 0.47921 0.14748
# Poissons Ratio (z) = 0.33684 0.03747
#
# Static dielectric constant tensor:
#      x y z
#    x 1.756000 0.000000 -0.053260 
#    y 0.000000 1.714320 0.000000 
#    z -0.053260 0.000000 1.739540 
# 
# From -- ./inp_files/26557.got.cif
#   From: 2010.05.17/outbox.cif.g08.bks.cpg/sg5_14_cif.got.tgz:26557.got - 2010.06.03 18:56:24.
