data_PCOD9121960
_publ_section_title
;
Structure prediction by ZEFSAII (Michael W. Deem and Ramdas Pophale) SiO2 
 PCOD9121960
Probable space group: C 2
;
_chemical_formula_sum "Si O2"
_cell_formula_units_Z 22
_cell_length_a 7.331252
_cell_length_b 26.092457
_cell_length_c 8.929553
_cell_angle_alpha 90.000000
_cell_angle_beta 144.242532
_cell_angle_gamma 90.000000
_cell_volume 998.159482
_symmetry_space_group_name_H-M "C 2"
_symmetry_group_IT_number 5
_symmetry_cell_setting 'monoclinic'
loop_
_space_group_symop_operation_xyz
x,y,z
-x,y,-z
1/2+x,1/2+y,z
1/2-x,1/2+y,-z
loop_
_atom_site_type_symbol
_atom_site_label
_atom_site_fract_x
_atom_site_fract_y
_atom_site_fract_z
Si Si1 0.647669 0.875000 0.758866
Si Si2 0.788707 0.696172 0.092837
Si Si3 0.816469 0.016507 0.538344
Si Si4 0.500000 0.275327 0.000000
Si Si5 0.132122 0.133696 0.418496
Si Si6 0.166108 0.463972 0.956024
O O1 0.500000 0.883955 0.500000
O O2 0.704850 0.814200 0.812102
O O3 0.524052 0.908066 0.814399
O O4 0.000000 0.896454 0.000000
O O5 0.036741 0.662918 0.351351
O O6 0.500000 0.716403 0.000000
O O7 0.977945 0.740216 0.131305
O O8 0.616927 0.661549 0.853492
O O9 0.833706 0.074653 0.604983
O O10 0.000000 0.015072 0.500000
O O11 0.467186 0.000102 0.263035
O O12 0.981332 0.977196 0.761888
O O13 0.000000 0.134783 0.500000
O O14 0.000000 0.478069 0.000000
#
# Coordination Sequence:
#
# PCOD9121960 Si02
#       6
#     4   4   4   2   4   4
#     4  10  23  40  62  86 122 162 222 258 329 387
#     4  12  25  42  68  98 135 171 222 279 332 392
#     4   9  19  34  62  94 126 169 216 256 326 392
#     4  10  26  44  70  90 134 176 226 268 344 384
#     4  11  21  42  67  95 133 182 218 268 331 399
#     4  10  19  37  62  92 126 164 214 270 317 388
#
# _framework density 22.040566999999999
#
# number of rings (size 3 to 8) (size 9 to 14) (size 15 to 20)
#    0.545    1.091    1.818    2.727    2.545    3.636 
#    0.000    9.091    0.000    0.000    0.000    0.000 
#    0.000    0.000    0.000    0.000    0.000    0.000 
#
# Total GULP energy -61307.165199 kJ/mol
# GULP energy per Si atom -5573.378654 kJ/mol
# Density = 2.199040 g / cm^3
# Si number density = 22.040567 Si / 1000 Ang^3
#
#
#
# Elastic Constant Matrix: (Units=GPa)
#
#
# Indices 1 2 3 4 5 6 
#
# 1 50.1809 10.0367 -1.1453 0.0000 -3.8717 0.0000
# 2 10.0367 132.6315 56.5302 0.0000 -17.1930 0.0000
# 3 -1.1453 56.5302 170.6389 0.0000 -11.1030 0.0000
# 4 0.0000 0.0000 0.0000 23.7472 0.0000 6.3769
# 5 -3.8717 -17.1930 -11.1030 0.0000 22.9697 0.0000
# 6 0.0000 0.0000 0.0000 6.3769 0.0000 10.8750
#
#
#
# Elastic Compliance Matrix: (Units=1/GPa)
#
#
# Indices 1 2 3 4 5 6 
#
# 1 0.020465 -0.001553 0.000827 0.000000 0.002687 0.000000
# 2 -0.001553 0.009579 -0.002823 0.000000 0.005544 0.000000
# 3 0.000827 -0.002823 0.006889 0.000000 0.001356 0.000000
# 4 0.000000 0.000000 0.000000 0.049980 0.000000 -0.029308
# 5 0.002687 0.005544 0.001356 0.000000 0.048794 0.000000
# 6 0.000000 0.000000 0.000000 -0.029308 0.000000 0.109139
#
#
# Mechanical properties :
#
#
# Convention : Reuss Voigt Hill
#
# Bulk Modulus (GPa) = 33.51806 53.81051 43.66429
# Shear Modulus (GPa) = 19.09202 30.72037 24.90619
#
# Velocity S-wave (km/s) = 2.94636 3.73743 3.36522
# Velocity P-wave (km/s) = 5.17833 6.56443 5.91215
#
# Compressibility (1/GPa) = 0.02983466
#
# Stress axis : x y z
#
# Youngs Moduli (GPa) = 48.86488 104.39430 145.15070
#
# Poissons Ratio (x) = 0.16208 -0.11997
# Poissons Ratio (y) = 0.07587 0.40978
# Poissons Ratio (z) = -0.04039 0.29472
#
# Static dielectric constant tensor:
#      x y z
#    x 1.971290 0.000000 0.016480 
#    y 0.000000 1.812610 0.000000 
#    z 0.016480 0.000000 1.797080 
# 
# From -- ./inp_files/17613.got.cif
#   From: 2010.05.17/outbox.cif.g08.bks.cpg/sg5_9_cif.got.tgz:17613.got - 2010.06.03 18:56:24.
