data_PCOD9121712
_publ_section_title
;
Structure prediction by ZEFSAII (Michael W. Deem and Ramdas Pophale) SiO2 
 PCOD9121712
Probable space group: C 2
;
_chemical_formula_sum "Si O2"
_cell_formula_units_Z 32
_cell_length_a 14.467251
_cell_length_b 12.156505
_cell_length_c 14.513553
_cell_angle_alpha 90.000000
_cell_angle_beta 35.546519
_cell_angle_gamma 90.000000
_cell_volume 1483.940347
_symmetry_space_group_name_H-M "C 2"
_symmetry_group_IT_number 5
_symmetry_cell_setting 'monoclinic'
loop_
_space_group_symop_operation_xyz
x,y,z
-x,y,-z
1/2+x,1/2+y,z
1/2-x,1/2+y,-z
loop_
_atom_site_type_symbol
_atom_site_label
_atom_site_fract_x
_atom_site_fract_y
_atom_site_fract_z
Si Si1 0.961050 0.533940 0.135306
Si Si2 0.604201 0.542119 0.496370
Si Si3 0.611934 0.785853 0.767316
Si Si4 0.930498 0.273145 0.403903
Si Si5 0.102024 0.500230 0.495887
Si Si6 0.079998 0.626507 0.221826
Si Si7 0.105466 0.827518 0.589478
Si Si8 0.340141 0.563531 0.162823
O O1 0.781455 0.559949 0.314243
O O2 0.957986 0.400293 0.139956
O O3 0.077189 0.586307 0.118769
O O4 0.000000 0.570236 0.000000
O O5 0.500000 0.490511 0.500000
O O6 0.531365 0.659744 0.580131
O O7 0.592751 0.458458 0.591320
O O8 0.524057 0.767187 0.740462
O O9 0.796733 0.800076 0.584410
O O10 0.612166 0.682246 0.833194
O O11 0.981909 0.384743 0.412023
O O12 0.739151 0.292768 0.554958
O O13 0.265983 0.497763 0.309299
O O14 0.000000 0.561313 0.500000
O O15 0.081726 0.571204 0.603593
O O16 0.222781 0.582928 0.170536
O O17 0.049192 0.755706 0.264970
O O18 0.500000 0.506870 0.000000
#
# Coordination Sequence:
#
# PCOD9121712 Si02
#       8
#     4   4   4   4   4   4   4   4
#     4  11  22  42  62  91 128 176 214 260 326 393
#     4  11  23  38  62  97 129 160 216 277 312 372
#     4   9  19  35  65  89 126 159 213 267 308 374
#     4  10  19  37  63  93 125 163 220 263 311 370
#     4  10  19  35  67  91 122 172 215 256 315 389
#     4  11  20  42  66  94 123 174 221 259 319 394
#     4   9  20  32  63  90 116 159 216 256 306 369
#     4  11  24  38  64 100 134 161 214 275 330 379
#
# _framework density 21.564207
#
# number of rings (size 3 to 8) (size 9 to 14) (size 15 to 20)
#    0.750    1.000    3.750    0.750    5.250    0.000 
#    2.250    0.625    0.000    0.000    0.000    0.000 
#    0.000    0.000    0.000    0.000    0.000    0.000 
#
# Total GULP energy -89090.343944 kJ/mol
# GULP energy per Si atom -5568.146497 kJ/mol
# Density = 2.151513 g / cm^3
# Si number density = 21.564207 Si / 1000 Ang^3
#
#
#
# Elastic Constant Matrix: (Units=GPa)
#
#
# Indices 1 2 3 4 5 6 
#
# 1 105.4342 8.5920 37.6304 0.0000 26.4681 0.0000
# 2 8.5920 86.9165 14.4614 0.0000 19.1093 0.0000
# 3 37.6304 14.4614 69.3405 0.0001 23.4707 0.0000
# 4 0.0000 0.0000 0.0001 -0.7563 0.0000 5.5353
# 5 26.4681 19.1093 23.4707 0.0000 33.1693 0.0000
# 6 0.0000 0.0000 0.0000 5.5353 0.0000 29.3487
#
#
#
# Elastic Compliance Matrix: (Units=1/GPa)
#
#
# Indices 1 2 3 4 5 6 
#
# 1 0.013005 0.001198 -0.004683 0.000000 -0.007754 0.000000
# 2 0.001198 0.013287 -0.000666 0.000000 -0.008140 0.000000
# 3 -0.004683 -0.000666 0.020654 0.000001 -0.010494 0.000000
# 4 0.000000 0.000000 0.000001 -0.555478 -0.000002 0.104766
# 5 -0.007754 -0.008140 -0.010494 -0.000002 0.048451 0.000000
# 6 0.000000 0.000000 0.000000 0.104766 0.000000 0.014314
#
#
# Mechanical properties :
#
#
# Convention : Reuss Voigt Hill
#
# Bulk Modulus (GPa) = 25.87674 42.56208 34.21941
# Shear Modulus (GPa) = -11.77625 25.75283 6.98829
#
# Velocity S-wave (km/s) = -2.33942 3.45953 1.80214
# Velocity P-wave (km/s) = 2.17457 5.97813 4.49815
#
# Compressibility (1/GPa) = 0.03864474
#
# Stress axis : x y z
#
# Youngs Moduli (GPa) = 76.89398 75.25988 48.41672
#
# Poissons Ratio (x) = -0.09019 0.22673
# Poissons Ratio (y) = -0.09215 0.03226
# Poissons Ratio (z) = 0.36008 0.05015
#
# Static dielectric constant tensor:
#      x y z
#    x 1.807090 0.000000 -0.041720 
#    y 0.000000 1.824830 0.000000 
#    z -0.041720 0.000000 1.834170 
# 
# From -- ./inp_files/54573.got.cif
#   From: 2010.05.17/outbox.cif.g08.bks.cpg/sg5_28_cif.got.tgz:54573.got - 2010.06.03 18:56:24.
