data_PCOD9121212
_publ_section_title
;
Structure prediction by ZEFSAII (Michael W. Deem and Ramdas Pophale) SiO2 
 PCOD9121212
Probable space group: C 2
;
_chemical_formula_sum "Si O2"
_cell_formula_units_Z 22
_cell_length_a 21.820688
_cell_length_b 8.969406
_cell_length_c 7.732415
_cell_angle_alpha 90.000000
_cell_angle_beta 43.979987
_cell_angle_gamma 90.000000
_cell_volume 1050.900043
_symmetry_space_group_name_H-M "C 2"
_symmetry_group_IT_number 5
_symmetry_cell_setting 'monoclinic'
loop_
_space_group_symop_operation_xyz
x,y,z
-x,y,-z
1/2+x,1/2+y,z
1/2-x,1/2+y,-z
loop_
_atom_site_type_symbol
_atom_site_label
_atom_site_fract_x
_atom_site_fract_y
_atom_site_fract_z
Si Si1 0.673747 0.583110 0.994580
Si Si2 0.000000 0.946387 0.000000
Si Si3 0.000000 0.449904 0.000000
Si Si4 0.547462 0.211256 0.147629
Si Si5 0.000000 0.931435 0.500000
Si Si6 0.366344 0.685527 0.314260
Si Si7 0.237079 0.753931 0.882360
O O1 0.579459 0.530474 0.266299
O O2 0.716397 0.702007 0.036896
O O3 0.662159 0.640632 0.822358
O O4 0.731141 0.432370 0.881968
O O5 0.066523 0.831230 0.956602
O O6 0.938425 0.062118 0.228008
O O7 0.083004 0.342637 0.800739
O O8 0.985179 0.559158 0.867588
O O9 0.477255 0.310690 0.395977
O O10 0.636915 0.193945 0.072297
O O11 0.289603 0.693195 0.609644
#
# Coordination Sequence:
#
# PCOD9121212 Si02
#       7
#     4   2   2   4   2   4   4
#     4  11  26  45  67 102 129 181 220 270 331 395
#     4  10  18  44  66  88 126 174 228 250 324 398
#     4  10  26  40  64 102 126 170 226 264 330 388
#     4  10  22  42  66  96 128 174 218 270 325 387
#     4  10  20  46  68  94 132 174 226 258 324 404
#     4  11  24  44  67  98 132 175 220 275 331 388
#     4  11  26  43  68  97 138 171 219 276 334 387
#
# _framework density 20.934436999999999
#
# number of rings (size 3 to 8) (size 9 to 14) (size 15 to 20)
#    0.000    1.455    3.636    1.091    7.636    2.909 
#    6.545    0.000    0.000    0.000    0.000    0.000 
#    0.000    0.000    0.000    0.000    0.000    0.000 
#
# Total GULP energy -61369.066563 kJ/mol
# GULP energy per Si atom -5579.006051 kJ/mol
# Density = 2.088679 g / cm^3
# Si number density = 20.934437 Si / 1000 Ang^3
#
#
#
# Elastic Constant Matrix: (Units=GPa)
#
#
# Indices 1 2 3 4 5 6 
#
# 1 111.8924 52.6416 29.1224 0.0000 -2.9354 0.0000
# 2 52.6416 125.6512 18.9595 0.0000 -3.0365 0.0000
# 3 29.1224 18.9595 89.6635 0.0000 2.7631 0.0000
# 4 0.0000 0.0000 0.0000 14.2822 0.0000 1.8224
# 5 -2.9354 -3.0365 2.7631 0.0000 18.4558 0.0000
# 6 0.0000 0.0000 0.0000 1.8224 0.0000 52.6231
#
#
#
# Elastic Compliance Matrix: (Units=1/GPa)
#
#
# Indices 1 2 3 4 5 6 
#
# 1 0.011856 -0.004483 -0.002952 0.000000 0.001590 0.000000
# 2 -0.004483 0.009965 -0.000683 0.000000 0.001029 0.000000
# 3 -0.002952 -0.000683 0.012331 0.000000 -0.002428 0.000000
# 4 0.000000 0.000000 0.000000 0.070328 0.000000 -0.002435
# 5 0.001590 0.001029 -0.002428 0.000000 0.054969 0.000000
# 6 0.000000 0.000000 0.000000 -0.002435 0.000000 0.019087
#
#
# Mechanical properties :
#
#
# Convention : Reuss Voigt Hill
#
# Bulk Modulus (GPa) = 55.81563 58.73934 57.27748
# Shear Modulus (GPa) = 24.90734 32.17113 28.53923
#
# Velocity S-wave (km/s) = 3.45306 3.92440 3.69625
# Velocity P-wave (km/s) = 6.52826 6.97526 6.75545
#
# Compressibility (1/GPa) = 0.01791613
#
# Stress axis : x y z
#
# Youngs Moduli (GPa) = 84.34211 100.35404 81.09820
#
# Poissons Ratio (x) = 0.44993 0.23939
# Poissons Ratio (y) = 0.37814 0.05535
# Poissons Ratio (z) = 0.24897 0.06850
#
# Static dielectric constant tensor:
#      x y z
#    x 1.858770 0.000000 0.042970 
#    y 0.000000 1.730950 0.000000 
#    z 0.042970 0.000000 1.800990 
# 
# From -- ./inp_files/22684.got.cif
#   From: 2010.05.17/outbox.cif.g08.bks.cpg/sg5_12_cif.got.tgz:22684.got - 2010.06.03 18:56:24.
