data_PCOD9121326
_publ_section_title
;
Structure prediction by ZEFSAII (Michael W. Deem and Ramdas Pophale) SiO2 
 PCOD9121326
Probable space group: C 2
;
_chemical_formula_sum "Si O2"
_cell_formula_units_Z 32
_cell_length_a 22.443435
_cell_length_b 8.874600
_cell_length_c 11.220784
_cell_angle_alpha 90.000000
_cell_angle_beta 46.648648
_cell_angle_gamma 90.000000
_cell_volume 1625.137005
_symmetry_space_group_name_H-M "C 2"
_symmetry_group_IT_number 5
_symmetry_cell_setting 'monoclinic'
loop_
_space_group_symop_operation_xyz
x,y,z
-x,y,-z
1/2+x,1/2+y,z
1/2-x,1/2+y,-z
loop_
_atom_site_type_symbol
_atom_site_label
_atom_site_fract_x
_atom_site_fract_y
_atom_site_fract_z
Si Si1 0.788578 0.345160 0.554420
Si Si2 0.351754 0.557974 0.534436
Si Si3 0.031158 0.986115 0.831975
Si Si4 0.368230 0.414561 0.946004
Si Si5 0.119982 0.720175 0.828668
Si Si6 0.251771 0.624302 0.229952
Si Si7 0.173132 0.405353 0.758659
Si Si8 0.094351 0.806585 0.366413
O O1 0.838130 0.235300 0.575269
O O2 0.705104 0.253227 0.642599
O O3 0.762568 0.503124 0.645957
O O4 0.835635 0.367074 0.367668
O O5 0.392559 0.545274 0.347755
O O6 0.262948 0.479773 0.654194
O O7 0.401932 0.460785 0.560993
O O8 0.055990 0.814218 0.836155
O O9 0.954508 0.996458 0.849885
O O10 0.000000 0.055995 0.000000
O O11 0.375100 0.338235 0.809362
O O12 0.366886 0.301048 0.061334
O O13 0.292763 0.528419 0.066960
O O14 0.110594 0.543205 0.866263
O O15 0.317285 0.752489 0.179076
O O16 0.163414 0.695926 0.324627
O O17 0.000000 0.752219 0.500000
#
# Coordination Sequence:
#
# PCOD9121326 Si02
#       8
#     4   4   4   4   4   4   4   4
#     4  10  19  32  58  88 122 151 193 249 304 359
#     4  10  20  35  58  89 113 154 207 247 295 363
#     4  10  19  34  61  83 121 154 200 243 309 364
#     4  10  22  39  63  84 119 163 201 251 306 361
#     4   9  19  34  57  91 119 154 196 242 298 364
#     4  10  23  38  59  92 118 160 207 247 312 372
#     4  10  19  32  61  89 122 151 198 244 302 368
#     4  11  23  41  65  84 116 165 214 255 299 362
#
# _framework density 19.690646999999998
#
# number of rings (size 3 to 8) (size 9 to 14) (size 15 to 20)
#    0.000    2.000    2.500    1.500    5.250    4.000 
#    0.000    0.625   13.750    0.000    0.000    0.000 
#    0.000    0.000    0.000    0.000    0.000    0.000 
#
# Total GULP energy -89088.666955 kJ/mol
# GULP energy per Si atom -5568.041685 kJ/mol
# Density = 1.964583 g / cm^3
# Si number density = 19.690647 Si / 1000 Ang^3
#
#
#
# Elastic Constant Matrix: (Units=GPa)
#
#
# Indices 1 2 3 4 5 6 
#
# 1 56.3903 20.3451 -2.1269 0.0000 -8.4305 0.0000
# 2 20.3451 93.4129 17.8682 0.0000 -2.9787 0.0000
# 3 -2.1269 17.8682 56.6592 0.0000 1.4365 0.0000
# 4 0.0000 0.0000 0.0000 10.4980 0.0000 -9.7327
# 5 -8.4305 -2.9787 1.4365 0.0000 28.4766 0.0000
# 6 0.0000 0.0000 0.0000 -9.7327 0.0000 12.5032
#
#
#
# Elastic Compliance Matrix: (Units=1/GPa)
#
#
# Indices 1 2 3 4 5 6 
#
# 1 0.020299 -0.004648 0.002091 0.000000 0.005418 0.000000
# 2 -0.004648 0.012511 -0.004124 0.000000 0.000141 0.000000
# 3 0.002091 -0.004124 0.019048 0.000000 -0.000773 0.000000
# 4 0.000000 0.000000 0.000000 0.342244 0.000000 0.266410
# 5 0.005418 0.000141 -0.000773 0.000000 0.036774 0.000000
# 6 0.000000 0.000000 0.000000 0.266410 0.000000 0.287359
#
#
# Mechanical properties :
#
#
# Convention : Reuss Voigt Hill
#
# Bulk Modulus (GPa) = 25.97696 30.95947 28.46822
# Shear Modulus (GPa) = 6.71655 21.65397 14.18526
#
# Velocity S-wave (km/s) = 1.84890 3.31978 2.68695
# Velocity P-wave (km/s) = 4.21653 5.51830 4.91074
#
# Compressibility (1/GPa) = 0.03849564
#
# Stress axis : x y z
#
# Youngs Moduli (GPa) = 49.26237 79.93101 52.49931
#
# Poissons Ratio (x) = 0.37154 -0.10975
# Poissons Ratio (y) = 0.22899 0.21648
# Poissons Ratio (z) = -0.10299 0.32960
#
# Static dielectric constant tensor:
#      x y z
#    x 1.708570 0.000000 -0.034810 
#    y 0.000000 1.744690 0.000000 
#    z -0.034810 0.000000 1.744330 
# 
# From -- ./inp_files/46030.got.cif
#   From: 2010.05.17/outbox.cif.g08.bks.cpg/sg5_24_cif.got.tgz:46030.got - 2010.06.03 18:56:24.
