data_PCOD9121392
_publ_section_title
;
Structure prediction by ZEFSAII (Michael W. Deem and Ramdas Pophale) SiO2 
 PCOD9121392
Probable space group: C 2
;
_chemical_formula_sum "Si O2"
_cell_formula_units_Z 24
_cell_length_a 14.409627
_cell_length_b 14.313553
_cell_length_c 5.593753
_cell_angle_alpha 90.000000
_cell_angle_beta 119.621280
_cell_angle_gamma 90.000000
_cell_volume 1002.949020
_symmetry_space_group_name_H-M "C 2"
_symmetry_group_IT_number 5
_symmetry_cell_setting 'monoclinic'
loop_
_space_group_symop_operation_xyz
x,y,z
-x,y,-z
1/2+x,1/2+y,z
1/2-x,1/2+y,-z
loop_
_atom_site_type_symbol
_atom_site_label
_atom_site_fract_x
_atom_site_fract_y
_atom_site_fract_z
Si Si1 0.000000 0.423970 0.500000
Si Si2 0.880784 0.970942 0.890921
Si Si3 0.000000 0.741341 0.500000
Si Si4 0.697531 0.811271 0.641346
Si Si5 0.580995 0.077709 0.913444
Si Si6 0.799344 0.021540 0.293732
Si Si7 0.262585 0.306179 0.233809
O O1 0.919279 0.357153 0.537941
O O2 0.916784 0.499138 0.286457
O O3 0.858201 0.030567 0.621902
O O4 0.793917 0.887801 0.779499
O O5 0.866239 0.020657 0.131086
O O6 0.000000 0.933045 0.000000
O O7 0.973764 0.671535 0.249069
O O8 0.891080 0.796880 0.392121
O O9 0.721635 0.759178 0.424575
O O10 0.706518 0.770148 0.921016
O O11 0.500000 0.035678 0.000000
O O12 0.699599 0.090978 0.153767
O O13 0.745012 0.917613 0.231826
#
# Coordination Sequence:
#
# PCOD9121392 Si02
#       7
#     2   4   2   4   4   4   4
#     4  11  20  40  62 102 127 174 228 285 326 384
#     4  10  19  33  56  94 122 164 207 279 320 377
#     4  11  28  38  66  98 145 174 214 281 350 392
#     4  10  22  34  63  90 129 165 220 274 321 383
#     4  11  23  40  63  96 137 178 215 279 339 396
#     4  10  21  37  60  91 125 170 219 268 321 385
#     4  10  22  39  56  95 125 174 210 272 328 388
#
# _framework density 23.92943
#
# number of rings (size 3 to 8) (size 9 to 14) (size 15 to 20)
#    0.000    1.667    3.333    2.500   14.000    0.000 
#    0.000    0.000    0.000    0.000    8.667    0.000 
#    0.000    0.000    0.000    0.000    0.000    0.000 
#
# Total GULP energy -66939.517536 kJ/mol
# GULP energy per Si atom -5578.293128 kJ/mol
# Density = 2.387497 g / cm^3
# Si number density = 23.929430 Si / 1000 Ang^3
#
#
#
# Elastic Constant Matrix: (Units=GPa)
#
#
# Indices 1 2 3 4 5 6 
#
# 1 108.9660 2.4719 31.2296 0.0000 -6.4861 0.0000
# 2 2.4719 37.7489 19.1190 0.0000 5.3674 0.0000
# 3 31.2296 19.1190 139.2120 0.0000 -31.7359 0.0000
# 4 0.0000 0.0000 0.0000 47.3319 0.0000 -6.0509
# 5 -6.4861 5.3674 -31.7359 0.0000 54.8581 0.0000
# 6 0.0000 0.0000 0.0000 -6.0509 0.0000 6.6436
#
#
#
# Elastic Compliance Matrix: (Units=1/GPa)
#
#
# Indices 1 2 3 4 5 6 
#
# 1 0.009820 0.000577 -0.002339 0.000000 -0.000248 0.000000
# 2 0.000577 0.030212 -0.005687 0.000000 -0.006178 0.000000
# 3 -0.002339 -0.005687 0.009852 0.000000 0.005979 0.000000
# 4 0.000000 0.000000 0.000000 0.023912 0.000000 0.021778
# 5 -0.000248 -0.006178 0.005979 0.000000 0.022263 0.000000
# 6 0.000000 0.000000 0.000000 0.021778 0.000000 0.170357
#
#
# Mechanical properties :
#
#
# Convention : Reuss Voigt Hill
#
# Bulk Modulus (GPa) = 28.58304 43.50758 36.04531
# Shear Modulus (GPa) = 17.06630 37.30713 27.18672
#
# Velocity S-wave (km/s) = 2.67346 3.95276 3.37430
# Velocity P-wave (km/s) = 4.63687 6.24928 5.50246
#
# Compressibility (1/GPa) = 0.03498578
#
# Stress axis : x y z
#
# Youngs Moduli (GPa) = 101.83750 33.09969 101.50153
#
# Poissons Ratio (x) = -0.01909 0.23738
# Poissons Ratio (y) = -0.05874 0.57723
# Poissons Ratio (z) = 0.23816 0.18824
#
# Static dielectric constant tensor:
#      x y z
#    x 1.699450 0.000000 -0.147580 
#    y 0.000000 1.903000 0.000000 
#    z -0.147580 0.000000 1.991340 
# 
# From -- ./inp_files/5133.got.cif
#   From: 2010.05.17/outbox.cif.g08.bks.cpg/sg5_3_cif.got.tgz:5133.got - 2010.06.03 18:56:24.
