data_PCOD9121350
_publ_section_title
;
Structure prediction by ZEFSAII (Michael W. Deem and Ramdas Pophale) SiO2 
 PCOD9121350
Probable space group: C 2
;
_chemical_formula_sum "Si O2"
_cell_formula_units_Z 20
_cell_length_a 5.081438
_cell_length_b 25.566456
_cell_length_c 9.445980
_cell_angle_alpha 90.000000
_cell_angle_beta 122.908126
_cell_angle_gamma 90.000000
_cell_volume 1030.260466
_symmetry_space_group_name_H-M "C 2"
_symmetry_group_IT_number 5
_symmetry_cell_setting 'monoclinic'
loop_
_space_group_symop_operation_xyz
x,y,z
-x,y,-z
1/2+x,1/2+y,z
1/2-x,1/2+y,-z
loop_
_atom_site_type_symbol
_atom_site_label
_atom_site_fract_x
_atom_site_fract_y
_atom_site_fract_z
Si Si1 0.875186 0.555060 0.123605
Si Si2 0.425403 0.166929 0.810254
Si Si3 0.125904 0.328236 0.877088
Si Si4 0.695956 0.724258 0.314050
Si Si5 0.873676 0.442222 0.123376
O O1 0.021019 0.607779 0.228844
O O2 0.500000 0.561420 0.000000
O O3 0.956980 0.498518 0.214990
O O4 0.000000 0.552394 0.000000
O O5 0.669224 0.202912 0.795864
O O6 0.068748 0.186375 0.698193
O O7 0.500000 0.168587 0.000000
O O8 0.970447 0.280114 0.751736
O O9 0.500000 0.322110 0.000000
O O10 0.045392 0.385586 0.788979
O O11 0.000000 0.327596 0.000000
O O12 0.000000 0.727637 0.500000
O O13 0.500000 0.442774 0.000000
O O14 0.000000 0.441820 0.000000
#
# Coordination Sequence:
#
# PCOD9121350 Si02
#       5
#     4   4   4   4   4
#     4   9  16  28  49  78 104 125 161 215 261 296
#     4  11  21  36  57  79 102 137 180 215 253 309
#     4  10  19  33  54  76 100 133 174 213 251 305
#     4  12  24  36  51  76 111 142 172 215 264 306
#     4   8  15  27  46  75 102 123 158 212 260 294
#
# _framework density 19.412569000000001
#
# number of rings (size 3 to 8) (size 9 to 14) (size 15 to 20)
#    0.000    2.000    0.000    6.600    0.000    0.000 
#    0.000    0.000    0.000    2.400    0.000    0.000 
#    0.000    0.000    0.000    0.000    0.000    0.000 
#
# Total GULP energy -55742.744278 kJ/mol
# GULP energy per Si atom -5574.274428 kJ/mol
# Density = 1.936838 g / cm^3
# Si number density = 19.412569 Si / 1000 Ang^3
#
#
#
# Elastic Constant Matrix: (Units=GPa)
#
#
# Indices 1 2 3 4 5 6 
#
# 1 135.4301 37.6529 19.2990 0.0000 32.6984 0.0000
# 2 37.6529 222.1505 56.3903 0.0000 26.0164 0.0000
# 3 19.2990 56.3903 55.9111 0.0000 21.0373 0.0000
# 4 0.0000 0.0000 0.0000 -1.8032 0.0000 10.5547
# 5 32.6984 26.0164 21.0373 0.0000 28.8719 0.0000
# 6 0.0000 0.0000 0.0000 10.5547 0.0000 28.5922
#
#
#
# Elastic Compliance Matrix: (Units=1/GPa)
#
#
# Indices 1 2 3 4 5 6 
#
# 1 0.010313 -0.000777 0.001867 0.000000 -0.012340 0.000000
# 2 -0.000777 0.006149 -0.005759 0.000000 -0.000465 0.000000
# 3 0.001867 -0.005759 0.030161 0.000000 -0.018902 0.000000
# 4 0.000000 0.000000 0.000000 -0.175457 0.000000 0.064769
# 5 -0.012340 -0.000465 -0.018902 0.000000 0.062803 0.000000
# 6 0.000000 0.000000 0.000000 0.064769 0.000000 0.011065
#
#
# Mechanical properties :
#
#
# Convention : Reuss Voigt Hill
#
# Bulk Modulus (GPa) = 26.81945 71.13067 48.97506
# Shear Modulus (GPa) = -150.61292 31.14216 -59.73538
#
# Velocity S-wave (km/s) = -8.81781 4.00962 -5.55322
# Velocity P-wave (km/s) = 9.47766 7.62609 3.97925
#
# Compressibility (1/GPa) = 0.03728638
#
# Stress axis : x y z
#
# Youngs Moduli (GPa) = 96.96226 162.61648 33.15491
#
# Poissons Ratio (x) = 0.12630 -0.06189
# Poissons Ratio (y) = 0.07531 0.19094
# Poissons Ratio (z) = -0.18100 0.93650
#
# Static dielectric constant tensor:
#      x y z
#    x 1.654710 0.000000 -0.009820 
#    y 0.000000 1.803070 0.000000 
#    z -0.009820 0.000000 1.625610 
# 
# From -- ./inp_files/12675.got.cif
#   From: 2010.05.17/outbox.cif.g08.bks.cpg/sg5_7_cif.got.tgz:12675.got - 2010.06.03 18:56:24.
