data_PCOD9121646
_publ_section_title
;
Structure prediction by ZEFSAII (Michael W. Deem and Ramdas Pophale) SiO2 
 PCOD9121646
Probable space group: C 2
;
_chemical_formula_sum "Si O2"
_cell_formula_units_Z 24
_cell_length_a 17.319171
_cell_length_b 8.098517
_cell_length_c 23.784957
_cell_angle_alpha 90.000000
_cell_angle_beta 18.236642
_cell_angle_gamma 90.000000
_cell_volume 1043.997253
_symmetry_space_group_name_H-M "C 2"
_symmetry_group_IT_number 5
_symmetry_cell_setting 'monoclinic'
loop_
_space_group_symop_operation_xyz
x,y,z
-x,y,-z
1/2+x,1/2+y,z
1/2-x,1/2+y,-z
loop_
_atom_site_type_symbol
_atom_site_label
_atom_site_fract_x
_atom_site_fract_y
_atom_site_fract_z
Si Si1 0.405932 0.258400 0.002982
Si Si2 0.750548 0.561566 0.294508
Si Si3 0.645579 0.075163 0.454933
Si Si4 0.768648 0.769264 0.787227
Si Si5 0.567619 0.855929 0.143746
Si Si6 0.395417 0.411273 0.813036
O O1 0.229761 0.372813 0.087633
O O2 0.254141 0.082302 0.101293
O O3 0.500000 0.297330 0.000000
O O4 0.662062 0.228273 0.793998
O O5 0.500000 0.564316 0.500000
O O6 0.752555 0.417946 0.244566
O O7 0.945079 0.523686 0.208939
O O8 0.500000 0.028691 0.500000
O O9 0.428948 0.130124 0.646654
O O10 0.839933 0.227494 0.307676
O O11 0.835316 0.945705 0.348956
O O12 0.919463 0.821685 0.737624
O O13 0.500000 0.731283 0.000000
O O14 0.737727 0.821966 0.971126
#
# Coordination Sequence:
#
# PCOD9121646 Si02
#       6
#     4   4   4   4   4   4
#     4  10  19  35  60  87 115 152 190 240 298 345
#     4  11  18  35  59  88 113 150 199 241 276 351
#     4  11  21  38  61  86 114 158 198 239 296 352
#     4  12  18  37  62  86 116 156 198 248 280 345
#     4  10  19  37  59  84 113 157 188 241 292 347
#     4  10  21  37  59  86 119 151 196 244 293 347
#
# _framework density 22.988565999999999
#
# number of rings (size 3 to 8) (size 9 to 14) (size 15 to 20)
#    0.000    1.333    8.333    0.000    0.000    0.000 
#    3.000    5.833    0.000    0.000    0.000    0.000 
#    0.000    0.000    0.000    0.000    0.000    0.000 
#
# Total GULP energy -66971.149365 kJ/mol
# GULP energy per Si atom -5580.929114 kJ/mol
# Density = 2.293624 g / cm^3
# Si number density = 22.988566 Si / 1000 Ang^3
#
#
#
# Elastic Constant Matrix: (Units=GPa)
#
#
# Indices 1 2 3 4 5 6 
#
# 1 226.0484 33.5487 96.8502 0.0224 -16.0071 -0.0139
# 2 33.5487 24.6063 37.0052 0.0372 1.6262 -0.0046
# 3 96.8502 37.0052 169.9217 0.0016 8.3663 0.0022
# 4 0.0224 0.0372 0.0016 12.4202 -0.0433 -7.5990
# 5 -16.0071 1.6262 8.3663 -0.0433 30.4043 0.0192
# 6 -0.0139 -0.0046 0.0022 -7.5990 0.0192 13.9876
#
#
#
# Elastic Compliance Matrix: (Units=1/GPa)
#
#
# Indices 1 2 3 4 5 6 
#
# 1 0.006790 -0.005056 -0.002999 0.000029 0.004670 0.000015
# 2 -0.005056 0.064203 -0.010948 -0.000268 -0.003084 -0.000123
# 3 -0.002999 -0.010948 0.010165 0.000033 -0.003790 0.000015
# 4 0.000029 -0.000268 0.000033 0.120600 0.000151 0.065518
# 5 0.004670 -0.003084 -0.003790 0.000151 0.036557 0.000036
# 6 0.000015 -0.000123 0.000015 0.065518 0.000036 0.107085
#
#
# Mechanical properties :
#
#
# Convention : Reuss Voigt Hill
#
# Bulk Modulus (GPa) = 23.17427 83.93163 53.55295
# Shear Modulus (GPa) = 12.56942 28.24059 20.40501
#
# Velocity S-wave (km/s) = 2.34084 3.50875 2.98252
# Velocity P-wave (km/s) = 4.17238 7.28042 5.93352
#
# Compressibility (1/GPa) = 0.04315131
#
# Stress axis : x y z
#
# Youngs Moduli (GPa) = 147.28026 15.57566 98.37490
#
# Poissons Ratio (x) = 0.07875 0.29501
# Poissons Ratio (y) = 0.74467 1.07704
# Poissons Ratio (z) = 0.44166 0.17053
#
# Static dielectric constant tensor:
#      x y z
#    x 2.102260 -0.000090 0.225440 
#    y -0.000090 1.929180 -0.000050 
#    z 0.225440 -0.000050 2.089120 
# 
# From -- ./inp_files/23462.got.cif
#   From: 2010.05.17/outbox.cif.g08.bks.cpg/sg5_12_cif.got.tgz:23462.got - 2010.06.03 18:56:24.
