data_PCOD9121890
_publ_section_title
;
Structure prediction by ZEFSAII (Michael W. Deem and Ramdas Pophale) SiO2 
 PCOD9121890
Probable space group: C 2
;
_chemical_formula_sum "Si O2"
_cell_formula_units_Z 20
_cell_length_a 24.812605
_cell_length_b 5.283366
_cell_length_c 8.143652
_cell_angle_alpha 90.000000
_cell_angle_beta 59.365556
_cell_angle_gamma 90.000000
_cell_volume 918.587995
_symmetry_space_group_name_H-M "C 2"
_symmetry_group_IT_number 5
_symmetry_cell_setting 'monoclinic'
loop_
_space_group_symop_operation_xyz
x,y,z
-x,y,-z
1/2+x,1/2+y,z
1/2-x,1/2+y,-z
loop_
_atom_site_type_symbol
_atom_site_label
_atom_site_fract_x
_atom_site_fract_y
_atom_site_fract_z
Si Si1 0.581825 0.361150 0.636268
Si Si2 0.728879 0.449077 0.450302
Si Si3 0.034806 0.366250 0.697738
Si Si4 0.415913 0.052422 0.684003
Si Si5 0.778111 0.633543 0.027507
O O1 0.654271 0.422010 0.548238
O O2 0.538113 0.588617 0.762719
O O3 0.564250 0.096779 0.752868
O O4 0.570068 0.289040 0.460912
O O5 0.744623 0.668964 0.556209
O O6 0.760380 0.557261 0.237914
O O7 0.081921 0.344196 0.465381
O O8 0.969228 0.464908 0.727388
O O9 0.350681 0.096035 0.871520
O O10 0.758299 0.921959 0.023652
#
# Coordination Sequence:
#
# PCOD9121890 Si02
#       5
#     4   4   4   4   4
#     4  10  19  37  55  85 118 159 200 248 298 370
#     4  12  25  42  62  88 130 174 204 247 323 379
#     4   9  19  31  58  91 118 149 195 265 314 346
#     4   9  21  31  62  90 122 148 203 264 307 354
#     4  12  23  40  64  94 125 160 212 269 304 356
#
# _framework density 21.772545999999998
#
# number of rings (size 3 to 8) (size 9 to 14) (size 15 to 20)
#    1.200    0.400    2.000    3.600    5.600    0.000 
#    0.000    0.000    0.000    7.200    0.000    0.000 
#    0.000    0.000    0.000    0.000    0.000    0.000 
#
# Total GULP energy -55712.388850 kJ/mol
# GULP energy per Si atom -5571.238885 kJ/mol
# Density = 2.172299 g / cm^3
# Si number density = 21.772546 Si / 1000 Ang^3
#
#
#
# Elastic Constant Matrix: (Units=GPa)
#
#
# Indices 1 2 3 4 5 6 
#
# 1 99.8930 36.9923 0.9885 0.0000 -19.7680 0.0000
# 2 36.9923 139.0860 -3.3312 0.0000 -5.7733 0.0000
# 3 0.9885 -3.3312 37.2611 0.0000 0.6481 0.0000
# 4 0.0000 0.0000 0.0000 23.4645 0.0000 23.1165
# 5 -19.7680 -5.7733 0.6481 0.0000 16.3263 0.0000
# 6 0.0000 0.0000 0.0000 23.1165 0.0000 56.2803
#
#
#
# Elastic Compliance Matrix: (Units=1/GPa)
#
#
# Indices 1 2 3 4 5 6 
#
# 1 0.014445 -0.003184 -0.000953 0.000000 0.016402 0.000000
# 2 -0.003184 0.008012 0.000819 0.000000 -0.001054 0.000000
# 3 -0.000953 0.000819 0.026970 0.000000 -0.001935 0.000000
# 4 0.000000 0.000000 0.000000 0.071583 0.000000 -0.029402
# 5 0.016402 -0.001054 -0.001935 0.000000 0.080815 0.000000
# 6 0.000000 0.000000 0.000000 -0.029402 0.000000 0.029845
#
#
# Mechanical properties :
#
#
# Convention : Reuss Voigt Hill
#
# Bulk Modulus (GPa) = 23.36912 38.39325 30.88119
# Shear Modulus (GPa) = 19.79647 35.32024 27.55836
#
# Velocity S-wave (km/s) = 3.01863 4.03207 3.56158
# Velocity P-wave (km/s) = 4.78603 6.27287 5.57920
#
# Compressibility (1/GPa) = 0.04279151
#
# Stress axis : x y z
#
# Youngs Moduli (GPa) = 69.22780 124.80545 37.07850
#
# Poissons Ratio (x) = 0.39737 0.03534
# Poissons Ratio (y) = 0.22041 -0.03037
# Poissons Ratio (z) = 0.06598 -0.10223
#
# Static dielectric constant tensor:
#      x y z
#    x 1.785890 0.000000 0.021220 
#    y 0.000000 1.897630 0.000000 
#    z 0.021220 0.000000 1.787320 
# 
# From -- ./inp_files/31188.got.cif
#   From: 2010.05.17/outbox.cif.g08.bks.cpg/sg5_16_cif.got.tgz:31188.got - 2010.06.03 18:56:24.
