data_PCOD9121233
_publ_section_title
;
Structure prediction by ZEFSAII (Michael W. Deem and Ramdas Pophale) SiO2 
 PCOD9121233
Probable space group: C 2
;
_chemical_formula_sum "Si O2"
_cell_formula_units_Z 30
_cell_length_a 4.983318
_cell_length_b 24.536752
_cell_length_c 13.130565
_cell_angle_alpha 90.000000
_cell_angle_beta 101.563252
_cell_angle_gamma 90.000000
_cell_volume 1572.946591
_symmetry_space_group_name_H-M "C 2"
_symmetry_group_IT_number 5
_symmetry_cell_setting 'monoclinic'
loop_
_space_group_symop_operation_xyz
x,y,z
-x,y,-z
1/2+x,1/2+y,z
1/2-x,1/2+y,-z
loop_
_atom_site_type_symbol
_atom_site_label
_atom_site_fract_x
_atom_site_fract_y
_atom_site_fract_z
Si Si1 0.958592 0.700720 0.790655
Si Si2 0.500000 0.146997 0.000000
Si Si3 0.781250 0.795637 0.074091
Si Si4 0.135478 0.065245 0.100854
Si Si5 0.955790 0.134707 0.726430
Si Si6 0.354351 0.919519 0.881977
Si Si7 0.273603 0.468508 0.773037
Si Si8 0.792245 0.034563 0.573140
O O1 0.676540 0.681205 0.716255
O O2 0.888124 0.684611 0.902285
O O3 0.097272 0.759134 0.824155
O O4 0.187703 0.664058 0.752042
O O5 0.709269 0.109839 0.954041
O O6 0.719938 0.856360 0.107953
O O7 0.500000 0.773434 0.000000
O O8 0.000000 0.800113 0.000000
O O9 0.952173 0.094916 0.172278
O O10 0.320983 0.024494 0.178031
O O11 0.000000 0.031207 0.000000
O O12 0.889350 0.091081 0.633892
O O13 0.566092 0.925170 0.804261
O O14 0.079548 0.952541 0.832055
O O15 0.500000 0.937140 0.000000
O O16 0.275608 0.486551 0.656144
O O17 0.500000 0.043519 0.500000
O O18 0.000000 0.019567 0.500000
#
# Coordination Sequence:
#
# PCOD9121233 Si02
#       8
#     4   2   4   4   4   4   4   4
#     4  11  20  34  52  80 117 157 204 236 276 339
#     4  10  20  28  46  70 116 156 188 226 264 318
#     4  11  22  36  56  81 121 175 217 243 282 341
#     4  10  19  30  46  76 114 155 182 223 279 342
#     4  10  22  34  54  84 115 148 196 241 295 358
#     4  11  22  39  55  87 125 167 202 245 292 355
#     4  11  24  36  59  85 117 158 210 241 303 367
#     4  11  23  43  65  87 118 155 201 261 313 373
#
# _framework density 19.072486000000001
#
# number of rings (size 3 to 8) (size 9 to 14) (size 15 to 20)
#    0.000    1.333    2.000    5.200    2.800    2.133 
#    0.000    0.000    0.000    0.000    0.000   14.000 
#    0.000    0.000    0.000    0.000    0.000    0.000 
#
# Total GULP energy -83560.809955 kJ/mol
# GULP energy per Si atom -5570.720664 kJ/mol
# Density = 1.902908 g / cm^3
# Si number density = 19.072486 Si / 1000 Ang^3
#
#
#
# Elastic Constant Matrix: (Units=GPa)
#
#
# Indices 1 2 3 4 5 6 
#
# 1 126.9760 32.9898 49.8186 0.0000 -4.6062 0.0000
# 2 32.9898 75.0211 41.4520 0.0000 -2.4944 0.0000
# 3 49.8186 41.4520 108.6745 0.0000 -6.6863 0.0000
# 4 0.0000 0.0000 0.0000 34.8710 0.0000 1.0232
# 5 -4.6062 -2.4944 -6.6863 0.0000 32.6650 0.0000
# 6 0.0000 0.0000 0.0000 1.0232 0.0000 34.7236
#
#
#
# Elastic Compliance Matrix: (Units=1/GPa)
#
#
# Indices 1 2 3 4 5 6 
#
# 1 0.009925 -0.002345 -0.003626 0.000000 0.000478 0.000000
# 2 -0.002345 0.017443 -0.005587 0.000000 -0.000142 0.000000
# 3 -0.003626 -0.005587 0.013102 0.000000 0.001744 0.000000
# 4 0.000000 0.000000 0.000000 0.028702 0.000000 -0.000846
# 5 0.000478 -0.000142 0.001744 0.000000 0.031027 0.000000
# 6 0.000000 0.000000 0.000000 -0.000846 0.000000 0.028824
#
#
# Mechanical properties :
#
#
# Convention : Reuss Voigt Hill
#
# Bulk Modulus (GPa) = 57.62258 62.13251 59.87754
# Shear Modulus (GPa) = 31.66080 32.87932 32.27006
#
# Velocity S-wave (km/s) = 4.07876 4.15651 4.11782
# Velocity P-wave (km/s) = 7.24291 7.46212 7.35333
#
# Compressibility (1/GPa) = 0.01735431
#
# Stress axis : x y z
#
# Youngs Moduli (GPa) = 100.75895 57.32908 76.32217
#
# Poissons Ratio (x) = 0.13444 0.27673
# Poissons Ratio (y) = 0.23628 0.42642
# Poissons Ratio (z) = 0.36533 0.32031
#
# Static dielectric constant tensor:
#      x y z
#    x 1.736720 0.000000 0.061190 
#    y 0.000000 1.717930 0.000000 
#    z 0.061190 0.000000 1.724950 
# 
# From -- ./inp_files/34235.got.cif
#   From: 2010.05.17/outbox.cif.g08.bks.cpg/sg5_18_cif.got.tgz:34235.got - 2010.06.03 18:56:24.
