data_PCOD9121623
_publ_section_title
;
Structure prediction by ZEFSAII (Michael W. Deem and Ramdas Pophale) SiO2 
 PCOD9121623
Probable space group: C 2
;
_chemical_formula_sum "Si O2"
_cell_formula_units_Z 30
_cell_length_a 7.134885
_cell_length_b 13.872313
_cell_length_c 13.089796
_cell_angle_alpha 90.000000
_cell_angle_beta 98.495144
_cell_angle_gamma 90.000000
_cell_volume 1281.378675
_symmetry_space_group_name_H-M "C 2"
_symmetry_group_IT_number 5
_symmetry_cell_setting 'monoclinic'
loop_
_space_group_symop_operation_xyz
x,y,z
-x,y,-z
1/2+x,1/2+y,z
1/2-x,1/2+y,-z
loop_
_atom_site_type_symbol
_atom_site_label
_atom_site_fract_x
_atom_site_fract_y
_atom_site_fract_z
Si Si1 0.470250 0.597490 0.792975
Si Si2 0.855781 0.607758 0.909788
Si Si3 0.020431 0.752882 0.770578
Si Si4 0.898094 0.929061 0.660231
Si Si5 0.818696 0.217534 0.616923
Si Si6 0.706907 0.933723 0.422708
Si Si7 0.000000 0.593351 0.500000
Si Si8 0.687386 0.753129 0.056394
O O1 0.665827 0.558602 0.855448
O O2 0.349913 0.508986 0.740420
O O3 0.484550 0.661145 0.689536
O O4 0.384542 0.666566 0.873746
O O5 0.951366 0.656713 0.819776
O O6 0.785361 0.700467 0.969740
O O7 0.000000 0.557079 0.000000
O O8 0.156032 0.727194 0.688975
O O9 0.154087 0.806376 0.865176
O O10 0.870894 0.826075 0.711336
O O11 0.796724 0.938008 0.543670
O O12 0.121339 0.941287 0.644793
O O13 0.874763 0.325606 0.592913
O O14 0.692717 0.157391 0.525665
O O15 0.555801 0.020105 0.411935
O O16 0.500000 0.804890 0.000000
#
# Coordination Sequence:
#
# PCOD9121623 Si02
#       8
#     4   4   4   4   4   4   2   4
#     4  10  19  35  59  82 117 158 197 243 308 367
#     4   9  18  34  56  86 108 149 197 243 302 371
#     4   9  18  33  60  79 111 152 197 249 297 370
#     4  10  20  39  53  86 119 154 199 258 300 350
#     4  10  21  39  58  87 118 166 201 249 313 353
#     4  10  23  40  58  85 130 157 208 263 296 375
#     4  12  22  40  62  86 124 170 206 256 306 362
#     4   8  16  33  54  78 113 146 193 244 304 370
#
# _framework density 23.412282999999999
#
# number of rings (size 3 to 8) (size 9 to 14) (size 15 to 20)
#    0.000    2.400    1.333    1.600    1.867    1.067 
#    2.400    6.667    0.000    0.000    0.000    0.000 
#    0.000    0.000    0.000    0.000    0.000    0.000 
#
# Total GULP energy -83566.946131 kJ/mol
# GULP energy per Si atom -5571.129742 kJ/mol
# Density = 2.335900 g / cm^3
# Si number density = 23.412283 Si / 1000 Ang^3
#
#
#
# Elastic Constant Matrix: (Units=GPa)
#
#
# Indices 1 2 3 4 5 6 
#
# 1 42.2756 -5.4326 13.2737 0.0000 6.4429 0.0000
# 2 -5.4326 60.2403 19.1482 0.0000 -1.1868 0.0000
# 3 13.2737 19.1482 80.3296 0.0000 6.5126 0.0000
# 4 0.0000 0.0000 0.0000 10.3610 0.0000 9.8853
# 5 6.4429 -1.1868 6.5126 0.0000 35.3753 0.0000
# 6 0.0000 0.0000 0.0000 9.8853 0.0000 11.9492
#
#
#
# Elastic Compliance Matrix: (Units=1/GPa)
#
#
# Indices 1 2 3 4 5 6 
#
# 1 0.026281 0.003874 -0.004963 0.000000 -0.003743 0.000000
# 2 0.003874 0.018602 -0.005144 0.000000 0.000866 0.000000
# 3 -0.004963 -0.005144 0.014654 0.000000 -0.001967 0.000000
# 4 0.000000 0.000000 0.000000 0.458054 0.000000 -0.378937
# 5 -0.003743 0.000866 -0.001967 0.000000 0.029341 0.000000
# 6 0.000000 0.000000 0.000000 -0.378937 0.000000 0.397172
#
#
# Mechanical properties :
#
#
# Convention : Reuss Voigt Hill
#
# Bulk Modulus (GPa) = 21.24475 26.31379 23.77927
# Shear Modulus (GPa) = 5.14265 21.92752 13.53509
#
# Velocity S-wave (km/s) = 1.48369 3.06368 2.40702
# Velocity P-wave (km/s) = 3.46828 4.87633 4.23129
#
# Compressibility (1/GPa) = 0.04707045
#
# Stress axis : x y z
#
# Youngs Moduli (GPa) = 38.05079 53.75822 68.23872
#
# Poissons Ratio (x) = -0.20824 0.33864
# Poissons Ratio (y) = -0.14740 0.35105
# Poissons Ratio (z) = 0.18883 0.27655
#
# Static dielectric constant tensor:
#      x y z
#    x 2.000890 0.000000 0.086870 
#    y 0.000000 1.918680 0.000000 
#    z 0.086870 0.000000 1.928180 
# 
# From -- ./inp_files/50728.got.cif
#   From: 2010.05.17/outbox.cif.g08.bks.cpg/sg5_26_cif.got.tgz:50728.got - 2010.06.03 18:56:24.
