data_PCOD9121746
_publ_section_title
;
Structure prediction by ZEFSAII (Michael W. Deem and Ramdas Pophale) SiO2 
 PCOD9121746
Probable space group: C 2
;
_chemical_formula_sum "Si O2"
_cell_formula_units_Z 28
_cell_length_a 13.423883
_cell_length_b 8.958845
_cell_length_c 10.889726
_cell_angle_alpha 90.000000
_cell_angle_beta 91.303145
_cell_angle_gamma 90.000000
_cell_volume 1309.286814
_symmetry_space_group_name_H-M "C 2"
_symmetry_group_IT_number 5
_symmetry_cell_setting 'monoclinic'
loop_
_space_group_symop_operation_xyz
x,y,z
-x,y,-z
1/2+x,1/2+y,z
1/2-x,1/2+y,-z
loop_
_atom_site_type_symbol
_atom_site_label
_atom_site_fract_x
_atom_site_fract_y
_atom_site_fract_z
Si Si1 0.746792 0.264770 0.195941
Si Si2 0.263998 0.502311 0.398329
Si Si3 0.556564 0.670067 0.875447
Si Si4 0.039515 0.884198 0.722607
Si Si5 0.825491 0.032213 0.672896
Si Si6 0.048541 0.634238 0.131952
Si Si7 0.900676 0.336056 0.734142
O O1 0.755600 0.142049 0.305109
O O2 0.833743 0.231309 0.105551
O O3 0.748098 0.424492 0.257591
O O4 0.641602 0.245407 0.128087
O O5 0.361898 0.408129 0.357330
O O6 0.285106 0.556890 0.535568
O O7 0.159857 0.410880 0.381254
O O8 0.556018 0.496722 0.837880
O O9 0.510061 0.761438 0.756997
O O10 0.500000 0.693867 0.000000
O O11 0.021598 0.715831 0.769078
O O12 0.934135 0.947697 0.664685
O O13 0.838343 0.184334 0.749045
O O14 0.091220 0.474762 0.174332
O O15 0.000000 0.619294 0.000000
#
# Coordination Sequence:
#
# PCOD9121746 Si02
#       7
#     4   4   4   4   4   4   4
#     4   9  21  37  58  86 116 157 204 239 294 373
#     4  10  19  36  58  85 119 156 195 250 303 352
#     4  10  20  38  58  84 120 156 198 249 299 356
#     4   9  20  35  59  87 114 155 204 240 298 376
#     4  10  19  37  59  83 118 157 199 250 301 356
#     4  10  20  38  58  85 123 156 196 254 303 355
#     4  10  22  35  56  88 117 153 203 246 297 364
#
# _framework density 21.385687999999998
#
# number of rings (size 3 to 8) (size 9 to 14) (size 15 to 20)
#    0.000    2.286    0.000    2.143    0.000    2.286 
#    0.000   14.286    0.000   10.286    0.000    0.000 
#    0.000    0.000    0.000    0.000    0.000    0.000 
#
# Total GULP energy -77966.819389 kJ/mol
# GULP energy per Si atom -5569.058528 kJ/mol
# Density = 2.133701 g / cm^3
# Si number density = 21.385688 Si / 1000 Ang^3
#
#
#
# Elastic Constant Matrix: (Units=GPa)
#
#
# Indices 1 2 3 4 5 6 
#
# 1 47.6284 8.1999 29.5361 0.0000 5.6268 0.0000
# 2 8.1999 99.3136 33.9212 0.0000 -0.2103 0.0000
# 3 29.5361 33.9212 88.8703 0.0000 16.1759 0.0000
# 4 0.0000 0.0000 0.0000 17.5135 0.0000 6.0759
# 5 5.6268 -0.2103 16.1759 0.0000 24.3001 0.0000
# 6 0.0000 0.0000 0.0000 6.0759 0.0000 27.3963
#
#
#
# Elastic Compliance Matrix: (Units=1/GPa)
#
#
# Indices 1 2 3 4 5 6 
#
# 1 0.026523 0.000942 -0.009169 0.000000 -0.000030 0.000000
# 2 0.000942 0.011874 -0.005489 0.000000 0.003539 0.000000
# 3 -0.009169 -0.005489 0.018225 0.000000 -0.010056 0.000000
# 4 0.000000 0.000000 0.000000 0.061858 0.000000 -0.013719
# 5 -0.000030 0.003539 -0.010056 0.000000 0.047884 0.000000
# 6 0.000000 0.000000 0.000000 -0.013719 0.000000 0.039544
#
#
# Mechanical properties :
#
#
# Convention : Reuss Voigt Hill
#
# Bulk Modulus (GPa) = 34.25907 42.12520 38.19213
# Shear Modulus (GPa) = 20.57011 24.78565 22.67788
#
# Velocity S-wave (km/s) = 3.10476 3.40808 3.25995
# Velocity P-wave (km/s) = 5.37653 5.93526 5.66279
#
# Compressibility (1/GPa) = 0.02918935
#
# Stress axis : x y z
#
# Youngs Moduli (GPa) = 37.70263 84.21950 54.86865
#
# Poissons Ratio (x) = -0.07932 0.50310
# Poissons Ratio (y) = -0.03551 0.30119
# Poissons Ratio (z) = 0.34570 0.46230
#
# Static dielectric constant tensor:
#      x y z
#    x 1.828020 0.000000 0.016220 
#    y 0.000000 1.797810 0.000000 
#    z 0.016220 0.000000 1.761880 
# 
# From -- ./inp_files/41544.got.cif
#   From: 2010.05.17/outbox.cif.g08.bks.cpg/sg5_21_cif.got.tgz:41544.got - 2010.06.03 18:56:24.
