data_PCOD9121562
_publ_section_title
;
Structure prediction by ZEFSAII (Michael W. Deem and Ramdas Pophale) SiO2 
 PCOD9121562
Probable space group: C 2
;
_chemical_formula_sum "Si O2"
_cell_formula_units_Z 30
_cell_length_a 12.246010
_cell_length_b 21.786415
_cell_length_c 5.466314
_cell_angle_alpha 90.000000
_cell_angle_beta 89.843544
_cell_angle_gamma 90.000000
_cell_volume 1458.388858
_symmetry_space_group_name_H-M "C 2"
_symmetry_group_IT_number 5
_symmetry_cell_setting 'monoclinic'
loop_
_space_group_symop_operation_xyz
x,y,z
-x,y,-z
1/2+x,1/2+y,z
1/2-x,1/2+y,-z
loop_
_atom_site_type_symbol
_atom_site_label
_atom_site_fract_x
_atom_site_fract_y
_atom_site_fract_z
Si Si1 0.130995 0.551920 0.983070
Si Si2 0.801728 0.150214 0.933053
Si Si3 0.870900 0.489968 0.517733
Si Si4 0.903666 0.376224 0.838319
Si Si5 0.500000 0.775190 0.500000
Si Si6 0.779688 0.788540 0.036124
Si Si7 0.664232 0.668061 0.569204
Si Si8 0.874805 0.746853 0.537003
O O1 0.184850 0.617469 0.932266
O O2 0.167768 0.508615 0.753562
O O3 0.171234 0.528513 0.248610
O O4 0.000000 0.555836 0.000000
O O5 0.787147 0.223886 0.949183
O O6 0.862257 0.135294 0.683240
O O7 0.858413 0.132421 0.184197
O O8 0.864773 0.420430 0.619055
O O9 0.000000 0.502978 0.500000
O O10 0.964190 0.318624 0.718265
O O11 0.801206 0.346647 0.978184
O O12 0.000000 0.407744 0.000000
O O13 0.598285 0.731375 0.572785
O O14 0.840699 0.786695 0.298342
O O15 0.853843 0.781893 0.793989
O O16 0.791655 0.688792 0.551722
O O17 0.000000 0.728217 0.500000
#
# Coordination Sequence:
#
# PCOD9121562 Si02
#       8
#     4   4   4   4   2   4   4   4
#     4  10  21  36  54  78 115 159 199 245 287 359
#     4  10  19  36  51  75 114 148 196 240 283 348
#     4  10  21  35  52  83 114 157 204 232 297 363
#     4  12  22  35  60  85 130 168 195 250 304 371
#     4  12  22  36  58  86 132 164 188 252 302 370
#     4  10  22  35  52  87 113 152 208 230 300 369
#     4  10  22  34  53  86 114 154 199 235 299 372
#     4  10  19  35  51  75 117 151 196 243 281 353
#
# _framework density 20.570643
#
# number of rings (size 3 to 8) (size 9 to 14) (size 15 to 20)
#    0.000    1.600    3.333    4.000    0.000    4.267 
#    0.000    1.333    0.000    0.000    0.000    0.000 
#   30.000    0.000    0.000    0.000    0.000    0.000 
#
# Total GULP energy -83644.533768 kJ/mol
# GULP energy per Si atom -5576.302251 kJ/mol
# Density = 2.052382 g / cm^3
# Si number density = 20.570643 Si / 1000 Ang^3
#
#
#
# Elastic Constant Matrix: (Units=GPa)
#
#
# Indices 1 2 3 4 5 6 
#
# 1 42.5844 13.4518 14.9796 0.0000 -0.7185 0.0000
# 2 13.4518 55.8247 26.6936 0.0000 -4.0832 0.0000
# 3 14.9796 26.6936 181.7211 0.0000 -12.0353 0.0000
# 4 0.0000 0.0000 0.0000 26.0444 0.0000 -7.7079
# 5 -0.7185 -4.0832 -12.0353 0.0000 21.5966 0.0000
# 6 0.0000 0.0000 0.0000 -7.7079 0.0000 21.4400
#
#
#
# Elastic Compliance Matrix: (Units=1/GPa)
#
#
# Indices 1 2 3 4 5 6 
#
# 1 0.025719 -0.005618 -0.001359 0.000000 -0.000964 0.000000
# 2 -0.005618 0.020590 -0.002405 0.000000 0.002366 0.000000
# 3 -0.001359 -0.002405 0.006163 0.000000 0.002934 0.000000
# 4 0.000000 0.000000 0.000000 0.042968 0.000000 0.015447
# 5 -0.000964 0.002366 0.002934 0.000000 0.048354 0.000000
# 6 0.000000 0.000000 0.000000 0.015447 0.000000 0.052195
#
#
# Mechanical properties :
#
#
# Convention : Reuss Voigt Hill
#
# Bulk Modulus (GPa) = 29.66619 43.37560 36.52089
# Shear Modulus (GPa) = 22.12507 28.81654 25.47081
#
# Velocity S-wave (km/s) = 3.28314 3.74686 3.52264
# Velocity P-wave (km/s) = 5.36888 6.31273 5.85984
#
# Compressibility (1/GPa) = 0.03370841
#
# Stress axis : x y z
#
# Youngs Moduli (GPa) = 38.88155 48.56739 162.27156
#
# Poissons Ratio (x) = 0.27286 0.22047
# Poissons Ratio (y) = 0.21845 0.39022
# Poissons Ratio (z) = 0.05283 0.11679
#
# Static dielectric constant tensor:
#      x y z
#    x 1.739900 0.000000 0.023090 
#    y 0.000000 1.736770 0.000000 
#    z 0.023090 0.000000 1.882510 
# 
# From -- ./inp_files/5653.got.cif
#   From: 2010.05.17/outbox.cif.g08.bks.cpg/sg5_3_cif.got.tgz:5653.got - 2010.06.03 18:56:24.
