data_PCOD9121408
_publ_section_title
;
Structure prediction by ZEFSAII (Michael W. Deem and Ramdas Pophale) SiO2 
 PCOD9121408
Probable space group: C 2
;
_chemical_formula_sum "Si O2"
_cell_formula_units_Z 26
_cell_length_a 14.642844
_cell_length_b 16.601613
_cell_length_c 9.982854
_cell_angle_alpha 90.000000
_cell_angle_beta 151.086031
_cell_angle_gamma 90.000000
_cell_volume 1173.338057
_symmetry_space_group_name_H-M "C 2"
_symmetry_group_IT_number 5
_symmetry_cell_setting 'monoclinic'
loop_
_space_group_symop_operation_xyz
x,y,z
-x,y,-z
1/2+x,1/2+y,z
1/2-x,1/2+y,-z
loop_
_atom_site_type_symbol
_atom_site_label
_atom_site_fract_x
_atom_site_fract_y
_atom_site_fract_z
Si Si1 0.000000 0.547190 0.500000
Si Si2 0.281149 0.541454 0.229293
Si Si3 0.294596 0.652116 0.984441
Si Si4 0.396922 0.353791 0.731537
Si Si5 0.257572 0.300281 0.948492
Si Si6 0.003944 0.428379 0.254078
Si Si7 0.291124 0.700853 0.396968
O O1 0.983172 0.490705 0.607231
O O2 0.188952 0.602101 0.736345
O O3 0.500000 0.514407 0.500000
O O4 0.269020 0.594364 0.078925
O O5 0.236869 0.609361 0.285371
O O6 0.135405 0.468669 0.032049
O O7 0.180658 0.732531 0.868769
O O8 0.510677 0.683235 0.272088
O O9 0.339132 0.259200 0.680433
O O10 0.208901 0.403391 0.464379
O O11 0.500000 0.381466 0.000000
O O12 0.566131 0.358721 0.845357
O O13 0.087878 0.350444 0.793239
O O14 0.206441 0.253242 0.741769
#
# Coordination Sequence:
#
# PCOD9121408 Si02
#       7
#     2   4   4   4   4   4   4
#     4  10  20  32  58  82 110 144 176 218 290 316
#     4   8  17  32  58  79 109 143 181 214 277 322
#     4   9  17  32  57  81 104 145 183 222 262 325
#     4  10  20  30  59  85 104 138 193 222 257 320
#     4  10  19  33  59  84 105 138 193 220 261 323
#     4  11  20  35  59  82 113 144 168 237 272 313
#     4   9  16  33  58  80 102 143 187 224 253 322
#
# _framework density 22.159002999999998
#
# number of rings (size 3 to 8) (size 9 to 14) (size 15 to 20)
#    0.000    2.462    1.538    3.231    2.154    0.000 
#    1.385    0.000   77.846    1.846    0.000    0.000 
#    0.000    0.000    0.000    0.000    0.000    0.000 
#
# Total GULP energy -72401.361392 kJ/mol
# GULP energy per Si atom -5569.335492 kJ/mol
# Density = 2.210857 g / cm^3
# Si number density = 22.159003 Si / 1000 Ang^3
#
#
#
# Elastic Constant Matrix: (Units=GPa)
#
#
# Indices 1 2 3 4 5 6 
#
# 1 5.8877 2.1275 6.5797 0.0000 2.1316 0.0000
# 2 2.1275 83.3433 67.3718 0.0000 -10.4000 0.0000
# 3 6.5797 67.3718 111.2581 0.0000 14.1053 0.0000
# 4 0.0000 0.0000 0.0000 60.7831 0.0000 -1.4842
# 5 2.1316 -10.4000 14.1053 0.0000 21.7750 0.0000
# 6 0.0000 0.0000 0.0000 -1.4842 0.0000 9.0427
#
#
#
# Elastic Compliance Matrix: (Units=1/GPa)
#
#
# Indices 1 2 3 4 5 6 
#
# 1 0.185242 0.004724 -0.012859 0.000000 -0.007548 0.000000
# 2 0.004724 0.040778 -0.029833 0.000000 0.038338 0.000000
# 3 -0.012859 -0.029833 0.032096 0.000000 -0.033781 0.000000
# 4 0.000000 0.000000 0.000000 0.016518 0.000000 0.002711
# 5 -0.007548 0.038338 -0.033781 0.000000 0.086856 0.000000
# 6 0.000000 0.000000 0.000000 0.002711 0.000000 0.111032
#
#
# Mechanical properties :
#
#
# Convention : Reuss Voigt Hill
#
# Bulk Modulus (GPa) = 5.48903 39.18300 22.33601
# Shear Modulus (GPa) = 8.20771 26.61417 17.41094
#
# Velocity S-wave (km/s) = 1.92667 3.46938 2.80612
# Velocity P-wave (km/s) = 2.72615 5.81118 4.53882
#
# Compressibility (1/GPa) = 0.18218160
#
# Stress axis : x y z
#
# Youngs Moduli (GPa) = 5.39834 24.52329 31.15636
#
# Poissons Ratio (x) = -0.11585 0.40063
# Poissons Ratio (y) = -0.02550 0.92947
# Poissons Ratio (z) = 0.06942 0.73159
#
# Static dielectric constant tensor:
#      x y z
#    x 1.865330 0.000000 -0.015300 
#    y 0.000000 1.833000 0.000000 
#    z -0.015300 0.000000 1.865680 
# 
# From -- ./inp_files/57105.got.cif
#   From: 2010.05.17/outbox.cif.g08.bks.cpg/sg5_29_cif.got.tgz:57105.got - 2010.06.03 18:56:24.
