data_PCOD9121056
_publ_section_title
;
Structure prediction by ZEFSAII (Michael W. Deem and Ramdas Pophale) SiO2 
 PCOD9121056
Probable space group: C 2
;
_chemical_formula_sum "Si O2"
_cell_formula_units_Z 20
_cell_length_a 17.399995
_cell_length_b 6.921426
_cell_length_c 6.902816
_cell_angle_alpha 90.000000
_cell_angle_beta 113.779379
_cell_angle_gamma 90.000000
_cell_volume 760.749816
_symmetry_space_group_name_H-M "C 2"
_symmetry_group_IT_number 5
_symmetry_cell_setting 'monoclinic'
loop_
_space_group_symop_operation_xyz
x,y,z
-x,y,-z
1/2+x,1/2+y,z
1/2-x,1/2+y,-z
loop_
_atom_site_type_symbol
_atom_site_label
_atom_site_fract_x
_atom_site_fract_y
_atom_site_fract_z
Si Si1 0.418427 0.914040 0.528255
Si Si2 0.734579 0.409676 0.335019
Si Si3 0.572147 0.520700 0.693696
Si Si4 0.246668 0.475948 0.203178
Si Si5 0.398404 0.728857 0.910732
O O1 0.500000 0.993518 0.500000
O O2 0.412032 0.697398 0.437494
O O3 0.327211 0.998996 0.385992
O O4 0.426192 0.880060 0.768965
O O5 0.739833 0.383932 0.571162
O O6 0.727134 0.201347 0.224723
O O7 0.657709 0.553680 0.227341
O O8 0.500000 0.409480 0.500000
O O9 0.665732 0.440892 0.817257
O O10 0.545504 0.616189 0.871358
O O11 0.167285 0.363562 0.035734
#
# Coordination Sequence:
#
# PCOD9121056 Si02
#       5
#     4   4   4   4   4
#     4   9  20  38  59  95 129 163 218 265 323 386
#     4  10  18  38  64  94 128 169 221 266 317 393
#     4  10  22  38  61  99 128 169 221 261 329 391
#     4  10  20  38  64 100 127 169 224 266 320 395
#     4  11  22  39  69  90 134 177 212 273 327 387
#
# _framework density 26.289849
#
# number of rings (size 3 to 8) (size 9 to 14) (size 15 to 20)
#    0.000    2.000    6.000    0.000    5.600    3.200 
#    0.000    1.000    0.000   10.800   26.000    0.000 
#    0.000    0.000    0.000    0.000    0.000    0.000 
#
# Total GULP energy -55760.055881 kJ/mol
# GULP energy per Si atom -5576.005588 kJ/mol
# Density = 2.623001 g / cm^3
# Si number density = 26.289849 Si / 1000 Ang^3
#
#
#
# Elastic Constant Matrix: (Units=GPa)
#
#
# Indices 1 2 3 4 5 6 
#
# 1 97.6478 16.5351 33.6770 0.0000 -12.3714 0.0000
# 2 16.5351 115.7400 28.6307 0.0000 10.2180 0.0000
# 3 33.6770 28.6307 124.3859 0.0000 -19.5303 0.0000
# 4 0.0000 0.0000 0.0000 19.3661 0.0000 7.8374
# 5 -12.3714 10.2180 -19.5303 0.0000 59.6740 0.0000
# 6 0.0000 0.0000 0.0000 7.8374 0.0000 24.7523
#
#
#
# Elastic Compliance Matrix: (Units=1/GPa)
#
#
# Indices 1 2 3 4 5 6 
#
# 1 0.011551 -0.001165 -0.002585 0.000000 0.001748 0.000000
# 2 -0.001165 0.009612 -0.002312 0.000000 -0.002644 0.000000
# 3 -0.002585 -0.002312 0.009751 0.000000 0.003051 0.000000
# 4 0.000000 0.000000 0.000000 0.059226 0.000000 -0.018753
# 5 0.001748 -0.002644 0.003051 0.000000 0.018572 0.000000
# 6 0.000000 0.000000 0.000000 -0.018753 0.000000 0.046338
#
#
# Mechanical properties :
#
#
# Convention : Reuss Voigt Hill
#
# Bulk Modulus (GPa) = 53.22114 55.05103 54.13609
# Shear Modulus (GPa) = 28.82902 38.02053 33.42478
#
# Velocity S-wave (km/s) = 3.31506 3.80703 3.56953
# Velocity P-wave (km/s) = 5.91107 6.34902 6.13396
#
# Compressibility (1/GPa) = 0.01878953
#
# Stress axis : x y z
#
# Youngs Moduli (GPa) = 86.57176 104.03757 102.55799
#
# Poissons Ratio (x) = 0.12123 0.26508
# Poissons Ratio (y) = 0.10087 0.23713
# Poissons Ratio (z) = 0.22376 0.24055
#
# Static dielectric constant tensor:
#      x y z
#    x 2.327830 0.000000 0.189340 
#    y 0.000000 2.035110 0.000000 
#    z 0.189340 0.000000 2.220960 
# 
# From -- ./inp_files/22625.got.cif
#   From: 2010.05.17/outbox.cif.g08.bks.cpg/sg5_12_cif.got.tgz:22625.got - 2010.06.03 18:56:24.
