data_PCOD9121585
_publ_section_title
;
Structure prediction by ZEFSAII (Michael W. Deem and Ramdas Pophale) SiO2 
 PCOD9121585
Probable space group: C 2
;
_chemical_formula_sum "Si O2"
_cell_formula_units_Z 30
_cell_length_a 11.998473
_cell_length_b 13.941237
_cell_length_c 12.139562
_cell_angle_alpha 90.000000
_cell_angle_beta 37.644001
_cell_angle_gamma 90.000000
_cell_volume 1240.212838
_symmetry_space_group_name_H-M "C 2"
_symmetry_group_IT_number 5
_symmetry_cell_setting 'monoclinic'
loop_
_space_group_symop_operation_xyz
x,y,z
-x,y,-z
1/2+x,1/2+y,z
1/2-x,1/2+y,-z
loop_
_atom_site_type_symbol
_atom_site_label
_atom_site_fract_x
_atom_site_fract_y
_atom_site_fract_z
Si Si1 0.000000 0.152480 0.000000
Si Si2 0.141826 0.183269 0.116981
Si Si3 0.199501 0.848556 0.543445
Si Si4 0.190513 0.485769 0.983217
Si Si5 0.138899 0.368497 0.229850
Si Si6 0.739680 0.969864 0.702304
Si Si7 0.235428 0.001982 0.675719
Si Si8 0.756344 0.632877 0.474786
O O1 0.863983 0.080210 0.170216
O O2 0.097275 0.211234 0.023685
O O3 0.279859 0.095855 0.008566
O O4 0.209870 0.262158 0.149856
O O5 0.946654 0.149487 0.318043
O O6 0.419999 0.857482 0.388994
O O7 0.153102 0.737952 0.603530
O O8 0.177478 0.884626 0.435796
O O9 0.121006 0.930773 0.684883
O O10 0.291916 0.468515 0.788688
O O11 0.231984 0.426837 0.059000
O O12 0.978733 0.461801 0.130359
O O13 0.179394 0.425073 0.308299
O O14 0.768689 0.071170 0.616344
O O15 0.348390 0.064844 0.496718
#
# Coordination Sequence:
#
# PCOD9121585 Si02
#       8
#     2   4   4   4   4   4   4   4
#     4  10  20  38  58  84 122 156 186 240 294 346
#     4  10  21  36  59  86 112 153 196 236 286 345
#     4   9  19  36  58  82 106 151 196 228 284 338
#     4  10  20  37  55  82 116 148 186 236 295 336
#     4  10  20  35  57  85 109 144 195 234 282 343
#     4   9  20  37  56  81 116 150 185 241 283 342
#     4  10  19  35  56  83 116 145 189 240 285 335
#     4   9  20  37  58  83 111 152 192 235 284 342
#
# _framework density 24.189398000000001
#
# number of rings (size 3 to 8) (size 9 to 14) (size 15 to 20)
#    0.000    2.400    1.333    0.400    1.867    4.800 
#    2.400    0.000    0.000    0.000   17.333    0.000 
#    0.000    0.000    0.000    0.000    0.000    0.000 
#
# Total GULP energy -83707.284210 kJ/mol
# GULP energy per Si atom -5580.485614 kJ/mol
# Density = 2.413434 g / cm^3
# Si number density = 24.189398 Si / 1000 Ang^3
#
#
#
# Elastic Constant Matrix: (Units=GPa)
#
#
# Indices 1 2 3 4 5 6 
#
# 1 72.0478 5.0758 26.6232 -0.0006 26.9863 0.0007
# 2 5.0758 110.8281 12.2081 -0.0005 13.9077 0.0005
# 3 26.6232 12.2081 98.7238 -0.0005 32.8114 0.0007
# 4 -0.0006 -0.0005 -0.0005 25.2630 0.0004 5.2686
# 5 26.9863 13.9077 32.8114 0.0004 43.5952 -0.0005
# 6 0.0007 0.0005 0.0007 5.2686 -0.0005 23.0565
#
#
#
# Elastic Compliance Matrix: (Units=1/GPa)
#
#
# Indices 1 2 3 4 5 6 
#
# 1 0.018289 0.000633 -0.001574 0.000001 -0.010338 -0.000001
# 2 0.000633 0.009425 -0.000276 0.000000 -0.003191 0.000000
# 3 -0.001574 -0.000276 0.013649 0.000001 -0.009210 -0.000001
# 4 0.000001 0.000000 0.000001 0.041564 -0.000001 -0.009498
# 5 -0.010338 -0.003191 -0.009210 -0.000001 0.037288 0.000002
# 6 -0.000001 0.000000 -0.000001 -0.009498 0.000002 0.045542
#
#
# Mechanical properties :
#
#
# Convention : Reuss Voigt Hill
#
# Bulk Modulus (GPa) = 25.68751 41.04599 33.36675
# Shear Modulus (GPa) = 27.59877 34.22913 30.91395
#
# Velocity S-wave (km/s) = 3.38145 3.76579 3.57878
# Velocity P-wave (km/s) = 5.08803 5.99280 5.55885
#
# Compressibility (1/GPa) = 0.03892943
#
# Stress axis : x y z
#
# Youngs Moduli (GPa) = 54.67702 106.10305 73.26543
#
# Poissons Ratio (x) = -0.06718 0.11535
# Poissons Ratio (y) = -0.03462 0.02019
# Poissons Ratio (z) = 0.08608 0.02924
#
# Static dielectric constant tensor:
#      x y z
#    x 2.033940 0.000000 -0.026140 
#    y 0.000000 1.962160 0.000000 
#    z -0.026140 0.000000 1.957010 
# 
# From -- ./inp_files/42668.got.cif
#   From: 2010.05.17/outbox.cif.g08.bks.cpg/sg5_22_cif.got.tgz:42668.got - 2010.06.03 18:56:24.
