data_PCOD9121430
_publ_section_title
;
Structure prediction by ZEFSAII (Michael W. Deem and Ramdas Pophale) SiO2 
 PCOD9121430
Probable space group: C 2
;
_chemical_formula_sum "Si O2"
_cell_formula_units_Z 22
_cell_length_a 9.573307
_cell_length_b 22.371825
_cell_length_c 5.179752
_cell_angle_alpha 90.000000
_cell_angle_beta 101.596132
_cell_angle_gamma 90.000000
_cell_volume 1086.716315
_symmetry_space_group_name_H-M "C 2"
_symmetry_group_IT_number 5
_symmetry_cell_setting 'monoclinic'
loop_
_space_group_symop_operation_xyz
x,y,z
-x,y,-z
1/2+x,1/2+y,z
1/2-x,1/2+y,-z
loop_
_atom_site_type_symbol
_atom_site_label
_atom_site_fract_x
_atom_site_fract_y
_atom_site_fract_z
Si Si1 0.500000 0.963220 0.500000
Si Si2 0.674711 0.679703 0.561241
Si Si3 0.768131 0.549126 0.504029
Si Si4 0.843051 0.384627 0.068540
Si Si5 0.653700 0.492361 0.940204
Si Si6 0.171904 0.250942 0.058367
O O1 0.380733 0.916681 0.353330
O O2 0.410529 0.011596 0.635928
O O3 0.500000 0.670054 0.500000
O O4 0.760037 0.620259 0.517569
O O5 0.715433 0.703147 0.859032
O O6 0.710191 0.730057 0.359810
O O7 0.734745 0.528667 0.198884
O O8 0.654409 0.528910 0.676714
O O9 0.730910 0.430127 0.908956
O O10 0.788931 0.317328 0.022323
O O11 0.000000 0.387121 0.000000
O O12 0.500000 0.481163 0.000000
O O13 0.000000 0.251263 0.000000
#
# Coordination Sequence:
#
# PCOD9121430 Si02
#       6
#     2   4   4   4   4   4
#     4  10  22  36  60  90 110 162 188 248 288 346
#     4  10  19  34  51  81 109 147 186 232 286 333
#     4  11  22  37  59  82 122 145 198 231 294 348
#     4  10  20  36  58  84 118 145 200 239 290 342
#     4  11  22  36  58  87 114 154 183 242 294 342
#     4   9  20  31  55  78 106 146 190 238 276 328
#
# _framework density 20.244475000000001
#
# number of rings (size 3 to 8) (size 9 to 14) (size 15 to 20)
#    0.000    1.818    1.818    2.727    6.364    1.455 
#    0.000    0.000    4.000    0.000    0.000    0.000 
#    0.000    0.000    0.000    0.000    0.000    0.000 
#
# Total GULP energy -61237.055685 kJ/mol
# GULP energy per Si atom -5567.005062 kJ/mol
# Density = 2.019840 g / cm^3
# Si number density = 20.244475 Si / 1000 Ang^3
#
#
#
# Elastic Constant Matrix: (Units=GPa)
#
#
# Indices 1 2 3 4 5 6 
#
# 1 34.9041 16.8106 1.8374 0.0000 -12.2007 0.0000
# 2 16.8106 138.9563 21.9322 0.0000 -10.5670 0.0000
# 3 1.8374 21.9322 77.0080 0.0000 -11.8288 0.0000
# 4 0.0000 0.0000 0.0000 27.5979 0.0000 -8.0435
# 5 -12.2007 -10.5670 -11.8288 0.0000 21.6160 0.0000
# 6 0.0000 0.0000 0.0000 -8.0435 0.0000 19.2759
#
#
#
# Elastic Compliance Matrix: (Units=1/GPa)
#
#
# Indices 1 2 3 4 5 6 
#
# 1 0.037612 -0.003456 0.003372 0.000000 0.021385 0.000000
# 2 -0.003456 0.008004 -0.002070 0.000000 0.000830 0.000000
# 3 0.003372 -0.002070 0.014883 0.000000 0.009035 0.000000
# 4 0.000000 0.000000 0.000000 0.041252 0.000000 0.017214
# 5 0.021385 0.000830 0.009035 0.000000 0.063682 0.000000
# 6 0.000000 0.000000 0.000000 0.017214 0.000000 0.059061
#
#
# Mechanical properties :
#
#
# Convention : Reuss Voigt Hill
#
# Bulk Modulus (GPa) = 17.79662 36.89209 27.34436
# Shear Modulus (GPa) = 20.19936 27.71717 23.95826
#
# Velocity S-wave (km/s) = 3.16218 3.70418 3.44386
# Velocity P-wave (km/s) = 4.70557 6.04628 5.41756
#
# Compressibility (1/GPa) = 0.05619044
#
# Stress axis : x y z
#
# Youngs Moduli (GPa) = 26.58730 124.93135 67.19264
#
# Poissons Ratio (x) = 0.43178 -0.22655
# Poissons Ratio (y) = 0.09189 0.13908
# Poissons Ratio (z) = -0.08964 0.25858
#
# Static dielectric constant tensor:
#      x y z
#    x 1.772510 0.000000 0.028010 
#    y 0.000000 1.714910 0.000000 
#    z 0.028010 0.000000 1.799390 
# 
# From -- ./inp_files/2953.got.cif
#   From: 2010.05.17/outbox.cif.g08.bks.cpg/sg5_2_cif.got.tgz:2953.got - 2010.06.03 18:56:24.
