data_PCOD9121179
_publ_section_title
;
Structure prediction by ZEFSAII (Michael W. Deem and Ramdas Pophale) SiO2 
 PCOD9121179
Probable space group: C 2
;
_chemical_formula_sum "Si O2"
_cell_formula_units_Z 26
_cell_length_a 18.559549
_cell_length_b 10.622773
_cell_length_c 13.380180
_cell_angle_alpha 90.000000
_cell_angle_beta 22.548497
_cell_angle_gamma 90.000000
_cell_volume 1011.563947
_symmetry_space_group_name_H-M "C 2"
_symmetry_group_IT_number 5
_symmetry_cell_setting 'monoclinic'
loop_
_space_group_symop_operation_xyz
x,y,z
-x,y,-z
1/2+x,1/2+y,z
1/2-x,1/2+y,-z
loop_
_atom_site_type_symbol
_atom_site_label
_atom_site_fract_x
_atom_site_fract_y
_atom_site_fract_z
Si Si1 0.257898 0.300330 0.233360
Si Si2 0.694633 0.526637 0.208468
Si Si3 0.310323 0.885209 0.228932
Si Si4 0.500000 0.003669 0.500000
Si Si5 0.731096 0.141649 0.590081
Si Si6 0.825194 0.136747 0.973295
Si Si7 0.466180 0.273973 0.782848
O O1 0.208737 0.167064 0.240122
O O2 0.309241 0.252475 0.277374
O O3 0.092351 0.401905 0.457581
O O4 0.399142 0.353387 0.966475
O O5 0.500000 0.478897 0.500000
O O6 0.828975 0.430406 0.090843
O O7 0.681963 0.533816 0.107293
O O8 0.125995 0.819073 0.503457
O O9 0.306939 0.012840 0.300979
O O10 0.500000 0.807444 0.000000
O O11 0.673221 0.091595 0.247731
O O12 0.582927 0.159635 0.689657
O O13 0.955569 0.151775 0.280059
O O14 0.716206 0.245964 0.051146
#
# Coordination Sequence:
#
# PCOD9121179 Si02
#       7
#     4   4   4   2   4   4   4
#     4  10  19  39  67  94 124 166 228 267 311 381
#     4  10  18  41  66  92 120 163 223 269 302 376
#     4  11  23  41  64  97 128 170 221 271 328 386
#     4  12  24  40  66 102 136 172 210 268 350 388
#     4  11  22  44  69  95 126 173 227 272 314 384
#     4  11  24  43  67  96 135 175 214 271 328 392
#     4  11  25  43  65  98 133 170 220 271 329 389
#
# _framework density 25.702774000000002
#
# number of rings (size 3 to 8) (size 9 to 14) (size 15 to 20)
#    0.000    1.231    3.846    5.077    0.000    3.692 
#    4.154    1.538    0.000    0.000    0.000    0.000 
#    0.000    0.000    0.000    0.000    0.000    0.000 
#
# Total GULP energy -72465.691581 kJ/mol
# GULP energy per Si atom -5574.283968 kJ/mol
# Density = 2.564427 g / cm^3
# Si number density = 25.702774 Si / 1000 Ang^3
#
#
#
# Elastic Constant Matrix: (Units=GPa)
#
#
# Indices 1 2 3 4 5 6 
#
# 1 63.0590 20.2177 10.8514 0.0000 -5.2556 0.0000
# 2 20.2177 29.5625 12.6460 0.0000 6.9989 0.0000
# 3 10.8514 12.6460 186.2390 -0.0001 -16.6463 0.0001
# 4 0.0000 0.0000 -0.0001 31.8032 0.0000 7.5809
# 5 -5.2556 6.9989 -16.6463 0.0000 37.7089 0.0000
# 6 0.0000 0.0000 0.0001 7.5809 0.0000 17.9657
#
#
#
# Elastic Compliance Matrix: (Units=1/GPa)
#
#
# Indices 1 2 3 4 5 6 
#
# 1 0.021565 -0.016401 0.000414 0.000000 0.006232 0.000000
# 2 -0.016401 0.049677 -0.003588 0.000000 -0.013090 0.000000
# 3 0.000414 -0.003588 0.005886 0.000000 0.003322 0.000000
# 4 0.000000 0.000000 0.000000 0.034960 0.000000 -0.014752
# 5 0.006232 -0.013090 0.003322 0.000000 0.031284 0.000000
# 6 0.000000 0.000000 0.000000 -0.014752 0.000000 0.061886
#
#
# Mechanical properties :
#
#
# Convention : Reuss Voigt Hill
#
# Bulk Modulus (GPa) = 26.33025 40.69894 33.51459
# Shear Modulus (GPa) = 19.45035 33.17191 26.31113
#
# Velocity S-wave (km/s) = 2.75388 3.59638 3.20295
# Velocity P-wave (km/s) = 4.51422 5.75449 5.17167
#
# Compressibility (1/GPa) = 0.03797914
#
# Stress axis : x y z
#
# Youngs Moduli (GPa) = 46.37212 20.13012 169.89981
#
# Poissons Ratio (x) = 0.33015 -0.07038
# Poissons Ratio (y) = 0.76054 0.60952
# Poissons Ratio (z) = -0.01921 0.07222
#
# Static dielectric constant tensor:
#      x y z
#    x 2.179360 0.000000 -0.077080 
#    y 0.000000 2.153690 0.000000 
#    z -0.077080 0.000000 2.100000 
# 
# From -- ./inp_files/57041.got.cif
#   From: 2010.05.17/outbox.cif.g08.bks.cpg/sg5_29_cif.got.tgz:57041.got - 2010.06.03 18:56:24.
