data_PCOD9121740
_publ_section_title
;
Structure prediction by ZEFSAII (Michael W. Deem and Ramdas Pophale) SiO2 
 PCOD9121740
Probable space group: C 2
;
_chemical_formula_sum "Si O2"
_cell_formula_units_Z 28
_cell_length_a 15.840448
_cell_length_b 11.991387
_cell_length_c 7.827633
_cell_angle_alpha 90.000000
_cell_angle_beta 72.448461
_cell_angle_gamma 90.000000
_cell_volume 1417.631873
_symmetry_space_group_name_H-M "C 2"
_symmetry_group_IT_number 5
_symmetry_cell_setting 'monoclinic'
loop_
_space_group_symop_operation_xyz
x,y,z
-x,y,-z
1/2+x,1/2+y,z
1/2-x,1/2+y,-z
loop_
_atom_site_type_symbol
_atom_site_label
_atom_site_fract_x
_atom_site_fract_y
_atom_site_fract_z
Si Si1 0.500000 0.413800 0.000000
Si Si2 0.771023 0.502075 0.840699
Si Si3 0.500000 0.799975 0.000000
Si Si4 0.151682 0.853905 0.682969
Si Si5 0.322463 0.908918 0.168436
Si Si6 0.823425 0.051332 0.560774
Si Si7 0.401638 0.602385 0.870440
Si Si8 0.773644 0.696616 0.628187
O O1 0.422681 0.342560 0.129640
O O2 0.535793 0.497952 0.122713
O O3 0.735942 0.407055 0.732157
O O4 0.820362 0.599332 0.707103
O O5 0.816710 0.448487 0.975919
O O6 0.685527 0.569636 0.966561
O O7 0.575974 0.873911 0.862356
O O8 0.447118 0.715585 0.906297
O O9 0.171409 0.745673 0.562430
O O10 0.128202 0.946902 0.555413
O O11 0.261867 0.799170 0.237694
O O12 0.271420 0.002001 0.313287
O O13 0.873720 0.101601 0.690952
O O14 0.808587 0.137949 0.417699
#
# Coordination Sequence:
#
# PCOD9121740 Si02
#       8
#     2   4   2   4   4   4   4   4
#     4   9  18  34  51  86 118 144 191 254 293 338
#     4   9  18  35  57  83 117 158 198 235 288 364
#     4  11  20  34  59  90 120 148 201 252 293 350
#     4   9  19  33  57  82 116 148 200 246 290 349
#     4  10  21  36  59  86 117 158 201 241 296 354
#     4   9  20  36  57  83 116 161 192 243 289 359
#     4   9  18  33  57  83 117 153 190 245 304 336
#     4  10  19  36  58  83 115 156 208 235 284 365
#
# _framework density 19.751248
#
# number of rings (size 3 to 8) (size 9 to 14) (size 15 to 20)
#    0.000    2.571    1.429    0.000    4.000    0.571 
#    0.000    0.714    0.000    6.857    0.000    0.000 
#    0.000    0.000    0.000    0.000    0.000    0.000 
#
# Total GULP energy -78017.882357 kJ/mol
# GULP energy per Si atom -5572.705883 kJ/mol
# Density = 1.970629 g / cm^3
# Si number density = 19.751248 Si / 1000 Ang^3
#
#
#
# Elastic Constant Matrix: (Units=GPa)
#
#
# Indices 1 2 3 4 5 6 
#
# 1 44.3838 20.8012 15.1115 0.0000 1.8410 0.0000
# 2 20.8012 77.8932 32.2170 0.0000 5.8531 0.0000
# 3 15.1115 32.2170 75.6861 0.0000 11.5032 0.0000
# 4 0.0000 0.0000 0.0000 31.9010 0.0000 0.2968
# 5 1.8410 5.8531 11.5032 0.0000 40.4258 0.0000
# 6 0.0000 0.0000 0.0000 0.2968 0.0000 20.3958
#
#
#
# Elastic Compliance Matrix: (Units=1/GPa)
#
#
# Indices 1 2 3 4 5 6 
#
# 1 0.026220 -0.005877 -0.002803 0.000000 0.000454 0.000000
# 2 -0.005877 0.016904 -0.005948 0.000000 -0.000487 0.000000
# 3 -0.002803 -0.005948 0.016884 0.000000 -0.003815 0.000000
# 4 0.000000 0.000000 0.000000 0.031351 0.000000 -0.000456
# 5 0.000454 -0.000487 -0.003815 0.000000 0.025872 0.000000
# 6 0.000000 0.000000 0.000000 -0.000456 0.000000 0.049036
#
#
# Mechanical properties :
#
#
# Convention : Reuss Voigt Hill
#
# Bulk Modulus (GPa) = 32.51704 37.13585 34.82644
# Shear Modulus (GPa) = 24.29837 27.20008 25.74923
#
# Velocity S-wave (km/s) = 3.51125 3.71500 3.61456
# Velocity P-wave (km/s) = 5.73913 6.10280 5.92376
#
# Compressibility (1/GPa) = 0.03075311
#
# Stress axis : x y z
#
# Youngs Moduli (GPa) = 38.13813 59.15629 59.22831
#
# Poissons Ratio (x) = 0.34767 0.16599
# Poissons Ratio (y) = 0.22414 0.35230
# Poissons Ratio (z) = 0.10688 0.35187
#
# Static dielectric constant tensor:
#      x y z
#    x 1.720990 0.000000 -0.031050 
#    y 0.000000 1.723320 0.000000 
#    z -0.031050 0.000000 1.723850 
# 
# From -- ./inp_files/23604.got.cif
#   From: 2010.05.17/outbox.cif.g08.bks.cpg/sg5_12_cif.got.tgz:23604.got - 2010.06.03 18:56:24.
