data_PCOD9121560
_publ_section_title
;
Structure prediction by ZEFSAII (Michael W. Deem and Ramdas Pophale) SiO2 
 PCOD9121560
Probable space group: C 2
;
_chemical_formula_sum "Si O2"
_cell_formula_units_Z 30
_cell_length_a 15.075252
_cell_length_b 13.581082
_cell_length_c 21.604095
_cell_angle_alpha 90.000000
_cell_angle_beta 18.389550
_cell_angle_gamma 90.000000
_cell_volume 1395.408337
_symmetry_space_group_name_H-M "C 2"
_symmetry_group_IT_number 5
_symmetry_cell_setting 'monoclinic'
loop_
_space_group_symop_operation_xyz
x,y,z
-x,y,-z
1/2+x,1/2+y,z
1/2-x,1/2+y,-z
loop_
_atom_site_type_symbol
_atom_site_label
_atom_site_fract_x
_atom_site_fract_y
_atom_site_fract_z
Si Si1 0.703350 0.161840 0.072215
Si Si2 0.500000 0.663638 0.000000
Si Si3 0.030483 0.373752 0.275796
Si Si4 0.012702 0.822892 0.867880
Si Si5 0.397768 0.516551 0.251630
Si Si6 0.968337 0.538365 0.627496
Si Si7 0.309653 0.688014 0.764984
Si Si8 0.343143 0.538722 0.538445
O O1 0.894130 0.201444 0.003070
O O2 0.691405 0.247716 0.030703
O O3 0.399281 0.122308 0.294441
O O4 0.819597 0.068225 0.956857
O O5 0.213145 0.606044 0.207572
O O6 0.045582 0.434061 0.329579
O O7 0.008562 0.258941 0.309687
O O8 0.798870 0.436129 0.390647
O O9 0.327092 0.379778 0.042476
O O10 0.245847 0.756214 0.746698
O O11 0.103184 0.899057 0.754997
O O12 0.201417 0.543744 0.323624
O O13 0.282208 0.552696 0.393857
O O14 0.448655 0.587496 0.649837
O O15 0.000000 0.673021 0.000000
O O16 0.500000 0.526039 0.500000
#
# Coordination Sequence:
#
# PCOD9121560 Si02
#       8
#     4   2   4   4   4   4   4   4
#     4  11  23  40  68  95 133 182 231 292 346 418
#     4  10  20  42  60  94 132 172 226 280 342 404
#     4  11  22  41  67  98 134 181 227 287 348 408
#     4  11  21  40  67  98 133 174 237 286 342 412
#     4  10  21  36  63 100 132 162 225 289 341 399
#     4  10  19  34  66  94 120 166 215 282 338 394
#     4  10  24  40  69 105 134 178 243 288 328 422
#     4  12  24  44  70 100 141 189 223 286 369 414
#
# _framework density 21.499085000000001
#
# number of rings (size 3 to 8) (size 9 to 14) (size 15 to 20)
#    0.000    1.333    5.333    0.800    2.800    2.133 
#    0.000    1.333    2.933    0.000    0.000    0.000 
#    0.000    0.000    0.000    0.000    0.000    0.000 
#
# Total GULP energy -83541.546942 kJ/mol
# GULP energy per Si atom -5569.436463 kJ/mol
# Density = 2.145015 g / cm^3
# Si number density = 21.499085 Si / 1000 Ang^3
#
#
#
# Elastic Constant Matrix: (Units=GPa)
#
#
# Indices 1 2 3 4 5 6 
#
# 1 97.4457 26.3805 28.2799 0.5876 4.6413 0.1775
# 2 26.3805 43.0723 22.5394 -0.3079 1.8944 0.2655
# 3 28.2799 22.5394 72.9386 1.1357 12.4843 -0.1002
# 4 0.5876 -0.3079 1.1357 14.2837 -0.5639 -5.5605
# 5 4.6413 1.8944 12.4843 -0.5639 25.0789 -0.0300
# 6 0.1775 0.2655 -0.1002 -5.5605 -0.0300 38.5650
#
#
#
# Elastic Compliance Matrix: (Units=1/GPa)
#
#
# Indices 1 2 3 4 5 6 
#
# 1 0.012851 -0.006311 -0.002949 -0.000484 -0.000445 -0.000094
# 2 -0.006311 0.030953 -0.007597 0.001649 0.002649 0.000036
# 3 -0.002949 -0.007597 0.018634 -0.001913 -0.008200 -0.000168
# 4 -0.000484 0.001649 -0.001913 0.074497 0.002605 0.010729
# 5 -0.000445 0.002649 -0.008200 0.002605 0.043897 0.000372
# 6 -0.000094 0.000036 -0.000168 0.010729 0.000372 0.027477
#
#
# Mechanical properties :
#
#
# Convention : Reuss Voigt Hill
#
# Bulk Modulus (GPa) = 34.81427 40.87292 37.84360
# Shear Modulus (GPa) = 19.87304 24.66930 22.27117
#
# Velocity S-wave (km/s) = 3.04364 3.39109 3.22205
# Velocity P-wave (km/s) = 5.34604 5.86391 5.61095
#
# Compressibility (1/GPa) = 0.02872385
#
# Stress axis : x y z
#
# Youngs Moduli (GPa) = 77.81710 32.30753 53.66492
#
# Poissons Ratio (x) = 0.20389 0.15825
# Poissons Ratio (y) = 0.49109 0.40770
# Poissons Ratio (z) = 0.22947 0.24544
#
# Static dielectric constant tensor:
#      x y z
#    x 1.813860 -0.000070 0.004860 
#    y -0.000070 1.784570 0.001220 
#    z 0.004860 0.001220 1.810290 
# 
# From -- ./inp_files/66185.got.cif
#   From: 2010.05.17/outbox.cif.g08.bks.cpg/sg5_34_cif.got.tgz:66185.got - 2010.06.03 18:56:24.
