data_PCOD9121502
_publ_section_title
;
Structure prediction by ZEFSAII (Michael W. Deem and Ramdas Pophale) SiO2 
 PCOD9121502
Probable space group: C 2
;
_chemical_formula_sum "Si O2"
_cell_formula_units_Z 24
_cell_length_a 7.863186
_cell_length_b 12.217648
_cell_length_c 15.739853
_cell_angle_alpha 90.000000
_cell_angle_beta 37.743917
_cell_angle_gamma 90.000000
_cell_volume 925.620270
_symmetry_space_group_name_H-M "C 2"
_symmetry_group_IT_number 5
_symmetry_cell_setting 'monoclinic'
loop_
_space_group_symop_operation_xyz
x,y,z
-x,y,-z
1/2+x,1/2+y,z
1/2-x,1/2+y,-z
loop_
_atom_site_type_symbol
_atom_site_label
_atom_site_fract_x
_atom_site_fract_y
_atom_site_fract_z
Si Si1 0.719922 0.987280 0.073081
Si Si2 0.174868 0.381540 0.342511
Si Si3 0.635085 0.116650 0.269341
Si Si4 0.192954 0.126551 0.126910
Si Si5 0.134041 0.931911 0.270951
Si Si6 0.190498 0.767226 0.498664
O O1 0.448224 0.914888 0.174291
O O2 0.663987 0.089281 0.159045
O O3 0.763329 0.032380 0.962236
O O4 0.000000 0.935983 0.000000
O O5 0.134458 0.497057 0.312980
O O6 0.491834 0.368745 0.247232
O O7 0.000000 0.384131 0.500000
O O8 0.012118 0.290378 0.353435
O O9 0.363834 0.183343 0.403189
O O10 0.906897 0.175936 0.202419
O O11 0.128110 0.058153 0.239606
O O12 0.500000 0.181712 0.000000
O O13 0.951985 0.884327 0.420299
O O14 0.000000 0.720053 0.500000
#
# Coordination Sequence:
#
# PCOD9121502 Si02
#       6
#     4   4   4   4   4   4
#     4   9  17  33  60  87 109 148 198 239 293 355
#     4   9  19  37  55  76 114 159 198 244 294 345
#     4  10  19  34  58  84 116 155 198 248 296 348
#     4   8  16  34  57  80 109 151 194 240 296 350
#     4   9  18  36  57  79 115 154 196 247 293 347
#     4  11  22  36  55  86 121 157 205 248 289 351
#
# _framework density 25.928559
#
# number of rings (size 3 to 8) (size 9 to 14) (size 15 to 20)
#    0.000    2.667    0.000    1.500    0.000    0.000 
#    0.000   35.833    0.000    0.000    0.000    0.000 
#    0.000    0.000    0.000    0.000    0.000    0.000 
#
# Total GULP energy -66877.222387 kJ/mol
# GULP energy per Si atom -5573.101866 kJ/mol
# Density = 2.586954 g / cm^3
# Si number density = 25.928559 Si / 1000 Ang^3
#
#
#
# Elastic Constant Matrix: (Units=GPa)
#
#
# Indices 1 2 3 4 5 6 
#
# 1 133.0260 25.1128 39.0144 0.0002 -41.0933 0.0022
# 2 25.1128 91.4936 15.8086 -0.0008 -3.6235 0.0016
# 3 39.0144 15.8086 62.3118 -0.0027 -22.9676 0.0029
# 4 0.0002 -0.0008 -0.0027 4.9748 0.0001 -3.7269
# 5 -41.0933 -3.6235 -22.9676 0.0001 67.8913 -0.0016
# 6 0.0022 0.0016 0.0029 -3.7269 -0.0016 7.4789
#
#
#
# Elastic Compliance Matrix: (Units=1/GPa)
#
#
# Indices 1 2 3 4 5 6 
#
# 1 0.010685 -0.001981 -0.004390 -0.000005 0.004877 -0.000003
# 2 -0.001981 0.011809 -0.002245 0.000000 -0.001328 -0.000002
# 3 -0.004390 -0.002245 0.020956 0.000011 0.004312 0.000000
# 4 -0.000005 0.000000 0.000011 0.320757 0.000004 0.159840
# 5 0.004877 -0.001328 0.004312 0.000004 0.019069 0.000003
# 6 -0.000003 -0.000002 0.000000 0.159840 0.000003 0.213362
#
#
# Mechanical properties :
#
#
# Convention : Reuss Voigt Hill
#
# Bulk Modulus (GPa) = 38.14251 49.63366 43.88809
# Shear Modulus (GPa) = 8.03071 29.86205 18.94638
#
# Velocity S-wave (km/s) = 1.76181 3.39736 2.70611
# Velocity P-wave (km/s) = 4.34525 5.87992 5.16985
#
# Compressibility (1/GPa) = 0.02621747
#
# Stress axis : x y z
#
# Youngs Moduli (GPa) = 93.58588 84.68243 47.71876
#
# Poissons Ratio (x) = 0.16777 0.20949
# Poissons Ratio (y) = 0.18541 0.10713
# Poissons Ratio (z) = 0.41085 0.19012
#
# Static dielectric constant tensor:
#      x y z
#    x 2.175400 0.000000 -0.071680 
#    y 0.000000 1.992510 0.000000 
#    z -0.071680 0.000000 2.144140 
# 
# From -- ./inp_files/59611.got.cif
#   From: 2010.05.17/outbox.cif.g08.bks.cpg/sg5_30_cif.got.tgz:59611.got - 2010.06.03 18:56:24.
