data_PCOD9121810
_publ_section_title
;
Structure prediction by ZEFSAII (Michael W. Deem and Ramdas Pophale) SiO2 
 PCOD9121810
Probable space group: C 2
;
_chemical_formula_sum "Si O2"
_cell_formula_units_Z 26
_cell_length_a 11.077717
_cell_length_b 14.959235
_cell_length_c 7.711878
_cell_angle_alpha 90.000000
_cell_angle_beta 114.850321
_cell_angle_gamma 90.000000
_cell_volume 1159.638854
_symmetry_space_group_name_H-M "C 2"
_symmetry_group_IT_number 5
_symmetry_cell_setting 'monoclinic'
loop_
_space_group_symop_operation_xyz
x,y,z
-x,y,-z
1/2+x,1/2+y,z
1/2-x,1/2+y,-z
loop_
_atom_site_type_symbol
_atom_site_label
_atom_site_fract_x
_atom_site_fract_y
_atom_site_fract_z
Si Si1 0.911656 0.611100 0.696775
Si Si2 0.213870 0.446013 0.394913
Si Si3 0.647873 0.312206 0.299242
Si Si4 0.882375 0.914477 0.202848
Si Si5 0.203358 0.572429 0.983195
Si Si6 0.722693 0.763192 0.988760
Si Si7 0.000000 0.369710 0.000000
O O1 0.828722 0.537912 0.538853
O O2 0.897324 0.716297 0.648844
O O3 0.845966 0.596725 0.849503
O O4 0.064792 0.579753 0.796030
O O5 0.233860 0.362019 0.530216
O O6 0.352577 0.456880 0.373002
O O7 0.100190 0.425352 0.181271
O O8 0.527276 0.384592 0.228145
O O9 0.698712 0.287317 0.139085
O O10 0.793002 0.982646 0.030940
O O11 0.810459 0.817901 0.179387
O O12 0.287226 0.659172 0.982856
O O13 0.581348 0.809295 0.916292
#
# Coordination Sequence:
#
# PCOD9121810 Si02
#       7
#     4   4   4   4   4   4   2
#     4   9  17  35  61  88 120 167 206 238 302 380
#     4  10  21  38  62  87 120 164 204 253 306 364
#     4  11  21  36  62  93 127 158 209 254 303 361
#     4  10  19  36  61  92 123 159 203 249 299 365
#     4   9  17  34  63  88 116 165 208 240 301 373
#     4  10  20  38  61  89 120 162 200 253 307 363
#     4  10  22  42  62  82 120 162 214 256 308 368
#
# _framework density 22.420773000000001
#
# number of rings (size 3 to 8) (size 9 to 14) (size 15 to 20)
#    0.000    2.154    1.538    3.692    0.000    0.615 
#    5.538    1.538    3.385    0.000    0.000    0.000 
#    0.000    0.000    0.000    0.000    0.000    0.000 
#
# Total GULP energy -72375.579237 kJ/mol
# GULP energy per Si atom -5567.352249 kJ/mol
# Density = 2.236974 g / cm^3
# Si number density = 22.420773 Si / 1000 Ang^3
#
#
#
# Elastic Constant Matrix: (Units=GPa)
#
#
# Indices 1 2 3 4 5 6 
#
# 1 92.6165 53.6029 9.0178 0.0000 13.5736 0.0000
# 2 53.6029 192.5669 35.6653 0.0000 24.0660 0.0000
# 3 9.0178 35.6653 37.5648 0.0000 15.2248 0.0000
# 4 0.0000 0.0000 0.0000 22.1196 0.0000 4.0817
# 5 13.5736 24.0660 15.2248 0.0000 23.8965 0.0000
# 6 0.0000 0.0000 0.0000 4.0817 0.0000 33.2026
#
#
#
# Elastic Compliance Matrix: (Units=1/GPa)
#
#
# Indices 1 2 3 4 5 6 
#
# 1 0.013395 -0.003461 0.002348 0.000000 -0.005619 0.000000
# 2 -0.003461 0.007409 -0.005361 0.000000 -0.002080 0.000000
# 3 0.002348 -0.005361 0.039768 0.000000 -0.021272 0.000000
# 4 0.000000 0.000000 0.000000 0.046258 0.000000 -0.005687
# 5 -0.005619 -0.002080 -0.021272 0.000000 0.060687 0.000000
# 6 0.000000 0.000000 0.000000 -0.005687 0.000000 0.030817
#
#
# Mechanical properties :
#
#
# Convention : Reuss Voigt Hill
#
# Bulk Modulus (GPa) = 20.99753 57.70225 39.34989
# Shear Modulus (GPa) = 22.01117 30.80788 26.40952
#
# Velocity S-wave (km/s) = 3.13666 3.71088 3.43578
# Velocity P-wave (km/s) = 4.74381 6.64475 5.77306
#
# Compressibility (1/GPa) = 0.04762464
#
# Stress axis : x y z
#
# Youngs Moduli (GPa) = 74.65248 134.96458 25.14590
#
# Poissons Ratio (x) = 0.46717 -0.05904
# Poissons Ratio (y) = 0.25840 0.13480
# Poissons Ratio (z) = -0.17528 0.72348
#
# Static dielectric constant tensor:
#      x y z
#    x 1.885050 0.000000 -0.030910 
#    y 0.000000 1.898130 0.000000 
#    z -0.030910 0.000000 1.956750 
# 
# From -- ./inp_files/20465.got.cif
#   From: 2010.05.17/outbox.cif.g08.bks.cpg/sg5_11_cif.got.tgz:20465.got - 2010.06.03 18:56:24.
