data_PCOD9121759
_publ_section_title
;
Structure prediction by ZEFSAII (Michael W. Deem and Ramdas Pophale) SiO2 
 PCOD9121759
Probable space group: C 2
;
_chemical_formula_sum "Si O2"
_cell_formula_units_Z 32
_cell_length_a 23.537325
_cell_length_b 7.879108
_cell_length_c 23.725732
_cell_angle_alpha 90.000000
_cell_angle_beta 160.033087
_cell_angle_gamma 90.000000
_cell_volume 1502.504526
_symmetry_space_group_name_H-M "C 2"
_symmetry_group_IT_number 5
_symmetry_cell_setting 'monoclinic'
loop_
_space_group_symop_operation_xyz
x,y,z
-x,y,-z
1/2+x,1/2+y,z
1/2-x,1/2+y,-z
loop_
_atom_site_type_symbol
_atom_site_label
_atom_site_fract_x
_atom_site_fract_y
_atom_site_fract_z
Si Si1 0.976485 0.751890 0.265397
Si Si2 0.642329 0.568642 0.676977
Si Si3 0.378145 0.958368 0.803483
Si Si4 0.894400 0.041990 0.542841
Si Si5 0.990395 0.365771 0.282194
Si Si6 0.417093 0.766981 0.093951
Si Si7 0.899272 0.880070 0.079713
Si Si8 0.916011 0.789537 0.974341
O O1 0.014219 0.562141 0.321895
O O2 0.985463 0.762297 0.205832
O O3 0.781897 0.802953 0.096176
O O4 0.097308 0.891234 0.404207
O O5 0.500000 0.616371 0.500000
O O6 0.763028 0.443733 0.752721
O O7 0.552318 0.502360 0.648874
O O8 0.734330 0.738502 0.783889
O O9 0.484673 0.811323 0.871907
O O10 0.258540 0.030466 0.642750
O O11 0.505173 0.104730 0.939997
O O12 0.914216 0.222097 0.593461
O O13 0.005209 0.361274 0.228229
O O14 0.793292 0.326760 0.105034
O O15 0.417177 0.572959 0.115235
O O16 0.954062 0.883578 0.066756
O O17 0.000000 0.877776 0.000000
#
# Coordination Sequence:
#
# PCOD9121759 Si02
#       8
#     4   4   4   4   4   4   4   4
#     4  10  21  36  63  90 118 163 210 256 317 374
#     4   9  19  36  67  87 117 162 214 255 306 375
#     4  10  22  37  58  90 121 167 206 252 313 371
#     4  11  20  40  60  90 124 165 208 255 310 376
#     4  10  20  36  62  90 118 161 208 256 305 381
#     4  10  20  37  57  89 121 154 209 258 310 370
#     4  10  19  36  61  88 122 159 206 261 311 376
#     4  10  19  36  59  88 118 162 205 256 311 368
#
# _framework density 21.297771999999998
#
# number of rings (size 3 to 8) (size 9 to 14) (size 15 to 20)
#    0.000    2.000    2.500    1.500    1.750    0.000 
#    6.750    4.375    0.000    2.250    0.000    0.000 
#    0.000    0.000    0.000    0.000    0.000    0.000 
#
# Total GULP energy -89145.539234 kJ/mol
# GULP energy per Si atom -5571.596202 kJ/mol
# Density = 2.124930 g / cm^3
# Si number density = 21.297772 Si / 1000 Ang^3
#
#
#
# Elastic Constant Matrix: (Units=GPa)
#
#
# Indices 1 2 3 4 5 6 
#
# 1 103.7574 17.5027 10.7507 0.0000 -13.9446 0.0000
# 2 17.5027 76.2468 33.3230 -0.0001 -15.8078 -0.0001
# 3 10.7507 33.3230 60.0789 -0.0004 -13.9185 -0.0002
# 4 0.0000 -0.0001 -0.0004 11.3236 -0.0002 -5.7667
# 5 -13.9446 -15.8078 -13.9185 -0.0002 32.0840 -0.0001
# 6 0.0000 -0.0001 -0.0002 -5.7667 -0.0001 25.8117
#
#
#
# Elastic Compliance Matrix: (Units=1/GPa)
#
#
# Indices 1 2 3 4 5 6 
#
# 1 0.010413 -0.001563 -0.000140 0.000000 0.003695 0.000000
# 2 -0.001563 0.018253 -0.008803 0.000000 0.004495 0.000000
# 3 -0.000140 -0.008803 0.022828 0.000001 0.005505 0.000000
# 4 0.000000 0.000000 0.000001 0.099649 0.000001 0.022263
# 5 0.003695 0.004495 0.005505 0.000001 0.037377 0.000000
# 6 0.000000 0.000000 0.000000 0.022263 0.000000 0.043716
#
#
# Mechanical properties :
#
#
# Convention : Reuss Voigt Hill
#
# Bulk Modulus (GPa) = 32.80754 40.35954 36.58354
# Shear Modulus (GPa) = 18.98191 25.74432 22.36312
#
# Velocity S-wave (km/s) = 2.98864 3.48052 3.24392
# Velocity P-wave (km/s) = 5.22943 5.92818 5.58974
#
# Compressibility (1/GPa) = 0.03048080
#
# Stress axis : x y z
#
# Youngs Moduli (GPa) = 96.03740 54.78431 43.80597
#
# Poissons Ratio (x) = 0.08562 0.00615
# Poissons Ratio (y) = 0.15009 0.38563
# Poissons Ratio (z) = 0.01349 0.48228
#
# Static dielectric constant tensor:
#      x y z
#    x 1.892050 0.000000 0.065610 
#    y 0.000000 1.779960 0.000000 
#    z 0.065610 0.000000 1.791680 
# 
# From -- ./inp_files/69664.got.cif
#   From: 2010.05.17/outbox.cif.g08.bks.cpg/sg5_35_cif.got.tgz:69664.got - 2010.06.03 18:56:24.
