data_PCOD9121707
_publ_section_title
;
Structure prediction by ZEFSAII (Michael W. Deem and Ramdas Pophale) SiO2 
 PCOD9121707
Probable space group: C 2
;
_chemical_formula_sum "Si O2"
_cell_formula_units_Z 26
_cell_length_a 5.569610
_cell_length_b 13.280555
_cell_length_c 13.914071
_cell_angle_alpha 90.000000
_cell_angle_beta 95.243020
_cell_angle_gamma 90.000000
_cell_volume 1024.883154
_symmetry_space_group_name_H-M "C 2"
_symmetry_group_IT_number 5
_symmetry_cell_setting 'monoclinic'
loop_
_space_group_symop_operation_xyz
x,y,z
-x,y,-z
1/2+x,1/2+y,z
1/2-x,1/2+y,-z
loop_
_atom_site_type_symbol
_atom_site_label
_atom_site_fract_x
_atom_site_fract_y
_atom_site_fract_z
Si Si1 0.000000 0.832571 0.500000
Si Si2 0.820197 0.249838 0.368851
Si Si3 0.012290 0.092459 0.241323
Si Si4 0.497958 0.350827 0.213612
Si Si5 0.992199 0.573629 0.804378
Si Si6 0.099252 0.455418 0.397514
Si Si7 0.529952 0.862583 0.892114
O O1 0.212007 0.759267 0.470957
O O2 0.133834 0.911882 0.574952
O O3 0.974218 0.155817 0.338432
O O4 0.578747 0.270906 0.297515
O O5 0.958116 0.354908 0.361024
O O6 0.765413 0.118294 0.177281
O O7 0.251754 0.125519 0.196052
O O8 0.023877 0.970109 0.244345
O O9 0.221462 0.338050 0.171942
O O10 0.709375 0.335017 0.142392
O O11 0.941896 0.531712 0.691874
O O12 0.031905 0.483247 0.879578
O O13 0.000000 0.487556 0.500000
O O14 0.500000 0.830128 0.000000
#
# Coordination Sequence:
#
# PCOD9121707 Si02
#       7
#     2   4   4   4   4   4   4
#     4  10  22  36  60  92 120 174 226 252 338 388
#     4  11  22  39  65  86 130 174 209 275 317 386
#     4  10  22  37  64  88 120 165 218 254 317 382
#     4  10  21  39  64  93 127 167 217 253 335 385
#     4  10  21  41  59  93 122 162 214 255 319 384
#     4  10  21  38  61  86 123 169 211 257 325 376
#     4  10  19  35  65  96 126 162 212 264 315 389
#
# _framework density 25.368746999999999
#
# number of rings (size 3 to 8) (size 9 to 14) (size 15 to 20)
#    0.000    1.846    3.077    2.308    4.308    0.000 
#    1.385    0.000    5.077   14.769    0.000    0.000 
#    0.000    0.000    0.000    0.000    0.000    0.000 
#
# Total GULP energy -72512.879125 kJ/mol
# GULP energy per Si atom -5577.913779 kJ/mol
# Density = 2.531101 g / cm^3
# Si number density = 25.368747 Si / 1000 Ang^3
#
#
#
# Elastic Constant Matrix: (Units=GPa)
#
#
# Indices 1 2 3 4 5 6 
#
# 1 189.6496 18.7639 6.2790 0.0000 -13.7100 0.0000
# 2 18.7639 124.2407 9.4310 0.0000 -8.6611 0.0000
# 3 6.2790 9.4310 61.3195 0.0000 -17.5434 0.0000
# 4 0.0000 0.0000 0.0000 13.7267 0.0000 -0.7568
# 5 -13.7100 -8.6611 -17.5434 0.0000 39.1273 0.0000
# 6 0.0000 0.0000 0.0000 -0.7568 0.0000 18.5954
#
#
#
# Elastic Compliance Matrix: (Units=1/GPa)
#
#
# Indices 1 2 3 4 5 6 
#
# 1 0.005470 -0.000706 0.000060 0.000000 0.001787 0.000000
# 2 -0.000706 0.008305 -0.000860 0.000000 0.001205 0.000000
# 3 0.000060 -0.000860 0.018797 0.000000 0.008258 0.000000
# 4 0.000000 0.000000 0.000000 0.073014 0.000000 0.002972
# 5 0.001787 0.001205 0.008258 0.000000 0.030153 0.000000
# 6 0.000000 0.000000 0.000000 0.002972 0.000000 0.053898
#
#
# Mechanical properties :
#
#
# Convention : Reuss Voigt Hill
#
# Bulk Modulus (GPa) = 33.83086 49.35087 41.59087
# Shear Modulus (GPa) = 24.69100 37.00563 30.84831
#
# Velocity S-wave (km/s) = 3.12313 3.82345 3.49090
# Velocity P-wave (km/s) = 5.13516 6.24398 5.71652
#
# Compressibility (1/GPa) = 0.02955881
#
# Stress axis : x y z
#
# Youngs Moduli (GPa) = 182.81682 120.41167 53.20016
#
# Poissons Ratio (x) = 0.08502 -0.00318
# Poissons Ratio (y) = 0.12908 0.04576
# Poissons Ratio (z) = -0.01093 0.10357
#
# Static dielectric constant tensor:
#      x y z
#    x 2.068270 0.000000 -0.004660 
#    y 0.000000 2.043590 0.000000 
#    z -0.004660 0.000000 2.122920 
# 
# From -- ./inp_files/48953.got.cif
#   From: 2010.05.17/outbox.cif.g08.bks.cpg/sg5_25_cif.got.tgz:48953.got - 2010.06.03 18:56:24.
