data_PCOD9121776
_publ_section_title
;
Structure prediction by ZEFSAII (Michael W. Deem and Ramdas Pophale) SiO2 
 PCOD9121776
Probable space group: C 2
;
_chemical_formula_sum "Si O2"
_cell_formula_units_Z 30
_cell_length_a 10.883184
_cell_length_b 8.514005
_cell_length_c 16.399921
_cell_angle_alpha 90.000000
_cell_angle_beta 87.864065
_cell_angle_gamma 90.000000
_cell_volume 1518.552400
_symmetry_space_group_name_H-M "C 2"
_symmetry_group_IT_number 5
_symmetry_cell_setting 'monoclinic'
loop_
_space_group_symop_operation_xyz
x,y,z
-x,y,-z
1/2+x,1/2+y,z
1/2-x,1/2+y,-z
loop_
_atom_site_type_symbol
_atom_site_label
_atom_site_fract_x
_atom_site_fract_y
_atom_site_fract_z
Si Si1 0.498276 0.954130 0.676272
Si Si2 0.385389 0.280845 0.064923
Si Si3 0.784441 0.130311 0.056720
Si Si4 0.767157 0.447012 0.576161
Si Si5 0.442447 0.081406 0.850380
Si Si6 0.488093 0.613689 0.401585
Si Si7 0.254013 0.073916 0.396514
Si Si8 0.000000 0.355581 0.000000
O O1 0.387271 0.010274 0.620038
O O2 0.451489 0.983335 0.768408
O O3 0.517882 0.774354 0.648627
O O4 0.629362 0.038038 0.661968
O O5 0.328095 0.452936 0.070807
O O6 0.445631 0.204480 0.143173
O O7 0.500000 0.294368 0.000000
O O8 0.288105 0.161795 0.026514
O O9 0.687272 0.168240 0.130786
O O10 0.898639 0.245851 0.044675
O O11 0.638337 0.521427 0.607523
O O12 0.757620 0.260380 0.588537
O O13 0.781072 0.487476 0.480947
O O14 0.451918 0.965350 0.928160
O O15 0.500000 0.643100 0.500000
O O16 0.615257 0.526754 0.373803
#
# Coordination Sequence:
#
# PCOD9121776 Si02
#       8
#     4   4   4   4   4   4   4   2
#     4  11  23  38  59  87 128 162 194 249 311 355
#     4  10  19  36  60  89 113 145 196 249 296 362
#     4  11  20  38  66  87 110 149 202 252 303 363
#     4  10  21  38  63  92 121 160 208 249 293 357
#     4  11  24  40  58  87 123 155 200 252 305 367
#     4   9  20  39  62  88 120 160 205 248 291 355
#     4  10  20  37  61  92 118 161 206 243 302 353
#     4  12  22  40  66  88 106 162 206 252 314 354
#
# _framework density 19.755656999999999
#
# number of rings (size 3 to 8) (size 9 to 14) (size 15 to 20)
#    0.000    1.600    4.000    2.800    0.000    7.467 
#    0.000    0.000    0.000    0.000    0.000    0.000 
#    0.000    0.000    0.000    0.000    0.000    0.000 
#
# Total GULP energy -83664.836494 kJ/mol
# GULP energy per Si atom -5577.655766 kJ/mol
# Density = 1.971069 g / cm^3
# Si number density = 19.755657 Si / 1000 Ang^3
#
#
#
# Elastic Constant Matrix: (Units=GPa)
#
#
# Indices 1 2 3 4 5 6 
#
# 1 120.0633 20.5587 11.5868 0.0000 -18.7118 0.0000
# 2 20.5587 53.3654 -4.0336 0.0000 -3.1085 0.0000
# 3 11.5868 -4.0336 30.5571 0.0000 -18.7440 0.0000
# 4 0.0000 0.0000 0.0000 8.1762 0.0000 -3.2834
# 5 -18.7118 -3.1085 -18.7440 0.0000 17.6873 0.0000
# 6 0.0000 0.0000 0.0000 -3.2834 0.0000 37.5764
#
#
#
# Elastic Compliance Matrix: (Units=1/GPa)
#
#
# Indices 1 2 3 4 5 6 
#
# 1 0.010978 -0.002669 0.006634 0.000000 0.018175 0.000000
# 2 -0.002669 0.021571 0.012724 0.000000 0.014451 0.000000
# 3 0.006634 0.012724 0.107350 0.000000 0.123018 0.000000
# 4 0.000000 0.000000 0.000000 0.126754 0.000000 0.011076
# 5 0.018175 0.014451 0.123018 0.000000 0.208673 0.000000
# 6 0.000000 0.000000 0.000000 0.011076 0.000000 0.027580
#
#
# Mechanical properties :
#
#
# Convention : Reuss Voigt Hill
#
# Bulk Modulus (GPa) = 5.77113 28.91216 17.34164
# Shear Modulus (GPa) = 9.48248 24.41291 16.94770
#
# Velocity S-wave (km/s) = 2.19324 3.51913 2.93211
# Velocity P-wave (km/s) = 3.05636 5.58381 4.50113
#
# Compressibility (1/GPa) = 0.17327632
#
# Stress axis : x y z
#
# Youngs Moduli (GPa) = 91.08779 46.35942 9.31529
#
# Poissons Ratio (x) = 0.12375 -0.06179
# Poissons Ratio (y) = 0.24314 -0.11853
# Poissons Ratio (z) = -0.60424 -0.58988
#
# Static dielectric constant tensor:
#      x y z
#    x 1.770780 0.000000 0.013260 
#    y 0.000000 1.697210 0.000000 
#    z 0.013260 0.000000 1.675570 
# 
# From -- ./inp_files/52276.got.cif
#   From: 2010.05.17/outbox.cif.g08.bks.cpg/sg5_27_cif.got.tgz:52276.got - 2010.06.03 18:56:24.
