data_PCOD9121368
_publ_section_title
;
Structure prediction by ZEFSAII (Michael W. Deem and Ramdas Pophale) SiO2 
 PCOD9121368
Probable space group: C 2
;
_chemical_formula_sum "Si O2"
_cell_formula_units_Z 28
_cell_length_a 10.849145
_cell_length_b 13.383678
_cell_length_c 8.625035
_cell_angle_alpha 90.000000
_cell_angle_beta 83.650374
_cell_angle_gamma 90.000000
_cell_volume 1244.685100
_symmetry_space_group_name_H-M "C 2"
_symmetry_group_IT_number 5
_symmetry_cell_setting 'monoclinic'
loop_
_space_group_symop_operation_xyz
x,y,z
-x,y,-z
1/2+x,1/2+y,z
1/2-x,1/2+y,-z
loop_
_atom_site_type_symbol
_atom_site_label
_atom_site_fract_x
_atom_site_fract_y
_atom_site_fract_z
Si Si1 0.859873 0.437320 0.829348
Si Si2 0.341301 0.658536 0.306855
Si Si3 0.168453 0.746428 0.549131
Si Si4 0.289386 0.584803 0.975459
Si Si5 0.402854 0.074304 0.248746
Si Si6 0.775138 0.967449 0.476406
Si Si7 0.904165 0.225055 0.745931
O O1 0.816865 0.449706 0.656760
O O2 0.885002 0.321558 0.856557
O O3 0.981140 0.507107 0.816229
O O4 0.750149 0.475940 0.956870
O O5 0.210734 0.700367 0.382061
O O6 0.359815 0.557664 0.403570
O O7 0.325252 0.639719 0.127902
O O8 0.455135 0.730623 0.328533
O O9 0.073725 0.672759 0.649190
O O10 0.150908 0.863538 0.524082
O O11 0.294484 0.732198 0.636265
O O12 0.166503 0.613408 0.895670
O O13 0.392710 0.619402 0.838124
O O14 0.306209 0.005325 0.364880
#
# Coordination Sequence:
#
# PCOD9121368 Si02
#       7
#     4   4   4   4   4   4   4
#     4  10  20  36  58  81 106 140 181 222 264 313
#     4  10  19  33  55  79 109 141 177 219 264 317
#     4   9  19  35  56  82 108 136 176 224 269 314
#     4  10  22  34  48  80 114 140 176 220 262 312
#     4  10  19  33  55  79 109 141 177 219 264 317
#     4   9  19  35  56  82 108 136 176 224 269 314
#     4  10  20  36  58  81 106 140 181 222 264 313
#
# _framework density 22.495647999999999
#
# number of rings (size 3 to 8) (size 9 to 14) (size 15 to 20)
#    0.000    2.286    0.000    2.571    0.000    5.714 
#    0.000    1.429    0.000   30.857    0.000    0.000 
#    0.000    0.000    0.000    0.000    0.000    0.000 
#
# Total GULP energy -77989.880347 kJ/mol
# GULP energy per Si atom -5570.705739 kJ/mol
# Density = 2.244445 g / cm^3
# Si number density = 22.495648 Si / 1000 Ang^3
#
#
#
# Elastic Constant Matrix: (Units=GPa)
#
#
# Indices 1 2 3 4 5 6 
#
# 1 75.4608 12.0970 15.5726 0.0000 3.4034 0.0000
# 2 12.0970 116.8012 7.6389 0.0000 -18.1376 0.0000
# 3 15.5726 7.6389 61.2371 0.0000 -10.3257 0.0000
# 4 0.0000 0.0000 0.0000 14.9412 0.0000 -3.5383
# 5 3.4034 -18.1376 -10.3257 0.0000 23.9575 0.0000
# 6 0.0000 0.0000 0.0000 -3.5383 0.0000 23.3482
#
#
#
# Elastic Compliance Matrix: (Units=1/GPa)
#
#
# Indices 1 2 3 4 5 6 
#
# 1 0.014758 -0.002109 -0.004435 0.000000 -0.005604 0.000000
# 2 -0.002109 0.010004 0.000664 0.000000 0.008159 0.000000
# 3 -0.004435 0.000664 0.018943 0.000000 0.009297 0.000000
# 4 0.000000 0.000000 0.000000 0.069420 0.000000 0.010520
# 5 -0.005604 0.008159 0.009297 0.000000 0.052721 0.000000
# 6 0.000000 0.000000 0.000000 0.010520 0.000000 0.044424
#
#
# Mechanical properties :
#
#
# Convention : Reuss Voigt Hill
#
# Bulk Modulus (GPa) = 31.30364 36.01289 33.65827
# Shear Modulus (GPa) = 21.48902 26.99541 24.24222
#
# Velocity S-wave (km/s) = 3.09407 3.46790 3.28630
# Velocity P-wave (km/s) = 5.16817 5.66381 5.42165
#
# Compressibility (1/GPa) = 0.03194517
#
# Stress axis : x y z
#
# Youngs Moduli (GPa) = 67.76010 99.96465 52.79115
#
# Poissons Ratio (x) = 0.21080 0.23412
# Poissons Ratio (y) = 0.14289 -0.03506
# Poissons Ratio (z) = 0.30051 -0.06639
#
# Static dielectric constant tensor:
#      x y z
#    x 1.855540 0.000000 0.015950 
#    y 0.000000 1.906580 0.000000 
#    z 0.015950 0.000000 1.867110 
# 
# From -- ./inp_files/24162.got.cif
#   From: 2010.05.17/outbox.cif.g08.bks.cpg/sg5_13_cif.got.tgz:24162.got - 2010.06.03 18:56:24.
