data_PCOD9121571
_publ_section_title
;
Structure prediction by ZEFSAII (Michael W. Deem and Ramdas Pophale) SiO2 
 PCOD9121571
Probable space group: C 2
;
_chemical_formula_sum "Si O2"
_cell_formula_units_Z 32
_cell_length_a 19.951218
_cell_length_b 12.809803
_cell_length_c 7.870491
_cell_angle_alpha 90.000000
_cell_angle_beta 55.470201
_cell_angle_gamma 90.000000
_cell_volume 1657.112839
_symmetry_space_group_name_H-M "C 2"
_symmetry_group_IT_number 5
_symmetry_cell_setting 'monoclinic'
loop_
_space_group_symop_operation_xyz
x,y,z
-x,y,-z
1/2+x,1/2+y,z
1/2-x,1/2+y,-z
loop_
_atom_site_type_symbol
_atom_site_label
_atom_site_fract_x
_atom_site_fract_y
_atom_site_fract_z
Si Si1 0.648643 0.304710 0.068333
Si Si2 0.016743 0.491536 0.669222
Si Si3 0.226764 0.241765 0.821591
Si Si4 0.023897 0.720124 0.770849
Si Si5 0.275813 0.530823 0.053288
Si Si6 0.695490 0.281105 0.624575
Si Si7 0.685275 0.971894 0.516440
Si Si8 0.659682 0.976182 0.917603
O O1 0.695761 0.262107 0.165404
O O2 0.553645 0.275852 0.201989
O O3 0.666580 0.429120 0.032398
O O4 0.685556 0.257071 0.839194
O O5 0.000000 0.463930 0.500000
O O6 0.043103 0.612889 0.646879
O O7 0.094182 0.426513 0.622296
O O8 0.933500 0.486078 0.892921
O O9 0.253253 0.217416 0.589523
O O10 0.179294 0.351753 0.887849
O O11 0.182907 0.142043 0.968583
O O12 0.105233 0.787543 0.675215
O O13 0.000000 0.693496 0.000000
O O14 0.211193 0.520364 0.300710
O O15 0.221192 0.526288 0.963639
O O16 0.743014 0.390098 0.555325
O O17 0.674821 0.027936 0.712312
#
# Coordination Sequence:
#
# PCOD9121571 Si02
#       8
#     4   4   4   4   4   4   4   4
#     4   9  20  34  52  81 118 145 178 237 275 320
#     4  12  22  33  57  86 111 142 184 234 282 329
#     4  10  20  33  56  80 108 151 188 222 273 339
#     4  10  20  34  54  85 112 142 182 229 280 330
#     4  10  19  35  55  82 112 150 189 221 275 337
#     4   9  20  35  53  79 109 145 178 221 279 327
#     4  10  20  36  55  77 115 143 179 228 275 332
#     4  10  21  36  52  85 113 147 182 231 285 320
#
# _framework density 19.310694000000002
#
# number of rings (size 3 to 8) (size 9 to 14) (size 15 to 20)
#    0.000    2.000    1.250    2.625    1.750    3.000 
#    0.000    0.000    0.000   16.500    6.500    0.000 
#    0.000    0.000    0.000    0.000    0.000    0.000 
#
# Total GULP energy -89161.811108 kJ/mol
# GULP energy per Si atom -5572.613194 kJ/mol
# Density = 1.926674 g / cm^3
# Si number density = 19.310694 Si / 1000 Ang^3
#
#
#
# Elastic Constant Matrix: (Units=GPa)
#
#
# Indices 1 2 3 4 5 6 
#
# 1 80.9501 17.0884 27.0047 0.0000 1.8109 0.0000
# 2 17.0884 67.5617 5.4035 0.0000 -2.3416 0.0000
# 3 27.0047 5.4035 71.4137 0.0000 10.8071 0.0000
# 4 0.0000 0.0000 0.0000 21.8389 0.0000 0.7949
# 5 1.8109 -2.3416 10.8071 0.0000 40.7652 0.0000
# 6 0.0000 0.0000 0.0000 0.7949 0.0000 16.8104
#
#
#
# Elastic Compliance Matrix: (Units=1/GPa)
#
#
# Indices 1 2 3 4 5 6 
#
# 1 0.014858 -0.003301 -0.005459 0.000000 0.000598 0.000000
# 2 -0.003301 0.015681 -0.000101 0.000000 0.001074 0.000000
# 3 -0.005459 -0.000101 0.016709 0.000000 -0.004193 0.000000
# 4 0.000000 0.000000 0.000000 0.045869 0.000000 -0.002169
# 5 0.000598 0.001074 -0.004193 0.000000 0.025677 0.000000
# 6 0.000000 0.000000 0.000000 -0.002169 0.000000 0.059590
#
#
# Mechanical properties :
#
#
# Convention : Reuss Voigt Hill
#
# Bulk Modulus (GPa) = 33.86704 35.43540 34.65122
# Shear Modulus (GPa) = 24.27794 27.24485 25.76139
#
# Velocity S-wave (km/s) = 3.54959 3.76023 3.65642
# Velocity P-wave (km/s) = 5.86306 6.10265 5.98406
#
# Compressibility (1/GPa) = 0.02952723
#
# Stress axis : x y z
#
# Youngs Moduli (GPa) = 67.30469 63.76975 59.84650
#
# Poissons Ratio (x) = 0.21048 0.32671
# Poissons Ratio (y) = 0.22215 0.00604
# Poissons Ratio (z) = 0.36742 0.00644
#
# Static dielectric constant tensor:
#      x y z
#    x 1.669330 0.000000 0.025550 
#    y 0.000000 1.720940 0.000000 
#    z 0.025550 0.000000 1.701910 
# 
# From -- ./inp_files/29614.got.cif
#   From: 2010.05.17/outbox.cif.g08.bks.cpg/sg5_15_cif.got.tgz:29614.got - 2010.06.03 18:56:24.
