data_PCOD9121844
_publ_section_title
;
Structure prediction by ZEFSAII (Michael W. Deem and Ramdas Pophale) SiO2 
 PCOD9121844
Probable space group: C 2
;
_chemical_formula_sum "Si O2"
_cell_formula_units_Z 26
_cell_length_a 9.470176
_cell_length_b 20.068500
_cell_length_c 12.004163
_cell_angle_alpha 90.000000
_cell_angle_beta 36.794190
_cell_angle_gamma 90.000000
_cell_volume 1366.437916
_symmetry_space_group_name_H-M "C 2"
_symmetry_group_IT_number 5
_symmetry_cell_setting 'monoclinic'
loop_
_space_group_symop_operation_xyz
x,y,z
-x,y,-z
1/2+x,1/2+y,z
1/2-x,1/2+y,-z
loop_
_atom_site_type_symbol
_atom_site_label
_atom_site_fract_x
_atom_site_fract_y
_atom_site_fract_z
Si Si1 0.785370 0.620600 0.824343
Si Si2 0.725614 0.929720 0.699974
Si Si3 0.933535 0.058679 0.670161
Si Si4 0.959746 0.287360 0.153741
Si Si5 0.711651 0.181766 0.943444
Si Si6 0.922267 0.496264 0.428084
Si Si7 0.500000 0.214635 0.500000
O O1 0.878444 0.548232 0.734721
O O2 0.921292 0.667940 0.651466
O O3 0.500000 0.622835 0.000000
O O4 0.862814 0.642950 0.897777
O O5 0.578386 0.866302 0.831757
O O6 0.000000 0.912730 0.500000
O O7 0.754831 0.995323 0.762011
O O8 0.610178 0.947191 0.654326
O O9 0.848634 0.124530 0.787021
O O10 0.000000 0.075608 0.500000
O O11 0.165949 0.032937 0.589114
O O12 0.726325 0.261308 0.364143
O O13 0.157407 0.248210 0.097893
O O14 0.000000 0.264829 0.000000
O O15 0.500000 0.202785 0.000000
O O16 0.000000 0.470282 0.500000
#
# Coordination Sequence:
#
# PCOD9121844 Si02
#       7
#     4   4   4   4   4   4   2
#     4  12  22  38  64  98 125 170 219 262 319 392
#     4   9  21  41  64  90 124 175 218 256 319 394
#     4   9  20  41  63  93 128 178 212 258 327 389
#     4  12  24  43  68  92 122 176 224 258 318 403
#     4  12  23  38  59 101 136 156 216 277 329 375
#     4  10  19  36  63  92 128 161 216 268 318 378
#     4  12  20  42  68  90 120 164 220 270 296 388
#
# _framework density 19.027574999999999
#
# number of rings (size 3 to 8) (size 9 to 14) (size 15 to 20)
#    0.000    1.538    4.615    3.692    0.000    1.846 
#    0.000    6.154    0.000    0.000    0.000    0.000 
#    0.000    0.000    0.000    0.000    0.000    0.000 
#
# Total GULP energy -72396.777092 kJ/mol
# GULP energy per Si atom -5568.982853 kJ/mol
# Density = 1.898427 g / cm^3
# Si number density = 19.027575 Si / 1000 Ang^3
#
#
#
# Elastic Constant Matrix: (Units=GPa)
#
#
# Indices 1 2 3 4 5 6 
#
# 1 148.1111 47.8362 46.6966 0.0002 1.7556 0.0000
# 2 47.8362 107.4399 48.1583 0.0000 4.3050 0.0000
# 3 46.6966 48.1583 82.0033 0.0001 8.6551 -0.0001
# 4 0.0002 0.0000 0.0001 30.8974 -0.0001 6.4913
# 5 1.7556 4.3050 8.6551 -0.0001 21.7494 0.0000
# 6 0.0000 0.0000 -0.0001 6.4913 0.0000 8.4899
#
#
#
# Elastic Compliance Matrix: (Units=1/GPa)
#
#
# Indices 1 2 3 4 5 6 
#
# 1 0.008633 -0.002214 -0.003746 0.000000 0.001232 0.000000
# 2 -0.002214 0.013206 -0.006511 0.000000 0.000156 0.000000
# 3 -0.003746 -0.006511 0.018772 0.000000 -0.005879 0.000000
# 4 0.000000 0.000000 0.000000 0.038559 0.000000 -0.029482
# 5 0.001232 0.000156 -0.005879 0.000000 0.048188 0.000000
# 6 0.000000 0.000000 0.000000 -0.029482 0.000000 0.140330
#
#
# Mechanical properties :
#
#
# Convention : Reuss Voigt Hill
#
# Bulk Modulus (GPa) = 63.82101 69.21519 66.51810
# Shear Modulus (GPa) = 16.78689 25.21821 21.00255
#
# Velocity S-wave (km/s) = 2.97347 3.64449 3.32595
# Velocity P-wave (km/s) = 6.73817 7.35968 7.05577
#
# Compressibility (1/GPa) = 0.01566882
#
# Stress axis : x y z
#
# Youngs Moduli (GPa) = 115.83177 75.72602 53.27118
#
# Poissons Ratio (x) = 0.16767 0.19955
# Poissons Ratio (y) = 0.25647 0.34684
# Poissons Ratio (z) = 0.43389 0.49304
#
# Static dielectric constant tensor:
#      x y z
#    x 1.675070 0.000000 -0.072110 
#    y 0.000000 1.727120 0.000000 
#    z -0.072110 0.000000 1.737840 
# 
# From -- ./inp_files/37294.got.cif
#   From: 2010.05.17/outbox.cif.g08.bks.cpg/sg5_19_cif.got.tgz:37294.got - 2010.06.03 18:56:24.
