data_PCOD9121643
_publ_section_title
;
Structure prediction by ZEFSAII (Michael W. Deem and Ramdas Pophale) SiO2 
 PCOD9121643
Probable space group: C 2
;
_chemical_formula_sum "Si O2"
_cell_formula_units_Z 26
_cell_length_a 7.334387
_cell_length_b 22.448194
_cell_length_c 10.893139
_cell_angle_alpha 90.000000
_cell_angle_beta 132.303721
_cell_angle_gamma 90.000000
_cell_volume 1326.440487
_symmetry_space_group_name_H-M "C 2"
_symmetry_group_IT_number 5
_symmetry_cell_setting 'monoclinic'
loop_
_space_group_symop_operation_xyz
x,y,z
-x,y,-z
1/2+x,1/2+y,z
1/2-x,1/2+y,-z
loop_
_atom_site_type_symbol
_atom_site_label
_atom_site_fract_x
_atom_site_fract_y
_atom_site_fract_z
Si Si1 0.586094 0.474060 0.802528
Si Si2 0.962458 0.841543 0.684432
Si Si3 0.290323 0.772015 0.999950
Si Si4 0.687521 0.069484 0.687156
Si Si5 0.593387 0.841455 0.315512
Si Si6 0.000000 0.156770 0.000000
Si Si7 0.479960 0.973959 0.197098
O O1 0.463040 0.409442 0.731385
O O2 0.388459 0.526327 0.715269
O O3 0.781089 0.481195 0.780699
O O4 0.743792 0.474982 0.999773
O O5 0.179240 0.838547 0.679170
O O6 0.713596 0.826695 0.500040
O O7 0.042745 0.798283 0.830814
O O8 0.381305 0.798091 0.169362
O O9 0.500000 0.796458 0.000000
O O10 0.325592 0.701523 0.999749
O O11 0.500000 0.093959 0.500000
O O12 0.543698 0.026134 0.715670
O O13 0.834241 0.117801 0.833990
O O14 0.499247 0.909287 0.268054
#
# Coordination Sequence:
#
# PCOD9121643 Si02
#       7
#     4   4   4   4   4   2   4
#     4  10  19  35  60  86 117 152 186 234 300 350
#     4   9  15  26  49  81 108 136 178 227 282 336
#     4   8  16  29  47  71 106 141 185 231 266 326
#     4  12  24  38  56  86 122 154 195 240 282 347
#     4   9  15  26  49  81 108 136 178 227 282 336
#     4  10  22  36  50  78 116 154 208 228 276 342
#     4  10  19  35  60  86 117 152 186 234 300 350
#
# _framework density 19.601330999999998
#
# number of rings (size 3 to 8) (size 9 to 14) (size 15 to 20)
#    0.462    1.846    3.077    0.923    0.000    3.077 
#    0.000    0.000    0.000    0.000    8.000    0.000 
#    0.000    0.000    0.000    0.000    0.000    0.000 
#
# Total GULP energy -72519.817988 kJ/mol
# GULP energy per Si atom -5578.447538 kJ/mol
# Density = 1.955672 g / cm^3
# Si number density = 19.601331 Si / 1000 Ang^3
#
#
#
# Elastic Constant Matrix: (Units=GPa)
#
#
# Indices 1 2 3 4 5 6 
#
# 1 64.5438 18.5370 25.2821 0.0000 0.3888 0.0000
# 2 18.5370 125.8329 88.9754 0.0000 -0.5987 0.0000
# 3 25.2821 88.9754 206.4029 0.0000 -1.5997 0.0000
# 4 0.0000 0.0000 0.0000 3.8903 0.0000 5.0895
# 5 0.3888 -0.5987 -1.5997 0.0000 4.9208 0.0000
# 6 0.0000 0.0000 0.0000 5.0895 0.0000 426.1731
#
#
#
# Elastic Compliance Matrix: (Units=1/GPa)
#
#
# Indices 1 2 3 4 5 6 
#
# 1 0.016471 -0.001436 -0.001413 0.000000 -0.001936 0.000000
# 2 -0.001436 0.011557 -0.004806 0.000000 -0.000043 0.000000
# 3 -0.001413 -0.004806 0.007104 0.000000 0.001836 0.000000
# 4 0.000000 0.000000 0.000000 0.261131 0.000000 -0.003119
# 5 -0.001936 -0.000043 0.001836 0.000000 0.203962 0.000000
# 6 0.000000 0.000000 0.000000 -0.003119 0.000000 0.002384
#
#
# Mechanical properties :
#
#
# Convention : Reuss Voigt Hill
#
# Bulk Modulus (GPa) = 50.45338 73.59651 62.02495
# Shear Modulus (GPa) = 9.53237 104.59584 57.06411
#
# Velocity S-wave (km/s) = 2.20764 7.31283 5.40144
# Velocity P-wave (km/s) = 5.68277 10.43702 8.40314
#
# Compressibility (1/GPa) = 0.01982028
#
# Stress axis : x y z
#
# Youngs Moduli (GPa) = 60.71225 86.52805 140.76282
#
# Poissons Ratio (x) = 0.12427 0.19896
# Poissons Ratio (y) = 0.08720 0.67655
# Poissons Ratio (z) = 0.08581 0.41588
#
# Static dielectric constant tensor:
#      x y z
#    x 1.640040 0.000000 -0.001270 
#    y 0.000000 1.642300 0.000000 
#    z -0.001270 0.000000 1.707590 
# 
# From -- ./inp_files/37404.got.cif
#   From: 2010.05.17/outbox.cif.g08.bks.cpg/sg5_19_cif.got.tgz:37404.got - 2010.06.03 18:56:24.
