data_PCOD9121497
_publ_section_title
;
Structure prediction by ZEFSAII (Michael W. Deem and Ramdas Pophale) SiO2 
 PCOD9121497
Probable space group: C 2
;
_chemical_formula_sum "Si O2"
_cell_formula_units_Z 24
_cell_length_a 8.224652
_cell_length_b 30.250065
_cell_length_c 9.490252
_cell_angle_alpha 90.000000
_cell_angle_beta 32.590602
_cell_angle_gamma 90.000000
_cell_volume 1271.786521
_symmetry_space_group_name_H-M "C 2"
_symmetry_group_IT_number 5
_symmetry_cell_setting 'monoclinic'
loop_
_space_group_symop_operation_xyz
x,y,z
-x,y,-z
1/2+x,1/2+y,z
1/2-x,1/2+y,-z
loop_
_atom_site_type_symbol
_atom_site_label
_atom_site_fract_x
_atom_site_fract_y
_atom_site_fract_z
Si Si1 0.641184 0.375000 0.741054
Si Si2 0.640558 0.568335 0.741554
Si Si3 0.359119 0.471833 0.258047
Si Si4 0.351070 0.299986 0.762199
Si Si5 0.781784 0.700366 0.899025
Si Si6 0.579725 0.654730 0.604840
O O1 0.563820 0.423926 0.735051
O O2 0.518682 0.336662 0.731372
O O3 0.000000 0.371844 0.500000
O O4 0.500000 0.371610 0.000000
O O5 0.555515 0.519697 0.742526
O O6 0.551372 0.608256 0.706028
O O7 0.000000 0.569567 0.500000
O O8 0.500000 0.573321 0.000000
O O9 0.000000 0.472081 0.500000
O O10 0.500000 0.471705 0.000000
O O11 0.500000 0.295760 0.500000
O O12 0.360271 0.251999 0.828951
O O13 0.000000 0.311975 0.000000
O O14 0.077059 0.672927 0.638614
O O15 0.500000 0.691582 0.000000
O O16 0.652092 0.687231 0.145964
O O17 0.500000 0.650611 0.500000
#
# Coordination Sequence:
#
# PCOD9121497 Si02
#       6
#     4   4   4   4   4   4
#     4  10  20  36  59  85 113 144 183 228 274 323
#     4  10  19  34  58  80 106 148 189 218 261 329
#     4   8  16  31  53  81 107 139 184 224 257 316
#     4  11  23  39  58  83 113 145 185 229 274 327
#     4  11  23  41  59  77 108 153 191 220 266 336
#     4  12  24  37  56  86 116 139 179 237 285 319
#
# _framework density 18.871091
#
# number of rings (size 3 to 8) (size 9 to 14) (size 15 to 20)
#    0.000    1.667    0.000    6.500    0.000    2.000 
#    0.000    0.833    0.000    2.000    0.000    0.000 
#    0.000    0.000    0.000    0.000    0.000    0.000 
#
# Total GULP energy -66989.092813 kJ/mol
# GULP energy per Si atom -5582.424401 kJ/mol
# Density = 1.882814 g / cm^3
# Si number density = 18.871091 Si / 1000 Ang^3
#
#
#
# Elastic Constant Matrix: (Units=GPa)
#
#
# Indices 1 2 3 4 5 6 
#
# 1 61.9810 84.5246 37.2518 0.0000 11.6027 0.0000
# 2 84.5246 204.9542 64.0777 0.0000 13.5246 0.0000
# 3 37.2518 64.0777 164.7782 0.0000 3.0893 0.0000
# 4 0.0000 0.0000 0.0000 30.5674 0.0000 2.6056
# 5 11.6027 13.5246 3.0893 0.0000 31.4768 0.0000
# 6 0.0000 0.0000 0.0000 2.6056 0.0000 20.7133
#
#
#
# Elastic Compliance Matrix: (Units=1/GPa)
#
#
# Indices 1 2 3 4 5 6 
#
# 1 0.039854 -0.014959 -0.003043 0.000000 -0.007965 0.000000
# 2 -0.014959 0.011322 -0.001035 0.000000 0.000751 0.000000
# 3 -0.003043 -0.001035 0.007143 0.000000 0.000866 0.000000
# 4 0.000000 0.000000 0.000000 0.033069 0.000000 -0.004160
# 5 -0.007965 0.000751 0.000866 0.000000 0.034298 0.000000
# 6 0.000000 0.000000 0.000000 -0.004160 0.000000 0.048802
#
#
# Mechanical properties :
#
#
# Convention : Reuss Voigt Hill
#
# Bulk Modulus (GPa) = 49.39681 89.26905 69.33293
# Shear Modulus (GPa) = 22.79866 32.94212 27.87039
#
# Velocity S-wave (km/s) = 3.47958 4.18262 3.84719
# Velocity P-wave (km/s) = 6.50969 8.41030 7.52028
#
# Compressibility (1/GPa) = 0.02024422
#
# Stress axis : x y z
#
# Youngs Moduli (GPa) = 25.09167 88.32015 139.99424
#
# Poissons Ratio (x) = 1.32118 0.42606
# Poissons Ratio (y) = 0.37535 0.14493
# Poissons Ratio (z) = 0.07636 0.09143
#
# Static dielectric constant tensor:
#      x y z
#    x 1.617930 0.000000 0.004900 
#    y 0.000000 1.708470 0.000000 
#    z 0.004900 0.000000 1.680340 
# 
# From -- ./inp_files/17611.got.cif
#   From: 2010.05.17/outbox.cif.g08.bks.cpg/sg5_9_cif.got.tgz:17611.got - 2010.06.03 18:56:24.
