data_PCOD9121225
_publ_section_title
;
Structure prediction by ZEFSAII (Michael W. Deem and Ramdas Pophale) SiO2 
 PCOD9121225
Probable space group: C 2
;
_chemical_formula_sum "Si O2"
_cell_formula_units_Z 24
_cell_length_a 17.531773
_cell_length_b 5.684092
_cell_length_c 8.579024
_cell_angle_alpha 90.000000
_cell_angle_beta 77.720875
_cell_angle_gamma 90.000000
_cell_volume 835.360838
_symmetry_space_group_name_H-M "C 2"
_symmetry_group_IT_number 5
_symmetry_cell_setting 'monoclinic'
loop_
_space_group_symop_operation_xyz
x,y,z
-x,y,-z
1/2+x,1/2+y,z
1/2-x,1/2+y,-z
loop_
_atom_site_type_symbol
_atom_site_label
_atom_site_fract_x
_atom_site_fract_y
_atom_site_fract_z
Si Si1 0.368298 0.877130 0.227620
Si Si2 0.188261 0.877130 0.211684
Si Si3 0.543663 0.627952 0.316428
Si Si4 0.716850 0.877131 0.441450
Si Si5 0.956337 0.626307 0.683572
Si Si6 0.146593 0.877130 0.868038
O O1 0.278769 0.877130 0.200918
O O2 0.364156 0.877130 0.417825
O O3 0.396446 0.622919 0.154574
O O4 0.396446 0.131341 0.154574
O O5 0.137804 0.656296 0.302036
O O6 0.137804 0.097964 0.302036
O O7 0.171809 0.877130 0.036166
O O8 0.500000 0.626405 0.500000
O O9 0.525206 0.377130 0.248555
O O10 0.530612 0.877130 0.242493
O O11 0.750000 0.627131 0.500000
O O12 0.727550 0.377130 0.736719
O O13 0.000000 0.627855 0.500000
#
# Coordination Sequence:
#
# PCOD9121225 Si02
#       6
#     4   4   4   4   4   4
#     4  10  20  29  42  61  89 115 141 169 203 244
#     4  10  19  26  46  66  88 104 141 176 214 232
#     4   8  16  28  41  59  84 109 133 165 211 255
#     4   8  16  32  42  52  79 120 145 164 196 242
#     4   8  16  28  41  59  84 109 133 165 211 255
#     4  10  20  29  42  61  89 115 141 169 203 244
#
# _framework density 28.730101999999999
#
# number of rings (size 3 to 8) (size 9 to 14) (size 15 to 20)
#    1.000    2.000    0.000    1.000    4.667    0.000 
#    0.000    0.000    0.000    0.000    0.000    4.667 
#    0.000    5.333    0.000    0.000    0.000    0.667 
#
# Total GULP energy -66937.538478 kJ/mol
# GULP energy per Si atom -5578.128207 kJ/mol
# Density = 2.866471 g / cm^3
# Si number density = 28.730102 Si / 1000 Ang^3
#
#
#
# Elastic Constant Matrix: (Units=GPa)
#
#
# Indices 1 2 3 4 5 6 
#
# 1 124.5716 46.3536 16.2063 0.0000 -10.2561 0.0000
# 2 46.3536 308.6319 -2.4913 0.0000 -3.2340 0.0000
# 3 16.2063 -2.4913 136.6124 0.0000 20.6728 0.0000
# 4 0.0000 0.0000 0.0000 23.3419 0.0000 -15.5502
# 5 -10.2561 -3.2340 20.6728 0.0000 25.7677 0.0000
# 6 0.0000 0.0000 0.0000 -15.5502 0.0000 37.1005
#
#
#
# Elastic Compliance Matrix: (Units=1/GPa)
#
#
# Indices 1 2 3 4 5 6 
#
# 1 0.009180 -0.001342 -0.001868 0.000000 0.004984 0.000000
# 2 -0.001342 0.003440 0.000270 0.000000 -0.000319 0.000000
# 3 -0.001868 0.000270 0.008711 0.000000 -0.007698 0.000000
# 4 0.000000 0.000000 0.000000 0.059438 0.000000 0.024913
# 5 0.004984 -0.000319 -0.007698 0.000000 0.046928 0.000000
# 6 0.000000 0.000000 0.000000 0.024913 0.000000 0.037396
#
#
# Mechanical properties :
#
#
# Convention : Reuss Voigt Hill
#
# Bulk Modulus (GPa) = 64.70956 76.66144 70.68550
# Shear Modulus (GPa) = 28.38916 51.22517 39.80716
#
# Velocity S-wave (km/s) = 3.14687 4.22711 3.72634
# Velocity P-wave (km/s) = 5.98129 7.11097 6.57046
#
# Compressibility (1/GPa) = 0.01545367
#
# Stress axis : x y z
#
# Youngs Moduli (GPa) = 108.93210 290.66041 114.79170
#
# Poissons Ratio (x) = 0.38995 0.21439
# Poissons Ratio (y) = 0.14614 -0.03101
# Poissons Ratio (z) = 0.20345 -0.07852
#
# Static dielectric constant tensor:
#      x y z
#    x 2.672410 0.000000 0.096050 
#    y 0.000000 2.383260 0.000000 
#    z 0.096050 0.000000 2.188070 
# 
# From -- ./inp_files/48078.got.cif
#   From: 2010.05.17/outbox.cif.g08.bks.cpg/sg5_25_cif.got.tgz:48078.got - 2010.06.03 18:56:24.
