data_PCOD9121816
_publ_section_title
;
Structure prediction by ZEFSAII (Michael W. Deem and Ramdas Pophale) SiO2 
 PCOD9121816
Probable space group: C 2
;
_chemical_formula_sum "Si O2"
_cell_formula_units_Z 32
_cell_length_a 21.760810
_cell_length_b 7.779662
_cell_length_c 29.527158
_cell_angle_alpha 90.000000
_cell_angle_beta 161.261200
_cell_angle_gamma 90.000000
_cell_volume 1605.855484
_symmetry_space_group_name_H-M "C 2"
_symmetry_group_IT_number 5
_symmetry_cell_setting 'monoclinic'
loop_
_space_group_symop_operation_xyz
x,y,z
-x,y,-z
1/2+x,1/2+y,z
1/2-x,1/2+y,-z
loop_
_atom_site_type_symbol
_atom_site_label
_atom_site_fract_x
_atom_site_fract_y
_atom_site_fract_z
Si Si1 0.677842 0.546800 0.901595
Si Si2 0.003566 0.302376 0.153951
Si Si3 0.301674 0.350454 0.647779
Si Si4 0.192434 0.560005 0.659616
Si Si5 0.080986 0.832753 0.419017
Si Si6 0.137183 0.981192 0.552101
Si Si7 0.532562 0.974978 0.643401
Si Si8 0.498551 0.686779 0.309558
O O1 0.627730 0.673166 0.908395
O O2 0.522185 0.391501 0.793208
O O3 0.636472 0.654384 0.827578
O O4 0.881539 0.456973 0.048521
O O5 0.133916 0.190581 0.211414
O O6 0.171218 0.377828 0.302246
O O7 0.258225 0.425850 0.667220
O O8 0.216883 0.160906 0.588467
O O9 0.183926 0.450449 0.526906
O O10 0.143142 0.478661 0.673070
O O11 0.000000 0.634350 0.500000
O O12 0.302785 0.779666 0.566494
O O13 0.963436 0.657673 0.328269
O O14 0.040487 0.881118 0.443136
O O15 0.035706 0.001360 0.358431
O O16 0.000000 0.008962 0.500000
O O17 0.586011 0.817588 0.712456
#
# Coordination Sequence:
#
# PCOD9121816 Si02
#       8
#     4   4   4   4   4   4   4   4
#     4  11  23  41  60  95 126 168 211 261 326 380
#     4  11  22  40  62  90 129 165 214 270 314 376
#     4  10  19  36  61  97 132 159 209 264 319 376
#     4   9  19  37  64  95 129 164 207 266 319 374
#     4  12  22  36  62  96 131 167 206 260 324 377
#     4  12  22  36  64 101 126 164 217 267 319 372
#     4  11  20  38  60  96 132 167 204 263 322 373
#     4  12  23  38  61  96 133 168 207 259 320 389
#
# _framework density 19.927073
#
# number of rings (size 3 to 8) (size 9 to 14) (size 15 to 20)
#    0.000    1.000    5.000    4.500    0.000    0.000 
#    2.250    0.000    0.000    3.000    3.250    0.000 
#    0.000    0.000    0.000    0.000    0.000    0.000 
#
# Total GULP energy -89312.917011 kJ/mol
# GULP energy per Si atom -5582.057313 kJ/mol
# Density = 1.988172 g / cm^3
# Si number density = 19.927073 Si / 1000 Ang^3
#
#
#
# Elastic Constant Matrix: (Units=GPa)
#
#
# Indices 1 2 3 4 5 6 
#
# 1 107.2222 29.4635 24.3205 -0.0014 -8.0468 0.0118
# 2 29.4635 103.6639 10.6922 0.0029 -3.4890 0.0399
# 3 24.3205 10.6922 48.6040 -0.0558 0.6865 0.0544
# 4 -0.0014 0.0029 -0.0558 32.3919 0.0149 -3.0628
# 5 -8.0468 -3.4890 0.6865 0.0149 15.3390 -0.0150
# 6 0.0118 0.0399 0.0544 -3.0628 -0.0150 32.1213
#
#
#
# Elastic Compliance Matrix: (Units=1/GPa)
#
#
# Indices 1 2 3 4 5 6 
#
# 1 0.011684 -0.002573 -0.005362 -0.000010 0.005784 0.000010
# 2 -0.002573 0.010522 -0.001043 -0.000004 0.001090 -0.000010
# 3 -0.005362 -0.001043 0.023545 0.000039 -0.004104 -0.000035
# 4 -0.000010 -0.000004 0.000039 0.031153 -0.000036 0.002970
# 5 0.005784 0.001090 -0.004104 -0.000036 0.068659 0.000032
# 6 0.000010 -0.000010 -0.000035 0.002970 0.000032 0.031415
#
#
# Mechanical properties :
#
#
# Convention : Reuss Voigt Hill
#
# Bulk Modulus (GPa) = 35.97713 43.16028 39.56871
# Shear Modulus (GPa) = 24.48594 28.97136 26.72865
#
# Velocity S-wave (km/s) = 3.50920 3.81710 3.66638
# Velocity P-wave (km/s) = 5.87476 6.41351 6.15004
#
# Compressibility (1/GPa) = 0.02779543
#
# Stress axis : x y z
#
# Youngs Moduli (GPa) = 85.58874 95.03799 42.47204
#
# Poissons Ratio (x) = 0.24454 0.22774
# Poissons Ratio (y) = 0.22022 0.04428
# Poissons Ratio (z) = 0.45893 0.09909
#
# Static dielectric constant tensor:
#      x y z
#    x 1.740680 -0.000010 0.014560 
#    y -0.000010 1.784150 0.000000 
#    z 0.014560 0.000000 1.678320 
# 
# From -- ./inp_files/71099.got.cif
#   From: 2010.05.17/outbox.cif.g08.bks.cpg/sg5_36_cif.got.tgz:71099.got - 2010.06.03 18:56:24.
