data_PCOD9121787
_publ_section_title
;
Structure prediction by ZEFSAII (Michael W. Deem and Ramdas Pophale) SiO2 
 PCOD9121787
Probable space group: C 2
;
_chemical_formula_sum "Si O2"
_cell_formula_units_Z 20
_cell_length_a 22.826931
_cell_length_b 7.212711
_cell_length_c 5.578119
_cell_angle_alpha 90.000000
_cell_angle_beta 127.453340
_cell_angle_gamma 90.000000
_cell_volume 729.074055
_symmetry_space_group_name_H-M "C 2"
_symmetry_group_IT_number 5
_symmetry_cell_setting 'monoclinic'
loop_
_space_group_symop_operation_xyz
x,y,z
-x,y,-z
1/2+x,1/2+y,z
1/2-x,1/2+y,-z
loop_
_atom_site_type_symbol
_atom_site_label
_atom_site_fract_x
_atom_site_fract_y
_atom_site_fract_z
Si Si1 0.127007 0.572620 0.011380
Si Si2 0.463694 0.630171 0.663133
Si Si3 0.251970 0.337922 0.770769
Si Si4 0.829380 0.179094 0.048575
Si Si5 0.089903 0.528811 0.404138
O O1 0.208699 0.659772 0.243228
O O2 0.079725 0.628031 0.124780
O O3 0.131002 0.347570 0.987090
O O4 0.096312 0.633491 0.673160
O O5 0.500000 0.574417 0.500000
O O6 0.377261 0.600028 0.390988
O O7 0.463993 0.855588 0.684276
O O8 0.500000 0.560919 0.000000
O O9 0.244322 0.271652 0.028786
O O10 0.170620 0.429911 0.551327
O O11 0.309001 0.499784 0.852815
#
# Coordination Sequence:
#
# PCOD9121787 Si02
#       5
#     4   4   4   4   4
#     4  10  21  37  55  90 126 156 193 246 306 368
#     4  10  20  39  62  87 122 164 211 248 288 362
#     4  10  19  36  60  92 131 152 194 255 311 366
#     4  10  20  37  63  94 121 162 201 247 313 359
#     4  10  22  35  60  91 119 157 205 239 308 358
#
# _framework density 27.432058000000001
#
# number of rings (size 3 to 8) (size 9 to 14) (size 15 to 20)
#    0.000    2.400    4.000    2.400    2.800    0.000 
#    0.000    0.000    0.000   14.400    0.000    5.600 
#    0.000    0.000    0.000    0.000    0.000    0.000 
#
# Total GULP energy -55699.730435 kJ/mol
# GULP energy per Si atom -5569.973044 kJ/mol
# Density = 2.736962 g / cm^3
# Si number density = 27.432058 Si / 1000 Ang^3
#
#
#
# Elastic Constant Matrix: (Units=GPa)
#
#
# Indices 1 2 3 4 5 6 
#
# 1 132.9217 25.0861 46.5163 0.0000 -23.5863 0.0000
# 2 25.0861 81.8169 38.3660 0.0000 6.9712 0.0000
# 3 46.5163 38.3660 169.8287 0.0000 -45.9925 0.0000
# 4 0.0000 0.0000 0.0000 3.0491 0.0000 9.6644
# 5 -23.5863 6.9712 -45.9925 0.0000 59.6311 0.0000
# 6 0.0000 0.0000 0.0000 9.6644 0.0000 21.1864
#
#
#
# Elastic Compliance Matrix: (Units=1/GPa)
#
#
# Indices 1 2 3 4 5 6 
#
# 1 0.008895 -0.002481 -0.001067 0.000000 0.002985 0.000000
# 2 -0.002481 0.015671 -0.004579 0.000000 -0.006345 0.000000
# 3 -0.001067 -0.004579 0.009159 0.000000 0.007177 0.000000
# 4 0.000000 0.000000 0.000000 -0.735584 0.000000 0.335545
# 5 0.002985 -0.006345 0.007177 0.000000 0.024228 0.000000
# 6 0.000000 0.000000 0.000000 0.335545 0.000000 -0.105862
#
#
# Mechanical properties :
#
#
# Convention : Reuss Voigt Hill
#
# Bulk Modulus (GPa) = 57.24252 67.16713 62.20483
# Shear Modulus (GPa) = -6.56671 35.07990 14.25660
#
# Velocity S-wave (km/s) = -1.54887 3.57990 2.28218
# Velocity P-wave (km/s) = 4.20876 6.45179 5.44698
#
# Compressibility (1/GPa) = 0.01746953
#
# Stress axis : x y z
#
# Youngs Moduli (GPa) = 112.42691 63.81224 109.18480
#
# Poissons Ratio (x) = 0.15832 0.11654
# Poissons Ratio (y) = 0.27893 0.49996
# Poissons Ratio (z) = 0.12000 0.29220
#
# Static dielectric constant tensor:
#      x y z
#    x 2.189430 0.000000 0.065220 
#    y 0.000000 2.104950 0.000000 
#    z 0.065220 0.000000 2.470360 
# 
# From -- ./inp_files/8005.got.cif
#   From: 2010.05.17/outbox.cif.g08.bks.cpg/sg5_5_cif.got.tgz:8005.got - 2010.06.03 18:56:24.
