data_PCOD9121838
_publ_section_title
;
Structure prediction by ZEFSAII (Michael W. Deem and Ramdas Pophale) SiO2 
 PCOD9121838
Probable space group: C 2
;
_chemical_formula_sum "Si O2"
_cell_formula_units_Z 26
_cell_length_a 22.179000
_cell_length_b 10.581796
_cell_length_c 7.218019
_cell_angle_alpha 90.000000
_cell_angle_beta 137.899492
_cell_angle_gamma 90.000000
_cell_volume 1135.729424
_symmetry_space_group_name_H-M "C 2"
_symmetry_group_IT_number 5
_symmetry_cell_setting 'monoclinic'
loop_
_space_group_symop_operation_xyz
x,y,z
-x,y,-z
1/2+x,1/2+y,z
1/2-x,1/2+y,-z
loop_
_atom_site_type_symbol
_atom_site_label
_atom_site_fract_x
_atom_site_fract_y
_atom_site_fract_z
Si Si1 0.137621 0.470390 0.598681
Si Si2 0.956049 0.586969 0.100590
Si Si3 0.777289 0.472277 0.794417
Si Si4 0.167240 0.195713 0.670186
Si Si5 0.500000 0.572326 0.500000
Si Si6 0.003083 0.854303 0.786977
Si Si7 0.807593 0.735273 0.313786
O O1 0.144122 0.331077 0.528162
O O2 0.181474 0.591304 0.597335
O O3 0.034228 0.513093 0.387004
O O4 0.186136 0.465050 0.909220
O O5 0.937201 0.730475 0.121266
O O6 0.865112 0.511456 0.886919
O O7 0.000000 0.602232 0.000000
O O8 0.699285 0.578528 0.616750
O O9 0.742041 0.333489 0.666057
O O10 0.082359 0.152500 0.603251
O O11 0.251437 0.222646 0.997413
O O12 0.529685 0.476520 0.731504
O O13 0.904005 0.802234 0.504085
O O14 0.000000 0.880041 0.000000
#
# Coordination Sequence:
#
# PCOD9121838 Si02
#       7
#     4   4   4   4   2   4   4
#     4   9  20  36  61  88 125 162 209 271 327 396
#     4  10  22  38  60  92 129 176 222 271 338 399
#     4  10  19  36  63  88 123 164 217 273 315 393
#     4  10  22  36  63 100 125 168 221 272 336 397
#     4  12  24  40  70  96 140 182 228 276 346 400
#     4  10  23  43  66  98 136 178 228 278 337 406
#     4   9  19  39  62  93 126 167 217 273 328 393
#
# _framework density 22.892776000000001
#
# number of rings (size 3 to 8) (size 9 to 14) (size 15 to 20)
#    0.000    2.154    1.538    0.462   10.769    0.000 
#    0.000   11.538    0.000    0.000    0.000    0.000 
#    0.000    0.000    0.000    0.000    0.000    0.000 
#
# Total GULP energy -72552.481522 kJ/mol
# GULP energy per Si atom -5580.960117 kJ/mol
# Density = 2.284067 g / cm^3
# Si number density = 22.892776 Si / 1000 Ang^3
#
#
#
# Elastic Constant Matrix: (Units=GPa)
#
#
# Indices 1 2 3 4 5 6 
#
# 1 62.8926 71.7908 16.5146 0.0000 25.3285 0.0000
# 2 71.7908 193.1448 33.4463 0.0000 7.0345 0.0000
# 3 16.5146 33.4463 41.2721 0.0000 7.0848 0.0000
# 4 0.0000 0.0000 0.0000 -10.0076 0.0000 -2.1416
# 5 25.3285 7.0345 7.0848 0.0000 24.7000 0.0000
# 6 0.0000 0.0000 0.0000 -2.1416 0.0000 20.4118
#
#
#
# Elastic Compliance Matrix: (Units=1/GPa)
#
#
# Indices 1 2 3 4 5 6 
#
# 1 0.066458 -0.022892 0.002670 0.000000 -0.062395 0.000000
# 2 -0.022892 0.013910 -0.005745 0.000000 0.021160 0.000000
# 3 0.002670 -0.005745 0.029457 0.000000 -0.009550 0.000000
# 4 0.000000 0.000000 0.000000 -0.097730 0.000000 -0.010254
# 5 -0.062395 0.021160 -0.009550 0.000000 0.101181 0.000000
# 6 0.000000 0.000000 0.000000 -0.010254 0.000000 0.047915
#
#
# Mechanical properties :
#
#
# Convention : Reuss Voigt Hill
#
# Bulk Modulus (GPa) = 17.27423 60.09029 38.68226
# Shear Modulus (GPa) = 21.51256 18.72472 20.11864
#
# Velocity S-wave (km/s) = 3.06879 2.86305 2.96771
# Velocity P-wave (km/s) = 4.48539 6.10205 5.35508
#
# Compressibility (1/GPa) = 0.05788969
#
# Stress axis : x y z
#
# Youngs Moduli (GPa) = 15.04718 71.88867 33.94820
#
# Poissons Ratio (x) = 1.64566 -0.09063
# Poissons Ratio (y) = 0.34446 0.19504
# Poissons Ratio (z) = -0.04017 0.41302
#
# Static dielectric constant tensor:
#      x y z
#    x 1.839440 0.000000 -0.014280 
#    y 0.000000 1.953450 0.000000 
#    z -0.014280 0.000000 1.898840 
# 
# From -- ./inp_files/31680.got.cif
#   From: 2010.05.17/outbox.cif.g08.bks.cpg/sg5_16_cif.got.tgz:31680.got - 2010.06.03 18:56:24.
