data_PCOD9121982
_publ_section_title
;
Structure prediction by ZEFSAII (Michael W. Deem and Ramdas Pophale) SiO2 
 PCOD9121982
Probable space group: C 2
;
_chemical_formula_sum "Si O2"
_cell_formula_units_Z 22
_cell_length_a 24.116455
_cell_length_b 5.210160
_cell_length_c 14.067187
_cell_angle_alpha 90.000000
_cell_angle_beta 151.593745
_cell_angle_gamma 90.000000
_cell_volume 840.859465
_symmetry_space_group_name_H-M "C 2"
_symmetry_group_IT_number 5
_symmetry_cell_setting 'monoclinic'
loop_
_space_group_symop_operation_xyz
x,y,z
-x,y,-z
1/2+x,1/2+y,z
1/2-x,1/2+y,-z
loop_
_atom_site_type_symbol
_atom_site_label
_atom_site_fract_x
_atom_site_fract_y
_atom_site_fract_z
Si Si1 0.388101 0.040700 0.760384
Si Si2 0.531633 0.754100 0.311043
Si Si3 0.500000 0.245051 0.500000
Si Si4 0.400668 0.269717 0.156651
Si Si5 0.701292 0.880501 0.723802
Si Si6 0.360330 0.551322 0.796104
O O1 0.334098 0.322662 0.683268
O O2 0.422953 0.904654 0.714445
O O3 0.311463 0.829652 0.698184
O O4 0.500000 0.079356 0.000000
O O5 0.476597 0.475179 0.209889
O O6 0.440773 0.972857 0.210713
O O7 0.628131 0.711384 0.538539
O O8 0.431133 0.372279 0.308375
O O9 0.604623 0.081778 0.611384
O O10 0.270034 0.279346 0.919266
O O11 0.803391 0.983831 0.809667
O O12 0.500000 0.583944 0.000000
#
# Coordination Sequence:
#
# PCOD9121982 Si02
#       6
#     4   4   2   4   4   4
#     4  10  19  37  63  98 139 178 225 281 345 421
#     4  11  25  44  73 109 142 188 241 288 361 436
#     4  10  28  48  74 108 138 192 252 296 362 428
#     4  11  25  48  73 103 143 187 241 303 358 420
#     4  11  26  48  74 104 146 189 240 302 357 424
#     4  10  21  38  66 100 138 185 227 281 355 421
#
# _framework density 26.163709000000001
#
# number of rings (size 3 to 8) (size 9 to 14) (size 15 to 20)
#    0.000    1.455    0.000    5.455    0.000   14.545 
#    0.000    0.000    0.000    0.000    0.000    0.000 
#    0.000    0.000    0.000    0.000    0.000    0.000 
#
# Total GULP energy -61395.635123 kJ/mol
# GULP energy per Si atom -5581.421375 kJ/mol
# Density = 2.610416 g / cm^3
# Si number density = 26.163709 Si / 1000 Ang^3
#
#
#
# Elastic Constant Matrix: (Units=GPa)
#
#
# Indices 1 2 3 4 5 6 
#
# 1 98.5923 5.4323 38.0395 0.0000 10.9027 0.0000
# 2 5.4323 112.2637 8.7304 0.0003 15.9011 0.0001
# 3 38.0395 8.7304 224.5986 -0.0001 -21.0115 0.0000
# 4 0.0000 0.0003 -0.0001 8.0090 0.0000 11.1024
# 5 10.9027 15.9011 -21.0115 0.0000 41.9780 0.0000
# 6 0.0000 0.0001 0.0000 11.1024 0.0000 32.1139
#
#
#
# Elastic Compliance Matrix: (Units=1/GPa)
#
#
# Indices 1 2 3 4 5 6 
#
# 1 0.011510 0.000229 -0.002356 0.000000 -0.004256 0.000000
# 2 0.000229 0.009534 -0.000790 -0.000001 -0.004066 0.000000
# 3 -0.002356 -0.000790 0.005211 0.000000 0.003520 0.000000
# 4 0.000000 -0.000001 0.000000 0.239768 0.000000 -0.082892
# 5 -0.004256 -0.004066 0.003520 0.000000 0.028229 0.000000
# 6 0.000000 0.000000 0.000000 -0.082892 0.000000 0.059797
#
#
# Mechanical properties :
#
#
# Convention : Reuss Voigt Hill
#
# Bulk Modulus (GPa) = 48.96925 59.98434 54.47680
# Shear Modulus (GPa) = 13.63548 41.97034 27.80291
#
# Velocity S-wave (km/s) = 2.28537 4.00952 3.26337
# Velocity P-wave (km/s) = 5.07159 6.66418 5.92167
#
# Compressibility (1/GPa) = 0.02042098
#
# Stress axis : x y z
#
# Youngs Moduli (GPa) = 86.88146 104.88921 191.88474
#
# Poissons Ratio (x) = -0.02403 0.45216
# Poissons Ratio (y) = -0.01990 0.15155
# Poissons Ratio (z) = 0.20473 0.08284
#
# Static dielectric constant tensor:
#      x y z
#    x 2.095390 0.000000 -0.174330 
#    y 0.000000 2.114580 0.000000 
#    z -0.174330 0.000000 2.229090 
# 
# From -- ./inp_files/57946.got.cif
#   From: 2010.05.17/outbox.cif.g08.bks.cpg/sg5_29_cif.got.tgz:57946.got - 2010.06.03 18:56:24.
