data_PCOD9121294
_publ_section_title
;
Structure prediction by ZEFSAII (Michael W. Deem and Ramdas Pophale) SiO2 
 PCOD9121294
Probable space group: C 2
;
_chemical_formula_sum "Si O2"
_cell_formula_units_Z 32
_cell_length_a 13.048994
_cell_length_b 22.475749
_cell_length_c 4.917092
_cell_angle_alpha 90.000000
_cell_angle_beta 94.988334
_cell_angle_gamma 90.000000
_cell_volume 1436.651704
_symmetry_space_group_name_H-M "C 2"
_symmetry_group_IT_number 5
_symmetry_cell_setting 'monoclinic'
loop_
_space_group_symop_operation_xyz
x,y,z
-x,y,-z
1/2+x,1/2+y,z
1/2-x,1/2+y,-z
loop_
_atom_site_type_symbol
_atom_site_label
_atom_site_fract_x
_atom_site_fract_y
_atom_site_fract_z
Si Si1 0.609731 0.411380 0.578064
Si Si2 0.895082 0.741093 0.630880
Si Si3 0.747860 0.551562 0.134080
Si Si4 0.325024 0.172430 0.129395
Si Si5 0.751464 0.915957 0.896266
Si Si6 0.607718 0.547997 0.625780
Si Si7 0.312542 0.810898 0.466661
Si Si8 0.616031 0.740347 0.014509
O O1 0.500000 0.381306 0.500000
O O2 0.654099 0.420789 0.289644
O O3 0.587868 0.477967 0.680029
O O4 0.698471 0.390259 0.812081
O O5 0.858168 0.685822 0.442078
O O6 0.809058 0.792522 0.574461
O O7 0.000000 0.757356 0.500000
O O8 0.886305 0.715932 0.935800
O O9 0.831379 0.602141 0.092169
O O10 0.784567 0.484149 0.075155
O O11 0.698804 0.553277 0.424093
O O12 0.653227 0.569320 0.917499
O O13 0.206719 0.193888 0.089982
O O14 0.678187 0.872787 0.699931
O O15 0.500000 0.574239 0.500000
O O16 0.360964 0.795530 0.770621
O O17 0.366371 0.763318 0.284318
O O18 0.500000 0.718541 0.000000
#
# Coordination Sequence:
#
# PCOD9121294 Si02
#       8
#     4   4   4   4   4   4   4   4
#     4   9  17  29  44  69 106 148 188 221 268 339
#     4  10  21  39  61  83 112 150 192 244 292 333
#     4  10  19  32  51  78 112 149 184 230 287 341
#     4  10  21  37  58  87 115 146 194 238 287 353
#     4  10  19  32  52  77 111 151 184 230 290 342
#     4   9  17  28  44  69 106 149 188 221 266 335
#     4  10  21  37  58  86 114 147 195 237 286 353
#     4  10  21  38  59  83 113 150 192 243 291 334
#
# _framework density 22.274014999999999
#
# number of rings (size 3 to 8) (size 9 to 14) (size 15 to 20)
#    0.000    2.250    0.000    3.000    0.000    4.500 
#    0.000    3.750    0.000    3.000    0.000    0.000 
#    0.000    0.000    0.000    0.000    0.000    0.000 
#
# Total GULP energy -89132.040409 kJ/mol
# GULP energy per Si atom -5570.752526 kJ/mol
# Density = 2.222332 g / cm^3
# Si number density = 22.274015 Si / 1000 Ang^3
#
#
#
# Elastic Constant Matrix: (Units=GPa)
#
#
# Indices 1 2 3 4 5 6 
#
# 1 64.6170 2.4020 2.3290 0.0000 -9.9510 0.0000
# 2 2.4020 90.1087 11.3900 0.0000 8.8466 0.0000
# 3 2.3290 11.3900 94.8439 0.0000 1.6375 0.0000
# 4 0.0000 0.0000 0.0000 11.9138 0.0000 -0.6393
# 5 -9.9510 8.8466 1.6375 0.0000 21.9147 0.0000
# 6 0.0000 0.0000 0.0000 -0.6393 0.0000 6.5039
#
#
#
# Elastic Compliance Matrix: (Units=1/GPa)
#
#
# Indices 1 2 3 4 5 6 
#
# 1 0.016788 -0.001195 -0.000409 0.000000 0.008136 0.000000
# 2 -0.001195 0.011805 -0.001298 0.000000 -0.005211 0.000000
# 3 -0.000409 -0.001298 0.010718 0.000000 -0.000463 0.000000
# 4 0.000000 0.000000 0.000000 0.084381 0.000000 0.008294
# 5 0.008136 -0.005211 -0.000463 0.000000 0.051464 0.000000
# 6 0.000000 0.000000 0.000000 0.008294 0.000000 0.154570
#
#
# Mechanical properties :
#
#
# Convention : Reuss Voigt Hill
#
# Bulk Modulus (GPa) = 29.84511 31.31241 30.57876
# Shear Modulus (GPa) = 14.42172 23.62971 19.02571
#
# Velocity S-wave (km/s) = 2.54730 3.26062 2.92578
# Velocity P-wave (km/s) = 4.69892 5.31638 5.01716
#
# Compressibility (1/GPa) = 0.03350633
#
# Stress axis : x y z
#
# Youngs Moduli (GPa) = 59.56681 84.70787 93.30443
#
# Poissons Ratio (x) = 0.10119 0.03819
# Poissons Ratio (y) = 0.07115 0.12115
# Poissons Ratio (z) = 0.02438 0.10999
#
# Static dielectric constant tensor:
#      x y z
#    x 1.932450 0.000000 0.033070 
#    y 0.000000 1.914460 0.000000 
#    z 0.033070 0.000000 1.789700 
# 
# From -- ./inp_files/5969.got.cif
#   From: 2010.05.17/outbox.cif.g08.bks.cpg/sg5_3_cif.got.tgz:5969.got - 2010.06.03 18:56:24.
