data_PCOD9121879
_publ_section_title
;
Structure prediction by ZEFSAII (Michael W. Deem and Ramdas Pophale) SiO2 
 PCOD9121879
Probable space group: C 2
;
_chemical_formula_sum "Si O2"
_cell_formula_units_Z 22
_cell_length_a 11.476913
_cell_length_b 11.735354
_cell_length_c 8.970284
_cell_angle_alpha 90.000000
_cell_angle_beta 75.022351
_cell_angle_gamma 90.000000
_cell_volume 1167.122967
_symmetry_space_group_name_H-M "C 2"
_symmetry_group_IT_number 5
_symmetry_cell_setting 'monoclinic'
loop_
_space_group_symop_operation_xyz
x,y,z
-x,y,-z
1/2+x,1/2+y,z
1/2-x,1/2+y,-z
loop_
_atom_site_type_symbol
_atom_site_label
_atom_site_fract_x
_atom_site_fract_y
_atom_site_fract_z
Si Si1 0.439079 0.182280 0.363947
Si Si2 0.072014 0.904859 0.319507
Si Si3 0.029474 0.147266 0.251646
Si Si4 0.000000 0.300360 0.000000
Si Si5 0.834565 0.247463 0.503996
Si Si6 0.854435 0.441651 0.289571
O O1 0.500000 0.147469 0.500000
O O2 0.527911 0.281986 0.273980
O O3 0.308666 0.238430 0.439463
O O4 0.405613 0.069048 0.284240
O O5 0.212606 0.924844 0.306000
O O6 0.000000 0.918461 0.500000
O O7 0.039050 0.012886 0.230115
O O8 0.108491 0.196932 0.363541
O O9 0.892491 0.173214 0.350683
O O10 0.066043 0.216555 0.093843
O O11 0.080051 0.378136 0.867198
O O12 0.873471 0.373934 0.439755
#
# Coordination Sequence:
#
# PCOD9121879 Si02
#       6
#     4   4   4   2   4   4
#     4  11  22  35  65 106 125 162 215 277 333 367
#     4  11  19  39  67  96 125 158 217 281 318 371
#     4  10  20  40  62  88 120 179 218 259 328 381
#     4  10  26  42  58  86 132 186 208 256 334 392
#     4  10  19  36  67  91 125 164 220 274 320 370
#     4  11  22  42  59  96 136 163 218 269 317 395
#
# _framework density 18.849771
#
# number of rings (size 3 to 8) (size 9 to 14) (size 15 to 20)
#    0.000    1.455    7.273    0.000    5.091    0.000 
#    3.273    2.727    0.000    0.000    0.000    0.000 
#    0.000    0.000    0.000    0.000    0.000    0.000 
#
# Total GULP energy -61250.380512 kJ/mol
# GULP energy per Si atom -5568.216410 kJ/mol
# Density = 1.880687 g / cm^3
# Si number density = 18.849771 Si / 1000 Ang^3
#
#
#
# Elastic Constant Matrix: (Units=GPa)
#
#
# Indices 1 2 3 4 5 6 
#
# 1 91.4531 49.3837 22.4654 0.0000 -7.1972 0.0000
# 2 49.3837 183.9143 49.7101 0.0000 2.2216 0.0000
# 3 22.4654 49.7101 72.9808 0.0000 4.7200 0.0000
# 4 0.0000 0.0000 0.0000 22.7374 0.0000 8.2628
# 5 -7.1972 2.2216 4.7200 0.0000 11.2598 0.0000
# 6 0.0000 0.0000 0.0000 8.2628 0.0000 32.0909
#
#
#
# Elastic Compliance Matrix: (Units=1/GPa)
#
#
# Indices 1 2 3 4 5 6 
#
# 1 0.014222 -0.003158 -0.002935 0.000000 0.010944 0.000000
# 2 -0.003158 0.007369 -0.003929 0.000000 -0.001825 0.000000
# 3 -0.002935 -0.003929 0.017837 0.000000 -0.008578 0.000000
# 4 0.000000 0.000000 0.000000 0.048520 0.000000 -0.012493
# 5 0.010944 -0.001825 -0.008578 0.000000 0.099763 0.000000
# 6 0.000000 0.000000 0.000000 -0.012493 0.000000 0.034378
#
#
# Mechanical properties :
#
#
# Convention : Reuss Voigt Hill
#
# Bulk Modulus (GPa) = 51.58854 65.71849 58.65351
# Shear Modulus (GPa) = 20.11304 28.33689 24.22497
#
# Velocity S-wave (km/s) = 3.27007 3.88145 3.58880
# Velocity P-wave (km/s) = 6.45643 7.41806 6.95388
#
# Compressibility (1/GPa) = 0.01938415
#
# Stress axis : x y z
#
# Youngs Moduli (GPa) = 70.31403 135.69698 56.06341
#
# Poissons Ratio (x) = 0.42850 0.16454
# Poissons Ratio (y) = 0.22203 0.22030
# Poissons Ratio (z) = 0.20636 0.53322
#
# Static dielectric constant tensor:
#      x y z
#    x 1.720270 0.000000 0.017710 
#    y 0.000000 1.734030 0.000000 
#    z 0.017710 0.000000 1.625600 
# 
# From -- ./inp_files/19018.got.cif
#   From: 2010.05.17/outbox.cif.g08.bks.cpg/sg5_10_cif.got.tgz:19018.got - 2010.06.03 18:56:24.
