data_PCOD9121509
_publ_section_title
;
Structure prediction by ZEFSAII (Michael W. Deem and Ramdas Pophale) SiO2 
 PCOD9121509
Probable space group: C 2
;
_chemical_formula_sum "Si O2"
_cell_formula_units_Z 24
_cell_length_a 14.215756
_cell_length_b 13.959933
_cell_length_c 13.289717
_cell_angle_alpha 90.000000
_cell_angle_beta 28.396066
_cell_angle_gamma 90.000000
_cell_volume 1254.231851
_symmetry_space_group_name_H-M "C 2"
_symmetry_group_IT_number 5
_symmetry_cell_setting 'monoclinic'
loop_
_space_group_symop_operation_xyz
x,y,z
-x,y,-z
1/2+x,1/2+y,z
1/2-x,1/2+y,-z
loop_
_atom_site_type_symbol
_atom_site_label
_atom_site_fract_x
_atom_site_fract_y
_atom_site_fract_z
Si Si1 0.156721 0.045740 0.059813
Si Si2 0.902106 0.210652 0.246144
Si Si3 0.882825 0.056018 0.517551
Si Si4 0.717216 0.876424 0.784459
Si Si5 0.049174 0.663883 0.727235
Si Si6 0.269671 0.334731 0.966510
O O1 0.371565 0.092567 0.868210
O O2 0.025597 0.053595 0.286087
O O3 0.029967 0.114633 0.105176
O O4 0.201942 0.934050 0.001616
O O5 0.822072 0.274269 0.230047
O O6 0.708033 0.182017 0.490109
O O7 0.055692 0.280234 0.164232
O O8 0.684936 0.115412 0.683582
O O9 0.000000 0.101040 0.500000
O O10 0.826594 0.949061 0.607301
O O11 0.798720 0.858514 0.819698
O O12 0.500000 0.921950 0.000000
O O13 0.934422 0.762615 0.852546
#
# Coordination Sequence:
#
# PCOD9121509 Si02
#       6
#     4   4   4   4   4   4
#     4  10  20  35  52  82 115 146 179 224 275 330
#     4   9  20  32  50  84 114 145 178 220 277 328
#     4  11  21  32  54  87 114 140 182 224 281 324
#     4  10  19  34  58  89 115 136 181 231 274 323
#     4  10  21  34  50  80 116 146 176 231 271 323
#     4  10  19  35  57  83 110 143 182 225 277 324
#
# _framework density 19.135218999999999
#
# number of rings (size 3 to 8) (size 9 to 14) (size 15 to 20)
#    0.000    2.000    1.667    3.000    0.000    1.333 
#    0.000    0.000    0.000    0.000   82.333    0.000 
#    0.000    0.000    0.000    0.000    0.000    0.000 
#
# Total GULP energy -66828.750158 kJ/mol
# GULP energy per Si atom -5569.062513 kJ/mol
# Density = 1.909167 g / cm^3
# Si number density = 19.135219 Si / 1000 Ang^3
#
#
#
# Elastic Constant Matrix: (Units=GPa)
#
#
# Indices 1 2 3 4 5 6 
#
# 1 54.3235 38.1700 15.9532 0.0005 -10.8199 -0.0012
# 2 38.1700 153.3569 44.4815 -0.0021 -23.4689 0.0011
# 3 15.9532 44.4815 115.0415 -0.0023 -19.5700 0.0014
# 4 0.0005 -0.0021 -0.0023 37.5814 0.0012 -2.3175
# 5 -10.8199 -23.4689 -19.5700 0.0012 25.1738 -0.0004
# 6 -0.0012 0.0011 0.0014 -2.3175 -0.0004 27.1214
#
#
#
# Elastic Compliance Matrix: (Units=1/GPa)
#
#
# Indices 1 2 3 4 5 6 
#
# 1 0.022917 -0.004801 -0.000469 -0.000001 0.005009 0.000001
# 2 -0.004801 0.009033 -0.002011 0.000000 0.004794 0.000000
# 3 -0.000469 -0.002011 0.010581 0.000000 0.006149 0.000000
# 4 -0.000001 0.000000 0.000000 0.026750 -0.000001 0.002286
# 5 0.005009 0.004794 0.006149 -0.000001 0.051126 0.000000
# 6 0.000001 0.000000 0.000000 0.002286 0.000000 0.037067
#
#
# Mechanical properties :
#
#
# Convention : Reuss Voigt Hill
#
# Bulk Modulus (GPa) = 35.75606 57.77014 46.76310
# Shear Modulus (GPa) = 27.56937 32.91646 30.24292
#
# Velocity S-wave (km/s) = 3.79986 4.15203 3.97984
# Velocity P-wave (km/s) = 6.16267 7.29670 6.75353
#
# Compressibility (1/GPa) = 0.02796728
#
# Stress axis : x y z
#
# Youngs Moduli (GPa) = 43.63503 110.70808 94.50616
#
# Poissons Ratio (x) = 0.53155 0.04437
# Poissons Ratio (y) = 0.20951 0.19008
# Poissons Ratio (z) = 0.02049 0.22266
#
# Static dielectric constant tensor:
#      x y z
#    x 1.676860 0.000000 -0.010740 
#    y 0.000000 1.713780 0.000000 
#    z -0.010740 0.000000 1.695380 
# 
# From -- ./inp_files/23461.got.cif
#   From: 2010.05.17/outbox.cif.g08.bks.cpg/sg5_12_cif.got.tgz:23461.got - 2010.06.03 18:56:24.
