data_PCOD9121086
_publ_section_title
;
Structure prediction by ZEFSAII (Michael W. Deem and Ramdas Pophale) SiO2 
 PCOD9121086
Probable space group: C 2
;
_chemical_formula_sum "Si O2"
_cell_formula_units_Z 30
_cell_length_a 12.383060
_cell_length_b 12.007285
_cell_length_c 9.045405
_cell_angle_alpha 90.000000
_cell_angle_beta 109.029936
_cell_angle_gamma 90.000000
_cell_volume 1271.430661
_symmetry_space_group_name_H-M "C 2"
_symmetry_group_IT_number 5
_symmetry_cell_setting 'monoclinic'
loop_
_space_group_symop_operation_xyz
x,y,z
-x,y,-z
1/2+x,1/2+y,z
1/2-x,1/2+y,-z
loop_
_atom_site_type_symbol
_atom_site_label
_atom_site_fract_x
_atom_site_fract_y
_atom_site_fract_z
Si Si1 0.357044 0.718620 0.746152
Si Si2 0.970241 0.010401 0.816487
Si Si3 0.326851 0.131067 0.146936
Si Si4 0.142590 0.476923 0.304592
Si Si5 0.500000 0.094563 0.000000
Si Si6 0.706520 0.933829 0.666428
Si Si7 0.992006 0.805183 0.331629
Si Si8 0.761156 0.698348 0.622660
O O1 0.469083 0.641147 0.774905
O O2 0.300383 0.671785 0.872158
O O3 0.352988 0.851134 0.749984
O O4 0.285732 0.694595 0.565079
O O5 0.841162 0.968205 0.715237
O O6 0.044318 0.913100 0.776366
O O7 0.000000 0.001253 0.000000
O O8 0.387068 0.153686 0.016453
O O9 0.399379 0.208897 0.287593
O O10 0.332114 0.005371 0.210598
O O11 0.041508 0.527193 0.160725
O O12 0.142318 0.467545 0.484343
O O13 0.239656 0.571621 0.320588
O O14 0.697858 0.800396 0.675545
O O15 0.107692 0.743312 0.329776
O O16 0.000000 0.847533 0.500000
#
# Coordination Sequence:
#
# PCOD9121086 Si02
#       8
#     4   4   4   4   2   4   4   4
#     4  10  22  41  69  89 131 174 214 265 339 393
#     4  10  22  39  63  95 132 170 212 275 333 384
#     4  11  22  42  63 102 124 176 216 276 328 388
#     4  11  21  42  66  95 130 174 215 271 327 411
#     4  12  28  38  64 100 136 164 228 272 318 396
#     4   9  21  40  69  93 130 172 221 270 338 388
#     4  11  20  35  67  97 128 165 225 277 319 399
#     4  10  18  38  68  99 120 169 224 270 320 400
#
# _framework density 23.595466999999999
#
# number of rings (size 3 to 8) (size 9 to 14) (size 15 to 20)
#    0.000    1.600    5.333    0.000    1.867    0.000 
#    7.200    0.000    8.800    0.000    0.000    0.000 
#    0.000    0.000    0.000    0.000    0.000    0.000 
#
# Total GULP energy -83513.417166 kJ/mol
# GULP energy per Si atom -5567.561144 kJ/mol
# Density = 2.354176 g / cm^3
# Si number density = 23.595467 Si / 1000 Ang^3
#
#
#
# Elastic Constant Matrix: (Units=GPa)
#
#
# Indices 1 2 3 4 5 6 
#
# 1 13.0779 7.6186 -1.3356 0.0000 -5.6878 0.0000
# 2 7.6186 191.9357 23.1188 0.0000 -13.1890 0.0000
# 3 -1.3356 23.1188 56.8258 0.0000 8.4852 0.0000
# 4 0.0000 0.0000 0.0000 9.1773 0.0000 -4.2861
# 5 -5.6878 -13.1890 8.4852 0.0000 27.4054 0.0000
# 6 0.0000 0.0000 0.0000 -4.2861 0.0000 13.4183
#
#
#
# Elastic Compliance Matrix: (Units=1/GPa)
#
#
# Indices 1 2 3 4 5 6 
#
# 1 0.084981 -0.002307 0.000491 0.000000 0.016375 0.000000
# 2 -0.002307 0.005879 -0.002932 0.000000 0.003258 0.000000
# 3 0.000491 -0.002932 0.019919 0.000000 -0.007477 0.000000
# 4 0.000000 0.000000 0.000000 0.128071 0.000000 0.040908
# 5 0.016375 0.003258 -0.007477 0.000000 0.043771 0.000000
# 6 0.000000 0.000000 0.000000 0.040908 0.000000 0.087592
#
#
# Mechanical properties :
#
#
# Convention : Reuss Voigt Hill
#
# Bulk Modulus (GPa) = 9.87351 35.62699 22.75025
# Shear Modulus (GPa) = 12.09279 25.49604 18.79442
#
# Velocity S-wave (km/s) = 2.26631 3.29074 2.82534
# Velocity P-wave (km/s) = 3.32292 5.43787 4.50623
#
# Compressibility (1/GPa) = 0.10128110
#
# Stress axis : x y z
#
# Youngs Moduli (GPa) = 11.76731 170.10371 50.20434
#
# Poissons Ratio (x) = 0.39244 -0.02464
# Poissons Ratio (y) = 0.02715 0.14722
# Poissons Ratio (z) = -0.00578 0.49882
#
# Static dielectric constant tensor:
#      x y z
#    x 2.018250 0.000000 -0.006450 
#    y 0.000000 1.957820 0.000000 
#    z -0.006450 0.000000 1.876150 
# 
# From -- ./inp_files/23921.got.cif
#   From: 2010.05.17/outbox.cif.g08.bks.cpg/sg5_12_cif.got.tgz:23921.got - 2010.06.03 18:56:24.
