data_PCOD9121175
_publ_section_title
;
Structure prediction by ZEFSAII (Michael W. Deem and Ramdas Pophale) SiO2 
 PCOD9121175
Probable space group: C 2
;
_chemical_formula_sum "Si O2"
_cell_formula_units_Z 24
_cell_length_a 9.079983
_cell_length_b 15.885145
_cell_length_c 8.293102
_cell_angle_alpha 90.000000
_cell_angle_beta 107.166360
_cell_angle_gamma 90.000000
_cell_volume 1142.883640
_symmetry_space_group_name_H-M "C 2"
_symmetry_group_IT_number 5
_symmetry_cell_setting 'monoclinic'
loop_
_space_group_symop_operation_xyz
x,y,z
-x,y,-z
1/2+x,1/2+y,z
1/2-x,1/2+y,-z
loop_
_atom_site_type_symbol
_atom_site_label
_atom_site_fract_x
_atom_site_fract_y
_atom_site_fract_z
Si Si1 0.876449 0.718250 0.809537
Si Si2 0.000000 0.735823 0.500000
Si Si3 0.731719 0.906460 0.819109
Si Si4 0.664827 0.779442 0.337390
Si Si5 0.500000 0.527149 0.000000
Si Si6 0.000000 0.416739 0.500000
Si Si7 0.545573 0.623073 0.679508
Si Si8 0.500000 0.836589 0.000000
O O1 0.960298 0.696608 0.664750
O O2 0.809326 0.815864 0.792778
O O3 0.719010 0.661909 0.755989
O O4 0.000000 0.708774 0.000000
O O5 0.844665 0.785505 0.416230
O O6 0.855876 0.966419 0.933963
O O7 0.640025 0.954836 0.645972
O O8 0.605421 0.888442 0.914512
O O9 0.585868 0.856294 0.401951
O O10 0.582660 0.696882 0.377412
O O11 0.618382 0.780566 0.137095
O O12 0.514785 0.577780 0.838598
O O13 0.500000 0.572333 0.500000
#
# Coordination Sequence:
#
# PCOD9121175 Si02
#       8
#     4   2   4   4   2   2   4   2
#     4  12  24  41  76 108 139 170 250 296 330 406
#     4  12  22  34  65 117 134 164 230 312 332 378
#     4  11  22  47  62 110 135 184 231 284 351 419
#     4  11  19  37  68 108 123 175 229 294 336 389
#     4  12  31  46  68  99 154 186 220 282 371 420
#     4  10  18  40  73  93 138 168 234 294 330 400
#     4  12  24  51  69  98 142 192 228 280 359 423
#     4  10  21  36  76  93 136 174 230 294 341 396
#
# _framework density 20.999513
#
# number of rings (size 3 to 8) (size 9 to 14) (size 15 to 20)
#    0.000    0.667    8.333    1.500    2.333    0.000 
#    9.000    0.833    0.000    0.000    0.000    0.000 
#    0.000    0.000    0.000    0.000    0.000    0.000 
#
# Total GULP energy -66807.315694 kJ/mol
# GULP energy per Si atom -5567.276308 kJ/mol
# Density = 2.095172 g / cm^3
# Si number density = 20.999513 Si / 1000 Ang^3
#
#
#
# Elastic Constant Matrix: (Units=GPa)
#
#
# Indices 1 2 3 4 5 6 
#
# 1 138.7456 23.1457 59.0719 0.0000 13.0714 0.0000
# 2 23.1457 20.4884 18.0205 0.0000 -4.2470 0.0000
# 3 59.0719 18.0205 184.5524 0.0000 17.0289 0.0000
# 4 0.0000 0.0000 0.0000 -9.5558 0.0000 -7.7621
# 5 13.0714 -4.2470 17.0289 0.0000 56.2707 0.0000
# 6 0.0000 0.0000 0.0000 -7.7621 0.0000 -4.4729
#
#
#
# Elastic Compliance Matrix: (Units=1/GPa)
#
#
# Indices 1 2 3 4 5 6 
#
# 1 0.009954 -0.010015 -0.001980 0.000000 -0.002469 0.000000
# 2 -0.010015 0.065354 -0.003956 0.000000 0.008456 0.000000
# 3 -0.001980 -0.003956 0.006608 0.000000 -0.001838 0.000000
# 4 0.000000 0.000000 0.000000 0.255487 0.000000 -0.443357
# 5 -0.002469 0.008456 -0.001838 0.000000 0.019539 0.000000
# 6 0.000000 0.000000 0.000000 -0.443357 0.000000 0.545811
#
#
# Mechanical properties :
#
#
# Convention : Reuss Voigt Hill
#
# Bulk Modulus (GPa) = 19.99445 60.47360 40.23403
# Shear Modulus (GPa) = 5.25582 24.68495 14.97038
#
# Velocity S-wave (km/s) = 1.58375 3.43228 2.67290
# Velocity P-wave (km/s) = 3.58976 6.67589 5.35975
#
# Compressibility (1/GPa) = 0.05001388
#
# Stress axis : x y z
#
# Youngs Moduli (GPa) = 100.46368 15.30120 151.32420
#
# Poissons Ratio (x) = 0.15324 0.29968
# Poissons Ratio (y) = 1.00612 0.59867
# Poissons Ratio (z) = 0.19895 0.06053
#
# Static dielectric constant tensor:
#      x y z
#    x 1.814170 0.000000 -0.052270 
#    y 0.000000 1.769220 0.000000 
#    z -0.052270 0.000000 1.936700 
# 
# From -- ./inp_files/15723.got.cif
#   From: 2010.05.17/outbox.cif.g08.bks.cpg/sg5_8_cif.got.tgz:15723.got - 2010.06.03 18:56:24.
