data_PCOD9121961
_publ_section_title
;
Structure prediction by ZEFSAII (Michael W. Deem and Ramdas Pophale) SiO2 
 PCOD9121961
Probable space group: C 2
;
_chemical_formula_sum "Si O2"
_cell_formula_units_Z 22
_cell_length_a 13.865726
_cell_length_b 5.225520
_cell_length_c 16.780091
_cell_angle_alpha 90.000000
_cell_angle_beta 131.722856
_cell_angle_gamma 90.000000
_cell_volume 907.448981
_symmetry_space_group_name_H-M "C 2"
_symmetry_group_IT_number 5
_symmetry_cell_setting 'monoclinic'
loop_
_space_group_symop_operation_xyz
x,y,z
-x,y,-z
1/2+x,1/2+y,z
1/2-x,1/2+y,-z
loop_
_atom_site_type_symbol
_atom_site_label
_atom_site_fract_x
_atom_site_fract_y
_atom_site_fract_z
Si Si1 0.334096 0.724290 0.035180
Si Si2 0.445358 0.246997 0.597817
Si Si3 0.788814 0.727039 0.358114
Si Si4 0.000000 0.950656 0.000000
Si Si5 0.467903 0.747176 0.270847
Si Si6 0.202567 0.727283 0.226716
O O1 0.396087 0.629954 0.987037
O O2 0.440545 0.738957 0.162575
O O3 0.235936 0.497380 0.006984
O O4 0.326817 0.247744 0.471395
O O5 0.574633 0.237368 0.614211
O O6 0.457508 0.502039 0.655559
O O7 0.458894 0.999582 0.660220
O O8 0.724898 0.459735 0.299896
O O9 0.710568 0.962869 0.278229
O O10 0.074106 0.778825 0.105527
O O11 0.325685 0.740719 0.234328
#
# Coordination Sequence:
#
# PCOD9121961 Si02
#       6
#     4   4   4   2   4   4
#     4  12  27  46  70 101 144 190 239 294 347 422
#     4   9  17  32  61  93 129 172 219 281 348 400
#     4   9  18  33  57  95 132 168 225 281 334 414
#     4  12  28  46  72 102 146 194 234 290 362 408
#     4  10  19  37  62  93 134 173 223 285 340 409
#     4  10  21  36  60  93 137 176 224 280 337 409
#
# _framework density 24.243787999999999
#
# number of rings (size 3 to 8) (size 9 to 14) (size 15 to 20)
#    0.000    1.818    1.818    2.182    5.091    7.273 
#    0.000    0.000    0.000    4.364    0.000    0.000 
#    0.000    0.000    0.000    0.000    0.000    0.000 
#
# Total GULP energy -61707.221165 kJ/mol
# GULP energy per Si atom -5609.747379 kJ/mol
# Density = 2.418861 g / cm^3
# Si number density = 24.243788 Si / 1000 Ang^3
#
#
#
# Elastic Constant Matrix: (Units=GPa)
#
#
# Indices 1 2 3 4 5 6 
#
# 1 89.9330 -4.5961 6.3470 0.0000 13.0099 0.0000
# 2 -4.5961 153.6511 62.0359 0.0000 -4.2594 0.0000
# 3 6.3470 62.0359 169.3959 0.0000 -8.9655 0.0000
# 4 0.0000 0.0000 0.0000 33.6944 0.0000 6.0041
# 5 13.0099 -4.2594 -8.9655 0.0000 30.1584 0.0000
# 6 0.0000 0.0000 0.0000 6.0041 0.0000 -2.4573
#
#
#
# Elastic Compliance Matrix: (Units=1/GPa)
#
#
# Indices 1 2 3 4 5 6 
#
# 1 0.011994 0.000594 -0.000951 0.000000 -0.005373 0.000000
# 2 0.000594 0.007669 -0.002831 0.000000 -0.000015 0.000000
# 3 -0.000951 -0.002831 0.007088 0.000000 0.002118 0.000000
# 4 0.000000 0.000000 0.000000 0.020676 0.000000 0.050520
# 5 -0.005373 -0.000015 0.002118 0.000000 0.036104 0.000000
# 6 0.000000 0.000000 0.000000 0.050520 0.000000 -0.283510
#
#
# Mechanical properties :
#
#
# Convention : Reuss Voigt Hill
#
# Bulk Modulus (GPa) = 49.08406 60.06151 54.57279
# Shear Modulus (GPa) = -26.76507 35.55865 4.39679
#
# Velocity S-wave (km/s) = -3.32625 3.83392 1.34815
# Velocity P-wave (km/s) = 2.35331 6.66531 4.99822
#
# Compressibility (1/GPa) = 0.02037321
#
# Stress axis : x y z
#
# Youngs Moduli (GPa) = 83.37401 130.39839 141.08361
#
# Poissons Ratio (x) = -0.07744 0.13421
# Poissons Ratio (y) = -0.04952 0.39948
# Poissons Ratio (z) = 0.07931 0.36922
#
# Static dielectric constant tensor:
#      x y z
#    x 1.990650 0.000000 0.024380 
#    y 0.000000 1.848350 0.000000 
#    z 0.024380 0.000000 1.855100 
# 
# From -- ./inp_files/41156.got.cif
#   From: 2010.05.17/outbox.cif.g08.bks.cpg/sg5_21_cif.got.tgz:41156.got - 2010.06.03 18:56:24.
