data_PCOD9121953
_publ_section_title
;
Structure prediction by ZEFSAII (Michael W. Deem and Ramdas Pophale) SiO2 
 PCOD9121953
Probable space group: C 2
;
_chemical_formula_sum "Si O2"
_cell_formula_units_Z 30
_cell_length_a 10.870212
_cell_length_b 8.569631
_cell_length_c 18.638765
_cell_angle_alpha 90.000000
_cell_angle_beta 55.162037
_cell_angle_gamma 90.000000
_cell_volume 1425.079891
_symmetry_space_group_name_H-M "C 2"
_symmetry_group_IT_number 5
_symmetry_cell_setting 'monoclinic'
loop_
_space_group_symop_operation_xyz
x,y,z
-x,y,-z
1/2+x,1/2+y,z
1/2-x,1/2+y,-z
loop_
_atom_site_type_symbol
_atom_site_label
_atom_site_fract_x
_atom_site_fract_y
_atom_site_fract_z
Si Si1 0.719356 0.038840 0.842564
Si Si2 0.821433 0.882438 0.666678
Si Si3 0.500000 0.813648 0.000000
Si Si4 0.147248 0.092012 0.064034
Si Si5 0.545215 0.242195 0.068624
Si Si6 0.872295 0.230330 0.603604
Si Si7 0.151420 0.881190 0.576358
Si Si8 0.875486 0.248594 0.383990
O O1 0.834783 0.125862 0.857076
O O2 0.599286 0.159162 0.848920
O O3 0.788826 0.932093 0.758804
O O4 0.629078 0.926044 0.926990
O O5 0.690950 0.784699 0.672030
O O6 0.988609 0.811571 0.610877
O O7 0.834835 0.048197 0.621721
O O8 0.456428 0.705801 0.947441
O O9 0.090079 0.914962 0.077178
O O10 0.310617 0.129288 0.974583
O O11 0.500000 0.254828 0.000000
O O12 0.725510 0.315728 0.624117
O O13 0.000000 0.250961 0.500000
O O14 0.953385 0.287083 0.649851
O O15 0.263866 0.840050 0.474669
O O16 0.136560 0.066060 0.592337
#
# Coordination Sequence:
#
# PCOD9121953 Si02
#       8
#     4   4   2   4   4   4   4   4
#     4  11  24  40  58  87 123 155 199 255 303 367
#     4  11  23  38  59  87 128 162 194 249 311 355
#     4  12  22  38  64  86 116 156 208 252 304 364
#     4  11  20  38  65  85 113 148 203 253 301 364
#     4  10  19  37  62  86 108 148 195 248 303 355
#     4   9  20  39  60  86 120 161 205 250 292 353
#     4  10  21  38  63  92 121 160 208 249 293 357
#     4  10  20  37  63  88 121 159 206 244 299 354
#
# _framework density 21.051452000000001
#
# number of rings (size 3 to 8) (size 9 to 14) (size 15 to 20)
#    0.000    1.600    4.000    2.800    0.000    7.467 
#    0.000    0.000    2.933    0.000    0.000    0.000 
#    0.000    0.000    0.000    0.000    0.000    0.000 
#
# Total GULP energy -83691.932514 kJ/mol
# GULP energy per Si atom -5579.462168 kJ/mol
# Density = 2.100354 g / cm^3
# Si number density = 21.051452 Si / 1000 Ang^3
#
#
#
# Elastic Constant Matrix: (Units=GPa)
#
#
# Indices 1 2 3 4 5 6 
#
# 1 124.5708 37.2583 9.4258 0.0000 25.1211 0.0000
# 2 37.2583 72.6709 0.6177 0.0000 4.1041 0.0000
# 3 9.4258 0.6177 22.9140 0.0000 9.6667 0.0000
# 4 0.0000 0.0000 0.0000 11.7098 0.0000 7.1542
# 5 25.1211 4.1041 9.6667 0.0000 20.4533 0.0000
# 6 0.0000 0.0000 0.0000 7.1542 0.0000 40.8060
#
#
#
# Elastic Compliance Matrix: (Units=1/GPa)
#
#
# Indices 1 2 3 4 5 6 
#
# 1 0.012645 -0.005647 0.001280 0.000000 -0.015003 0.000000
# 2 -0.005647 0.016458 0.000433 0.000000 0.003428 0.000000
# 3 0.001280 0.000433 0.054712 0.000000 -0.027517 0.000000
# 4 0.000000 0.000000 0.000000 0.095643 0.000000 -0.016768
# 5 -0.015003 0.003428 -0.027517 0.000000 0.079635 0.000000
# 6 0.000000 0.000000 0.000000 -0.016768 0.000000 0.027446
#
#
# Mechanical properties :
#
#
# Convention : Reuss Voigt Hill
#
# Bulk Modulus (GPa) = 13.16710 34.97327 24.07018
# Shear Modulus (GPa) = 15.63848 26.11740 20.87794
#
# Velocity S-wave (km/s) = 2.72852 3.52610 3.15264
# Velocity P-wave (km/s) = 4.02427 5.76430 4.97101
#
# Compressibility (1/GPa) = 0.07594689
#
# Stress axis : x y z
#
# Youngs Moduli (GPa) = 79.08199 60.75900 18.27764
#
# Poissons Ratio (x) = 0.34309 -0.02339
# Poissons Ratio (y) = 0.44656 -0.00791
# Poissons Ratio (z) = -0.10120 -0.02630
#
# Static dielectric constant tensor:
#      x y z
#    x 1.852850 0.000000 0.005700 
#    y 0.000000 1.736530 0.000000 
#    z 0.005700 0.000000 1.791130 
# 
# From -- ./inp_files/60299.got.cif
#   From: 2010.05.17/outbox.cif.g08.bks.cpg/sg5_31_cif.got.tgz:60299.got - 2010.06.03 18:56:24.
