data_PCOD9121262
_publ_section_title
;
Structure prediction by ZEFSAII (Michael W. Deem and Ramdas Pophale) SiO2 
 PCOD9121262
Probable space group: C 2
;
_chemical_formula_sum "Si O2"
_cell_formula_units_Z 28
_cell_length_a 18.689932
_cell_length_b 6.279944
_cell_length_c 24.174787
_cell_angle_alpha 90.000000
_cell_angle_beta 150.742464
_cell_angle_gamma 90.000000
_cell_volume 1386.757343
_symmetry_space_group_name_H-M "C 2"
_symmetry_group_IT_number 5
_symmetry_cell_setting 'monoclinic'
loop_
_space_group_symop_operation_xyz
x,y,z
-x,y,-z
1/2+x,1/2+y,z
1/2-x,1/2+y,-z
loop_
_atom_site_type_symbol
_atom_site_label
_atom_site_fract_x
_atom_site_fract_y
_atom_site_fract_z
Si Si1 0.212660 0.942510 0.753981
Si Si2 0.613010 0.226051 0.208253
Si Si3 0.136617 0.052802 0.950673
Si Si4 0.353292 0.598224 0.927524
Si Si5 0.470943 0.910463 0.194496
Si Si6 0.417826 0.827291 0.279756
Si Si7 0.382773 0.046169 0.372900
O O1 0.285942 0.780913 0.845184
O O2 0.150544 0.792722 0.663244
O O3 0.333626 0.094056 0.808569
O O4 0.095864 0.084758 0.708955
O O5 0.458246 0.344959 0.099628
O O6 0.738553 0.411350 0.294217
O O7 0.589159 0.056733 0.242287
O O8 0.057990 0.171349 0.847462
O O9 0.117210 0.193739 0.992462
O O10 0.310315 0.009371 0.068844
O O11 0.240514 0.404474 0.849455
O O12 0.500000 0.519059 0.000000
O O13 0.506719 0.888627 0.284214
O O14 0.440800 0.953545 0.352895
O O15 0.500000 0.023311 0.500000
#
# Coordination Sequence:
#
# PCOD9121262 Si02
#       7
#     4   4   4   4   4   4   4
#     4  10  21  37  59  87 121 159 209 269 306 362
#     4  11  22  40  60  90 129 163 208 256 308 379
#     4  11  22  34  55  88 124 174 205 232 292 375
#     4  10  19  31  50  83 123 158 203 240 294 354
#     4  11  22  36  59  90 131 175 201 239 306 366
#     4   9  22  37  58  90 119 156 202 260 310 368
#     4  10  22  43  69  91 113 154 216 271 326 374
#
# _framework density 20.190985999999999
#
# number of rings (size 3 to 8) (size 9 to 14) (size 15 to 20)
#    0.000    1.714    1.429    4.286    2.000    6.286 
#    0.000    1.429    6.286    0.000    0.000    0.000 
#    0.000    0.000    0.000    0.000    0.000    0.000 
#
# Total GULP energy -77938.419664 kJ/mol
# GULP energy per Si atom -5567.029976 kJ/mol
# Density = 2.014503 g / cm^3
# Si number density = 20.190986 Si / 1000 Ang^3
#
#
#
# Elastic Constant Matrix: (Units=GPa)
#
#
# Indices 1 2 3 4 5 6 
#
# 1 94.9091 23.4917 20.5186 -0.0002 -23.5834 0.0003
# 2 23.4917 69.0933 18.7672 0.0001 -0.0073 0.0017
# 3 20.5186 18.7672 59.7188 0.0001 -22.5091 0.0001
# 4 -0.0002 0.0001 0.0001 19.7708 0.0000 12.4790
# 5 -23.5834 -0.0073 -22.5091 0.0000 24.7939 -0.0001
# 6 0.0003 0.0017 0.0001 12.4790 -0.0001 41.5116
#
#
#
# Elastic Compliance Matrix: (Units=1/GPa)
#
#
# Indices 1 2 3 4 5 6 
#
# 1 0.015886 -0.006317 0.003377 0.000000 0.018174 0.000000
# 2 -0.006317 0.019141 -0.009285 0.000000 -0.014431 -0.000001
# 3 0.003377 -0.009285 0.029966 0.000000 0.030414 0.000000
# 4 0.000000 0.000000 0.000000 0.062424 0.000000 -0.018766
# 5 0.018174 -0.014431 0.030414 0.000000 0.085227 0.000001
# 6 0.000000 -0.000001 0.000000 -0.018766 0.000001 0.029731
#
#
# Mechanical properties :
#
#
# Convention : Reuss Voigt Hill
#
# Bulk Modulus (GPa) = 24.66377 38.80848 31.73613
# Shear Modulus (GPa) = 17.83558 27.94483 22.89020
#
# Velocity S-wave (km/s) = 2.97533 3.72428 3.37068
# Velocity P-wave (km/s) = 4.90359 6.14460 5.55884
#
# Compressibility (1/GPa) = 0.04054530
#
# Stress axis : x y z
#
# Youngs Moduli (GPa) = 62.94948 52.24342 33.37081
#
# Poissons Ratio (x) = 0.33000 -0.11270
# Poissons Ratio (y) = 0.39762 0.30983
# Poissons Ratio (z) = -0.21259 0.48505
#
# Static dielectric constant tensor:
#      x y z
#    x 1.706830 0.000000 -0.031340 
#    y 0.000000 1.793370 0.000000 
#    z -0.031340 0.000000 1.698310 
# 
# From -- ./inp_files/69347.got.cif
#   From: 2010.05.17/outbox.cif.g08.bks.cpg/sg5_35_cif.got.tgz:69347.got - 2010.06.03 18:56:24.
