data_PCOD9121593
_publ_section_title
;
Structure prediction by ZEFSAII (Michael W. Deem and Ramdas Pophale) SiO2 
 PCOD9121593
Probable space group: C 2
;
_chemical_formula_sum "Si O2"
_cell_formula_units_Z 32
_cell_length_a 21.975863
_cell_length_b 7.539595
_cell_length_c 27.566167
_cell_angle_alpha 90.000000
_cell_angle_beta 161.475915
_cell_angle_gamma 90.000000
_cell_volume 1451.082224
_symmetry_space_group_name_H-M "C 2"
_symmetry_group_IT_number 5
_symmetry_cell_setting 'monoclinic'
loop_
_space_group_symop_operation_xyz
x,y,z
-x,y,-z
1/2+x,1/2+y,z
1/2-x,1/2+y,-z
loop_
_atom_site_type_symbol
_atom_site_label
_atom_site_fract_x
_atom_site_fract_y
_atom_site_fract_z
Si Si1 0.122537 0.329610 0.208470
Si Si2 0.890327 0.597896 0.584718
Si Si3 0.354789 0.993897 0.925352
Si Si4 0.380684 0.625928 0.454086
Si Si5 0.652866 0.846917 0.920509
Si Si6 0.027508 0.725869 0.246739
Si Si7 0.889457 0.794652 0.329690
Si Si8 0.967042 0.218252 0.271722
O O1 0.242926 0.489216 0.322109
O O2 0.279961 0.226091 0.295118
O O3 0.995532 0.248113 0.155199
O O4 0.967371 0.418553 0.055935
O O5 0.954668 0.710156 0.681462
O O6 0.661535 0.610079 0.410275
O O7 0.964412 0.674337 0.589602
O O8 0.968835 0.403218 0.655638
O O9 0.176866 0.111521 0.804269
O O10 0.277169 0.832034 0.834811
O O11 0.500000 0.096944 0.000000
O O12 0.500000 0.715892 0.500000
O O13 0.238874 0.738020 0.381756
O O14 0.514014 0.485892 0.584557
O O15 0.645720 0.755019 0.863154
O O16 0.562215 0.039042 0.840243
O O17 0.862184 0.856906 0.102916
#
# Coordination Sequence:
#
# PCOD9121593 Si02
#       8
#     4   4   4   4   4   4   4   4
#     4   9  18  33  57  80 102 136 179 220 261 313
#     4  11  22  35  54  81 113 145 179 221 267 322
#     4  10  20  36  57  80 108 142 179 221 269 321
#     4   9  17  32  55  79 102 132 175 222 260 308
#     4  10  20  35  54  80 107 137 176 219 266 316
#     4  10  20  34  53  79 107 136 175 218 265 315
#     4  10  19  35  57  80 105 138 181 222 265 317
#     4  11  22  36  55  81 112 144 180 221 269 320
#
# _framework density 22.052505
#
# number of rings (size 3 to 8) (size 9 to 14) (size 15 to 20)
#    0.000    2.000    0.000    6.000    0.000    1.000 
#    0.000    4.375    0.000    0.000    0.000   24.500 
#    0.000    0.000    0.000    0.000    0.000    0.000 
#
# Total GULP energy -89291.027127 kJ/mol
# GULP energy per Si atom -5580.689195 kJ/mol
# Density = 2.200231 g / cm^3
# Si number density = 22.052505 Si / 1000 Ang^3
#
#
#
# Elastic Constant Matrix: (Units=GPa)
#
#
# Indices 1 2 3 4 5 6 
#
# 1 118.8207 20.7744 3.4521 -0.0409 32.1038 -0.0494
# 2 20.7744 34.9360 -5.2806 0.0040 15.8636 -0.0118
# 3 3.4521 -5.2806 79.5576 -0.0904 1.3965 -0.0936
# 4 -0.0409 0.0040 -0.0904 35.2442 -0.0114 10.6706
# 5 32.1038 15.8636 1.3965 -0.0114 57.0942 -0.0137
# 6 -0.0494 -0.0118 -0.0936 10.6706 -0.0137 21.7853
#
#
#
# Elastic Compliance Matrix: (Units=1/GPa)
#
#
# Indices 1 2 3 4 5 6 
#
# 1 0.010431 -0.004171 -0.000647 0.000005 -0.004691 0.000013
# 2 -0.004171 0.034863 0.002625 -0.000011 -0.007406 0.000021
# 3 -0.000647 0.002625 0.012784 0.000018 -0.000678 0.000046
# 4 0.000005 -0.000011 0.000018 0.033314 0.000002 -0.016317
# 5 -0.004691 -0.007406 -0.000678 0.000002 0.022227 -0.000005
# 6 0.000013 0.000021 0.000046 -0.016317 -0.000005 0.053895
#
#
# Mechanical properties :
#
#
# Convention : Reuss Voigt Hill
#
# Bulk Modulus (GPa) = 18.62438 30.13401 24.37920
# Shear Modulus (GPa) = 26.34380 37.11597 31.72988
#
# Velocity S-wave (km/s) = 3.46004 4.10698 3.79731
# Velocity P-wave (km/s) = 4.94230 6.01532 5.50501
#
# Compressibility (1/GPa) = 0.05369305
#
# Stress axis : x y z
#
# Youngs Moduli (GPa) = 95.86371 28.68330 78.22403
#
# Poissons Ratio (x) = 0.11963 0.05062
# Poissons Ratio (y) = 0.39983 -0.20534
# Poissons Ratio (z) = 0.06203 -0.07529
#
# Static dielectric constant tensor:
#      x y z
#    x 1.850180 0.000010 0.075440 
#    y 0.000010 1.814880 -0.000020 
#    z 0.075440 -0.000020 1.722900 
# 
# From -- ./inp_files/71096.got.cif
#   From: 2010.05.17/outbox.cif.g08.bks.cpg/sg5_36_cif.got.tgz:71096.got - 2010.06.03 18:56:24.
