data_PCOD9121398
_publ_section_title
;
Structure prediction by ZEFSAII (Michael W. Deem and Ramdas Pophale) SiO2 
 PCOD9121398
Probable space group: C 2
;
_chemical_formula_sum "Si O2"
_cell_formula_units_Z 30
_cell_length_a 18.557469
_cell_length_b 7.348646
_cell_length_c 21.520150
_cell_angle_alpha 90.000000
_cell_angle_beta 23.172692
_cell_angle_gamma 90.000000
_cell_volume 1154.835927
_symmetry_space_group_name_H-M "C 2"
_symmetry_group_IT_number 5
_symmetry_cell_setting 'monoclinic'
loop_
_space_group_symop_operation_xyz
x,y,z
-x,y,-z
1/2+x,1/2+y,z
1/2-x,1/2+y,-z
loop_
_atom_site_type_symbol
_atom_site_label
_atom_site_fract_x
_atom_site_fract_y
_atom_site_fract_z
Si Si1 0.836417 0.280850 0.830552
Si Si2 0.574998 0.913555 0.749433
Si Si3 0.500000 0.180068 0.500000
Si Si4 0.948119 0.925374 0.321451
Si Si5 0.806298 0.817814 0.180520
Si Si6 0.381120 0.123994 0.463391
Si Si7 0.365968 0.887439 0.161549
Si Si8 0.942164 0.798686 0.196563
O O1 0.828795 0.369010 0.768380
O O2 0.917550 0.393715 0.823409
O O3 0.950525 0.097553 0.731096
O O4 0.627513 0.238978 0.014867
O O5 0.731357 0.777973 0.602961
O O6 0.522338 0.866643 0.862201
O O7 0.644032 0.120813 0.702574
O O8 0.451614 0.074009 0.475489
O O9 0.671216 0.299125 0.336318
O O10 0.731283 0.969953 0.484616
O O11 0.993228 0.746051 0.325113
O O12 0.003311 0.920365 0.205305
O O13 0.816238 0.597128 0.182057
O O14 0.811577 0.882838 0.247530
O O15 0.000000 0.881396 0.000000
O O16 0.500000 0.819872 0.000000
#
# Coordination Sequence:
#
# PCOD9121398 Si02
#       8
#     4   4   2   4   4   4   4   4
#     4  10  19  33  57  87 113 149 196 245 300 355
#     4   9  19  34  54  82 117 148 196 250 293 351
#     4  10  20  36  60  84 118 156 198 250 302 356
#     4  11  22  38  60  82 117 154 195 249 298 356
#     4   8  16  31  53  80 115 152 195 243 293 356
#     4  10  22  39  57  84 115 155 198 244 299 356
#     4   9  17  32  56  86 117 156 200 244 294 361
#     4  10  19  34  56  83 115 155 194 241 298 357
#
# _framework density 25.977713999999999
#
# number of rings (size 3 to 8) (size 9 to 14) (size 15 to 20)
#    0.000    2.400    0.000    3.200    0.000    1.067 
#    0.000    4.000    0.000   26.400    0.000    2.800 
#    0.000    0.000    0.000    0.000    0.000    0.000 
#
# Total GULP energy -83735.372465 kJ/mol
# GULP energy per Si atom -5582.358164 kJ/mol
# Density = 2.591859 g / cm^3
# Si number density = 25.977714 Si / 1000 Ang^3
#
#
#
# Elastic Constant Matrix: (Units=GPa)
#
#
# Indices 1 2 3 4 5 6 
#
# 1 239.8042 11.9894 42.6350 -0.0003 28.4401 0.0003
# 2 11.9894 40.1843 27.9379 -0.0015 23.1905 0.0000
# 3 42.6350 27.9379 112.6202 -0.0022 26.8064 0.0005
# 4 -0.0003 -0.0015 -0.0022 28.1438 0.0014 17.3358
# 5 28.4401 23.1905 26.8064 0.0014 32.1976 0.0003
# 6 0.0003 0.0000 0.0005 17.3358 0.0003 17.2557
#
#
#
# Elastic Compliance Matrix: (Units=1/GPa)
#
#
# Indices 1 2 3 4 5 6 
#
# 1 0.004854 0.002208 -0.001230 0.000001 -0.004854 -0.000001
# 2 0.002208 0.045142 -0.004778 0.000008 -0.030486 -0.000007
# 3 -0.001230 -0.004778 0.011789 0.000003 -0.005287 -0.000003
# 4 0.000001 0.000008 0.000003 0.093217 -0.000012 -0.093650
# 5 -0.004854 -0.030486 -0.005287 -0.000012 0.061705 0.000011
# 6 -0.000001 -0.000007 -0.000003 -0.093650 0.000011 0.152036
#
#
# Mechanical properties :
#
#
# Convention : Reuss Voigt Hill
#
# Bulk Modulus (GPa) = 18.45517 61.97038 40.21277
# Shear Modulus (GPa) = 12.67731 36.18919 24.43325
#
# Velocity S-wave (km/s) = 2.21148 3.73646 3.07016
# Velocity P-wave (km/s) = 3.69331 6.52087 5.29917
#
# Compressibility (1/GPa) = 0.05418536
#
# Stress axis : x y z
#
# Youngs Moduli (GPa) = 206.01508 22.15223 84.82641
#
# Poissons Ratio (x) = -0.04891 0.10434
# Poissons Ratio (y) = -0.45490 0.40529
# Poissons Ratio (z) = 0.25340 0.10584
#
# Static dielectric constant tensor:
#      x y z
#    x 2.092830 0.000000 -0.035050 
#    y 0.000000 2.057520 0.000000 
#    z -0.035050 0.000000 2.145660 
# 
# From -- ./inp_files/66602.got.cif
#   From: 2010.05.17/outbox.cif.g08.bks.cpg/sg5_34_cif.got.tgz:66602.got - 2010.06.03 18:56:24.
