data_PCOD9121698
_publ_section_title
;
Structure prediction by ZEFSAII (Michael W. Deem and Ramdas Pophale) SiO2 
 PCOD9121698
Probable space group: C 2
;
_chemical_formula_sum "Si O2"
_cell_formula_units_Z 32
_cell_length_a 9.646418
_cell_length_b 19.151004
_cell_length_c 16.745486
_cell_angle_alpha 90.000000
_cell_angle_beta 33.342734
_cell_angle_gamma 90.000000
_cell_volume 1700.350654
_symmetry_space_group_name_H-M "C 2"
_symmetry_group_IT_number 5
_symmetry_cell_setting 'monoclinic'
loop_
_space_group_symop_operation_xyz
x,y,z
-x,y,-z
1/2+x,1/2+y,z
1/2-x,1/2+y,-z
loop_
_atom_site_type_symbol
_atom_site_label
_atom_site_fract_x
_atom_site_fract_y
_atom_site_fract_z
Si Si1 0.737027 0.173440 0.445590
Si Si2 0.572766 0.841144 0.103529
Si Si3 0.671654 0.811890 0.494260
Si Si4 0.151907 0.817495 0.171468
Si Si5 0.222196 0.654489 0.097531
Si Si6 0.215010 0.192377 0.107097
Si Si7 0.223130 0.575481 0.598526
Si Si8 0.292272 0.910297 0.378911
O O1 0.500000 0.181913 0.500000
O O2 0.759524 0.241232 0.491718
O O3 0.696255 0.108878 0.524153
O O4 0.000173 0.166620 0.271024
O O5 0.367938 0.823917 0.134077
O O6 0.629603 0.770328 0.123601
O O7 0.461448 0.895218 0.219526
O O8 0.805504 0.857686 0.932604
O O9 0.500000 0.795754 0.500000
O O10 0.598827 0.865764 0.599225
O O11 0.912629 0.843406 0.334122
O O12 0.139240 0.735144 0.155061
O O13 0.003031 0.606472 0.238791
O O14 0.500000 0.643825 0.000000
O O15 0.265281 0.647357 0.982638
O O16 0.500000 0.196160 0.000000
O O17 0.500000 0.595130 0.500000
O O18 0.210436 0.492052 0.601817
O O19 0.000000 0.888110 0.500000
#
# Coordination Sequence:
#
# PCOD9121698 Si02
#       8
#     4   4   4   4   4   4   4   4
#     4  12  23  40  67  94 122 168 213 258 317 379
#     4  10  19  36  61  91 123 154 203 246 318 373
#     4  12  24  37  64  96 127 158 209 270 309 363
#     4  10  19  35  64  96 118 154 203 261 311 372
#     4  11  20  38  61  90 122 158 200 253 314 374
#     4  11  22  33  59  96 126 147 198 268 311 356
#     4  11  25  42  63  89 127 170 211 257 314 372
#     4  11  23  42  63  87 127 172 212 254 311 384
#
# _framework density 18.819648000000001
#
# number of rings (size 3 to 8) (size 9 to 14) (size 15 to 20)
#    0.000    1.000    6.250    3.000    3.500    0.500 
#    0.000    3.125    2.750    0.000    0.000    0.000 
#    0.000    0.000    0.000    0.000    0.000    0.000 
#
# Total GULP energy -89243.645119 kJ/mol
# GULP energy per Si atom -5577.727820 kJ/mol
# Density = 1.877681 g / cm^3
# Si number density = 18.819648 Si / 1000 Ang^3
#
#
#
# Elastic Constant Matrix: (Units=GPa)
#
#
# Indices 1 2 3 4 5 6 
#
# 1 125.7413 42.9661 42.9781 0.0946 9.9505 0.0366
# 2 42.9661 67.9894 30.2881 0.1292 15.4150 0.0548
# 3 42.9781 30.2881 141.6316 0.3316 22.7398 0.1268
# 4 0.0946 0.1292 0.3316 74.9343 -0.0918 24.6352
# 5 9.9505 15.4150 22.7398 -0.0918 33.7985 -0.0360
# 6 0.0366 0.0548 0.1268 24.6352 -0.0360 31.2845
#
#
#
# Elastic Compliance Matrix: (Units=1/GPa)
#
#
# Indices 1 2 3 4 5 6 
#
# 1 0.010651 -0.006025 -0.002109 0.000007 0.001031 0.000003
# 2 -0.006025 0.020704 -0.001533 -0.000026 -0.006637 -0.000010
# 3 -0.002109 -0.001533 0.008763 -0.000037 -0.004576 -0.000007
# 4 0.000007 -0.000026 -0.000037 0.018007 0.000069 -0.014179
# 5 0.001031 -0.006637 -0.004576 0.000069 0.035389 0.000016
# 6 0.000003 -0.000010 -0.000007 -0.014179 0.000016 0.043130
#
#
# Mechanical properties :
#
#
# Convention : Reuss Voigt Hill
#
# Bulk Modulus (GPa) = 48.11746 63.09187 55.60467
# Shear Modulus (GPa) = 30.69219 42.61212 36.65215
#
# Velocity S-wave (km/s) = 4.04277 4.76356 4.41789
# Velocity P-wave (km/s) = 6.88587 7.99078 7.45881
#
# Compressibility (1/GPa) = 0.02078248
#
# Stress axis : x y z
#
# Youngs Moduli (GPa) = 93.88855 48.30021 114.11241
#
# Poissons Ratio (x) = 0.29102 0.24068
# Poissons Ratio (y) = 0.56569 0.17499
# Poissons Ratio (z) = 0.19802 0.07407
#
# Static dielectric constant tensor:
#      x y z
#    x 1.590270 0.000010 0.060050 
#    y 0.000010 1.622510 0.000000 
#    z 0.060050 0.000000 1.620750 
# 
# From -- ./inp_files/51547.got.cif
#   From: 2010.05.17/outbox.cif.g08.bks.cpg/sg5_26_cif.got.tgz:51547.got - 2010.06.03 18:56:24.
