data_PCOD9121499
_publ_section_title
;
Structure prediction by ZEFSAII (Michael W. Deem and Ramdas Pophale) SiO2 
 PCOD9121499
Probable space group: C 2
;
_chemical_formula_sum "Si O2"
_cell_formula_units_Z 32
_cell_length_a 28.147497
_cell_length_b 8.189005
_cell_length_c 22.123117
_cell_angle_alpha 90.000000
_cell_angle_beta 18.488220
_cell_angle_gamma 90.000000
_cell_volume 1617.062202
_symmetry_space_group_name_H-M "C 2"
_symmetry_group_IT_number 5
_symmetry_cell_setting 'monoclinic'
loop_
_space_group_symop_operation_xyz
x,y,z
-x,y,-z
1/2+x,1/2+y,z
1/2-x,1/2+y,-z
loop_
_atom_site_type_symbol
_atom_site_label
_atom_site_fract_x
_atom_site_fract_y
_atom_site_fract_z
Si Si1 0.234267 0.679120 0.973766
Si Si2 0.780430 0.942073 0.497709
Si Si3 0.925988 0.978350 0.652097
Si Si4 0.153670 0.708412 0.423913
Si Si5 0.297605 0.712429 0.130066
Si Si6 0.094884 0.580797 0.619621
Si Si7 0.427587 0.910184 0.145809
Si Si8 0.385002 0.540780 0.906286
O O1 0.355194 0.616021 0.779588
O O2 0.307682 0.658193 0.950914
O O3 0.080558 0.574839 0.152759
O O4 0.178460 0.862508 0.032554
O O5 0.834451 0.756832 0.445926
O O6 0.662853 0.998701 0.691446
O O7 0.695214 0.955966 0.536647
O O8 0.934970 0.041847 0.314386
O O9 0.796917 0.856493 0.786081
O O10 0.000000 0.038953 0.500000
O O11 0.039084 0.859516 0.552536
O O12 0.195937 0.641454 0.307021
O O13 0.102555 0.583905 0.537331
O O14 0.305425 0.789958 0.264584
O O15 0.445784 0.799123 0.976533
O O16 0.338706 0.584610 0.029673
O O17 0.500000 0.001012 0.000000
#
# Coordination Sequence:
#
# PCOD9121499 Si02
#       8
#     4   4   4   4   4   4   4   4
#     4  11  22  36  54  80 113 146 182 223 271 326
#     4  10  20  34  54  80 109 138 177 223 271 319
#     4  10  20  37  58  79 107 142 181 227 275 324
#     4   9  18  34  56  79 105 136 178 224 268 320
#     4  10  19  34  58  81 103 140 185 226 271 323
#     4  10  20  35  55  80 108 140 178 222 269 323
#     4   9  17  31  54  80 103 134 178 223 266 319
#     4  11  22  35  55  81 112 146 183 226 271 324
#
# _framework density 19.788972999999999
#
# number of rings (size 3 to 8) (size 9 to 14) (size 15 to 20)
#    0.000    2.000    0.000    6.000    0.000    1.000 
#    0.000    3.125    0.000    7.500    0.000    7.875 
#    0.000    0.000    0.000    0.000    0.000    0.000 
#
# Total GULP energy -89264.909606 kJ/mol
# GULP energy per Si atom -5579.056850 kJ/mol
# Density = 1.974393 g / cm^3
# Si number density = 19.788973 Si / 1000 Ang^3
#
#
#
# Elastic Constant Matrix: (Units=GPa)
#
#
# Indices 1 2 3 4 5 6 
#
# 1 114.8185 31.0003 53.2736 0.0000 14.4865 0.0000
# 2 31.0003 28.6311 30.2008 0.0001 6.8712 0.0000
# 3 53.2736 30.2008 123.8509 0.0000 18.5466 0.0001
# 4 0.0000 0.0001 0.0000 30.0423 0.0000 3.5919
# 5 14.4865 6.8712 18.5466 0.0000 49.7160 0.0000
# 6 0.0000 0.0000 0.0001 3.5919 0.0000 30.6342
#
#
#
# Elastic Compliance Matrix: (Units=1/GPa)
#
#
# Indices 1 2 3 4 5 6 
#
# 1 0.013121 -0.010971 -0.002778 0.000000 -0.001270 0.000000
# 2 -0.010971 0.056457 -0.008853 0.000000 -0.001304 0.000000
# 3 -0.002778 -0.008853 0.011782 0.000000 -0.002362 0.000000
# 4 0.000000 0.000000 0.000000 0.033760 0.000000 -0.003958
# 5 -0.001270 -0.001304 -0.002362 0.000000 0.021546 0.000000
# 6 0.000000 0.000000 0.000000 -0.003958 0.000000 0.033107
#
#
# Mechanical properties :
#
#
# Convention : Reuss Voigt Hill
#
# Bulk Modulus (GPa) = 27.65837 55.13889 41.39863
# Shear Modulus (GPa) = 22.02372 32.26689 27.14531
#
# Velocity S-wave (km/s) = 3.33968 4.04239 3.70772
# Velocity P-wave (km/s) = 5.37385 7.05066 6.26857
#
# Compressibility (1/GPa) = 0.03615542
#
# Stress axis : x y z
#
# Youngs Moduli (GPa) = 76.21413 17.71268 84.87740
#
# Poissons Ratio (x) = 0.19433 0.23582
# Poissons Ratio (y) = 0.83615 0.75138
# Poissons Ratio (z) = 0.21175 0.15680
#
# Static dielectric constant tensor:
#      x y z
#    x 1.729530 0.000000 0.048060 
#    y 0.000000 1.673240 0.000000 
#    z 0.048060 0.000000 1.736010 
# 
# From -- ./inp_files/67557.got.cif
#   From: 2010.05.17/outbox.cif.g08.bks.cpg/sg5_34_cif.got.tgz:67557.got - 2010.06.03 18:56:24.
