data_PCOD9121874
_publ_section_title
;
Structure prediction by ZEFSAII (Michael W. Deem and Ramdas Pophale) SiO2 
 PCOD9121874
Probable space group: C 2
;
_chemical_formula_sum "Si O2"
_cell_formula_units_Z 28
_cell_length_a 16.100030
_cell_length_b 9.816999
_cell_length_c 16.683299
_cell_angle_alpha 90.000000
_cell_angle_beta 147.583115
_cell_angle_gamma 90.000000
_cell_volume 1413.557245
_symmetry_space_group_name_H-M "C 2"
_symmetry_group_IT_number 5
_symmetry_cell_setting 'monoclinic'
loop_
_space_group_symop_operation_xyz
x,y,z
-x,y,-z
1/2+x,1/2+y,z
1/2-x,1/2+y,-z
loop_
_atom_site_type_symbol
_atom_site_label
_atom_site_fract_x
_atom_site_fract_y
_atom_site_fract_z
Si Si1 0.840139 0.244380 0.324101
Si Si2 0.844641 0.573724 0.321375
Si Si3 0.760212 0.952439 0.986217
Si Si4 0.889261 0.709692 0.185651
Si Si5 0.711115 0.271719 0.379151
Si Si6 0.573084 0.545589 0.212038
Si Si7 0.963372 0.233682 0.266933
O O1 0.838153 0.408487 0.307680
O O2 0.715264 0.213327 0.291348
O O3 0.850413 0.176584 0.245340
O O4 0.000000 0.212707 0.500000
O O5 0.855904 0.652612 0.246697
O O6 0.685042 0.610552 0.237472
O O7 0.000000 0.602616 0.500000
O O8 0.822067 0.859285 0.109830
O O9 0.913543 0.971351 0.054747
O O10 0.621928 0.867284 0.834559
O O11 0.691031 0.102848 0.940851
O O12 0.071727 0.711464 0.316875
O O13 0.676850 0.430914 0.338824
O O14 0.875134 0.259696 0.555798
O O15 0.510987 0.644371 0.230051
#
# Coordination Sequence:
#
# PCOD9121874 Si02
#       7
#     4   4   4   4   4   4   4
#     4   8  16  32  56  90 113 150 203 258 293 349
#     4  10  19  36  66  93 118 155 218 262 293 352
#     4  11  23  39  59  89 127 166 195 252 313 370
#     4  11  22  41  63  91 128 158 208 255 312 372
#     4   9  21  36  63  90 116 157 213 261 303 356
#     4  10  22  38  59  92 119 163 207 247 318 364
#     4  11  19  36  63  84 125 155 207 256 306 355
#
# _framework density 19.808183
#
# number of rings (size 3 to 8) (size 9 to 14) (size 15 to 20)
#    0.000    2.000    2.857    1.714    2.000    0.571 
#    2.571    0.000    9.429    3.429    0.000    0.000 
#    0.000    0.000    0.000    0.000    0.000    0.000 
#
# Total GULP energy -77961.606512 kJ/mol
# GULP energy per Si atom -5568.686179 kJ/mol
# Density = 1.976310 g / cm^3
# Si number density = 19.808183 Si / 1000 Ang^3
#
#
#
# Elastic Constant Matrix: (Units=GPa)
#
#
# Indices 1 2 3 4 5 6 
#
# 1 186.1833 44.4743 50.9260 0.0000 -1.0010 0.0000
# 2 44.4743 47.0811 20.3663 0.0000 0.2332 0.0000
# 3 50.9260 20.3663 84.6280 0.0000 12.1218 0.0000
# 4 0.0000 0.0000 0.0000 25.0234 0.0000 0.9714
# 5 -1.0010 0.2332 12.1218 0.0000 25.0150 0.0000
# 6 0.0000 0.0000 0.0000 0.9714 0.0000 32.1085
#
#
#
# Elastic Compliance Matrix: (Units=1/GPa)
#
#
# Indices 1 2 3 4 5 6 
#
# 1 0.007738 -0.005777 -0.003565 0.000000 0.002091 0.000000
# 2 -0.005777 0.028197 -0.003480 0.000000 0.001192 0.000000
# 3 -0.003565 -0.003480 0.015920 0.000000 -0.007825 0.000000
# 4 0.000000 0.000000 0.000000 0.040010 0.000000 -0.001210
# 5 0.002091 0.001192 -0.007825 0.000000 0.043840 0.000000
# 6 0.000000 0.000000 0.000000 -0.001210 0.000000 0.031181
#
#
# Mechanical properties :
#
#
# Convention : Reuss Voigt Hill
#
# Bulk Modulus (GPa) = 38.15433 61.04729 49.60081
# Shear Modulus (GPa) = 24.84262 29.90444 27.37353
#
# Velocity S-wave (km/s) = 3.54525 3.88970 3.72147
# Velocity P-wave (km/s) = 6.00518 7.14557 6.60005
#
# Compressibility (1/GPa) = 0.02620935
#
# Stress axis : x y z
#
# Youngs Moduli (GPa) = 129.24004 35.46508 62.81312
#
# Poissons Ratio (x) = 0.20489 0.22395
# Poissons Ratio (y) = 0.74664 0.21859
# Poissons Ratio (z) = 0.46079 0.12342
#
# Static dielectric constant tensor:
#      x y z
#    x 1.752130 0.000000 -0.014410 
#    y 0.000000 1.706660 0.000000 
#    z -0.014410 0.000000 1.755760 
# 
# From -- ./inp_files/54470.got.cif
#   From: 2010.05.17/outbox.cif.g08.bks.cpg/sg5_28_cif.got.tgz:54470.got - 2010.06.03 18:56:24.
