data_PCOD9121039
_publ_section_title
;
Structure prediction by ZEFSAII (Michael W. Deem and Ramdas Pophale) SiO2 
 PCOD9121039
Probable space group: C 2
;
_chemical_formula_sum "Si O2"
_cell_formula_units_Z 28
_cell_length_a 14.723551
_cell_length_b 6.939608
_cell_length_c 14.952563
_cell_angle_alpha 90.000000
_cell_angle_beta 46.735541
_cell_angle_gamma 90.000000
_cell_volume 1112.532350
_symmetry_space_group_name_H-M "C 2"
_symmetry_group_IT_number 5
_symmetry_cell_setting 'monoclinic'
loop_
_space_group_symop_operation_xyz
x,y,z
-x,y,-z
1/2+x,1/2+y,z
1/2-x,1/2+y,-z
loop_
_atom_site_type_symbol
_atom_site_label
_atom_site_fract_x
_atom_site_fract_y
_atom_site_fract_z
Si Si1 0.899711 0.809310 0.495001
Si Si2 0.625883 0.742988 0.203555
Si Si3 0.863033 0.347970 0.110478
Si Si4 0.060957 0.705192 0.731262
Si Si5 0.705723 0.147089 0.061942
Si Si6 0.622193 0.744657 0.711961
Si Si7 0.293681 0.657190 0.668314
O O1 0.950256 0.769709 0.363040
O O2 0.763783 0.709833 0.588772
O O3 0.000000 0.738979 0.500000
O O4 0.869323 0.030645 0.545244
O O5 0.491642 0.660555 0.266306
O O6 0.629586 0.765865 0.307666
O O7 0.661656 0.949754 0.137643
O O8 0.725842 0.620509 0.078449
O O9 0.799498 0.244608 0.069644
O O10 0.890989 0.202727 0.174045
O O11 0.770820 0.496659 0.222419
O O12 0.000000 0.436557 0.000000
O O13 0.094558 0.475368 0.714098
O O14 0.185414 0.782575 0.695556
O O15 0.928277 0.745923 0.865745
#
# Coordination Sequence:
#
# PCOD9121039 Si02
#       7
#     4   4   4   4   4   4   4
#     4  10  20  40  66  89 119 163 218 266 319 385
#     4  11  23  40  62  97 134 171 218 261 328 384
#     4  10  18  38  63  90 126 169 207 256 324 374
#     4   9  20  40  60  89 123 167 211 261 327 373
#     4  11  22  39  63  93 135 175 213 263 320 393
#     4   9  21  38  61  91 128 165 208 265 324 375
#     4  10  24  39  65  94 125 172 210 275 319 384
#
# _framework density 25.167805999999999
#
# number of rings (size 3 to 8) (size 9 to 14) (size 15 to 20)
#    0.000    2.286    1.429    2.571    4.000    2.286 
#    2.571   12.857    0.000    0.000    0.000    0.000 
#    0.000    0.000    0.000    0.000    0.000    0.000 
#
# Total GULP energy -78174.406912 kJ/mol
# GULP energy per Si atom -5583.886208 kJ/mol
# Density = 2.511052 g / cm^3
# Si number density = 25.167806 Si / 1000 Ang^3
#
#
#
# Elastic Constant Matrix: (Units=GPa)
#
#
# Indices 1 2 3 4 5 6 
#
# 1 195.8579 5.7034 57.4859 0.0000 11.4224 0.0000
# 2 5.7034 63.8175 1.5304 0.0000 5.0944 0.0000
# 3 57.4859 1.5304 101.0321 0.0000 -2.7433 0.0000
# 4 0.0000 0.0000 0.0000 28.9326 0.0000 12.4339
# 5 11.4224 5.0944 -2.7433 0.0000 62.8759 0.0000
# 6 0.0000 0.0000 0.0000 12.4339 0.0000 9.8764
#
#
#
# Elastic Compliance Matrix: (Units=1/GPa)
#
#
# Indices 1 2 3 4 5 6 
#
# 1 0.006241 -0.000371 -0.003579 0.000000 -0.001260 0.000000
# 2 -0.000371 0.015801 -0.000061 0.000000 -0.001215 0.000000
# 3 -0.003579 -0.000061 0.011967 0.000000 0.001177 0.000000
# 4 0.000000 0.000000 0.000000 0.075307 0.000000 -0.094807
# 5 -0.001260 -0.001215 0.001177 0.000000 0.016283 0.000000
# 6 0.000000 0.000000 0.000000 -0.094807 0.000000 0.220609
#
#
# Mechanical properties :
#
#
# Convention : Reuss Voigt Hill
#
# Bulk Modulus (GPa) = 38.48266 54.46077 46.47172
# Shear Modulus (GPa) = 13.77815 40.06950 26.92383
#
# Velocity S-wave (km/s) = 2.34231 3.99443 3.27429
# Velocity P-wave (km/s) = 4.75803 6.55439 5.72708
#
# Compressibility (1/GPa) = 0.02598573
#
# Stress axis : x y z
#
# Youngs Moduli (GPa) = 160.24070 63.28569 83.56048
#
# Poissons Ratio (x) = 0.02350 0.29910
# Poissons Ratio (y) = 0.05950 0.00510
# Poissons Ratio (z) = 0.57357 0.00387
#
# Static dielectric constant tensor:
#      x y z
#    x 2.119620 0.000000 -0.066750 
#    y 0.000000 2.227550 0.000000 
#    z -0.066750 0.000000 2.000920 
# 
# From -- ./inp_files/54126.got.cif
#   From: 2010.05.17/outbox.cif.g08.bks.cpg/sg5_28_cif.got.tgz:54126.got - 2010.06.03 18:56:24.
