data_PCOD9121122
_publ_section_title
;
Structure prediction by ZEFSAII (Michael W. Deem and Ramdas Pophale) SiO2 
 PCOD9121122
Probable space group: C 2
;
_chemical_formula_sum "Si O2"
_cell_formula_units_Z 24
_cell_length_a 7.030486
_cell_length_b 12.201231
_cell_length_c 9.705479
_cell_angle_alpha 90.000000
_cell_angle_beta 86.945430
_cell_angle_gamma 90.000000
_cell_volume 831.358809
_symmetry_space_group_name_H-M "C 2"
_symmetry_group_IT_number 5
_symmetry_cell_setting 'monoclinic'
loop_
_space_group_symop_operation_xyz
x,y,z
-x,y,-z
1/2+x,1/2+y,z
1/2-x,1/2+y,-z
loop_
_atom_site_type_symbol
_atom_site_label
_atom_site_fract_x
_atom_site_fract_y
_atom_site_fract_z
Si Si1 0.334153 0.315380 0.835487
Si Si2 0.720753 0.498708 0.508309
Si Si3 0.000000 0.188698 0.000000
Si Si4 0.000000 0.539369 0.000000
Si Si5 0.085249 0.285977 0.623258
Si Si6 0.741557 0.906790 0.203541
Si Si7 0.764762 0.071698 0.781643
O O1 0.268240 0.247932 0.701834
O O2 0.258247 0.439782 0.805443
O O3 0.188871 0.259271 0.951456
O O4 0.442394 0.346905 0.165318
O O5 0.500000 0.474816 0.500000
O O6 0.831848 0.390595 0.458680
O O7 0.746138 0.495880 0.672141
O O8 0.766713 0.582659 0.380710
O O9 0.059285 0.115496 0.132018
O O10 0.085711 0.612425 0.875723
O O11 0.842325 0.469516 0.924417
O O12 0.000000 0.216369 0.500000
O O13 0.914158 0.319074 0.733574
#
# Coordination Sequence:
#
# PCOD9121122 Si02
#       7
#     4   4   2   2   4   4   4
#     4  11  23  48  78 111 171 233 269 371 432 507
#     4  10  18  39  73 119 156 226 281 345 436 514
#     4  12  29  52  79 136 172 228 307 350 447 540
#     4  12  23  42  73 128 164 220 285 352 429 512
#     4   9  19  36  66 115 154 208 288 339 414 522
#     4  11  21  39  75 120 160 222 294 333 447 519
#     4  11  24  47  75 121 171 214 290 358 423 523
#
# _framework density 28.868400000000001
#
# number of rings (size 3 to 8) (size 9 to 14) (size 15 to 20)
#    0.000    1.333    6.667    1.500    0.000    0.000 
#    3.000    0.833    0.000    0.000   13.000    2.333 
#    0.000    0.000    0.000    0.000    0.000    0.000 
#
# Total GULP energy -66978.154590 kJ/mol
# GULP energy per Si atom -5581.512882 kJ/mol
# Density = 2.880269 g / cm^3
# Si number density = 28.868400 Si / 1000 Ang^3
#
#
#
# Elastic Constant Matrix: (Units=GPa)
#
#
# Indices 1 2 3 4 5 6 
#
# 1 214.9808 27.8831 77.2862 0.0000 -7.2699 0.0000
# 2 27.8831 116.3821 57.4871 0.0000 -2.7072 0.0000
# 3 77.2862 57.4871 259.2450 0.0000 22.4496 0.0000
# 4 0.0000 0.0000 0.0000 -4.3877 0.0000 -17.4109
# 5 -7.2699 -2.7072 22.4496 0.0000 73.7035 0.0000
# 6 0.0000 0.0000 0.0000 -17.4109 0.0000 32.5265
#
#
#
# Elastic Compliance Matrix: (Units=1/GPa)
#
#
# Indices 1 2 3 4 5 6 
#
# 1 0.005308 -0.000478 -0.001562 0.000000 0.000982 0.000000
# 2 -0.000478 0.009770 -0.002107 0.000000 0.000953 0.000000
# 3 -0.001562 -0.002107 0.004940 0.000000 -0.001736 0.000000
# 4 0.000000 0.000000 0.000000 -0.072953 0.000000 -0.039051
# 5 0.000982 0.000953 -0.001736 0.000000 0.014229 0.000000
# 6 0.000000 0.000000 0.000000 -0.039051 0.000000 0.009841
#
#
# Mechanical properties :
#
#
# Convention : Reuss Voigt Hill
#
# Bulk Modulus (GPa) = 85.27606 101.76895 93.52251
# Shear Modulus (GPa) = -300.02565 48.89855 -125.56355
#
# Velocity S-wave (km/s) = -10.20560 4.12010 -6.60224
# Velocity P-wave (km/s) = 10.45317 7.61333 5.06487
#
# Compressibility (1/GPa) = 0.01172662
#
# Stress axis : x y z
#
# Youngs Moduli (GPa) = 188.39126 102.35914 202.41413
#
# Poissons Ratio (x) = 0.04888 0.31608
# Poissons Ratio (y) = 0.08997 0.42640
# Poissons Ratio (z) = 0.29419 0.21563
#
# Static dielectric constant tensor:
#      x y z
#    x 2.288320 0.000000 -0.071120 
#    y 0.000000 2.349570 0.000000 
#    z -0.071120 0.000000 2.579540 
# 
# From -- ./inp_files/15105.got.cif
#   From: 2010.05.17/outbox.cif.g08.bks.cpg/sg5_8_cif.got.tgz:15105.got - 2010.06.03 18:56:24.
