data_PCOD9121376
_publ_section_title
;
Structure prediction by ZEFSAII (Michael W. Deem and Ramdas Pophale) SiO2 
 PCOD9121376
Probable space group: C 2
;
_chemical_formula_sum "Si O2"
_cell_formula_units_Z 30
_cell_length_a 17.187275
_cell_length_b 18.802533
_cell_length_c 5.035958
_cell_angle_alpha 90.000000
_cell_angle_beta 114.901131
_cell_angle_gamma 90.000000
_cell_volume 1476.147880
_symmetry_space_group_name_H-M "C 2"
_symmetry_group_IT_number 5
_symmetry_cell_setting 'monoclinic'
loop_
_space_group_symop_operation_xyz
x,y,z
-x,y,-z
1/2+x,1/2+y,z
1/2-x,1/2+y,-z
loop_
_atom_site_type_symbol
_atom_site_label
_atom_site_fract_x
_atom_site_fract_y
_atom_site_fract_z
Si Si1 0.232116 0.841330 0.769480
Si Si2 0.413800 0.671757 0.250148
Si Si3 0.682294 0.144811 0.354044
Si Si4 0.000000 0.882460 0.000000
Si Si5 0.071577 0.751308 0.415232
Si Si6 0.246931 0.573809 0.958195
Si Si7 0.148869 0.240748 0.353965
Si Si8 0.687591 0.427837 0.198354
O O1 0.160946 0.778249 0.671234
O O2 0.316918 0.809079 0.755520
O O3 0.205339 0.904859 0.528127
O O4 0.230379 0.869038 0.066512
O O5 0.500000 0.639372 0.500000
O O6 0.336260 0.615165 0.141523
O O7 0.396290 0.738333 0.425818
O O8 0.409116 0.699020 0.942666
O O9 0.600982 0.197159 0.227526
O O10 0.694610 0.082768 0.156651
O O11 0.765339 0.195754 0.457609
O O12 0.688932 0.113357 0.657467
O O13 0.967556 0.825988 0.736877
O O14 0.916384 0.925180 0.975702
O O15 0.000000 0.718351 0.500000
O O16 0.273909 0.500400 0.859124
#
# Coordination Sequence:
#
# PCOD9121376 Si02
#       8
#     4   4   4   2   4   4   4   4
#     4  10  20  34  55  80 109 148 176 226 277 340
#     4  10  19  34  52  79 107 141 181 232 271 320
#     4   9  20  34  55  73 108 149 190 231 265 322
#     4  10  22  34  52  90 118 148 176 234 290 352
#     4  10  19  33  55  84 117 139 182 236 295 330
#     4  10  21  38  50  78 109 158 192 213 260 333
#     4   9  18  33  53  76 106 135 183 230 282 320
#     4  11  21  36  53  78 117 149 189 213 269 347
#
# _framework density 20.323164999999999
#
# number of rings (size 3 to 8) (size 9 to 14) (size 15 to 20)
#    0.000    2.133    1.333    2.000    1.867    3.200 
#   12.000    0.000    0.000    0.000    0.000   14.000 
#    0.000    0.000    0.000    0.000    0.000    0.000 
#
# Total GULP energy -83515.698228 kJ/mol
# GULP energy per Si atom -5567.713215 kJ/mol
# Density = 2.027691 g / cm^3
# Si number density = 20.323165 Si / 1000 Ang^3
#
#
#
# Elastic Constant Matrix: (Units=GPa)
#
#
# Indices 1 2 3 4 5 6 
#
# 1 66.8405 19.5093 17.3165 0.0000 -17.0676 0.0000
# 2 19.5093 51.6353 0.2780 0.0000 -1.0672 0.0000
# 3 17.3165 0.2780 58.8775 0.0000 -13.8564 0.0000
# 4 0.0000 0.0000 0.0000 19.2921 0.0000 -8.6814
# 5 -17.0676 -1.0672 -13.8564 0.0000 21.6579 0.0000
# 6 0.0000 0.0000 0.0000 -8.6814 0.0000 27.4443
#
#
#
# Elastic Compliance Matrix: (Units=1/GPa)
#
#
# Indices 1 2 3 4 5 6 
#
# 1 0.021845 -0.007928 -0.002858 0.000000 0.014995 0.000000
# 2 -0.007928 0.022265 0.001194 0.000000 -0.004387 0.000000
# 3 -0.002858 0.001194 0.020370 0.000000 0.010839 0.000000
# 4 0.000000 0.000000 0.000000 0.060438 0.000000 0.019118
# 5 0.014995 -0.004387 0.010839 0.000000 0.064708 0.000000
# 6 0.000000 0.000000 0.000000 0.019118 0.000000 0.042485
#
#
# Mechanical properties :
#
#
# Convention : Reuss Voigt Hill
#
# Bulk Modulus (GPa) = 22.07719 27.95119 25.01419
# Shear Modulus (GPa) = 18.76920 23.02882 20.89901
#
# Velocity S-wave (km/s) = 3.04227 3.36985 3.21024
# Velocity P-wave (km/s) = 4.81946 5.37814 5.10645
#
# Compressibility (1/GPa) = 0.04529562
#
# Stress axis : x y z
#
# Youngs Moduli (GPa) = 45.77791 44.91352 49.09113
#
# Poissons Ratio (x) = 0.35608 0.14031
# Poissons Ratio (y) = 0.36294 -0.05863
# Poissons Ratio (z) = 0.13084 -0.05364
#
# Static dielectric constant tensor:
#      x y z
#    x 1.772820 0.000000 0.026290 
#    y 0.000000 1.754680 0.000000 
#    z 0.026290 0.000000 1.852430 
# 
# From -- ./inp_files/7322.got.cif
#   From: 2010.05.17/outbox.cif.g08.bks.cpg/sg5_4_cif.got.tgz:7322.got - 2010.06.03 18:56:24.
