data_PCOD9121834
_publ_section_title
;
Structure prediction by ZEFSAII (Michael W. Deem and Ramdas Pophale) SiO2 
 PCOD9121834
Probable space group: C 2
;
_chemical_formula_sum "Si O2"
_cell_formula_units_Z 28
_cell_length_a 18.127842
_cell_length_b 8.515723
_cell_length_c 20.507938
_cell_angle_alpha 90.000000
_cell_angle_beta 23.124862
_cell_angle_gamma 90.000000
_cell_volume 1243.341920
_symmetry_space_group_name_H-M "C 2"
_symmetry_group_IT_number 5
_symmetry_cell_setting 'monoclinic'
loop_
_space_group_symop_operation_xyz
x,y,z
-x,y,-z
1/2+x,1/2+y,z
1/2-x,1/2+y,-z
loop_
_atom_site_type_symbol
_atom_site_label
_atom_site_fract_x
_atom_site_fract_y
_atom_site_fract_z
Si Si1 0.834614 0.026850 0.774175
Si Si2 0.545323 0.781018 0.055546
Si Si3 0.560506 0.771172 0.198943
Si Si4 0.285623 0.319770 0.200946
Si Si5 0.355791 0.263637 0.465320
Si Si6 0.840167 0.534860 0.805169
Si Si7 0.211321 0.593749 0.349213
O O1 0.884741 0.126521 0.799098
O O2 0.793225 0.144339 0.747439
O O3 0.008391 0.905874 0.622275
O O4 0.642773 0.934728 0.948366
O O5 0.572168 0.762198 0.111810
O O6 0.331207 0.733996 0.218263
O O7 0.664021 0.639048 0.930433
O O8 0.346956 0.819282 0.394417
O O9 0.694406 0.915429 0.108789
O O10 0.144930 0.422315 0.269469
O O11 0.281825 0.420299 0.270951
O O12 0.500000 0.319556 0.000000
O O13 0.495232 0.155641 0.309981
O O14 0.290600 0.139839 0.573734
O O15 0.000000 0.609587 0.500000
#
# Coordination Sequence:
#
# PCOD9121834 Si02
#       7
#     4   4   4   4   4   4   4
#     4  10  23  40  63  99 126 161 211 268 308 362
#     4  10  21  38  63  91 122 162 211 257 309 373
#     4  10  20  36  63  92 128 159 203 255 318 372
#     4  11  22  41  63  87 121 164 219 255 313 367
#     4  10  21  38  63  92 125 163 204 254 316 371
#     4  10  19  36  63  83 120 166 202 248 310 381
#     4  11  22  39  65  87 120 170 214 248 310 387
#
# _framework density 22.519952
#
# number of rings (size 3 to 8) (size 9 to 14) (size 15 to 20)
#    0.000    1.714    2.857    1.714    0.000    1.143 
#    0.000    3.571    6.286    0.000    0.000    0.000 
#    0.000    0.000    0.000    0.000    0.000    0.000 
#
# Total GULP energy -77976.159314 kJ/mol
# GULP energy per Si atom -5569.725665 kJ/mol
# Density = 2.246870 g / cm^3
# Si number density = 22.519952 Si / 1000 Ang^3
#
#
#
# Elastic Constant Matrix: (Units=GPa)
#
#
# Indices 1 2 3 4 5 6 
#
# 1 61.0158 25.2656 3.3646 -0.0002 9.1307 -0.0001
# 2 25.2656 133.4156 45.7319 -0.0007 -0.9123 0.0002
# 3 3.3646 45.7319 93.2793 -0.0033 -18.0057 0.0005
# 4 -0.0002 -0.0007 -0.0033 22.8687 0.0008 -4.1864
# 5 9.1307 -0.9123 -18.0057 0.0008 28.5799 0.0002
# 6 -0.0001 0.0002 0.0005 -4.1864 0.0002 32.7208
#
#
#
# Elastic Compliance Matrix: (Units=1/GPa)
#
#
# Indices 1 2 3 4 5 6 
#
# 1 0.018797 -0.003557 -0.000131 0.000000 -0.006202 0.000000
# 2 -0.003557 0.009890 -0.005055 0.000000 -0.001732 0.000000
# 3 -0.000131 -0.005055 0.015005 0.000002 0.009334 0.000000
# 4 0.000000 0.000000 0.000002 0.044777 0.000000 0.005729
# 5 -0.006202 -0.001732 0.009334 0.000000 0.042796 0.000000
# 6 0.000000 0.000000 0.000000 0.005729 0.000000 0.031295
#
#
# Mechanical properties :
#
#
# Convention : Reuss Voigt Hill
#
# Bulk Modulus (GPa) = 38.15889 48.49276 43.32582
# Shear Modulus (GPa) = 26.48565 31.05713 28.77139
#
# Velocity S-wave (km/s) = 3.43315 3.71764 3.57822
# Velocity P-wave (km/s) = 5.71809 6.32517 6.02928
#
# Compressibility (1/GPa) = 0.02620622
#
# Stress axis : x y z
#
# Youngs Moduli (GPa) = 53.19866 101.11378 66.64370
#
# Poissons Ratio (x) = 0.35969 0.00874
# Poissons Ratio (y) = 0.18924 0.33687
# Poissons Ratio (z) = 0.00697 0.51111
#
# Static dielectric constant tensor:
#      x y z
#    x 2.088360 0.000000 -0.029260 
#    y 0.000000 1.855100 0.000000 
#    z -0.029260 0.000000 1.893180 
# 
# From -- ./inp_files/69420.got.cif
#   From: 2010.05.17/outbox.cif.g08.bks.cpg/sg5_35_cif.got.tgz:69420.got - 2010.06.03 18:56:24.
