data_PCOD9121098
_publ_section_title
;
Structure prediction by ZEFSAII (Michael W. Deem and Ramdas Pophale) SiO2 
 PCOD9121098
Probable space group: C 2
;
_chemical_formula_sum "Si O2"
_cell_formula_units_Z 28
_cell_length_a 20.297627
_cell_length_b 11.605865
_cell_length_c 17.055345
_cell_angle_alpha 90.000000
_cell_angle_beta 19.191718
_cell_angle_gamma 90.000000
_cell_volume 1320.756660
_symmetry_space_group_name_H-M "C 2"
_symmetry_group_IT_number 5
_symmetry_cell_setting 'monoclinic'
loop_
_space_group_symop_operation_xyz
x,y,z
-x,y,-z
1/2+x,1/2+y,z
1/2-x,1/2+y,-z
loop_
_atom_site_type_symbol
_atom_site_label
_atom_site_fract_x
_atom_site_fract_y
_atom_site_fract_z
Si Si1 0.809116 0.648540 0.840702
Si Si2 0.147065 0.393216 0.188063
Si Si3 0.882268 0.480722 0.949565
Si Si4 0.417289 0.695478 0.392586
Si Si5 0.984807 0.729270 0.242403
Si Si6 0.159060 0.312184 0.877130
Si Si7 0.432480 0.504149 0.493394
O O1 0.846016 0.515509 0.777017
O O2 0.984506 0.696831 0.700354
O O3 0.773029 0.724630 0.805163
O O4 0.608926 0.660398 0.122089
O O5 0.997782 0.286243 0.367355
O O6 0.068190 0.431188 0.190533
O O7 0.368442 0.336656 0.938534
O O8 0.959106 0.401332 0.932795
O O9 0.643390 0.464998 0.221558
O O10 0.932171 0.614872 0.895338
O O11 0.343982 0.587339 0.526988
O O12 0.239472 0.741179 0.537286
O O13 0.301773 0.396018 0.666966
O O14 0.000000 0.251929 0.000000
O O15 0.500000 0.563292 0.500000
#
# Coordination Sequence:
#
# PCOD9121098 Si02
#       7
#     4   4   4   4   4   4   4
#     4  10  22  41  59  94 139 175 209 272 332 390
#     4  10  19  37  63  87 132 164 219 265 326 372
#     4  10  18  39  58  94 126 167 204 282 315 383
#     4  11  20  38  65  97 123 176 227 270 322 390
#     4  10  20  34  65  93 126 162 230 270 319 376
#     4  11  22  38  62  96 134 170 217 271 330 398
#     4  10  21  37  65  93 130 165 216 270 338 372
#
# _framework density 21.199968999999999
#
# number of rings (size 3 to 8) (size 9 to 14) (size 15 to 20)
#    0.000    1.714    7.143    0.857    0.000    3.429 
#    2.571    0.000    3.143    0.000    0.000    0.000 
#    0.000    0.000    0.000    0.000    0.000    0.000 
#
# Total GULP energy -78040.972702 kJ/mol
# GULP energy per Si atom -5574.355193 kJ/mol
# Density = 2.115172 g / cm^3
# Si number density = 21.199969 Si / 1000 Ang^3
#
#
#
# Elastic Constant Matrix: (Units=GPa)
#
#
# Indices 1 2 3 4 5 6 
#
# 1 105.2792 41.3762 40.6133 0.0007 -32.0932 -0.0002
# 2 41.3762 120.6660 26.6849 0.0031 -5.0010 -0.0011
# 3 40.6133 26.6849 47.9581 0.0039 -17.5321 -0.0010
# 4 0.0007 0.0031 0.0039 18.8716 -0.0011 4.9679
# 5 -32.0932 -5.0010 -17.5321 -0.0011 35.4418 0.0002
# 6 -0.0002 -0.0011 -0.0010 4.9679 0.0002 36.1357
#
#
#
# Elastic Compliance Matrix: (Units=1/GPa)
#
#
# Indices 1 2 3 4 5 6 
#
# 1 0.017794 -0.003660 -0.008949 0.000003 0.011169 -0.000001
# 2 -0.003660 0.010273 -0.004027 -0.000001 -0.003856 0.000000
# 3 -0.008949 -0.004027 0.033572 -0.000006 0.007935 0.000002
# 4 0.000003 -0.000001 -0.000006 0.054980 0.000001 -0.007559
# 5 0.011169 -0.003856 0.007935 0.000001 0.041710 0.000000
# 6 -0.000001 0.000000 0.000002 -0.007559 0.000000 0.028713
#
#
# Mechanical properties :
#
#
# Convention : Reuss Voigt Hill
#
# Bulk Modulus (GPa) = 35.25177 54.58357 44.91767
# Shear Modulus (GPa) = 21.76105 29.10507 25.43306
#
# Velocity S-wave (km/s) = 3.20733 3.70926 3.46739
# Velocity P-wave (km/s) = 5.51183 6.64438 6.10442
#
# Compressibility (1/GPa) = 0.02836737
#
# Stress axis : x y z
#
# Youngs Moduli (GPa) = 56.19842 97.34403 29.78697
#
# Poissons Ratio (x) = 0.35623 0.26658
# Poissons Ratio (y) = 0.20566 0.11994
# Poissons Ratio (z) = 0.50295 0.39197
#
# Static dielectric constant tensor:
#      x y z
#    x 1.814040 0.000000 0.015180 
#    y 0.000000 1.847520 0.000000 
#    z 0.015180 0.000000 1.803690 
# 
# From -- ./inp_files/62871.got.cif
#   From: 2010.05.17/outbox.cif.g08.bks.cpg/sg5_32_cif.got.tgz:62871.got - 2010.06.03 18:56:24.
