data_PCOD9121083
_publ_section_title
;
Structure prediction by ZEFSAII (Michael W. Deem and Ramdas Pophale) SiO2 
 PCOD9121083
Probable space group: C 2
;
_chemical_formula_sum "Si O2"
_cell_formula_units_Z 30
_cell_length_a 21.240515
_cell_length_b 11.077313
_cell_length_c 11.916048
_cell_angle_alpha 90.000000
_cell_angle_beta 28.013938
_cell_angle_gamma 90.000000
_cell_volume 1316.860108
_symmetry_space_group_name_H-M "C 2"
_symmetry_group_IT_number 5
_symmetry_cell_setting 'monoclinic'
loop_
_space_group_symop_operation_xyz
x,y,z
-x,y,-z
1/2+x,1/2+y,z
1/2-x,1/2+y,-z
loop_
_atom_site_type_symbol
_atom_site_label
_atom_site_fract_x
_atom_site_fract_y
_atom_site_fract_z
Si Si1 0.371853 0.851490 0.623639
Si Si2 0.956515 0.116180 0.954338
Si Si3 0.253035 0.598365 0.817656
Si Si4 0.500000 0.201532 0.500000
Si Si5 0.027255 0.734203 0.704441
Si Si6 0.774160 0.057143 0.042578
Si Si7 0.795554 0.504314 0.544465
Si Si8 0.683481 0.466323 0.500778
O O1 0.500000 0.865334 0.500000
O O2 0.345651 0.712284 0.643933
O O3 0.247351 0.919182 0.882255
O O4 0.381384 0.921023 0.491657
O O5 0.869612 0.134238 0.975850
O O6 0.857535 0.014880 0.167969
O O7 0.096791 0.079296 0.679434
O O8 0.000000 0.189500 0.000000
O O9 0.266396 0.494835 0.703056
O O10 0.296887 0.558907 0.873852
O O11 0.104946 0.659959 0.051817
O O12 0.510089 0.269537 0.600855
O O13 0.629653 0.117737 0.287003
O O14 0.146314 0.638022 0.533778
O O15 0.080803 0.855524 0.675462
O O16 0.797516 0.456993 0.415169
#
# Coordination Sequence:
#
# PCOD9121083 Si02
#       8
#     4   4   4   2   4   4   4   4
#     4  11  21  42  67  94 135 181 234 295 349 421
#     4   9  19  39  65  90 131 180 225 280 342 416
#     4  11  27  40  67 112 138 184 235 294 364 428
#     4  10  18  38  68  94 124 184 238 270 350 428
#     4  11  22  44  72  95 137 187 224 297 353 414
#     4  10  19  40  65  95 133 177 237 286 348 428
#     4  10  22  44  72  94 129 192 238 280 363 429
#     4  11  26  43  65 106 145 179 236 291 349 441
#
# _framework density 22.781462000000001
#
# number of rings (size 3 to 8) (size 9 to 14) (size 15 to 20)
#    0.000    1.600    3.333    2.400    3.733    3.733 
#    0.000    1.333    2.933    0.000    0.000    0.000 
#    0.000    0.000    0.000    0.000    0.000    0.000 
#
# Total GULP energy -83585.699373 kJ/mol
# GULP energy per Si atom -5572.379958 kJ/mol
# Density = 2.272961 g / cm^3
# Si number density = 22.781462 Si / 1000 Ang^3
#
#
#
# Elastic Constant Matrix: (Units=GPa)
#
#
# Indices 1 2 3 4 5 6 
#
# 1 194.1446 27.5159 43.4917 0.0000 10.0248 0.0000
# 2 27.5159 40.3989 4.2176 0.0000 4.8115 0.0000
# 3 43.4917 4.2176 57.8176 0.0000 7.8161 0.0000
# 4 0.0000 0.0000 0.0000 8.7606 0.0000 -5.3902
# 5 10.0248 4.8115 7.8161 0.0000 31.9686 0.0000
# 6 0.0000 0.0000 0.0000 -5.3902 0.0000 10.2558
#
#
#
# Elastic Compliance Matrix: (Units=1/GPa)
#
#
# Indices 1 2 3 4 5 6 
#
# 1 0.006823 -0.004106 -0.004785 0.000000 -0.000352 0.000000
# 2 -0.004106 0.027781 0.001503 0.000000 -0.003261 0.000000
# 3 -0.004785 0.001503 0.021318 0.000000 -0.003938 0.000000
# 4 0.000000 0.000000 0.000000 0.168702 0.000000 0.088666
# 5 -0.000352 -0.003261 -0.003938 0.000000 0.032845 0.000000
# 6 0.000000 0.000000 0.000000 0.088666 0.000000 0.144107
#
#
# Mechanical properties :
#
#
# Convention : Reuss Voigt Hill
#
# Bulk Modulus (GPa) = 24.30399 49.20126 36.75263
# Shear Modulus (GPa) = 11.62611 24.67272 18.14942
#
# Velocity S-wave (km/s) = 2.26150 3.29449 2.82561
# Velocity P-wave (km/s) = 4.18458 6.00962 5.17814
#
# Compressibility (1/GPa) = 0.04114550
#
# Stress axis : x y z
#
# Youngs Moduli (GPa) = 146.56706 35.99580 46.90861
#
# Poissons Ratio (x) = 0.14778 0.22447
# Poissons Ratio (y) = 0.60174 -0.07049
# Poissons Ratio (z) = 0.70136 -0.05409
#
# Static dielectric constant tensor:
#      x y z
#    x 1.970910 0.000000 0.007590 
#    y 0.000000 1.851060 0.000000 
#    z 0.007590 0.000000 1.894590 
# 
# From -- ./inp_files/46472.got.cif
#   From: 2010.05.17/outbox.cif.g08.bks.cpg/sg5_24_cif.got.tgz:46472.got - 2010.06.03 18:56:24.
