data_PCOD9121730
_publ_section_title
;
Structure prediction by ZEFSAII (Michael W. Deem and Ramdas Pophale) SiO2 
 PCOD9121730
Probable space group: C 2
;
_chemical_formula_sum "Si O2"
_cell_formula_units_Z 22
_cell_length_a 8.675029
_cell_length_b 10.955942
_cell_length_c 14.156312
_cell_angle_alpha 90.000000
_cell_angle_beta 126.622648
_cell_angle_gamma 90.000000
_cell_volume 1079.841608
_symmetry_space_group_name_H-M "C 2"
_symmetry_group_IT_number 5
_symmetry_cell_setting 'monoclinic'
loop_
_space_group_symop_operation_xyz
x,y,z
-x,y,-z
1/2+x,1/2+y,z
1/2-x,1/2+y,-z
loop_
_atom_site_type_symbol
_atom_site_label
_atom_site_fract_x
_atom_site_fract_y
_atom_site_fract_z
Si Si1 0.000000 0.512280 0.000000
Si Si2 0.534864 0.932698 0.804710
Si Si3 0.241225 0.683782 0.835351
Si Si4 0.786878 0.995858 0.461590
Si Si5 0.329751 0.702436 0.075197
Si Si6 0.413923 0.254413 0.573824
O O1 0.811928 0.596903 0.943171
O O2 0.975840 0.440134 0.893449
O O3 0.352276 0.942728 0.670710
O O4 0.658196 0.809902 0.844064
O O5 0.662930 0.048875 0.827957
O O6 0.448808 0.668070 0.863324
O O7 0.087417 0.747625 0.711857
O O8 0.255342 0.744126 0.944271
O O9 0.197753 0.883795 0.457979
O O10 0.000000 0.016847 0.500000
O O11 0.705001 0.128065 0.461183
O O12 0.500000 0.255321 0.500000
#
# Coordination Sequence:
#
# PCOD9121730 Si02
#       6
#     2   4   4   4   4   4
#     4  10  22  34  56  86 106 140 184 220 276 338
#     4  10  21  37  55  81 112 142 181 227 274 329
#     4   9  20  37  55  79 113 144 179 227 277 327
#     4  10  22  38  58  83 115 148 188 236 276 324
#     4  10  19  36  57  79 109 143 177 223 278 331
#     4  10  21  39  58  83 113 150 191 229 277 331
#
# _framework density 20.373359000000001
#
# number of rings (size 3 to 8) (size 9 to 14) (size 15 to 20)
#    0.000    2.182    0.000    3.273    0.000    6.545 
#    0.000   14.545    0.000    0.000    0.000    0.000 
#    0.000    0.000    0.000    0.000    0.000    0.000 
#
# Total GULP energy -61381.670633 kJ/mol
# GULP energy per Si atom -5580.151876 kJ/mol
# Density = 2.032699 g / cm^3
# Si number density = 20.373359 Si / 1000 Ang^3
#
#
#
# Elastic Constant Matrix: (Units=GPa)
#
#
# Indices 1 2 3 4 5 6 
#
# 1 47.5515 37.8313 30.3447 0.0000 17.2412 0.0000
# 2 37.8313 74.1963 26.2547 0.0000 19.8190 0.0000
# 3 30.3447 26.2547 94.3490 0.0000 28.3123 0.0000
# 4 0.0000 0.0000 0.0000 40.4120 0.0000 6.5198
# 5 17.2412 19.8190 28.3123 0.0000 24.7929 0.0000
# 6 0.0000 0.0000 0.0000 6.5198 0.0000 22.4206
#
#
#
# Elastic Compliance Matrix: (Units=1/GPa)
#
#
# Indices 1 2 3 4 5 6 
#
# 1 0.041166 -0.016587 -0.006104 0.000000 -0.008397 0.000000
# 2 -0.016587 0.023883 0.001455 0.000000 -0.009218 0.000000
# 3 -0.006104 0.001455 0.017088 0.000000 -0.016432 0.000000
# 4 0.000000 0.000000 0.000000 0.025963 0.000000 -0.007550
# 5 -0.008397 -0.009218 -0.016432 0.000000 0.072307 0.000000
# 6 0.000000 0.000000 0.000000 -0.007550 0.000000 0.046797
#
#
# Mechanical properties :
#
#
# Convention : Reuss Voigt Hill
#
# Bulk Modulus (GPa) = 25.21138 44.99535 35.10337
# Shear Modulus (GPa) = 17.67417 25.63618 21.65517
#
# Velocity S-wave (km/s) = 2.94855 3.55113 3.26378
# Velocity P-wave (km/s) = 4.89832 6.24078 5.60985
#
# Compressibility (1/GPa) = 0.03966463
#
# Stress axis : x y z
#
# Youngs Moduli (GPa) = 24.29172 41.87162 58.51954
#
# Poissons Ratio (x) = 0.69452 0.35723
# Poissons Ratio (y) = 0.40292 -0.08515
# Poissons Ratio (z) = 0.14829 -0.06092
#
# Static dielectric constant tensor:
#      x y z
#    x 1.711720 0.000000 -0.002920 
#    y 0.000000 1.770870 0.000000 
#    z -0.002920 0.000000 1.726200 
# 
# From -- ./inp_files/50010.got.cif
#   From: 2010.05.17/outbox.cif.g08.bks.cpg/sg5_26_cif.got.tgz:50010.got - 2010.06.03 18:56:24.
