data_PCOD9121050
_publ_section_title
;
Structure prediction by ZEFSAII (Michael W. Deem and Ramdas Pophale) SiO2 
 PCOD9121050
Probable space group: C 2
;
_chemical_formula_sum "Si O2"
_cell_formula_units_Z 24
_cell_length_a 15.567205
_cell_length_b 16.548178
_cell_length_c 9.260209
_cell_angle_alpha 90.000000
_cell_angle_beta 151.647762
_cell_angle_gamma 90.000000
_cell_volume 1132.857649
_symmetry_space_group_name_H-M "C 2"
_symmetry_group_IT_number 5
_symmetry_cell_setting 'monoclinic'
loop_
_space_group_symop_operation_xyz
x,y,z
-x,y,-z
1/2+x,1/2+y,z
1/2-x,1/2+y,-z
loop_
_atom_site_type_symbol
_atom_site_label
_atom_site_fract_x
_atom_site_fract_y
_atom_site_fract_z
Si Si1 0.702762 0.670860 0.740426
Si Si2 0.847779 0.985565 0.674545
Si Si3 0.850688 0.169682 0.666884
Si Si4 0.529343 0.216212 0.389503
Si Si5 0.662647 0.394043 0.641484
Si Si6 0.046390 0.510793 0.897469
O O1 0.500000 0.662932 0.500000
O O2 0.683850 0.700414 0.546310
O O3 0.815929 0.585793 0.923908
O O4 0.834354 0.729076 0.027491
O O5 0.908214 0.076767 0.724222
O O6 0.653610 0.998787 0.462706
O O7 0.838420 0.932424 0.518465
O O8 0.000000 0.948968 0.000000
O O9 0.661188 0.173383 0.471150
O O10 0.000000 0.204731 0.000000
O O11 0.500000 0.172384 0.500000
O O12 0.631929 0.299113 0.580324
O O13 0.500000 0.425279 0.500000
O O14 0.847605 0.428292 0.978584
O O15 0.000000 0.518832 0.000000
#
# Coordination Sequence:
#
# PCOD9121050 Si02
#       6
#     4   4   4   4   4   4
#     4  12  22  39  67  96 131 179 229 278 332 398
#     4  10  21  38  62  96 130 169 225 271 327 402
#     4  11  22  39  64  96 133 171 226 278 330 396
#     4  11  24  43  62  98 138 177 222 277 339 399
#     4  10  22  41  65  91 133 173 218 271 337 398
#     4  10  18  38  64  91 125 172 222 265 328 393
#
# _framework density 21.185364
#
# number of rings (size 3 to 8) (size 9 to 14) (size 15 to 20)
#    0.000    1.333    5.000    2.000    0.000    3.333 
#    0.000    4.167    0.000    0.000    0.000    0.000 
#    0.000    0.000    0.000    0.000    0.000    0.000 
#
# Total GULP energy -66857.873697 kJ/mol
# GULP energy per Si atom -5571.489475 kJ/mol
# Density = 2.113715 g / cm^3
# Si number density = 21.185364 Si / 1000 Ang^3
#
#
#
# Elastic Constant Matrix: (Units=GPa)
#
#
# Indices 1 2 3 4 5 6 
#
# 1 125.8984 4.5700 47.2075 0.0000 13.7573 0.0000
# 2 4.5700 40.0171 -2.2324 0.0000 12.2996 0.0000
# 3 47.2075 -2.2324 158.1854 0.0000 13.9725 0.0000
# 4 0.0000 0.0000 0.0000 19.4463 0.0000 7.4483
# 5 13.7573 12.2996 13.9725 0.0000 42.0537 0.0000
# 6 0.0000 0.0000 0.0000 7.4483 0.0000 23.8976
#
#
#
# Elastic Compliance Matrix: (Units=1/GPa)
#
#
# Indices 1 2 3 4 5 6 
#
# 1 0.009140 -0.000582 -0.002562 0.000000 -0.001969 0.000000
# 2 -0.000582 0.027692 0.001301 0.000000 -0.008341 0.000000
# 3 -0.002562 0.001301 0.007278 0.000000 -0.001961 0.000000
# 4 0.000000 0.000000 0.000000 0.058395 0.000000 -0.018200
# 5 -0.001969 -0.008341 -0.001961 0.000000 0.027514 0.000000
# 6 0.000000 0.000000 0.000000 -0.018200 0.000000 0.047518
#
#
# Mechanical properties :
#
#
# Convention : Reuss Voigt Hill
#
# Bulk Modulus (GPa) = 24.73720 47.02123 35.87921
# Shear Modulus (GPa) = 25.68108 35.38324 30.53216
#
# Velocity S-wave (km/s) = 3.48546 4.09121 3.80042
# Velocity P-wave (km/s) = 5.28202 6.67538 6.01915
#
# Compressibility (1/GPa) = 0.04042495
#
# Stress axis : x y z
#
# Youngs Moduli (GPa) = 109.41196 36.11135 137.40442
#
# Poissons Ratio (x) = 0.02100 0.35202
# Poissons Ratio (y) = 0.06364 -0.17879
# Poissons Ratio (z) = 0.28030 -0.04699
#
# Static dielectric constant tensor:
#      x y z
#    x 1.775540 0.000000 -0.035370 
#    y 0.000000 1.808810 0.000000 
#    z -0.035370 0.000000 1.883420 
# 
# From -- ./inp_files/25268.got.cif
#   From: 2010.05.17/outbox.cif.g08.bks.cpg/sg5_13_cif.got.tgz:25268.got - 2010.06.03 18:56:24.
